MODEL 1
REMARK VINA RESULT:     -11.7      0.000      0.000
REMARK SMILES O=C(NCCCNC(=O)[C@@]1([NH2+]C2CC2)CCC[C@H]1CCn1ccnc1)c1ccc(-c2c3nc(c(-c4cc(S(=O)(=O)[O-])ccc4F)c4ccc([nH]4)c(-c4cc(S(=O)(=O)[O-])ccc4F)c4nc(c(-c5cc(S(=O)(=O)[O-])ccc5F)c5ccc2[nH]5)C=C4)C=C3)cc1
REMARK SMILES IDX 5 1 4 2 3 3 1 4 2 5 26 7 27 8 88 9 28 10 87 11 29 12 30 13
REMARK SMILES IDX 31 14 81 15 32 16 86 17 80 18 82 19 33 20 85 21 79 22 78 23
REMARK SMILES IDX 34 25 66 26 46 27 65 28 47 29 50 30 64 31 83 32 48 33 49 34
REMARK SMILES IDX 63 36 84 37 51 38 35 39 36 40 44 41 37 42 43 43 45 44 42 45
REMARK SMILES IDX 38 46 39 47 40 48 41 49 67 50 68 51 76 52 69 53 75 54 77 55
REMARK SMILES IDX 74 56 70 57 71 58 72 59 73 60 52 61 53 62 61 63 54 64 60 65
REMARK SMILES IDX 62 66 59 67 55 68 56 69 57 70 58 71 6 72 7 73 8 74 9 76
REMARK SMILES IDX 10 77 15 78 18 79 16 80 17 81 11 82 12 85 13 86 14 87 19 88
REMARK SMILES IDX 20 89 21 90 22 91 25 92 23 93 24 94
REMARK H PARENT 3 6 82 24 50 35 7 75 11 83 11 84
REMARK Flexibility Score: inf
ROOT
ATOM      1  C   UNL A   1      33.277  29.015  27.544  1.00  0.00     0.042 C 
ENDROOT
BRANCH   1   2
ATOM      2  C   UNL A   1      34.005  30.185  26.876  1.00  0.00     0.118 C 
BRANCH   2   3
ATOM      3  N   UNL A   1      34.372  31.271  27.764  1.00  0.00    -0.352 N 
ATOM      4  O   UNL A   1      35.371  32.692  29.099  1.00  0.00    -0.269 OA
ATOM      5  C   UNL A   1      35.463  31.610  28.510  1.00  0.00     0.251 C 
ATOM      6  H   UNL A   1      33.649  31.932  27.851  1.00  0.00     0.163 HD
BRANCH   5   7
ATOM      7  C   UNL A   1      36.689  30.788  28.709  1.00  0.00     0.039 A 
ATOM      8  C   UNL A   1      36.816  29.417  28.483  1.00  0.00     0.014 A 
ATOM      9  C   UNL A   1      37.802  31.488  29.215  1.00  0.00     0.014 A 
ATOM     10  C   UNL A   1      37.985  28.746  28.852  1.00  0.00     0.010 A 
ATOM     11  C   UNL A   1      38.975  30.830  29.561  1.00  0.00     0.010 A 
ATOM     12  C   UNL A   1      39.053  29.447  29.423  1.00  0.00    -0.014 A 
BRANCH  12  13
ATOM     13  C   UNL A   1      40.318  28.755  29.690  1.00  0.00     0.031 A 
ATOM     14  C   UNL A   1      40.652  28.633  31.142  1.00  0.00     0.074 A 
ATOM     15  C   UNL A   1      41.011  28.086  28.743  1.00  0.00     0.049 A 
ATOM     16  N   UNL A   1      41.703  29.050  31.769  1.00  0.00    -0.248 NA
ATOM     17  C   UNL A   1      39.616  28.081  32.034  1.00  0.00     0.031 C 
ATOM     18  C   UNL A   1      40.641  27.881  27.340  1.00  0.00     0.029 A 
ATOM     19  N   UNL A   1      42.144  27.332  28.865  1.00  0.00    -0.354 N 
ATOM     20  C   UNL A   1      41.562  28.623  33.091  1.00  0.00     0.074 A 
ATOM     21  C   UNL A   1      40.194  28.206  33.228  1.00  0.00     0.031 C 
ATOM     22  C   UNL A   1      41.385  26.879  26.819  1.00  0.00     0.029 A 
ATOM     23  C   UNL A   1      42.368  26.453  27.803  1.00  0.00     0.049 A 
ATOM     24  H   UNL A   1      42.751  27.402  29.636  1.00  0.00     0.167 HD
ATOM     25  C   UNL A   1      42.638  28.436  33.905  1.00  0.00     0.034 A 
ATOM     26  C   UNL A   1      43.242  25.407  27.759  1.00  0.00     0.034 A 
ATOM     27  C   UNL A   1      43.797  29.141  33.409  1.00  0.00     0.049 A 
ATOM     28  C   UNL A   1      44.260  25.652  28.811  1.00  0.00     0.074 A 
ATOM     29  C   UNL A   1      44.083  30.465  33.137  1.00  0.00     0.029 A 
ATOM     30  N   UNL A   1      44.774  28.419  32.760  1.00  0.00    -0.354 N 
ATOM     31  N   UNL A   1      45.095  26.654  28.775  1.00  0.00    -0.248 NA
ATOM     32  C   UNL A   1      44.023  25.089  30.132  1.00  0.00     0.031 C 
ATOM     33  C   UNL A   1      44.852  30.430  31.936  1.00  0.00     0.029 A 
ATOM     34  C   UNL A   1      45.056  29.092  31.596  1.00  0.00     0.049 A 
ATOM     35  H   UNL A   1      45.189  27.583  33.070  1.00  0.00     0.167 HD
ATOM     36  C   UNL A   1      45.141  27.127  30.078  1.00  0.00     0.074 A 
ATOM     37  C   UNL A   1      44.535  26.069  30.885  1.00  0.00     0.031 C 
ATOM     38  C   UNL A   1      45.402  28.440  30.349  1.00  0.00     0.034 A 
BRANCH  25  39
ATOM     39  C   UNL A   1      42.754  27.333  34.941  1.00  0.00     0.023 A 
ATOM     40  C   UNL A   1      43.529  26.206  34.598  1.00  0.00     0.031 A 
ATOM     41  C   UNL A   1      41.927  27.180  36.077  1.00  0.00     0.131 A 
ATOM     42  C   UNL A   1      43.372  24.984  35.276  1.00  0.00     0.055 A 
ATOM     43  C   UNL A   1      41.827  25.982  36.791  1.00  0.00     0.041 A 
ATOM     44  F   UNL A   1      41.101  28.139  36.510  1.00  0.00    -0.206 F 
ATOM     45  C   UNL A   1      42.521  24.863  36.370  1.00  0.00     0.022 A 
BRANCH  42  46
ATOM     46  S   UNL A   1      44.144  23.504  34.571  1.00  0.00     0.124 S 
ATOM     47  O   UNL A   1      43.051  22.952  33.778  1.00  0.00    -0.237 OA
ATOM     48  O   UNL A   1      45.258  24.076  33.822  1.00  0.00    -0.237 OA
ATOM     49  O   UNL A   1      44.518  22.724  35.748  1.00  0.00    -0.744 OA
ENDBRANCH  42  46
ENDBRANCH  25  39
BRANCH  26  50
ATOM     50  C   UNL A   1      43.015  24.070  27.125  1.00  0.00     0.023 A 
ATOM     51  C   UNL A   1      43.914  23.464  26.216  1.00  0.00     0.031 A 
ATOM     52  C   UNL A   1      41.972  23.250  27.614  1.00  0.00     0.131 A 
ATOM     53  C   UNL A   1      43.736  22.110  25.829  1.00  0.00     0.055 A 
ATOM     54  C   UNL A   1      41.801  21.920  27.229  1.00  0.00     0.041 A 
ATOM     55  F   UNL A   1      41.126  23.693  28.557  1.00  0.00    -0.206 F 
ATOM     56  C   UNL A   1      42.688  21.340  26.337  1.00  0.00     0.022 A 
BRANCH  53  57
ATOM     57  S   UNL A   1      44.922  21.287  24.708  1.00  0.00     0.124 S 
ATOM     58  O   UNL A   1      44.532  21.819  23.401  1.00  0.00    -0.237 OA
ATOM     59  O   UNL A   1      46.205  21.722  25.227  1.00  0.00    -0.237 OA
ATOM     60  O   UNL A   1      44.635  19.862  24.892  1.00  0.00    -0.744 OA
ENDBRANCH  53  57
ENDBRANCH  26  50
BRANCH  38  61
ATOM     61  C   UNL A   1      45.874  29.332  29.217  1.00  0.00     0.023 A 
ATOM     62  C   UNL A   1      45.031  30.156  28.433  1.00  0.00     0.031 A 
ATOM     63  C   UNL A   1      47.260  29.445  29.019  1.00  0.00     0.131 A 
ATOM     64  C   UNL A   1      45.589  31.040  27.486  1.00  0.00     0.055 A 
ATOM     65  C   UNL A   1      47.809  30.334  28.096  1.00  0.00     0.041 A 
ATOM     66  F   UNL A   1      48.114  28.715  29.756  1.00  0.00    -0.206 F 
ATOM     67  C   UNL A   1      46.975  31.131  27.322  1.00  0.00     0.022 A 
BRANCH  64  68
ATOM     68  S   UNL A   1      44.520  32.088  26.444  1.00  0.00     0.124 S 
ATOM     69  O   UNL A   1      44.090  33.146  27.352  1.00  0.00    -0.237 OA
ATOM     70  O   UNL A   1      45.419  32.494  25.367  1.00  0.00    -0.237 OA
ATOM     71  O   UNL A   1      43.453  31.177  26.026  1.00  0.00    -0.744 OA
ENDBRANCH  64  68
ENDBRANCH  38  61
ENDBRANCH  12  13
ENDBRANCH   5   7
ENDBRANCH   2   3
ENDBRANCH   1   2
BRANCH   1  72
ATOM     72  C   UNL A   1      31.783  28.892  27.207  1.00  0.00     0.118 C 
BRANCH  72  73
ATOM     73  N   UNL A   1      31.431  27.642  26.576  1.00  0.00    -0.351 N 
ATOM     74  C   UNL A   1      31.242  27.281  25.290  1.00  0.00     0.281 C 
ATOM     75  H   UNL A   1      31.302  26.904  27.215  1.00  0.00     0.163 HD
ATOM     76  O   UNL A   1      30.242  26.542  25.225  1.00  0.00    -0.268 OA
BRANCH  74  77
ATOM     77  C   UNL A   1      32.002  27.667  23.949  1.00  0.00     0.178 C 
ATOM     78  C   UNL A   1      33.224  28.581  23.718  1.00  0.00     0.079 C 
ATOM     79  C   UNL A   1      32.817  26.283  23.597  1.00  0.00     0.062 C 
ATOM     80  C   UNL A   1      33.861  28.080  22.387  1.00  0.00     0.008 C 
ATOM     81  C   UNL A   1      33.515  26.601  22.266  1.00  0.00     0.011 C 
BRANCH  77  82
ATOM     82  N   UNL A   1      30.971  28.009  22.925  1.00  0.00    -0.331 N 
ATOM     83  H   UNL A   1      30.267  27.272  22.971  1.00  0.00     0.347 HD
ATOM     84  H   UNL A   1      31.533  28.105  22.078  1.00  0.00     0.347 HD
BRANCH  82  85
ATOM     85  C   UNL A   1      30.228  29.297  22.952  1.00  0.00     0.183 C 
ATOM     86  C   UNL A   1      29.568  30.045  21.811  1.00  0.00     0.071 C 
ATOM     87  C   UNL A   1      28.722  29.285  22.765  1.00  0.00     0.071 C 
ENDBRANCH  82  85
ENDBRANCH  77  82
BRANCH  79  88
ATOM     88  C   UNL A   1      34.003  25.857  24.572  1.00  0.00     0.032 C 
BRANCH  88  89
ATOM     89  C   UNL A   1      33.979  24.539  25.356  1.00  0.00     0.123 C 
BRANCH  89  90
ATOM     90  N   UNL A   1      32.682  24.045  25.762  1.00  0.00    -0.337 N 
ATOM     91  C   UNL A   1      31.795  23.395  24.946  1.00  0.00     0.107 A 
ATOM     92  C   UNL A   1      32.102  24.146  26.993  1.00  0.00     0.199 A 
ATOM     93  C   UNL A   1      30.736  23.071  25.761  1.00  0.00     0.130 A 
ATOM     94  N   UNL A   1      30.918  23.576  27.021  1.00  0.00    -0.245 NA
ENDBRANCH  89  90
ENDBRANCH  88  89
ENDBRANCH  79  88
ENDBRANCH  74  77
ENDBRANCH  72  73
ENDBRANCH   1  72
TORSDOF 18
ENDMDL
MODEL 2
REMARK VINA RESULT:     -11.7      2.613      7.649
REMARK SMILES O=C(NCCCNC(=O)[C@@]1([NH2+]C2CC2)CCC[C@H]1CCn1ccnc1)c1ccc(-c2c3nc(c(-c4cc(S(=O)(=O)[O-])ccc4F)c4ccc([nH]4)c(-c4cc(S(=O)(=O)[O-])ccc4F)c4nc(c(-c5cc(S(=O)(=O)[O-])ccc5F)c5ccc2[nH]5)C=C4)C=C3)cc1
REMARK SMILES IDX 5 1 4 2 3 3 1 4 2 5 26 7 27 8 88 9 28 10 87 11 29 12 30 13
REMARK SMILES IDX 31 14 81 15 32 16 86 17 80 18 82 19 33 20 85 21 79 22 78 23
REMARK SMILES IDX 34 25 66 26 46 27 65 28 47 29 50 30 64 31 83 32 48 33 49 34
REMARK SMILES IDX 63 36 84 37 51 38 35 39 36 40 44 41 37 42 43 43 45 44 42 45
REMARK SMILES IDX 38 46 39 47 40 48 41 49 67 50 68 51 76 52 69 53 75 54 77 55
REMARK SMILES IDX 74 56 70 57 71 58 72 59 73 60 52 61 53 62 61 63 54 64 60 65
REMARK SMILES IDX 62 66 59 67 55 68 56 69 57 70 58 71 6 72 7 73 8 74 9 76
REMARK SMILES IDX 10 77 15 78 18 79 16 80 17 81 11 82 12 85 13 86 14 87 19 88
REMARK SMILES IDX 20 89 21 90 22 91 25 92 23 93 24 94
REMARK H PARENT 3 6 82 24 50 35 7 75 11 83 11 84
REMARK Flexibility Score: inf
ROOT
ATOM      1  C   UNL A   1      33.779  29.201  26.977  1.00  0.00     0.042 C 
ENDROOT
BRANCH   1   2
ATOM      2  C   UNL A   1      35.139  29.679  27.497  1.00  0.00     0.118 C 
BRANCH   2   3
ATOM      3  N   UNL A   1      35.267  29.721  28.940  1.00  0.00    -0.352 N 
ATOM      4  O   UNL A   1      35.945  29.775  31.023  1.00  0.00    -0.269 OA
ATOM      5  C   UNL A   1      36.284  29.621  29.845  1.00  0.00     0.251 C 
ATOM      6  H   UNL A   1      34.397  29.855  29.380  1.00  0.00     0.163 HD
BRANCH   5   7
ATOM      7  C   UNL A   1      37.706  29.301  29.544  1.00  0.00     0.039 A 
ATOM      8  C   UNL A   1      38.459  29.786  28.474  1.00  0.00     0.014 A 
ATOM      9  C   UNL A   1      38.311  28.381  30.423  1.00  0.00     0.014 A 
ATOM     10  C   UNL A   1      39.742  29.285  28.229  1.00  0.00     0.010 A 
ATOM     11  C   UNL A   1      39.593  27.898  30.199  1.00  0.00     0.010 A 
ATOM     12  C   UNL A   1      40.296  28.317  29.072  1.00  0.00    -0.014 A 
BRANCH  12  13
ATOM     13  C   UNL A   1      41.686  27.892  28.878  1.00  0.00     0.031 A 
ATOM     14  C   UNL A   1      41.831  26.588  28.162  1.00  0.00     0.074 A 
ATOM     15  C   UNL A   1      42.746  28.697  29.110  1.00  0.00     0.049 A 
ATOM     16  N   UNL A   1      42.427  25.510  28.556  1.00  0.00    -0.248 NA
ATOM     17  C   UNL A   1      41.108  26.427  26.888  1.00  0.00     0.031 C 
ATOM     18  C   UNL A   1      42.729  30.099  29.535  1.00  0.00     0.029 A 
ATOM     19  N   UNL A   1      44.075  28.468  28.893  1.00  0.00    -0.354 N 
ATOM     20  C   UNL A   1      42.342  24.608  27.494  1.00  0.00     0.074 A 
ATOM     21  C   UNL A   1      41.371  25.156  26.587  1.00  0.00     0.031 C 
ATOM     22  C   UNL A   1      43.943  30.653  29.311  1.00  0.00     0.029 A 
ATOM     23  C   UNL A   1      44.859  29.623  28.847  1.00  0.00     0.049 A 
ATOM     24  H   UNL A   1      44.450  27.565  28.779  1.00  0.00     0.167 HD
ATOM     25  C   UNL A   1      43.239  23.595  27.335  1.00  0.00     0.034 A 
ATOM     26  C   UNL A   1      46.139  29.742  28.393  1.00  0.00     0.034 A 
ATOM     27  C   UNL A   1      43.935  23.318  28.570  1.00  0.00     0.049 A 
ATOM     28  C   UNL A   1      46.735  28.384  28.423  1.00  0.00     0.074 A 
ATOM     29  C   UNL A   1      43.544  22.932  29.838  1.00  0.00     0.029 A 
ATOM     30  N   UNL A   1      45.222  23.786  28.716  1.00  0.00    -0.354 N 
ATOM     31  N   UNL A   1      46.942  27.720  29.527  1.00  0.00    -0.248 NA
ATOM     32  C   UNL A   1      46.637  27.570  27.220  1.00  0.00     0.031 C 
ATOM     33  C   UNL A   1      44.382  23.679  30.719  1.00  0.00     0.029 A 
ATOM     34  C   UNL A   1      45.281  24.408  29.939  1.00  0.00     0.049 A 
ATOM     35  H   UNL A   1      45.957  23.693  28.069  1.00  0.00     0.167 HD
ATOM     36  C   UNL A   1      46.561  26.419  29.239  1.00  0.00     0.074 A 
ATOM     37  C   UNL A   1      46.471  26.367  27.780  1.00  0.00     0.031 C 
ATOM     38  C   UNL A   1      46.078  25.587  30.209  1.00  0.00     0.034 A 
BRANCH  25  39
ATOM     39  C   UNL A   1      43.755  23.102  25.997  1.00  0.00     0.023 A 
ATOM     40  C   UNL A   1      43.705  21.714  25.758  1.00  0.00     0.031 A 
ATOM     41  C   UNL A   1      44.555  23.846  25.098  1.00  0.00     0.131 A 
ATOM     42  C   UNL A   1      44.510  21.118  24.771  1.00  0.00     0.055 A 
ATOM     43  C   UNL A   1      45.299  23.255  24.073  1.00  0.00     0.041 A 
ATOM     44  F   UNL A   1      44.741  25.165  25.211  1.00  0.00    -0.206 F 
ATOM     45  C   UNL A   1      45.311  21.881  23.927  1.00  0.00     0.022 A 
BRANCH  42  46
ATOM     46  S   UNL A   1      44.646  19.311  24.747  1.00  0.00     0.124 S 
ATOM     47  O   UNL A   1      45.913  19.103  25.439  1.00  0.00    -0.237 OA
ATOM     48  O   UNL A   1      43.444  18.911  25.472  1.00  0.00    -0.237 OA
ATOM     49  O   UNL A   1      44.651  18.990  23.322  1.00  0.00    -0.744 OA
ENDBRANCH  42  46
ENDBRANCH  25  39
BRANCH  26  50
ATOM     50  C   UNL A   1      46.712  30.878  27.603  1.00  0.00     0.023 A 
ATOM     51  C   UNL A   1      45.935  31.907  27.021  1.00  0.00     0.031 A 
ATOM     52  C   UNL A   1      48.111  31.082  27.617  1.00  0.00     0.131 A 
ATOM     53  C   UNL A   1      46.564  33.058  26.477  1.00  0.00     0.055 A 
ATOM     54  C   UNL A   1      48.724  32.215  27.079  1.00  0.00     0.041 A 
ATOM     55  F   UNL A   1      48.932  30.219  28.236  1.00  0.00    -0.206 F 
ATOM     56  C   UNL A   1      47.951  33.213  26.511  1.00  0.00     0.022 A 
BRANCH  53  57
ATOM     57  S   UNL A   1      45.576  34.428  25.778  1.00  0.00     0.124 S 
ATOM     58  O   UNL A   1      44.996  33.813  24.583  1.00  0.00    -0.237 OA
ATOM     59  O   UNL A   1      44.658  34.741  26.857  1.00  0.00    -0.237 OA
ATOM     60  O   UNL A   1      46.576  35.463  25.501  1.00  0.00    -0.744 OA
ENDBRANCH  53  57
ENDBRANCH  26  50
BRANCH  38  61
ATOM     61  C   UNL A   1      46.184  26.028  31.656  1.00  0.00     0.023 A 
ATOM     62  C   UNL A   1      45.118  26.570  32.415  1.00  0.00     0.031 A 
ATOM     63  C   UNL A   1      47.388  25.758  32.328  1.00  0.00     0.131 A 
ATOM     64  C   UNL A   1      45.291  26.831  33.790  1.00  0.00     0.055 A 
ATOM     65  C   UNL A   1      47.548  26.000  33.691  1.00  0.00     0.041 A 
ATOM     66  F   UNL A   1      48.425  25.211  31.671  1.00  0.00    -0.206 F 
ATOM     67  C   UNL A   1      46.502  26.542  34.427  1.00  0.00     0.022 A 
BRANCH  64  68
ATOM     68  S   UNL A   1      43.942  27.558  34.779  1.00  0.00     0.124 S 
ATOM     69  O   UNL A   1      42.740  26.962  34.207  1.00  0.00    -0.237 OA
ATOM     70  O   UNL A   1      44.279  27.141  36.138  1.00  0.00    -0.237 OA
ATOM     71  O   UNL A   1      44.079  28.996  34.539  1.00  0.00    -0.744 OA
ENDBRANCH  64  68
ENDBRANCH  38  61
ENDBRANCH  12  13
ENDBRANCH   5   7
ENDBRANCH   2   3
ENDBRANCH   1   2
BRANCH   1  72
ATOM     72  C   UNL A   1      33.112  30.118  25.941  1.00  0.00     0.118 C 
BRANCH  72  73
ATOM     73  N   UNL A   1      33.194  29.621  24.588  1.00  0.00    -0.351 N 
ATOM     74  C   UNL A   1      33.066  28.390  24.050  1.00  0.00     0.281 C 
ATOM     75  H   UNL A   1      33.383  30.322  23.924  1.00  0.00     0.163 HD
ATOM     76  O   UNL A   1      33.950  28.236  23.187  1.00  0.00    -0.268 OA
BRANCH  74  77
ATOM     77  C   UNL A   1      32.078  27.185  24.363  1.00  0.00     0.178 C 
ATOM     78  C   UNL A   1      31.146  26.941  25.569  1.00  0.00     0.079 C 
ATOM     79  C   UNL A   1      30.844  27.462  23.311  1.00  0.00     0.062 C 
ATOM     80  C   UNL A   1      30.027  25.997  25.035  1.00  0.00     0.008 C 
ATOM     81  C   UNL A   1      29.896  26.276  23.542  1.00  0.00     0.011 C 
BRANCH  77  82
ATOM     82  N   UNL A   1      32.807  25.914  24.078  1.00  0.00    -0.331 N 
ATOM     83  H   UNL A   1      33.180  26.004  23.134  1.00  0.00     0.347 HD
ATOM     84  H   UNL A   1      32.092  25.210  24.265  1.00  0.00     0.347 HD
BRANCH  82  85
ATOM     85  C   UNL A   1      33.934  25.443  24.927  1.00  0.00     0.183 C 
ATOM     86  C   UNL A   1      33.960  24.324  25.948  1.00  0.00     0.071 C 
ATOM     87  C   UNL A   1      34.584  24.107  24.618  1.00  0.00     0.071 C 
ENDBRANCH  82  85
ENDBRANCH  77  82
BRANCH  79  88
ATOM     88  C   UNL A   1      29.935  28.746  23.562  1.00  0.00     0.032 C 
BRANCH  88  89
ATOM     89  C   UNL A   1      28.666  29.018  22.746  1.00  0.00     0.123 C 
BRANCH  89  90
ATOM     90  N   UNL A   1      28.373  30.399  22.434  1.00  0.00    -0.337 N 
ATOM     91  C   UNL A   1      28.528  30.981  21.204  1.00  0.00     0.107 A 
ATOM     92  C   UNL A   1      27.919  31.365  23.285  1.00  0.00     0.199 A 
ATOM     93  C   UNL A   1      28.085  32.272  21.365  1.00  0.00     0.130 A 
ATOM     94  N   UNL A   1      27.746  32.513  22.670  1.00  0.00    -0.245 NA
ENDBRANCH  89  90
ENDBRANCH  88  89
ENDBRANCH  79  88
ENDBRANCH  74  77
ENDBRANCH  72  73
ENDBRANCH   1  72
TORSDOF 18
ENDMDL
MODEL 3
REMARK VINA RESULT:     -11.6      1.320      3.127
REMARK SMILES O=C(NCCCNC(=O)[C@@]1([NH2+]C2CC2)CCC[C@H]1CCn1ccnc1)c1ccc(-c2c3nc(c(-c4cc(S(=O)(=O)[O-])ccc4F)c4ccc([nH]4)c(-c4cc(S(=O)(=O)[O-])ccc4F)c4nc(c(-c5cc(S(=O)(=O)[O-])ccc5F)c5ccc2[nH]5)C=C4)C=C3)cc1
REMARK SMILES IDX 5 1 4 2 3 3 1 4 2 5 26 7 27 8 88 9 28 10 87 11 29 12 30 13
REMARK SMILES IDX 31 14 81 15 32 16 86 17 80 18 82 19 33 20 85 21 79 22 78 23
REMARK SMILES IDX 34 25 66 26 46 27 65 28 47 29 50 30 64 31 83 32 48 33 49 34
REMARK SMILES IDX 63 36 84 37 51 38 35 39 36 40 44 41 37 42 43 43 45 44 42 45
REMARK SMILES IDX 38 46 39 47 40 48 41 49 67 50 68 51 76 52 69 53 75 54 77 55
REMARK SMILES IDX 74 56 70 57 71 58 72 59 73 60 52 61 53 62 61 63 54 64 60 65
REMARK SMILES IDX 62 66 59 67 55 68 56 69 57 70 58 71 6 72 7 73 8 74 9 76
REMARK SMILES IDX 10 77 15 78 18 79 16 80 17 81 11 82 12 85 13 86 14 87 19 88
REMARK SMILES IDX 20 89 21 90 22 91 25 92 23 93 24 94
REMARK H PARENT 3 6 82 24 50 35 7 75 11 83 11 84
REMARK Flexibility Score: inf
ROOT
ATOM      1  C   UNL A   1      32.737  29.703  27.229  1.00  0.00     0.042 C 
ENDROOT
BRANCH   1   2
ATOM      2  C   UNL A   1      34.141  30.292  27.389  1.00  0.00     0.118 C 
BRANCH   2   3
ATOM      3  N   UNL A   1      34.256  31.359  28.364  1.00  0.00    -0.352 N 
ATOM      4  O   UNL A   1      34.905  32.839  29.844  1.00  0.00    -0.269 OA
ATOM      5  C   UNL A   1      35.227  31.838  29.194  1.00  0.00     0.251 C 
ATOM      6  H   UNL A   1      33.417  31.866  28.450  1.00  0.00     0.163 HD
BRANCH   5   7
ATOM      7  C   UNL A   1      36.575  31.245  29.412  1.00  0.00     0.039 A 
ATOM      8  C   UNL A   1      37.757  31.941  29.673  1.00  0.00     0.014 A 
ATOM      9  C   UNL A   1      36.637  29.842  29.297  1.00  0.00     0.014 A 
ATOM     10  C   UNL A   1      38.980  31.264  29.710  1.00  0.00     0.010 A 
ATOM     11  C   UNL A   1      37.846  29.163  29.358  1.00  0.00     0.010 A 
ATOM     12  C   UNL A   1      39.029  29.879  29.520  1.00  0.00    -0.014 A 
BRANCH  12  13
ATOM     13  C   UNL A   1      40.299  29.166  29.686  1.00  0.00     0.031 A 
ATOM     14  C   UNL A   1      40.653  28.872  31.108  1.00  0.00     0.074 A 
ATOM     15  C   UNL A   1      40.982  28.618  28.657  1.00  0.00     0.049 A 
ATOM     16  N   UNL A   1      41.711  29.216  31.768  1.00  0.00    -0.248 NA
ATOM     17  C   UNL A   1      39.631  28.213  31.941  1.00  0.00     0.031 C 
ATOM     18  C   UNL A   1      40.594  28.581  27.244  1.00  0.00     0.029 A 
ATOM     19  N   UNL A   1      42.119  27.861  28.673  1.00  0.00    -0.354 N 
ATOM     20  C   UNL A   1      41.588  28.633  33.030  1.00  0.00     0.074 A 
ATOM     21  C   UNL A   1      40.223  28.196  33.134  1.00  0.00     0.031 C 
ATOM     22  C   UNL A   1      41.334  27.652  26.597  1.00  0.00     0.029 A 
ATOM     23  C   UNL A   1      42.332  27.117  27.511  1.00  0.00     0.049 A 
ATOM     24  H   UNL A   1      42.736  27.841  29.439  1.00  0.00     0.167 HD
ATOM     25  C   UNL A   1      42.675  28.354  33.803  1.00  0.00     0.034 A 
ATOM     26  C   UNL A   1      43.208  26.087  27.330  1.00  0.00     0.034 A 
ATOM     27  C   UNL A   1      43.826  29.119  33.379  1.00  0.00     0.049 A 
ATOM     28  C   UNL A   1      44.239  26.209  28.390  1.00  0.00     0.074 A 
ATOM     29  C   UNL A   1      44.104  30.468  33.264  1.00  0.00     0.029 A 
ATOM     30  N   UNL A   1      44.796  28.485  32.636  1.00  0.00    -0.354 N 
ATOM     31  N   UNL A   1      45.070  27.211  28.465  1.00  0.00    -0.248 NA
ATOM     32  C   UNL A   1      44.021  25.491  29.638  1.00  0.00     0.031 C 
ATOM     33  C   UNL A   1      44.858  30.580  32.058  1.00  0.00     0.029 A 
ATOM     34  C   UNL A   1      45.061  29.293  31.558  1.00  0.00     0.049 A 
ATOM     35  H   UNL A   1      45.218  27.620  32.839  1.00  0.00     0.167 HD
ATOM     36  C   UNL A   1      45.132  27.525  29.814  1.00  0.00     0.074 A 
ATOM     37  C   UNL A   1      44.539  26.375  30.496  1.00  0.00     0.031 C 
ATOM     38  C   UNL A   1      45.392  28.798  30.238  1.00  0.00     0.034 A 
BRANCH  25  39
ATOM     39  C   UNL A   1      42.809  27.135  34.696  1.00  0.00     0.023 A 
ATOM     40  C   UNL A   1      43.594  26.067  34.218  1.00  0.00     0.031 A 
ATOM     41  C   UNL A   1      41.989  26.837  35.809  1.00  0.00     0.131 A 
ATOM     42  C   UNL A   1      43.453  24.771  34.743  1.00  0.00     0.055 A 
ATOM     43  C   UNL A   1      41.905  25.561  36.373  1.00  0.00     0.041 A 
ATOM     44  F   UNL A   1      41.155  27.727  36.357  1.00  0.00    -0.206 F 
ATOM     45  C   UNL A   1      42.609  24.509  35.817  1.00  0.00     0.022 A 
BRANCH  42  46
ATOM     46  S   UNL A   1      44.238  23.395  33.862  1.00  0.00     0.124 S 
ATOM     47  O   UNL A   1      43.125  22.880  33.071  1.00  0.00    -0.237 OA
ATOM     48  O   UNL A   1      45.292  24.079  33.120  1.00  0.00    -0.237 OA
ATOM     49  O   UNL A   1      44.697  22.521  34.938  1.00  0.00    -0.744 OA
ENDBRANCH  42  46
ENDBRANCH  25  39
BRANCH  26  50
ATOM     50  C   UNL A   1      42.976  24.835  26.544  1.00  0.00     0.023 A 
ATOM     51  C   UNL A   1      43.893  24.314  25.599  1.00  0.00     0.031 A 
ATOM     52  C   UNL A   1      41.903  23.989  26.906  1.00  0.00     0.131 A 
ATOM     53  C   UNL A   1      43.703  23.016  25.057  1.00  0.00     0.055 A 
ATOM     54  C   UNL A   1      41.720  22.714  26.368  1.00  0.00     0.041 A 
ATOM     55  F   UNL A   1      41.035  24.342  27.867  1.00  0.00    -0.206 F 
ATOM     56  C   UNL A   1      42.624  22.218  25.444  1.00  0.00     0.022 A 
BRANCH  53  57
ATOM     57  S   UNL A   1      44.908  22.298  23.887  1.00  0.00     0.124 S 
ATOM     58  O   UNL A   1      45.968  23.308  23.876  1.00  0.00    -0.237 OA
ATOM     59  O   UNL A   1      45.232  21.025  24.503  1.00  0.00    -0.237 OA
ATOM     60  O   UNL A   1      44.153  22.201  22.635  1.00  0.00    -0.744 OA
ENDBRANCH  53  57
ENDBRANCH  26  50
BRANCH  38  61
ATOM     61  C   UNL A   1      45.847  29.821  29.214  1.00  0.00     0.023 A 
ATOM     62  C   UNL A   1      44.997  30.752  28.571  1.00  0.00     0.031 A 
ATOM     63  C   UNL A   1      47.228  29.937  28.987  1.00  0.00     0.131 A 
ATOM     64  C   UNL A   1      45.542  31.742  27.729  1.00  0.00     0.055 A 
ATOM     65  C   UNL A   1      47.765  30.930  28.169  1.00  0.00     0.041 A 
ATOM     66  F   UNL A   1      48.090  29.104  29.596  1.00  0.00    -0.206 F 
ATOM     67  C   UNL A   1      46.924  31.833  27.532  1.00  0.00     0.022 A 
BRANCH  64  68
ATOM     68  S   UNL A   1      44.462  32.933  26.866  1.00  0.00     0.124 S 
ATOM     69  O   UNL A   1      43.490  33.312  27.885  1.00  0.00    -0.237 OA
ATOM     70  O   UNL A   1      45.398  33.976  26.455  1.00  0.00    -0.237 OA
ATOM     71  O   UNL A   1      43.909  32.151  25.759  1.00  0.00    -0.744 OA
ENDBRANCH  64  68
ENDBRANCH  38  61
ENDBRANCH  12  13
ENDBRANCH   5   7
ENDBRANCH   2   3
ENDBRANCH   1   2
BRANCH   1  72
ATOM     72  C   UNL A   1      31.827  30.434  26.229  1.00  0.00     0.118 C 
BRANCH  72  73
ATOM     73  N   UNL A   1      32.018  30.018  24.860  1.00  0.00    -0.351 N 
ATOM     74  C   UNL A   1      32.240  28.818  24.285  1.00  0.00     0.281 C 
ATOM     75  H   UNL A   1      31.979  30.761  24.216  1.00  0.00     0.163 HD
ATOM     76  O   UNL A   1      33.109  28.950  23.404  1.00  0.00    -0.268 OA
BRANCH  74  77
ATOM     77  C   UNL A   1      31.652  27.369  24.574  1.00  0.00     0.178 C 
ATOM     78  C   UNL A   1      30.777  26.857  25.737  1.00  0.00     0.079 C 
ATOM     79  C   UNL A   1      30.450  27.250  23.457  1.00  0.00     0.062 C 
ATOM     80  C   UNL A   1      30.030  25.614  25.169  1.00  0.00     0.008 C 
ATOM     81  C   UNL A   1      29.900  25.831  23.666  1.00  0.00     0.011 C 
BRANCH  77  82
ATOM     82  N   UNL A   1      32.749  26.381  24.352  1.00  0.00    -0.331 N 
ATOM     83  H   UNL A   1      33.384  26.806  23.677  1.00  0.00     0.347 HD
ATOM     84  H   UNL A   1      32.231  25.542  24.086  1.00  0.00     0.347 HD
BRANCH  82  85
ATOM     85  C   UNL A   1      33.598  25.881  25.466  1.00  0.00     0.183 C 
ATOM     86  C   UNL A   1      33.653  24.497  26.080  1.00  0.00     0.071 C 
ATOM     87  C   UNL A   1      34.734  24.924  25.157  1.00  0.00     0.071 C 
ENDBRANCH  82  85
ENDBRANCH  77  82
BRANCH  79  88
ATOM     88  C   UNL A   1      29.180  28.195  23.636  1.00  0.00     0.032 C 
BRANCH  88  89
ATOM     89  C   UNL A   1      28.484  28.859  22.442  1.00  0.00     0.123 C 
BRANCH  89  90
ATOM     90  N   UNL A   1      28.346  30.297  22.484  1.00  0.00    -0.337 N 
ATOM     91  C   UNL A   1      28.935  31.173  21.611  1.00  0.00     0.107 A 
ATOM     92  C   UNL A   1      27.639  31.038  23.386  1.00  0.00     0.199 A 
ATOM     93  C   UNL A   1      28.489  32.413  21.998  1.00  0.00     0.130 A 
ATOM     94  N   UNL A   1      27.716  32.324  23.126  1.00  0.00    -0.245 NA
ENDBRANCH  89  90
ENDBRANCH  88  89
ENDBRANCH  79  88
ENDBRANCH  74  77
ENDBRANCH  72  73
ENDBRANCH   1  72
TORSDOF 18
ENDMDL
