MODEL 1
REMARK VINA RESULT:     -12.4      0.000      0.000
REMARK SMILES O=C(C[C@@H](C(=O)NCCCNC(=O)c1ccc(-c2c3nc(c(-c4cc(S(=O)(=O)[O-])ccc4F)c4ccc([nH]4)c(-c4cc(S(=O)(=O)[O-])ccc4F)c4nc(c(-c5cc(S(=O)(=O)[O-])ccc5F)c5ccc2[nH]5)C=C4)C=C3)cc1)c1ccccc1)Nc1cc(C(F)(F)F)ccc1-n1cncn1
REMARK SMILES IDX 8 1 7 2 5 3 6 4 4 6 3 7 2 8 1 9 83 10 84 12 85 13 93 14
REMARK SMILES IDX 86 15 92 16 91 17 94 18 95 19 98 20 96 21 97 22 87 23 88 24
REMARK SMILES IDX 89 25 90 26 77 27 78 28 82 29 79 30 81 31 80 32 9 33 10 34
REMARK SMILES IDX 11 35 12 36 13 38 14 39 15 40 76 41 16 42 75 43 17 44 18 45
REMARK SMILES IDX 19 46 69 47 20 48 74 49 68 50 70 51 21 52 73 53 67 54 66 55
REMARK SMILES IDX 22 57 54 58 34 59 53 60 35 61 38 62 52 63 71 64 36 65 37 66
REMARK SMILES IDX 51 68 72 69 39 70 23 71 24 72 32 73 25 74 31 75 33 76 30 77
REMARK SMILES IDX 26 78 27 79 28 80 29 81 55 82 56 83 64 84 57 85 63 86 65 87
REMARK SMILES IDX 62 88 58 89 59 90 60 91 61 92 40 93 41 94 49 95 42 96 48 97
REMARK SMILES IDX 50 98 47 99 43 100 44 101 45 102 46 103
REMARK H PARENT 7 5 83 11 11 37 70 56 38 67
REMARK Flexibility Score: inf
ROOT
ATOM      1  C   UNL A   1      36.626  21.509  25.854  1.00  0.00     0.117 C 
ENDROOT
BRANCH   1   2
ATOM      2  N   UNL A   1      35.311  21.147  26.494  1.00  0.00    -0.355 N 
ATOM      3  C   UNL A   1      34.206  21.956  26.681  1.00  0.00     0.228 C 
ATOM      4  O   UNL A   1      33.929  22.293  27.836  1.00  0.00    -0.274 OA
ATOM      5  H   UNL A   1      35.229  20.221  26.817  1.00  0.00     0.163 HD
BRANCH   3   6
ATOM      6  C   UNL A   1      33.260  22.299  25.508  1.00  0.00     0.118 C 
BRANCH   6   7
ATOM      7  C   UNL A   1      31.948  22.926  25.998  1.00  0.00     0.118 C 
BRANCH   7   8
ATOM      8  C   UNL A   1      31.823  24.378  25.675  1.00  0.00     0.225 C 
ATOM      9  O   UNL A   1      30.749  24.985  25.702  1.00  0.00    -0.275 OA
ATOM     10  N   UNL A   1      33.040  24.900  25.295  1.00  0.00    -0.324 N 
ATOM     11  H   UNL A   1      33.828  24.311  25.304  1.00  0.00     0.170 HD
BRANCH  10  12
ATOM     12  C   UNL A   1      33.201  26.224  24.902  1.00  0.00     0.067 A 
ATOM     13  C   UNL A   1      33.264  27.075  25.964  1.00  0.00     0.041 A 
ATOM     14  C   UNL A   1      33.501  26.743  23.662  1.00  0.00     0.090 A 
ATOM     15  C   UNL A   1      32.903  28.386  25.835  1.00  0.00     0.058 A 
ATOM     16  C   UNL A   1      33.693  28.123  23.543  1.00  0.00     0.031 A 
ATOM     17  C   UNL A   1      33.285  28.946  24.618  1.00  0.00     0.015 A 
BRANCH  14  18
ATOM     18  N   UNL A   1      33.387  25.938  22.527  1.00  0.00    -0.219 N 
ATOM     19  C   UNL A   1      32.891  26.337  21.310  1.00  0.00     0.226 A 
ATOM     20  N   UNL A   1      33.829  24.669  22.447  1.00  0.00    -0.155 NA
ATOM     21  N   UNL A   1      32.847  25.324  20.482  1.00  0.00    -0.223 NA
ATOM     22  C   UNL A   1      33.416  24.328  21.223  1.00  0.00     0.246 A 
ENDBRANCH  14  18
BRANCH  15  23
ATOM     23  C   UNL A   1      32.292  28.939  27.094  1.00  0.00     0.416 C 
ATOM     24  F   UNL A   1      31.527  28.002  27.740  1.00  0.00    -0.166 F 
ATOM     25  F   UNL A   1      33.195  29.281  28.051  1.00  0.00    -0.166 F 
ATOM     26  F   UNL A   1      31.481  30.008  26.916  1.00  0.00    -0.166 F 
ENDBRANCH  15  23
ENDBRANCH  10  12
ENDBRANCH   7   8
ENDBRANCH   6   7
BRANCH   6  27
ATOM     27  C   UNL A   1      32.896  21.012  24.722  1.00  0.00    -0.035 A 
ATOM     28  C   UNL A   1      32.504  21.096  23.380  1.00  0.00     0.004 A 
ATOM     29  C   UNL A   1      32.950  19.722  25.302  1.00  0.00     0.004 A 
ATOM     30  C   UNL A   1      32.169  19.942  22.657  1.00  0.00     0.000 A 
ATOM     31  C   UNL A   1      32.597  18.576  24.588  1.00  0.00     0.000 A 
ATOM     32  C   UNL A   1      32.208  18.685  23.261  1.00  0.00     0.000 A 
ENDBRANCH   6  27
ENDBRANCH   3   6
ENDBRANCH   1   2
BRANCH   1  33
ATOM     33  C   UNL A   1      37.157  20.302  25.022  1.00  0.00     0.042 C 
BRANCH  33  34
ATOM     34  C   UNL A   1      38.616  19.610  25.112  1.00  0.00     0.118 C 
BRANCH  34  35
ATOM     35  N   UNL A   1      39.873  20.392  25.548  1.00  0.00    -0.352 N 
ATOM     36  C   UNL A   1      40.309  20.740  26.884  1.00  0.00     0.251 C 
ATOM     37  H   UNL A   1      40.459  20.697  24.817  1.00  0.00     0.163 HD
ATOM     38  O   UNL A   1      40.892  19.853  27.516  1.00  0.00    -0.269 OA
BRANCH  36  39
ATOM     39  C   UNL A   1      40.490  22.215  27.416  1.00  0.00     0.039 A 
ATOM     40  C   UNL A   1      41.494  22.555  28.353  1.00  0.00     0.014 A 
ATOM     41  C   UNL A   1      39.648  23.288  27.144  1.00  0.00     0.014 A 
ATOM     42  C   UNL A   1      41.778  23.923  28.753  1.00  0.00     0.010 A 
ATOM     43  C   UNL A   1      40.003  24.651  27.411  1.00  0.00     0.010 A 
ATOM     44  C   UNL A   1      41.107  25.022  28.186  1.00  0.00    -0.014 A 
BRANCH  44  45
ATOM     45  C   UNL A   1      41.520  26.500  28.285  1.00  0.00     0.031 A 
ATOM     46  C   UNL A   1      42.935  26.981  27.925  1.00  0.00     0.074 A 
ATOM     47  C   UNL A   1      40.743  27.404  28.941  1.00  0.00     0.049 A 
ATOM     48  N   UNL A   1      43.478  28.178  28.029  1.00  0.00    -0.248 NA
ATOM     49  C   UNL A   1      43.881  25.962  27.453  1.00  0.00     0.031 C 
ATOM     50  C   UNL A   1      39.442  27.112  29.543  1.00  0.00     0.029 A 
ATOM     51  N   UNL A   1      40.949  28.735  29.274  1.00  0.00    -0.354 N 
ATOM     52  C   UNL A   1      44.819  28.042  27.653  1.00  0.00     0.074 A 
ATOM     53  C   UNL A   1      45.026  26.628  27.432  1.00  0.00     0.031 C 
ATOM     54  C   UNL A   1      38.979  28.206  30.175  1.00  0.00     0.029 A 
ATOM     55  C   UNL A   1      39.927  29.304  30.013  1.00  0.00     0.049 A 
ATOM     56  H   UNL A   1      41.755  29.233  29.005  1.00  0.00     0.167 HD
ATOM     57  C   UNL A   1      45.787  28.984  27.462  1.00  0.00     0.034 A 
ATOM     58  C   UNL A   1      39.746  30.560  30.490  1.00  0.00     0.034 A 
ATOM     59  C   UNL A   1      45.597  30.396  27.700  1.00  0.00     0.049 A 
ATOM     60  C   UNL A   1      40.785  31.624  30.209  1.00  0.00     0.074 A 
ATOM     61  C   UNL A   1      46.444  31.453  27.400  1.00  0.00     0.029 A 
ATOM     62  N   UNL A   1      44.491  30.947  28.331  1.00  0.00    -0.354 N 
ATOM     63  N   UNL A   1      41.956  31.503  29.629  1.00  0.00    -0.248 NA
ATOM     64  C   UNL A   1      40.460  33.004  30.611  1.00  0.00     0.031 C 
ATOM     65  C   UNL A   1      45.883  32.628  27.913  1.00  0.00     0.029 A 
ATOM     66  C   UNL A   1      44.649  32.319  28.460  1.00  0.00     0.049 A 
ATOM     67  H   UNL A   1      43.709  30.439  28.643  1.00  0.00     0.167 HD
ATOM     68  C   UNL A   1      42.484  32.791  29.559  1.00  0.00     0.074 A 
ATOM     69  C   UNL A   1      41.498  33.678  30.139  1.00  0.00     0.031 C 
ATOM     70  C   UNL A   1      43.674  33.204  29.051  1.00  0.00     0.034 A 
BRANCH  57  71
ATOM     71  C   UNL A   1      47.133  28.524  26.921  1.00  0.00     0.023 A 
ATOM     72  C   UNL A   1      47.299  28.222  25.556  1.00  0.00     0.031 A 
ATOM     73  C   UNL A   1      48.267  28.402  27.747  1.00  0.00     0.131 A 
ATOM     74  C   UNL A   1      48.522  27.729  25.077  1.00  0.00     0.055 A 
ATOM     75  C   UNL A   1      49.510  27.997  27.246  1.00  0.00     0.041 A 
ATOM     76  F   UNL A   1      48.191  28.672  29.060  1.00  0.00    -0.206 F 
ATOM     77  C   UNL A   1      49.639  27.639  25.906  1.00  0.00     0.022 A 
BRANCH  74  78
ATOM     78  S   UNL A   1      48.583  27.078  23.385  1.00  0.00     0.124 S 
ATOM     79  O   UNL A   1      48.134  25.703  23.583  1.00  0.00    -0.237 OA
ATOM     80  O   UNL A   1      47.659  27.956  22.676  1.00  0.00    -0.237 OA
ATOM     81  O   UNL A   1      49.989  27.219  23.013  1.00  0.00    -0.744 OA
ENDBRANCH  74  78
ENDBRANCH  57  71
BRANCH  58  82
ATOM     82  C   UNL A   1      38.485  30.931  31.216  1.00  0.00     0.023 A 
ATOM     83  C   UNL A   1      37.448  31.606  30.547  1.00  0.00     0.031 A 
ATOM     84  C   UNL A   1      38.308  30.662  32.585  1.00  0.00     0.131 A 
ATOM     85  C   UNL A   1      36.305  32.028  31.248  1.00  0.00     0.055 A 
ATOM     86  C   UNL A   1      37.144  31.035  33.268  1.00  0.00     0.041 A 
ATOM     87  F   UNL A   1      39.262  30.022  33.280  1.00  0.00    -0.206 F 
ATOM     88  C   UNL A   1      36.139  31.732  32.602  1.00  0.00     0.022 A 
BRANCH  85  89
ATOM     89  S   UNL A   1      35.076  33.044  30.380  1.00  0.00     0.124 S 
ATOM     90  O   UNL A   1      34.287  33.570  31.489  1.00  0.00    -0.237 OA
ATOM     91  O   UNL A   1      35.920  34.006  29.680  1.00  0.00    -0.237 OA
ATOM     92  O   UNL A   1      34.384  32.085  29.521  1.00  0.00    -0.744 OA
ENDBRANCH  85  89
ENDBRANCH  58  82
BRANCH  70  93
ATOM     93  C   UNL A   1      43.964  34.687  29.065  1.00  0.00     0.023 A 
ATOM     94  C   UNL A   1      44.590  35.308  30.160  1.00  0.00     0.031 A 
ATOM     95  C   UNL A   1      43.603  35.492  27.969  1.00  0.00     0.131 A 
ATOM     96  C   UNL A   1      44.781  36.698  30.161  1.00  0.00     0.055 A 
ATOM     97  C   UNL A   1      43.858  36.864  27.947  1.00  0.00     0.041 A 
ATOM     98  F   UNL A   1      42.997  34.956  26.897  1.00  0.00    -0.206 F 
ATOM     99  C   UNL A   1      44.437  37.478  29.054  1.00  0.00     0.022 A 
BRANCH  96 100
ATOM    100  S   UNL A   1      45.390  37.490  31.674  1.00  0.00     0.124 S 
ATOM    101  O   UNL A   1      46.536  36.651  32.014  1.00  0.00    -0.237 OA
ATOM    102  O   UNL A   1      45.702  38.840  31.217  1.00  0.00    -0.237 OA
ATOM    103  O   UNL A   1      44.258  37.394  32.593  1.00  0.00    -0.744 OA
ENDBRANCH  96 100
ENDBRANCH  70  93
ENDBRANCH  44  45
ENDBRANCH  36  39
ENDBRANCH  34  35
ENDBRANCH  33  34
ENDBRANCH   1  33
TORSDOF 19
ENDMDL
MODEL 2
REMARK VINA RESULT:     -12.4      2.253      2.572
REMARK SMILES O=C(C[C@@H](C(=O)NCCCNC(=O)c1ccc(-c2c3nc(c(-c4cc(S(=O)(=O)[O-])ccc4F)c4ccc([nH]4)c(-c4cc(S(=O)(=O)[O-])ccc4F)c4nc(c(-c5cc(S(=O)(=O)[O-])ccc5F)c5ccc2[nH]5)C=C4)C=C3)cc1)c1ccccc1)Nc1cc(C(F)(F)F)ccc1-n1cncn1
REMARK SMILES IDX 8 1 7 2 5 3 6 4 4 6 3 7 2 8 1 9 83 10 84 12 85 13 93 14
REMARK SMILES IDX 86 15 92 16 91 17 94 18 95 19 98 20 96 21 97 22 87 23 88 24
REMARK SMILES IDX 89 25 90 26 77 27 78 28 82 29 79 30 81 31 80 32 9 33 10 34
REMARK SMILES IDX 11 35 12 36 13 38 14 39 15 40 76 41 16 42 75 43 17 44 18 45
REMARK SMILES IDX 19 46 69 47 20 48 74 49 68 50 70 51 21 52 73 53 67 54 66 55
REMARK SMILES IDX 22 57 54 58 34 59 53 60 35 61 38 62 52 63 71 64 36 65 37 66
REMARK SMILES IDX 51 68 72 69 39 70 23 71 24 72 32 73 25 74 31 75 33 76 30 77
REMARK SMILES IDX 26 78 27 79 28 80 29 81 55 82 56 83 64 84 57 85 63 86 65 87
REMARK SMILES IDX 62 88 58 89 59 90 60 91 61 92 40 93 41 94 49 95 42 96 48 97
REMARK SMILES IDX 50 98 47 99 43 100 44 101 45 102 46 103
REMARK H PARENT 7 5 83 11 11 37 70 56 38 67
REMARK Flexibility Score: inf
ROOT
ATOM      1  C   UNL A   1      35.652  21.844  26.579  1.00  0.00     0.117 C 
ENDROOT
BRANCH   1   2
ATOM      2  N   UNL A   1      34.196  21.502  26.757  1.00  0.00    -0.355 N 
ATOM      3  C   UNL A   1      33.107  22.349  26.677  1.00  0.00     0.228 C 
ATOM      4  O   UNL A   1      32.500  22.608  27.721  1.00  0.00    -0.274 OA
ATOM      5  H   UNL A   1      33.995  20.559  26.954  1.00  0.00     0.163 HD
BRANCH   3   6
ATOM      6  C   UNL A   1      32.572  22.835  25.310  1.00  0.00     0.118 C 
BRANCH   6   7
ATOM      7  C   UNL A   1      31.193  23.498  25.441  1.00  0.00     0.118 C 
BRANCH   7   8
ATOM      8  C   UNL A   1      31.208  24.964  25.159  1.00  0.00     0.225 C 
ATOM      9  O   UNL A   1      30.181  25.631  25.006  1.00  0.00    -0.275 OA
ATOM     10  N   UNL A   1      32.499  25.426  25.038  1.00  0.00    -0.324 N 
ATOM     11  H   UNL A   1      33.240  24.792  25.172  1.00  0.00     0.170 HD
BRANCH  10  12
ATOM     12  C   UNL A   1      32.801  26.748  24.737  1.00  0.00     0.067 A 
ATOM     13  C   UNL A   1      33.095  27.479  25.849  1.00  0.00     0.041 A 
ATOM     14  C   UNL A   1      33.037  27.341  23.516  1.00  0.00     0.090 A 
ATOM     15  C   UNL A   1      32.908  28.832  25.870  1.00  0.00     0.058 A 
ATOM     16  C   UNL A   1      33.405  28.690  23.487  1.00  0.00     0.031 A 
ATOM     17  C   UNL A   1      33.233  29.452  24.665  1.00  0.00     0.015 A 
BRANCH  14  18
ATOM     18  N   UNL A   1      32.691  26.671  22.342  1.00  0.00    -0.219 N 
ATOM     19  C   UNL A   1      31.456  26.694  21.741  1.00  0.00     0.226 A 
ATOM     20  N   UNL A   1      33.554  25.969  21.585  1.00  0.00    -0.155 NA
ATOM     21  N   UNL A   1      31.440  25.900  20.701  1.00  0.00    -0.223 NA
ATOM     22  C   UNL A   1      32.736  25.471  20.653  1.00  0.00     0.246 A 
ENDBRANCH  14  18
BRANCH  15  23
ATOM     23  C   UNL A   1      32.518  29.335  27.233  1.00  0.00     0.416 C 
ATOM     24  F   UNL A   1      31.811  28.395  27.938  1.00  0.00    -0.166 F 
ATOM     25  F   UNL A   1      33.568  29.584  28.061  1.00  0.00    -0.166 F 
ATOM     26  F   UNL A   1      31.743  30.445  27.234  1.00  0.00    -0.166 F 
ENDBRANCH  15  23
ENDBRANCH  10  12
ENDBRANCH   7   8
ENDBRANCH   6   7
BRANCH   6  27
ATOM     27  C   UNL A   1      32.420  21.634  24.340  1.00  0.00    -0.035 A 
ATOM     28  C   UNL A   1      32.124  21.856  22.989  1.00  0.00     0.004 A 
ATOM     29  C   UNL A   1      32.582  20.291  24.755  1.00  0.00     0.004 A 
ATOM     30  C   UNL A   1      31.981  20.782  22.100  1.00  0.00     0.000 A 
ATOM     31  C   UNL A   1      32.420  19.221  23.874  1.00  0.00     0.000 A 
ATOM     32  C   UNL A   1      32.122  19.466  22.542  1.00  0.00     0.000 A 
ENDBRANCH   6  27
ENDBRANCH   3   6
ENDBRANCH   1   2
BRANCH   1  33
ATOM     33  C   UNL A   1      36.188  21.200  25.264  1.00  0.00     0.042 C 
BRANCH  33  34
ATOM     34  C   UNL A   1      37.685  20.665  24.969  1.00  0.00     0.118 C 
BRANCH  34  35
ATOM     35  N   UNL A   1      38.933  21.543  25.202  1.00  0.00    -0.352 N 
ATOM     36  C   UNL A   1      39.637  21.812  26.438  1.00  0.00     0.251 C 
ATOM     37  H   UNL A   1      39.301  21.981  24.400  1.00  0.00     0.163 HD
ATOM     38  O   UNL A   1      40.429  20.943  26.815  1.00  0.00    -0.269 OA
BRANCH  36  39
ATOM     39  C   UNL A   1      39.803  23.241  27.087  1.00  0.00     0.039 A 
ATOM     40  C   UNL A   1      40.774  23.505  28.080  1.00  0.00     0.014 A 
ATOM     41  C   UNL A   1      38.974  24.337  26.866  1.00  0.00     0.014 A 
ATOM     42  C   UNL A   1      41.049  24.836  28.593  1.00  0.00     0.010 A 
ATOM     43  C   UNL A   1      39.324  25.674  27.248  1.00  0.00     0.010 A 
ATOM     44  C   UNL A   1      40.401  25.979  28.087  1.00  0.00    -0.014 A 
BRANCH  44  45
ATOM     45  C   UNL A   1      40.815  27.443  28.312  1.00  0.00     0.031 A 
ATOM     46  C   UNL A   1      42.283  27.897  28.261  1.00  0.00     0.074 A 
ATOM     47  C   UNL A   1      39.939  28.349  28.823  1.00  0.00     0.049 A 
ATOM     48  N   UNL A   1      42.817  29.077  28.509  1.00  0.00    -0.248 NA
ATOM     49  C   UNL A   1      43.284  26.865  27.961  1.00  0.00     0.031 C 
ATOM     50  C   UNL A   1      38.537  28.076  29.140  1.00  0.00     0.029 A 
ATOM     51  N   UNL A   1      40.099  29.666  29.230  1.00  0.00    -0.354 N 
ATOM     52  C   UNL A   1      44.203  28.915  28.409  1.00  0.00     0.074 A 
ATOM     53  C   UNL A   1      44.423  27.502  28.193  1.00  0.00     0.031 C 
ATOM     54  C   UNL A   1      37.976  29.165  29.697  1.00  0.00     0.029 A 
ATOM     55  C   UNL A   1      38.959  30.243  29.764  1.00  0.00     0.049 A 
ATOM     56  H   UNL A   1      40.952  30.150  29.146  1.00  0.00     0.167 HD
ATOM     57  C   UNL A   1      45.208  29.837  28.447  1.00  0.00     0.034 A 
ATOM     58  C   UNL A   1      38.709  31.490  30.231  1.00  0.00     0.034 A 
ATOM     59  C   UNL A   1      45.002  31.247  28.683  1.00  0.00     0.049 A 
ATOM     60  C   UNL A   1      39.805  32.535  30.198  1.00  0.00     0.074 A 
ATOM     61  C   UNL A   1      45.913  32.289  28.593  1.00  0.00     0.029 A 
ATOM     62  N   UNL A   1      43.802  31.810  29.093  1.00  0.00    -0.354 N 
ATOM     63  N   UNL A   1      41.068  32.398  29.865  1.00  0.00    -0.248 NA
ATOM     64  C   UNL A   1      39.433  33.911  30.567  1.00  0.00     0.031 C 
ATOM     65  C   UNL A   1      45.283  33.465  29.017  1.00  0.00     0.029 A 
ATOM     66  C   UNL A   1      43.958  33.174  29.292  1.00  0.00     0.049 A 
ATOM     67  H   UNL A   1      42.963  31.314  29.224  1.00  0.00     0.167 HD
ATOM     68  C   UNL A   1      41.624  33.674  29.942  1.00  0.00     0.074 A 
ATOM     69  C   UNL A   1      40.558  34.570  30.336  1.00  0.00     0.031 C 
ATOM     70  C   UNL A   1      42.901  34.068  29.698  1.00  0.00     0.034 A 
BRANCH  57  71
ATOM     71  C   UNL A   1      46.627  29.356  28.177  1.00  0.00     0.023 A 
ATOM     72  C   UNL A   1      47.490  29.017  29.237  1.00  0.00     0.031 A 
ATOM     73  C   UNL A   1      47.129  29.209  26.870  1.00  0.00     0.131 A 
ATOM     74  C   UNL A   1      48.819  28.645  28.985  1.00  0.00     0.055 A 
ATOM     75  C   UNL A   1      48.428  28.749  26.620  1.00  0.00     0.041 A 
ATOM     76  F   UNL A   1      46.368  29.511  25.805  1.00  0.00    -0.206 F 
ATOM     77  C   UNL A   1      49.288  28.482  27.682  1.00  0.00     0.022 A 
BRANCH  74  78
ATOM     78  S   UNL A   1      49.956  28.516  30.392  1.00  0.00     0.124 S 
ATOM     79  O   UNL A   1      51.107  29.275  29.910  1.00  0.00    -0.237 OA
ATOM     80  O   UNL A   1      49.193  29.129  31.472  1.00  0.00    -0.237 OA
ATOM     81  O   UNL A   1      50.179  27.077  30.522  1.00  0.00    -0.744 OA
ENDBRANCH  74  78
ENDBRANCH  57  71
BRANCH  58  82
ATOM     82  C   UNL A   1      37.336  31.875  30.697  1.00  0.00     0.023 A 
ATOM     83  C   UNL A   1      36.439  32.517  29.823  1.00  0.00     0.031 A 
ATOM     84  C   UNL A   1      36.908  31.653  32.018  1.00  0.00     0.131 A 
ATOM     85  C   UNL A   1      35.184  32.952  30.284  1.00  0.00     0.055 A 
ATOM     86  C   UNL A   1      35.637  32.039  32.459  1.00  0.00     0.041 A 
ATOM     87  F   UNL A   1      37.718  31.046  32.900  1.00  0.00    -0.206 F 
ATOM     88  C   UNL A   1      34.771  32.703  31.593  1.00  0.00     0.022 A 
BRANCH  85  89
ATOM     89  S   UNL A   1      34.135  33.926  29.167  1.00  0.00     0.124 S 
ATOM     90  O   UNL A   1      35.100  34.848  28.578  1.00  0.00    -0.237 OA
ATOM     91  O   UNL A   1      33.605  32.898  28.278  1.00  0.00    -0.237 OA
ATOM     92  O   UNL A   1      33.156  34.536  30.064  1.00  0.00    -0.744 OA
ENDBRANCH  85  89
ENDBRANCH  58  82
BRANCH  70  93
ATOM     93  C   UNL A   1      43.211  35.543  29.815  1.00  0.00     0.023 A 
ATOM     94  C   UNL A   1      42.858  36.456  28.807  1.00  0.00     0.031 A 
ATOM     95  C   UNL A   1      43.878  36.040  30.950  1.00  0.00     0.131 A 
ATOM     96  C   UNL A   1      43.224  37.805  28.925  1.00  0.00     0.055 A 
ATOM     97  C   UNL A   1      44.179  37.396  31.093  1.00  0.00     0.041 A 
ATOM     98  F   UNL A   1      44.246  35.214  31.944  1.00  0.00    -0.206 F 
ATOM     99  C   UNL A   1      43.865  38.285  30.070  1.00  0.00     0.022 A 
BRANCH  96 100
ATOM    100  S   UNL A   1      42.944  38.908  27.512  1.00  0.00     0.124 S 
ATOM    101  O   UNL A   1      42.253  38.028  26.575  1.00  0.00    -0.237 OA
ATOM    102  O   UNL A   1      42.139  39.972  28.100  1.00  0.00    -0.237 OA
ATOM    103  O   UNL A   1      44.294  39.303  27.112  1.00  0.00    -0.744 OA
ENDBRANCH  96 100
ENDBRANCH  70  93
ENDBRANCH  44  45
ENDBRANCH  36  39
ENDBRANCH  34  35
ENDBRANCH  33  34
ENDBRANCH   1  33
TORSDOF 19
ENDMDL
MODEL 3
REMARK VINA RESULT:     -12.3      1.488      7.272
REMARK SMILES O=C(C[C@@H](C(=O)NCCCNC(=O)c1ccc(-c2c3nc(c(-c4cc(S(=O)(=O)[O-])ccc4F)c4ccc([nH]4)c(-c4cc(S(=O)(=O)[O-])ccc4F)c4nc(c(-c5cc(S(=O)(=O)[O-])ccc5F)c5ccc2[nH]5)C=C4)C=C3)cc1)c1ccccc1)Nc1cc(C(F)(F)F)ccc1-n1cncn1
REMARK SMILES IDX 8 1 7 2 5 3 6 4 4 6 3 7 2 8 1 9 83 10 84 12 85 13 93 14
REMARK SMILES IDX 86 15 92 16 91 17 94 18 95 19 98 20 96 21 97 22 87 23 88 24
REMARK SMILES IDX 89 25 90 26 77 27 78 28 82 29 79 30 81 31 80 32 9 33 10 34
REMARK SMILES IDX 11 35 12 36 13 38 14 39 15 40 76 41 16 42 75 43 17 44 18 45
REMARK SMILES IDX 19 46 69 47 20 48 74 49 68 50 70 51 21 52 73 53 67 54 66 55
REMARK SMILES IDX 22 57 54 58 34 59 53 60 35 61 38 62 52 63 71 64 36 65 37 66
REMARK SMILES IDX 51 68 72 69 39 70 23 71 24 72 32 73 25 74 31 75 33 76 30 77
REMARK SMILES IDX 26 78 27 79 28 80 29 81 55 82 56 83 64 84 57 85 63 86 65 87
REMARK SMILES IDX 62 88 58 89 59 90 60 91 61 92 40 93 41 94 49 95 42 96 48 97
REMARK SMILES IDX 50 98 47 99 43 100 44 101 45 102 46 103
REMARK H PARENT 7 5 83 11 11 37 70 56 38 67
REMARK Flexibility Score: inf
ROOT
ATOM      1  C   UNL A   1      36.419  21.510  25.806  1.00  0.00     0.117 C 
ENDROOT
BRANCH   1   2
ATOM      2  N   UNL A   1      35.094  21.263  26.476  1.00  0.00    -0.355 N 
ATOM      3  C   UNL A   1      34.028  22.134  26.601  1.00  0.00     0.228 C 
ATOM      4  O   UNL A   1      33.774  22.576  27.725  1.00  0.00    -0.274 OA
ATOM      5  H   UNL A   1      34.971  20.371  26.875  1.00  0.00     0.163 HD
BRANCH   3   6
ATOM      6  C   UNL A   1      33.090  22.424  25.407  1.00  0.00     0.118 C 
BRANCH   6   7
ATOM      7  C   UNL A   1      31.749  23.014  25.865  1.00  0.00     0.118 C 
BRANCH   7   8
ATOM      8  C   UNL A   1      31.604  24.469  25.564  1.00  0.00     0.225 C 
ATOM      9  O   UNL A   1      30.512  25.043  25.527  1.00  0.00    -0.275 OA
ATOM     10  N   UNL A   1      32.827  25.035  25.282  1.00  0.00    -0.324 N 
ATOM     11  H   UNL A   1      33.631  24.469  25.334  1.00  0.00     0.170 HD
BRANCH  10  12
ATOM     12  C   UNL A   1      32.975  26.371  24.928  1.00  0.00     0.067 A 
ATOM     13  C   UNL A   1      33.138  27.178  26.014  1.00  0.00     0.041 A 
ATOM     14  C   UNL A   1      33.180  26.936  23.689  1.00  0.00     0.090 A 
ATOM     15  C   UNL A   1      32.787  28.498  25.966  1.00  0.00     0.058 A 
ATOM     16  C   UNL A   1      33.381  28.317  23.609  1.00  0.00     0.031 A 
ATOM     17  C   UNL A   1      33.076  29.101  24.744  1.00  0.00     0.015 A 
BRANCH  14  18
ATOM     18  N   UNL A   1      32.960  26.178  22.537  1.00  0.00    -0.219 N 
ATOM     19  C   UNL A   1      32.089  26.497  21.524  1.00  0.00     0.226 A 
ATOM     20  N   UNL A   1      33.642  25.061  22.220  1.00  0.00    -0.155 NA
ATOM     21  N   UNL A   1      32.062  25.542  20.630  1.00  0.00    -0.223 NA
ATOM     22  C   UNL A   1      33.014  24.684  21.103  1.00  0.00     0.246 A 
ENDBRANCH  14  18
BRANCH  15  23
ATOM     23  C   UNL A   1      32.290  29.006  27.292  1.00  0.00     0.416 C 
ATOM     24  F   UNL A   1      31.179  28.322  27.714  1.00  0.00    -0.166 F 
ATOM     25  F   UNL A   1      33.154  28.816  28.325  1.00  0.00    -0.166 F 
ATOM     26  F   UNL A   1      31.937  30.313  27.309  1.00  0.00    -0.166 F 
ENDBRANCH  15  23
ENDBRANCH  10  12
ENDBRANCH   7   8
ENDBRANCH   6   7
BRANCH   6  27
ATOM     27  C   UNL A   1      32.784  21.113  24.638  1.00  0.00    -0.035 A 
ATOM     28  C   UNL A   1      32.489  21.153  23.270  1.00  0.00     0.004 A 
ATOM     29  C   UNL A   1      32.797  19.842  25.261  1.00  0.00     0.004 A 
ATOM     30  C   UNL A   1      32.206  19.977  22.562  1.00  0.00     0.000 A 
ATOM     31  C   UNL A   1      32.496  18.672  24.560  1.00  0.00     0.000 A 
ATOM     32  C   UNL A   1      32.203  18.739  23.206  1.00  0.00     0.000 A 
ENDBRANCH   6  27
ENDBRANCH   3   6
ENDBRANCH   1   2
BRANCH   1  33
ATOM     33  C   UNL A   1      36.827  20.260  24.966  1.00  0.00     0.042 C 
BRANCH  33  34
ATOM     34  C   UNL A   1      38.218  19.439  25.035  1.00  0.00     0.118 C 
BRANCH  34  35
ATOM     35  N   UNL A   1      39.569  20.132  25.316  1.00  0.00    -0.352 N 
ATOM     36  C   UNL A   1      40.231  20.353  26.585  1.00  0.00     0.251 C 
ATOM     37  H   UNL A   1      40.046  20.470  24.523  1.00  0.00     0.163 HD
ATOM     38  O   UNL A   1      40.858  19.395  27.047  1.00  0.00    -0.269 OA
BRANCH  36  39
ATOM     39  C   UNL A   1      40.573  21.772  27.185  1.00  0.00     0.039 A 
ATOM     40  C   UNL A   1      41.545  21.941  28.199  1.00  0.00     0.014 A 
ATOM     41  C   UNL A   1      39.907  22.959  26.900  1.00  0.00     0.014 A 
ATOM     42  C   UNL A   1      41.985  23.243  28.671  1.00  0.00     0.010 A 
ATOM     43  C   UNL A   1      40.426  24.251  27.244  1.00  0.00     0.010 A 
ATOM     44  C   UNL A   1      41.512  24.441  28.104  1.00  0.00    -0.014 A 
BRANCH  44  45
ATOM     45  C   UNL A   1      42.116  25.844  28.289  1.00  0.00     0.031 A 
ATOM     46  C   UNL A   1      41.300  27.020  28.850  1.00  0.00     0.074 A 
ATOM     47  C   UNL A   1      43.309  26.174  27.726  1.00  0.00     0.049 A 
ATOM     48  N   UNL A   1      41.627  28.289  28.995  1.00  0.00    -0.248 NA
ATOM     49  C   UNL A   1      39.909  26.739  29.229  1.00  0.00     0.031 C 
ATOM     50  C   UNL A   1      44.163  25.258  26.969  1.00  0.00     0.029 A 
ATOM     51  N   UNL A   1      43.991  27.379  27.638  1.00  0.00    -0.354 N 
ATOM     52  C   UNL A   1      40.483  28.945  29.462  1.00  0.00     0.074 A 
ATOM     53  C   UNL A   1      39.430  27.953  29.462  1.00  0.00     0.031 C 
ATOM     54  C   UNL A   1      45.229  25.923  26.488  1.00  0.00     0.029 A 
ATOM     55  C   UNL A   1      45.169  27.318  26.915  1.00  0.00     0.049 A 
ATOM     56  H   UNL A   1      43.664  28.208  28.057  1.00  0.00     0.167 HD
ATOM     57  C   UNL A   1      40.309  30.227  29.893  1.00  0.00     0.034 A 
ATOM     58  C   UNL A   1      46.111  28.253  26.638  1.00  0.00     0.034 A 
ATOM     59  C   UNL A   1      41.347  31.232  29.877  1.00  0.00     0.049 A 
ATOM     60  C   UNL A   1      45.956  29.656  27.185  1.00  0.00     0.074 A 
ATOM     61  C   UNL A   1      41.336  32.506  30.422  1.00  0.00     0.029 A 
ATOM     62  N   UNL A   1      42.576  31.085  29.249  1.00  0.00    -0.354 N 
ATOM     63  N   UNL A   1      44.946  30.181  27.839  1.00  0.00    -0.248 NA
ATOM     64  C   UNL A   1      47.084  30.583  26.990  1.00  0.00     0.031 C 
ATOM     65  C   UNL A   1      42.525  33.152  30.063  1.00  0.00     0.029 A 
ATOM     66  C   UNL A   1      43.314  32.254  29.364  1.00  0.00     0.049 A 
ATOM     67  H   UNL A   1      42.880  30.271  28.788  1.00  0.00     0.167 HD
ATOM     68  C   UNL A   1      45.336  31.478  28.169  1.00  0.00     0.074 A 
ATOM     69  C   UNL A   1      46.679  31.652  27.658  1.00  0.00     0.031 C 
ATOM     70  C   UNL A   1      44.648  32.435  28.843  1.00  0.00     0.034 A 
BRANCH  57  71
ATOM     71  C   UNL A   1      38.953  30.609  30.469  1.00  0.00     0.023 A 
ATOM     72  C   UNL A   1      37.937  31.128  29.643  1.00  0.00     0.031 A 
ATOM     73  C   UNL A   1      38.648  30.441  31.833  1.00  0.00     0.131 A 
ATOM     74  C   UNL A   1      36.715  31.546  30.192  1.00  0.00     0.055 A 
ATOM     75  C   UNL A   1      37.394  30.776  32.360  1.00  0.00     0.041 A 
ATOM     76  F   UNL A   1      39.563  29.952  32.686  1.00  0.00    -0.206 F 
ATOM     77  C   UNL A   1      36.425  31.349  31.541  1.00  0.00     0.022 A 
BRANCH  74  78
ATOM     78  S   UNL A   1      35.573  32.477  29.134  1.00  0.00     0.124 S 
ATOM     79  O   UNL A   1      36.497  33.281  28.340  1.00  0.00    -0.237 OA
ATOM     80  O   UNL A   1      34.871  31.418  28.420  1.00  0.00    -0.237 OA
ATOM     81  O   UNL A   1      34.763  33.234  30.087  1.00  0.00    -0.744 OA
ENDBRANCH  74  78
ENDBRANCH  57  71
BRANCH  58  82
ATOM     82  C   UNL A   1      47.351  27.891  25.874  1.00  0.00     0.023 A 
ATOM     83  C   UNL A   1      47.398  28.040  24.476  1.00  0.00     0.031 A 
ATOM     84  C   UNL A   1      48.486  27.354  26.508  1.00  0.00     0.131 A 
ATOM     85  C   UNL A   1      48.529  27.622  23.753  1.00  0.00     0.055 A 
ATOM     86  C   UNL A   1      49.631  26.988  25.790  1.00  0.00     0.041 A 
ATOM     87  F   UNL A   1      48.503  27.185  27.840  1.00  0.00    -0.206 F 
ATOM     88  C   UNL A   1      49.653  27.111  24.403  1.00  0.00     0.022 A 
BRANCH  85  89
ATOM     89  S   UNL A   1      48.473  27.677  21.939  1.00  0.00     0.124 S 
ATOM     90  O   UNL A   1      49.564  28.594  21.634  1.00  0.00    -0.237 OA
ATOM     91  O   UNL A   1      48.694  26.278  21.588  1.00  0.00    -0.237 OA
ATOM     92  O   UNL A   1      47.132  28.183  21.653  1.00  0.00    -0.744 OA
ENDBRANCH  85  89
ENDBRANCH  58  82
BRANCH  70  93
ATOM     93  C   UNL A   1      45.348  33.750  29.102  1.00  0.00     0.023 A 
ATOM     94  C   UNL A   1      45.381  34.772  28.138  1.00  0.00     0.031 A 
ATOM     95  C   UNL A   1      45.998  33.979  30.328  1.00  0.00     0.131 A 
ATOM     96  C   UNL A   1      46.098  35.951  28.392  1.00  0.00     0.055 A 
ATOM     97  C   UNL A   1      46.652  35.182  30.602  1.00  0.00     0.041 A 
ATOM     98  F   UNL A   1      46.005  33.037  31.285  1.00  0.00    -0.206 F 
ATOM     99  C   UNL A   1      46.717  36.171  29.625  1.00  0.00     0.022 A 
BRANCH  96 100
ATOM    100  S   UNL A   1      46.300  37.152  27.048  1.00  0.00     0.124 S 
ATOM    101  O   UNL A   1      45.053  37.907  27.129  1.00  0.00    -0.237 OA
ATOM    102  O   UNL A   1      47.506  37.869  27.448  1.00  0.00    -0.237 OA
ATOM    103  O   UNL A   1      46.443  36.316  25.858  1.00  0.00    -0.744 OA
ENDBRANCH  96 100
ENDBRANCH  70  93
ENDBRANCH  44  45
ENDBRANCH  36  39
ENDBRANCH  34  35
ENDBRANCH  33  34
ENDBRANCH   1  33
TORSDOF 19
ENDMDL
