MODEL 1
REMARK VINA RESULT:     -11.7      0.000      0.000
REMARK SMILES CC(C)[C@H](NS(=O)(=O)c1cccc(F)c1)C(=O)NCCCNC(=O)c1ccc(-c2c3nc(c(-c4cc(S(=O)(=O)[O-])ccc4F)c4ccc([nH]4)c(-c4cc(S(=O)(=O)[O-])ccc4F)c4nc(c(-c5cc(S(=O)(=O)[O-])ccc5F)c5ccc2[nH]5)C=C4)C=C3)cc1
REMARK SMILES IDX 20 1 19 2 18 3 16 4 17 5 4 7 2 8 1 9 3 10 5 11 6 13 7 14
REMARK SMILES IDX 8 15 9 16 10 17 15 18 11 19 13 20 12 21 14 22 21 23 22 24
REMARK SMILES IDX 23 25 24 27 25 28 26 29 87 30 27 31 86 32 28 33 29 34 30 35
REMARK SMILES IDX 80 36 31 37 85 38 79 39 81 40 32 41 84 42 78 43 77 44 33 46
REMARK SMILES IDX 65 47 45 48 64 49 46 50 49 51 63 52 82 53 47 54 48 55 62 57
REMARK SMILES IDX 83 58 50 59 34 60 35 61 43 62 36 63 42 64 44 65 41 66 37 67
REMARK SMILES IDX 38 68 39 69 40 70 66 71 67 72 75 73 68 74 74 75 76 76 73 77
REMARK SMILES IDX 69 78 70 79 71 80 72 81 51 82 52 83 60 84 53 85 59 86 61 87
REMARK SMILES IDX 58 88 54 89 55 90 56 91 57 92
REMARK H PARENT 18 6 5 12 22 26 81 45 49 56
REMARK Flexibility Score: inf
ROOT
ATOM      1  C   UNL A   1      35.881  21.622  25.540  1.00  0.00     0.042 C 
ENDROOT
BRANCH   1   2
ATOM      2  C   UNL A   1      35.658  22.824  26.435  1.00  0.00     0.117 C 
BRANCH   2   3
ATOM      3  N   UNL A   1      34.591  22.631  27.392  1.00  0.00    -0.355 N 
ATOM      4  C   UNL A   1      33.280  22.985  27.307  1.00  0.00     0.238 C 
ATOM      5  O   UNL A   1      32.537  22.625  28.225  1.00  0.00    -0.273 OA
ATOM      6  H   UNL A   1      34.852  22.180  28.226  1.00  0.00     0.163 HD
BRANCH   4   7
ATOM      7  C   UNL A   1      32.733  23.835  26.146  1.00  0.00     0.161 C 
BRANCH   7   8
ATOM      8  C   UNL A   1      32.183  25.255  26.454  1.00  0.00     0.010 C 
ATOM      9  C   UNL A   1      33.064  26.456  26.089  1.00  0.00     0.009 C 
ATOM     10  C   UNL A   1      30.747  25.472  25.967  1.00  0.00     0.009 C 
ENDBRANCH   7   8
BRANCH   7  11
ATOM     11  N   UNL A   1      31.823  23.017  25.333  1.00  0.00    -0.198 NA
ATOM     12  H   UNL A   1      30.949  23.538  25.266  1.00  0.00     0.142 HD
BRANCH  11  13
ATOM     13  S   UNL A   1      32.217  22.557  23.779  1.00  0.00     0.241 S 
ATOM     14  O   UNL A   1      31.057  22.855  22.974  1.00  0.00    -0.207 OA
ATOM     15  O   UNL A   1      33.518  23.112  23.469  1.00  0.00    -0.207 OA
BRANCH  13  16
ATOM     16  C   UNL A   1      32.383  20.791  23.867  1.00  0.00     0.085 A 
ATOM     17  C   UNL A   1      32.573  20.166  25.107  1.00  0.00     0.022 A 
ATOM     18  C   UNL A   1      32.229  20.028  22.707  1.00  0.00     0.061 A 
ATOM     19  C   UNL A   1      32.655  18.771  25.173  1.00  0.00     0.004 A 
ATOM     20  C   UNL A   1      32.335  18.646  22.788  1.00  0.00     0.124 A 
ATOM     21  C   UNL A   1      32.547  18.012  24.007  1.00  0.00     0.039 A 
ATOM     22  F   UNL A   1      32.215  17.914  21.674  1.00  0.00    -0.207 F 
ENDBRANCH  13  16
ENDBRANCH  11  13
ENDBRANCH   7  11
ENDBRANCH   4   7
ENDBRANCH   2   3
ENDBRANCH   1   2
BRANCH   1  23
ATOM     23  C   UNL A   1      37.245  21.607  24.872  1.00  0.00     0.118 C 
BRANCH  23  24
ATOM     24  N   UNL A   1      38.106  20.539  25.367  1.00  0.00    -0.352 N 
ATOM     25  C   UNL A   1      39.309  20.611  26.030  1.00  0.00     0.251 C 
ATOM     26  H   UNL A   1      37.775  19.628  25.202  1.00  0.00     0.163 HD
ATOM     27  O   UNL A   1      39.972  19.591  26.192  1.00  0.00    -0.269 OA
BRANCH  25  28
ATOM     28  C   UNL A   1      39.807  21.917  26.513  1.00  0.00     0.039 A 
ATOM     29  C   UNL A   1      40.832  21.950  27.461  1.00  0.00     0.014 A 
ATOM     30  C   UNL A   1      39.282  23.108  26.008  1.00  0.00     0.014 A 
ATOM     31  C   UNL A   1      41.388  23.177  27.831  1.00  0.00     0.010 A 
ATOM     32  C   UNL A   1      39.913  24.313  26.286  1.00  0.00     0.010 A 
ATOM     33  C   UNL A   1      40.968  24.363  27.207  1.00  0.00    -0.014 A 
BRANCH  33  34
ATOM     34  C   UNL A   1      41.607  25.669  27.506  1.00  0.00     0.031 A 
ATOM     35  C   UNL A   1      40.866  26.701  28.314  1.00  0.00     0.074 A 
ATOM     36  C   UNL A   1      42.823  25.952  26.996  1.00  0.00     0.049 A 
ATOM     37  N   UNL A   1      41.212  27.928  28.602  1.00  0.00    -0.248 NA
ATOM     38  C   UNL A   1      39.546  26.313  28.837  1.00  0.00     0.031 C 
ATOM     39  C   UNL A   1      43.622  25.049  26.165  1.00  0.00     0.029 A 
ATOM     40  N   UNL A   1      43.601  27.078  27.101  1.00  0.00    -0.354 N 
ATOM     41  C   UNL A   1      40.151  28.460  29.325  1.00  0.00     0.074 A 
ATOM     42  C   UNL A   1      39.121  27.447  29.373  1.00  0.00     0.031 C 
ATOM     43  C   UNL A   1      44.793  25.637  25.875  1.00  0.00     0.029 A 
ATOM     44  C   UNL A   1      44.807  26.979  26.449  1.00  0.00     0.049 A 
ATOM     45  H   UNL A   1      43.321  27.881  27.596  1.00  0.00     0.167 HD
ATOM     46  C   UNL A   1      40.056  29.674  29.917  1.00  0.00     0.034 A 
ATOM     47  C   UNL A   1      45.811  27.869  26.318  1.00  0.00     0.034 A 
ATOM     48  C   UNL A   1      41.101  30.663  29.886  1.00  0.00     0.049 A 
ATOM     49  C   UNL A   1      45.675  29.221  26.962  1.00  0.00     0.074 A 
ATOM     50  C   UNL A   1      41.132  31.899  30.506  1.00  0.00     0.029 A 
ATOM     51  N   UNL A   1      42.299  30.532  29.196  1.00  0.00    -0.354 N 
ATOM     52  N   UNL A   1      44.673  29.701  27.661  1.00  0.00    -0.248 NA
ATOM     53  C   UNL A   1      46.799  30.152  26.801  1.00  0.00     0.031 C 
ATOM     54  C   UNL A   1      42.313  32.545  30.132  1.00  0.00     0.029 A 
ATOM     55  C   UNL A   1      43.060  31.681  29.345  1.00  0.00     0.049 A 
ATOM     56  H   UNL A   1      42.569  29.741  28.677  1.00  0.00     0.167 HD
ATOM     57  C   UNL A   1      45.054  30.984  28.040  1.00  0.00     0.074 A 
ATOM     58  C   UNL A   1      46.379  31.202  27.495  1.00  0.00     0.031 C 
ATOM     59  C   UNL A   1      44.371  31.893  28.780  1.00  0.00     0.034 A 
BRANCH  46  60
ATOM     60  C   UNL A   1      38.772  30.003  30.638  1.00  0.00     0.023 A 
ATOM     61  C   UNL A   1      37.755  30.758  30.027  1.00  0.00     0.031 A 
ATOM     62  C   UNL A   1      38.557  29.544  31.949  1.00  0.00     0.131 A 
ATOM     63  C   UNL A   1      36.595  31.077  30.746  1.00  0.00     0.055 A 
ATOM     64  C   UNL A   1      37.369  29.805  32.633  1.00  0.00     0.041 A 
ATOM     65  F   UNL A   1      39.502  28.836  32.588  1.00  0.00    -0.206 F 
ATOM     66  C   UNL A   1      36.383  30.584  32.035  1.00  0.00     0.022 A 
BRANCH  63  67
ATOM     67  S   UNL A   1      35.407  32.231  30.007  1.00  0.00     0.124 S 
ATOM     68  O   UNL A   1      34.926  31.463  28.860  1.00  0.00    -0.237 OA
ATOM     69  O   UNL A   1      34.448  32.434  31.086  1.00  0.00    -0.237 OA
ATOM     70  O   UNL A   1      36.225  33.395  29.671  1.00  0.00    -0.744 OA
ENDBRANCH  63  67
ENDBRANCH  46  60
BRANCH  47  71
ATOM     71  C   UNL A   1      47.027  27.497  25.543  1.00  0.00     0.023 A 
ATOM     72  C   UNL A   1      47.116  27.768  24.169  1.00  0.00     0.031 A 
ATOM     73  C   UNL A   1      48.135  26.908  26.176  1.00  0.00     0.131 A 
ATOM     74  C   UNL A   1      48.288  27.440  23.468  1.00  0.00     0.055 A 
ATOM     75  C   UNL A   1      49.311  26.617  25.483  1.00  0.00     0.041 A 
ATOM     76  F   UNL A   1      48.102  26.644  27.493  1.00  0.00    -0.206 F 
ATOM     77  C   UNL A   1      49.391  26.881  24.119  1.00  0.00     0.022 A 
BRANCH  74  78
ATOM     78  S   UNL A   1      48.356  27.755  21.683  1.00  0.00     0.124 S 
ATOM     79  O   UNL A   1      48.609  26.419  21.156  1.00  0.00    -0.237 OA
ATOM     80  O   UNL A   1      47.032  28.310  21.419  1.00  0.00    -0.237 OA
ATOM     81  O   UNL A   1      49.461  28.701  21.546  1.00  0.00    -0.744 OA
ENDBRANCH  74  78
ENDBRANCH  47  71
BRANCH  59  82
ATOM     82  C   UNL A   1      45.048  33.206  29.072  1.00  0.00     0.023 A 
ATOM     83  C   UNL A   1      44.922  34.307  28.209  1.00  0.00     0.031 A 
ATOM     84  C   UNL A   1      45.773  33.374  30.266  1.00  0.00     0.131 A 
ATOM     85  C   UNL A   1      45.535  35.524  28.541  1.00  0.00     0.055 A 
ATOM     86  C   UNL A   1      46.338  34.601  30.614  1.00  0.00     0.041 A 
ATOM     87  F   UNL A   1      45.919  32.354  31.126  1.00  0.00    -0.206 F 
ATOM     88  C   UNL A   1      46.224  35.683  29.747  1.00  0.00     0.022 A 
BRANCH  85  89
ATOM     89  S   UNL A   1      45.448  36.895  27.358  1.00  0.00     0.124 S 
ATOM     90  O   UNL A   1      46.171  36.352  26.213  1.00  0.00    -0.237 OA
ATOM     91  O   UNL A   1      44.010  37.068  27.180  1.00  0.00    -0.237 OA
ATOM     92  O   UNL A   1      46.121  37.992  28.053  1.00  0.00    -0.744 OA
ENDBRANCH  85  89
ENDBRANCH  59  82
ENDBRANCH  33  34
ENDBRANCH  25  28
ENDBRANCH  23  24
ENDBRANCH   1  23
TORSDOF 17
ENDMDL
MODEL 2
REMARK VINA RESULT:     -11.7      5.407     10.381
REMARK SMILES CC(C)[C@H](NS(=O)(=O)c1cccc(F)c1)C(=O)NCCCNC(=O)c1ccc(-c2c3nc(c(-c4cc(S(=O)(=O)[O-])ccc4F)c4ccc([nH]4)c(-c4cc(S(=O)(=O)[O-])ccc4F)c4nc(c(-c5cc(S(=O)(=O)[O-])ccc5F)c5ccc2[nH]5)C=C4)C=C3)cc1
REMARK SMILES IDX 20 1 19 2 18 3 16 4 17 5 4 7 2 8 1 9 3 10 5 11 6 13 7 14
REMARK SMILES IDX 8 15 9 16 10 17 15 18 11 19 13 20 12 21 14 22 21 23 22 24
REMARK SMILES IDX 23 25 24 27 25 28 26 29 87 30 27 31 86 32 28 33 29 34 30 35
REMARK SMILES IDX 80 36 31 37 85 38 79 39 81 40 32 41 84 42 78 43 77 44 33 46
REMARK SMILES IDX 65 47 45 48 64 49 46 50 49 51 63 52 82 53 47 54 48 55 62 57
REMARK SMILES IDX 83 58 50 59 34 60 35 61 43 62 36 63 42 64 44 65 41 66 37 67
REMARK SMILES IDX 38 68 39 69 40 70 66 71 67 72 75 73 68 74 74 75 76 76 73 77
REMARK SMILES IDX 69 78 70 79 71 80 72 81 51 82 52 83 60 84 53 85 59 86 61 87
REMARK SMILES IDX 58 88 54 89 55 90 56 91 57 92
REMARK H PARENT 18 6 5 12 22 26 81 45 49 56
REMARK Flexibility Score: inf
ROOT
ATOM      1  C   UNL A   1      31.722  28.534  25.959  1.00  0.00     0.042 C 
ENDROOT
BRANCH   1   2
ATOM      2  C   UNL A   1      32.371  27.280  26.505  1.00  0.00     0.117 C 
BRANCH   2   3
ATOM      3  N   UNL A   1      31.420  26.240  26.828  1.00  0.00    -0.355 N 
ATOM      4  C   UNL A   1      31.488  24.902  26.588  1.00  0.00     0.238 C 
ATOM      5  O   UNL A   1      30.583  24.199  27.048  1.00  0.00    -0.273 OA
ATOM      6  H   UNL A   1      30.605  26.544  27.286  1.00  0.00     0.163 HD
BRANCH   4   7
ATOM      7  C   UNL A   1      32.613  24.276  25.746  1.00  0.00     0.161 C 
BRANCH   7   8
ATOM      8  C   UNL A   1      33.985  23.996  26.422  1.00  0.00     0.010 C 
ATOM      9  C   UNL A   1      34.164  22.655  27.144  1.00  0.00     0.009 C 
ATOM     10  C   UNL A   1      35.183  24.282  25.511  1.00  0.00     0.009 C 
ENDBRANCH   7   8
BRANCH   7  11
ATOM     11  N   UNL A   1      32.723  24.997  24.471  1.00  0.00    -0.198 NA
ATOM     12  H   UNL A   1      33.651  24.787  24.100  1.00  0.00     0.142 HD
BRANCH  11  13
ATOM     13  S   UNL A   1      31.648  24.734  23.225  1.00  0.00     0.241 S 
ATOM     14  O   UNL A   1      32.442  24.696  22.020  1.00  0.00    -0.207 OA
ATOM     15  O   UNL A   1      30.792  23.629  23.604  1.00  0.00    -0.207 OA
BRANCH  13  16
ATOM     16  C   UNL A   1      30.653  26.204  23.178  1.00  0.00     0.085 A 
ATOM     17  C   UNL A   1      31.150  27.368  22.576  1.00  0.00     0.022 A 
ATOM     18  C   UNL A   1      29.343  26.162  23.661  1.00  0.00     0.061 A 
ATOM     19  C   UNL A   1      30.342  28.507  22.501  1.00  0.00     0.004 A 
ATOM     20  C   UNL A   1      28.563  27.309  23.597  1.00  0.00     0.124 A 
ATOM     21  C   UNL A   1      29.049  28.479  23.024  1.00  0.00     0.039 A 
ATOM     22  F   UNL A   1      27.315  27.280  24.084  1.00  0.00    -0.207 F 
ENDBRANCH  13  16
ENDBRANCH  11  13
ENDBRANCH   7  11
ENDBRANCH   4   7
ENDBRANCH   2   3
ENDBRANCH   1   2
BRANCH   1  23
ATOM     23  C   UNL A   1      32.717  29.613  25.566  1.00  0.00     0.118 C 
BRANCH  23  24
ATOM     24  N   UNL A   1      32.333  30.937  26.040  1.00  0.00    -0.352 N 
ATOM     25  C   UNL A   1      32.909  31.732  27.003  1.00  0.00     0.251 C 
ATOM     26  H   UNL A   1      31.539  31.321  25.603  1.00  0.00     0.163 HD
ATOM     27  O   UNL A   1      32.318  32.735  27.392  1.00  0.00    -0.269 OA
BRANCH  25  28
ATOM     28  C   UNL A   1      34.216  31.356  27.583  1.00  0.00     0.039 A 
ATOM     29  C   UNL A   1      35.172  32.347  27.816  1.00  0.00     0.014 A 
ATOM     30  C   UNL A   1      34.487  30.029  27.923  1.00  0.00     0.014 A 
ATOM     31  C   UNL A   1      36.360  32.016  28.472  1.00  0.00     0.010 A 
ATOM     32  C   UNL A   1      35.611  29.726  28.679  1.00  0.00     0.010 A 
ATOM     33  C   UNL A   1      36.565  30.714  28.956  1.00  0.00    -0.014 A 
BRANCH  33  34
ATOM     34  C   UNL A   1      37.771  30.356  29.744  1.00  0.00     0.031 A 
ATOM     35  C   UNL A   1      38.821  29.459  29.144  1.00  0.00     0.074 A 
ATOM     36  C   UNL A   1      37.889  30.780  31.018  1.00  0.00     0.049 A 
ATOM     37  N   UNL A   1      39.895  28.959  29.699  1.00  0.00    -0.248 NA
ATOM     38  C   UNL A   1      38.620  29.042  27.747  1.00  0.00     0.031 C 
ATOM     39  C   UNL A   1      36.918  31.620  31.723  1.00  0.00     0.029 A 
ATOM     40  N   UNL A   1      38.876  30.567  31.948  1.00  0.00    -0.354 N 
ATOM     41  C   UNL A   1      40.485  28.161  28.726  1.00  0.00     0.074 A 
ATOM     42  C   UNL A   1      39.617  28.188  27.571  1.00  0.00     0.031 C 
ATOM     43  C   UNL A   1      37.378  31.887  32.954  1.00  0.00     0.029 A 
ATOM     44  C   UNL A   1      38.647  31.194  33.150  1.00  0.00     0.049 A 
ATOM     45  H   UNL A   1      39.672  30.016  31.771  1.00  0.00     0.167 HD
ATOM     46  C   UNL A   1      41.659  27.488  28.784  1.00  0.00     0.034 A 
ATOM     47  C   UNL A   1      39.371  31.204  34.287  1.00  0.00     0.034 A 
ATOM     48  C   UNL A   1      42.528  27.493  29.931  1.00  0.00     0.049 A 
ATOM     49  C   UNL A   1      40.658  30.430  34.339  1.00  0.00     0.074 A 
ATOM     50  C   UNL A   1      43.769  26.897  30.070  1.00  0.00     0.029 A 
ATOM     51  N   UNL A   1      42.250  28.123  31.137  1.00  0.00    -0.354 N 
ATOM     52  N   UNL A   1      41.214  29.696  33.403  1.00  0.00    -0.248 NA
ATOM     53  C   UNL A   1      41.416  30.480  35.596  1.00  0.00     0.031 C 
ATOM     54  C   UNL A   1      44.206  27.104  31.381  1.00  0.00     0.029 A 
ATOM     55  C   UNL A   1      43.278  27.897  32.038  1.00  0.00     0.049 A 
ATOM     56  H   UNL A   1      41.441  28.651  31.325  1.00  0.00     0.167 HD
ATOM     57  C   UNL A   1      42.398  29.213  33.951  1.00  0.00     0.074 A 
ATOM     58  C   UNL A   1      42.478  29.741  35.298  1.00  0.00     0.031 C 
ATOM     59  C   UNL A   1      43.336  28.413  33.384  1.00  0.00     0.034 A 
BRANCH  46  60
ATOM     60  C   UNL A   1      42.062  26.680  27.576  1.00  0.00     0.023 A 
ATOM     61  C   UNL A   1      41.771  25.308  27.474  1.00  0.00     0.031 A 
ATOM     62  C   UNL A   1      42.737  27.293  26.506  1.00  0.00     0.131 A 
ATOM     63  C   UNL A   1      42.201  24.584  26.352  1.00  0.00     0.055 A 
ATOM     64  C   UNL A   1      43.098  26.582  25.360  1.00  0.00     0.041 A 
ATOM     65  F   UNL A   1      43.060  28.595  26.558  1.00  0.00    -0.206 F 
ATOM     66  C   UNL A   1      42.839  25.217  25.283  1.00  0.00     0.022 A 
BRANCH  63  67
ATOM     67  S   UNL A   1      42.000  22.782  26.355  1.00  0.00     0.124 S 
ATOM     68  O   UNL A   1      42.771  22.402  27.537  1.00  0.00    -0.237 OA
ATOM     69  O   UNL A   1      40.554  22.624  26.458  1.00  0.00    -0.237 OA
ATOM     70  O   UNL A   1      42.584  22.371  25.079  1.00  0.00    -0.744 OA
ENDBRANCH  63  67
ENDBRANCH  46  60
BRANCH  47  71
ATOM     71  C   UNL A   1      38.882  31.977  35.463  1.00  0.00     0.023 A 
ATOM     72  C   UNL A   1      38.232  31.335  36.528  1.00  0.00     0.031 A 
ATOM     73  C   UNL A   1      39.100  33.363  35.557  1.00  0.00     0.131 A 
ATOM     74  C   UNL A   1      37.814  32.082  37.641  1.00  0.00     0.055 A 
ATOM     75  C   UNL A   1      38.714  34.095  36.680  1.00  0.00     0.041 A 
ATOM     76  F   UNL A   1      39.731  34.018  34.568  1.00  0.00    -0.206 F 
ATOM     77  C   UNL A   1      38.064  33.454  37.731  1.00  0.00     0.022 A 
BRANCH  74  78
ATOM     78  S   UNL A   1      36.932  31.235  38.981  1.00  0.00     0.124 S 
ATOM     79  O   UNL A   1      35.732  32.054  39.109  1.00  0.00    -0.237 OA
ATOM     80  O   UNL A   1      36.742  29.899  38.425  1.00  0.00    -0.237 OA
ATOM     81  O   UNL A   1      37.864  31.311  40.103  1.00  0.00    -0.744 OA
ENDBRANCH  74  78
ENDBRANCH  47  71
BRANCH  59  82
ATOM     82  C   UNL A   1      44.552  28.074  34.206  1.00  0.00     0.023 A 
ATOM     83  C   UNL A   1      44.582  26.945  35.042  1.00  0.00     0.031 A 
ATOM     84  C   UNL A   1      45.717  28.854  34.096  1.00  0.00     0.131 A 
ATOM     85  C   UNL A   1      45.750  26.641  35.757  1.00  0.00     0.055 A 
ATOM     86  C   UNL A   1      46.890  28.518  34.772  1.00  0.00     0.041 A 
ATOM     87  F   UNL A   1      45.739  29.940  33.308  1.00  0.00    -0.206 F 
ATOM     88  C   UNL A   1      46.909  27.409  35.611  1.00  0.00     0.022 A 
BRANCH  85  89
ATOM     89  S   UNL A   1      45.727  25.243  36.912  1.00  0.00     0.124 S 
ATOM     90  O   UNL A   1      46.970  24.556  36.578  1.00  0.00    -0.237 OA
ATOM     91  O   UNL A   1      45.695  25.908  38.211  1.00  0.00    -0.237 OA
ATOM     92  O   UNL A   1      44.505  24.524  36.556  1.00  0.00    -0.744 OA
ENDBRANCH  85  89
ENDBRANCH  59  82
ENDBRANCH  33  34
ENDBRANCH  25  28
ENDBRANCH  23  24
ENDBRANCH   1  23
TORSDOF 17
ENDMDL
MODEL 3
REMARK VINA RESULT:     -11.6      5.700     10.623
REMARK SMILES CC(C)[C@H](NS(=O)(=O)c1cccc(F)c1)C(=O)NCCCNC(=O)c1ccc(-c2c3nc(c(-c4cc(S(=O)(=O)[O-])ccc4F)c4ccc([nH]4)c(-c4cc(S(=O)(=O)[O-])ccc4F)c4nc(c(-c5cc(S(=O)(=O)[O-])ccc5F)c5ccc2[nH]5)C=C4)C=C3)cc1
REMARK SMILES IDX 20 1 19 2 18 3 16 4 17 5 4 7 2 8 1 9 3 10 5 11 6 13 7 14
REMARK SMILES IDX 8 15 9 16 10 17 15 18 11 19 13 20 12 21 14 22 21 23 22 24
REMARK SMILES IDX 23 25 24 27 25 28 26 29 87 30 27 31 86 32 28 33 29 34 30 35
REMARK SMILES IDX 80 36 31 37 85 38 79 39 81 40 32 41 84 42 78 43 77 44 33 46
REMARK SMILES IDX 65 47 45 48 64 49 46 50 49 51 63 52 82 53 47 54 48 55 62 57
REMARK SMILES IDX 83 58 50 59 34 60 35 61 43 62 36 63 42 64 44 65 41 66 37 67
REMARK SMILES IDX 38 68 39 69 40 70 66 71 67 72 75 73 68 74 74 75 76 76 73 77
REMARK SMILES IDX 69 78 70 79 71 80 72 81 51 82 52 83 60 84 53 85 59 86 61 87
REMARK SMILES IDX 58 88 54 89 55 90 56 91 57 92
REMARK H PARENT 18 6 5 12 22 26 81 45 49 56
REMARK Flexibility Score: inf
ROOT
ATOM      1  C   UNL A   1      31.647  29.527  27.009  1.00  0.00     0.042 C 
ENDROOT
BRANCH   1   2
ATOM      2  C   UNL A   1      32.313  28.213  27.362  1.00  0.00     0.117 C 
BRANCH   2   3
ATOM      3  N   UNL A   1      31.415  27.083  27.296  1.00  0.00    -0.355 N 
ATOM      4  C   UNL A   1      31.147  26.251  26.252  1.00  0.00     0.238 C 
ATOM      5  O   UNL A   1      30.403  25.291  26.471  1.00  0.00    -0.273 OA
ATOM      6  H   UNL A   1      30.924  26.887  28.126  1.00  0.00     0.163 HD
BRANCH   4   7
ATOM      7  C   UNL A   1      31.702  26.504  24.839  1.00  0.00     0.161 C 
BRANCH   7   8
ATOM      8  C   UNL A   1      33.239  26.438  24.618  1.00  0.00     0.010 C 
ATOM      9  C   UNL A   1      34.048  25.486  25.507  1.00  0.00     0.009 C 
ATOM     10  C   UNL A   1      33.637  26.272  23.148  1.00  0.00     0.009 C 
ENDBRANCH   7   8
BRANCH   7  11
ATOM     11  N   UNL A   1      31.080  27.713  24.283  1.00  0.00    -0.198 NA
ATOM     12  H   UNL A   1      31.836  28.265  23.877  1.00  0.00     0.142 HD
BRANCH  11  13
ATOM     13  S   UNL A   1      29.886  27.624  23.123  1.00  0.00     0.241 S 
ATOM     14  O   UNL A   1      30.567  27.370  21.876  1.00  0.00    -0.207 OA
ATOM     15  O   UNL A   1      28.853  26.739  23.617  1.00  0.00    -0.207 OA
BRANCH  13  16
ATOM     16  C   UNL A   1      29.212  29.265  23.053  1.00  0.00     0.085 A 
ATOM     17  C   UNL A   1      28.084  29.527  22.262  1.00  0.00     0.022 A 
ATOM     18  C   UNL A   1      29.754  30.266  23.862  1.00  0.00     0.061 A 
ATOM     19  C   UNL A   1      27.531  30.811  22.250  1.00  0.00     0.004 A 
ATOM     20  C   UNL A   1      29.205  31.540  23.822  1.00  0.00     0.124 A 
ATOM     21  C   UNL A   1      28.101  31.822  23.024  1.00  0.00     0.039 A 
ATOM     22  F   UNL A   1      29.740  32.509  24.576  1.00  0.00    -0.207 F 
ENDBRANCH  13  16
ENDBRANCH  11  13
ENDBRANCH   7  11
ENDBRANCH   4   7
ENDBRANCH   2   3
ENDBRANCH   1   2
BRANCH   1  23
ATOM     23  C   UNL A   1      32.543  30.474  26.229  1.00  0.00     0.118 C 
BRANCH  23  24
ATOM     24  N   UNL A   1      32.362  31.869  26.612  1.00  0.00    -0.352 N 
ATOM     25  C   UNL A   1      33.103  32.655  27.462  1.00  0.00     0.251 C 
ATOM     26  H   UNL A   1      31.589  32.317  26.197  1.00  0.00     0.163 HD
ATOM     27  O   UNL A   1      32.672  33.753  27.801  1.00  0.00    -0.269 OA
BRANCH  25  28
ATOM     28  C   UNL A   1      34.395  32.160  27.984  1.00  0.00     0.039 A 
ATOM     29  C   UNL A   1      35.487  33.028  28.045  1.00  0.00     0.014 A 
ATOM     30  C   UNL A   1      34.519  30.846  28.441  1.00  0.00     0.014 A 
ATOM     31  C   UNL A   1      36.673  32.602  28.647  1.00  0.00     0.010 A 
ATOM     32  C   UNL A   1      35.654  30.464  29.143  1.00  0.00     0.010 A 
ATOM     33  C   UNL A   1      36.748  31.334  29.248  1.00  0.00    -0.014 A 
BRANCH  33  34
ATOM     34  C   UNL A   1      37.960  30.890  29.982  1.00  0.00     0.031 A 
ATOM     35  C   UNL A   1      38.910  29.914  29.341  1.00  0.00     0.074 A 
ATOM     36  C   UNL A   1      38.169  31.311  31.245  1.00  0.00     0.049 A 
ATOM     37  N   UNL A   1      39.967  29.338  29.850  1.00  0.00    -0.248 NA
ATOM     38  C   UNL A   1      38.612  29.506  27.959  1.00  0.00     0.031 C 
ATOM     39  C   UNL A   1      37.298  32.226  31.988  1.00  0.00     0.029 A 
ATOM     40  N   UNL A   1      39.179  31.029  32.130  1.00  0.00    -0.354 N 
ATOM     41  C   UNL A   1      40.450  28.492  28.858  1.00  0.00     0.074 A 
ATOM     42  C   UNL A   1      39.533  28.579  27.744  1.00  0.00     0.031 C 
ATOM     43  C   UNL A   1      37.833  32.463  33.194  1.00  0.00     0.029 A 
ATOM     44  C   UNL A   1      39.054  31.677  33.337  1.00  0.00     0.049 A 
ATOM     45  H   UNL A   1      39.922  30.419  31.921  1.00  0.00     0.167 HD
ATOM     46  C   UNL A   1      41.571  27.733  28.866  1.00  0.00     0.034 A 
ATOM     47  C   UNL A   1      39.830  31.639  34.439  1.00  0.00     0.034 A 
ATOM     48  C   UNL A   1      42.492  27.678  29.972  1.00  0.00     0.049 A 
ATOM     49  C   UNL A   1      41.057  30.769  34.437  1.00  0.00     0.074 A 
ATOM     50  C   UNL A   1      43.689  26.991  30.058  1.00  0.00     0.029 A 
ATOM     51  N   UNL A   1      42.318  28.333  31.184  1.00  0.00    -0.354 N 
ATOM     52  N   UNL A   1      41.511  29.991  33.482  1.00  0.00    -0.248 NA
ATOM     53  C   UNL A   1      41.874  30.768  35.657  1.00  0.00     0.031 C 
ATOM     54  C   UNL A   1      44.202  27.171  31.346  1.00  0.00     0.029 A 
ATOM     55  C   UNL A   1      43.368  28.035  32.038  1.00  0.00     0.049 A 
ATOM     56  H   UNL A   1      41.561  28.922  31.405  1.00  0.00     0.167 HD
ATOM     57  C   UNL A   1      42.680  29.423  33.979  1.00  0.00     0.074 A 
ATOM     58  C   UNL A   1      42.862  29.950  35.316  1.00  0.00     0.031 C 
ATOM     59  C   UNL A   1      43.527  28.552  33.376  1.00  0.00     0.034 A 
BRANCH  46  60
ATOM     60  C   UNL A   1      41.856  26.891  27.648  1.00  0.00     0.023 A 
ATOM     61  C   UNL A   1      41.520  25.527  27.598  1.00  0.00     0.031 A 
ATOM     62  C   UNL A   1      42.460  27.464  26.515  1.00  0.00     0.131 A 
ATOM     63  C   UNL A   1      41.840  24.769  26.462  1.00  0.00     0.055 A 
ATOM     64  C   UNL A   1      42.711  26.721  25.360  1.00  0.00     0.041 A 
ATOM     65  F   UNL A   1      42.822  28.757  26.515  1.00  0.00    -0.206 F 
ATOM     66  C   UNL A   1      42.408  25.363  25.333  1.00  0.00     0.022 A 
BRANCH  63  67
ATOM     67  S   UNL A   1      41.591  22.974  26.518  1.00  0.00     0.124 S 
ATOM     68  O   UNL A   1      42.221  22.630  27.791  1.00  0.00    -0.237 OA
ATOM     69  O   UNL A   1      40.139  22.854  26.472  1.00  0.00    -0.237 OA
ATOM     70  O   UNL A   1      42.296  22.494  25.331  1.00  0.00    -0.744 OA
ENDBRANCH  63  67
ENDBRANCH  46  60
BRANCH  47  71
ATOM     71  C   UNL A   1      39.456  32.451  35.629  1.00  0.00     0.023 A 
ATOM     72  C   UNL A   1      39.920  33.767  35.778  1.00  0.00     0.031 A 
ATOM     73  C   UNL A   1      38.591  31.938  36.611  1.00  0.00     0.131 A 
ATOM     74  C   UNL A   1      39.523  34.525  36.893  1.00  0.00     0.055 A 
ATOM     75  C   UNL A   1      38.171  32.705  37.698  1.00  0.00     0.041 A 
ATOM     76  F   UNL A   1      38.109  30.688  36.503  1.00  0.00    -0.206 F 
ATOM     77  C   UNL A   1      38.640  34.007  37.844  1.00  0.00     0.022 A 
BRANCH  74  78
ATOM     78  S   UNL A   1      40.179  36.204  37.086  1.00  0.00     0.124 S 
ATOM     79  O   UNL A   1      39.821  36.811  35.809  1.00  0.00    -0.237 OA
ATOM     80  O   UNL A   1      39.448  36.686  38.254  1.00  0.00    -0.237 OA
ATOM     81  O   UNL A   1      41.609  35.989  37.297  1.00  0.00    -0.744 OA
ENDBRANCH  74  78
ENDBRANCH  47  71
BRANCH  59  82
ATOM     82  C   UNL A   1      44.751  28.126  34.143  1.00  0.00     0.023 A 
ATOM     83  C   UNL A   1      44.760  26.957  34.923  1.00  0.00     0.031 A 
ATOM     84  C   UNL A   1      45.943  28.865  34.035  1.00  0.00     0.131 A 
ATOM     85  C   UNL A   1      45.935  26.574  35.587  1.00  0.00     0.055 A 
ATOM     86  C   UNL A   1      47.121  28.451  34.658  1.00  0.00     0.041 A 
ATOM     87  F   UNL A   1      45.987  29.986  33.299  1.00  0.00    -0.206 F 
ATOM     88  C   UNL A   1      47.120  27.302  35.442  1.00  0.00     0.022 A 
BRANCH  85  89
ATOM     89  S   UNL A   1      45.889  25.123  36.674  1.00  0.00     0.124 S 
ATOM     90  O   UNL A   1      45.372  24.093  35.780  1.00  0.00    -0.237 OA
ATOM     91  O   UNL A   1      47.287  24.981  37.070  1.00  0.00    -0.237 OA
ATOM     92  O   UNL A   1      44.981  25.527  37.747  1.00  0.00    -0.744 OA
ENDBRANCH  85  89
ENDBRANCH  59  82
ENDBRANCH  33  34
ENDBRANCH  25  28
ENDBRANCH  23  24
ENDBRANCH   1  23
TORSDOF 17
ENDMDL
