MODEL 1
REMARK VINA RESULT:     -11.7      0.000      0.000
REMARK SMILES CC[C@H](C)[C@H](NC(=O)[C@H](C(C)C)n1c(=O)[nH]c2ccccc2c1=O)C(=O)NCCCNC(=O)c1ccc(-c2c3nc(c(-c4cc(S(=O)(=O)[O-])ccc4F)c4ccc([nH]4)c(-c4cc(S(=O)(=O)[O-])ccc4F)c4nc(c(-c5cc(S(=O)(=O)[O-])ccc5F)c5ccc2[nH]5)C=C4)C=C3)cc1
REMARK SMILES IDX 29 1 28 2 27 3 25 4 26 5 5 7 3 8 4 9 2 10 1 11 6 12 7 13
REMARK SMILES IDX 8 15 9 16 13 17 14 18 23 19 15 20 16 21 22 22 24 23 17 24
REMARK SMILES IDX 21 26 18 27 20 28 19 29 10 30 11 31 12 32 30 33 31 34 32 35
REMARK SMILES IDX 33 37 34 38 35 39 96 40 36 41 95 42 37 43 38 44 39 45 89 46
REMARK SMILES IDX 40 47 94 48 88 49 90 50 41 51 93 52 87 53 86 54 42 56 74 57
REMARK SMILES IDX 54 58 73 59 55 60 58 61 72 62 91 63 56 64 57 65 71 67 92 68
REMARK SMILES IDX 59 69 43 70 44 71 52 72 45 73 51 74 53 75 50 76 46 77 47 78
REMARK SMILES IDX 48 79 49 80 75 81 76 82 84 83 77 84 83 85 85 86 82 87 78 88
REMARK SMILES IDX 79 89 80 90 81 91 60 92 61 93 69 94 62 95 68 96 70 97 67 98
REMARK SMILES IDX 63 99 64 100 65 101 66 102
REMARK H PARENT 27 6 6 14 16 25 31 36 90 55 58 66
REMARK Flexibility Score: inf
ROOT
ATOM      1  C   UNL A   1      33.514  27.500  26.437  1.00  0.00     0.042 C 
ENDROOT
BRANCH   1   2
ATOM      2  C   UNL A   1      32.035  27.663  26.775  1.00  0.00     0.117 C 
BRANCH   2   3
ATOM      3  N   UNL A   1      31.147  26.499  26.646  1.00  0.00    -0.354 N 
ATOM      4  C   UNL A   1      31.167  25.298  25.998  1.00  0.00     0.242 C 
ATOM      5  O   UNL A   1      30.884  24.350  26.754  1.00  0.00    -0.273 OA
ATOM      6  H   UNL A   1      30.317  26.618  27.164  1.00  0.00     0.163 HD
BRANCH   4   7
ATOM      7  C   UNL A   1      31.617  24.949  24.528  1.00  0.00     0.174 C 
BRANCH   7   8
ATOM      8  C   UNL A   1      30.787  25.788  23.481  1.00  0.00     0.018 C 
ATOM      9  C   UNL A   1      29.466  26.332  24.048  1.00  0.00     0.010 C 
BRANCH   8  10
ATOM     10  C   UNL A   1      31.641  26.884  22.828  1.00  0.00     0.002 C 
ATOM     11  C   UNL A   1      33.150  26.733  22.804  1.00  0.00     0.004 C 
ENDBRANCH   8  10
ENDBRANCH   7   8
BRANCH   7  12
ATOM     12  N   UNL A   1      31.835  23.556  24.048  1.00  0.00    -0.342 N 
ATOM     13  C   UNL A   1      33.011  22.851  24.068  1.00  0.00     0.244 C 
ATOM     14  H   UNL A   1      31.050  23.092  23.677  1.00  0.00     0.164 HD
ATOM     15  O   UNL A   1      33.531  22.670  22.955  1.00  0.00    -0.273 OA
BRANCH  13  16
ATOM     16  C   UNL A   1      33.667  22.182  25.320  1.00  0.00     0.187 C 
BRANCH  16  17
ATOM     17  N   UNL A   1      33.989  20.780  25.052  1.00  0.00    -0.247 N 
ATOM     18  C   UNL A   1      35.309  20.428  24.807  1.00  0.00     0.329 A 
ATOM     19  C   UNL A   1      32.952  19.866  25.123  1.00  0.00     0.264 A 
ATOM     20  O   UNL A   1      36.230  21.226  24.648  1.00  0.00    -0.248 OA
ATOM     21  N   UNL A   1      35.584  19.092  24.732  1.00  0.00    -0.307 N 
ATOM     22  C   UNL A   1      33.286  18.447  24.980  1.00  0.00     0.064 A 
ATOM     23  O   UNL A   1      31.783  20.176  25.346  1.00  0.00    -0.268 OA
ATOM     24  C   UNL A   1      34.622  18.094  24.841  1.00  0.00     0.055 A 
ATOM     25  H   UNL A   1      36.519  18.818  24.594  1.00  0.00     0.171 HD
ATOM     26  C   UNL A   1      32.292  17.468  25.050  1.00  0.00     0.016 A 
ATOM     27  C   UNL A   1      34.988  16.751  24.815  1.00  0.00     0.027 A 
ATOM     28  C   UNL A   1      32.654  16.123  25.024  1.00  0.00     0.001 A 
ATOM     29  C   UNL A   1      34.000  15.767  24.922  1.00  0.00     0.002 A 
ENDBRANCH  16  17
BRANCH  16  30
ATOM     30  C   UNL A   1      34.574  22.916  26.324  1.00  0.00     0.016 C 
ATOM     31  C   UNL A   1      34.946  24.373  26.049  1.00  0.00     0.010 C 
ATOM     32  C   UNL A   1      34.031  22.737  27.721  1.00  0.00     0.010 C 
ENDBRANCH  16  30
ENDBRANCH  13  16
ENDBRANCH   7  12
ENDBRANCH   4   7
ENDBRANCH   2   3
ENDBRANCH   1   2
BRANCH   1  33
ATOM     33  C   UNL A   1      34.179  28.723  25.812  1.00  0.00     0.118 C 
BRANCH  33  34
ATOM     34  N   UNL A   1      33.831  29.963  26.475  1.00  0.00    -0.352 N 
ATOM     35  C   UNL A   1      34.470  30.576  27.532  1.00  0.00     0.251 C 
ATOM     36  H   UNL A   1      33.037  30.429  26.126  1.00  0.00     0.163 HD
ATOM     37  O   UNL A   1      33.907  31.497  28.118  1.00  0.00    -0.269 OA
BRANCH  35  38
ATOM     38  C   UNL A   1      35.812  30.120  27.981  1.00  0.00     0.039 A 
ATOM     39  C   UNL A   1      36.963  30.371  27.226  1.00  0.00     0.014 A 
ATOM     40  C   UNL A   1      35.925  29.469  29.212  1.00  0.00     0.014 A 
ATOM     41  C   UNL A   1      38.203  29.883  27.654  1.00  0.00     0.010 A 
ATOM     42  C   UNL A   1      37.177  29.041  29.670  1.00  0.00     0.010 A 
ATOM     43  C   UNL A   1      38.330  29.221  28.887  1.00  0.00    -0.014 A 
BRANCH  43  44
ATOM     44  C   UNL A   1      39.662  28.754  29.374  1.00  0.00     0.031 A 
ATOM     45  C   UNL A   1      40.385  29.495  30.471  1.00  0.00     0.074 A 
ATOM     46  C   UNL A   1      40.234  27.667  28.818  1.00  0.00     0.049 A 
ATOM     47  N   UNL A   1      41.572  29.273  30.975  1.00  0.00    -0.248 NA
ATOM     48  C   UNL A   1      39.687  30.642  31.073  1.00  0.00     0.031 C 
ATOM     49  C   UNL A   1      39.636  26.864  27.751  1.00  0.00     0.029 A 
ATOM     50  N   UNL A   1      41.436  27.046  29.063  1.00  0.00    -0.354 N 
ATOM     51  C   UNL A   1      41.769  30.256  31.941  1.00  0.00     0.074 A 
ATOM     52  C   UNL A   1      40.598  31.104  31.919  1.00  0.00     0.031 C 
ATOM     53  C   UNL A   1      40.450  25.840  27.460  1.00  0.00     0.029 A 
ATOM     54  C   UNL A   1      41.667  25.950  28.261  1.00  0.00     0.049 A 
ATOM     55  H   UNL A   1      42.072  27.356  29.748  1.00  0.00     0.167 HD
ATOM     56  C   UNL A   1      42.821  30.422  32.781  1.00  0.00     0.034 A 
ATOM     57  C   UNL A   1      42.740  25.135  28.160  1.00  0.00     0.034 A 
ATOM     58  C   UNL A   1      43.975  29.556  32.799  1.00  0.00     0.049 A 
ATOM     59  C   UNL A   1      43.921  25.372  29.068  1.00  0.00     0.074 A 
ATOM     60  C   UNL A   1      45.079  29.625  33.631  1.00  0.00     0.029 A 
ATOM     61  N   UNL A   1      44.179  28.468  31.961  1.00  0.00    -0.354 N 
ATOM     62  N   UNL A   1      44.067  26.274  30.011  1.00  0.00    -0.248 NA
ATOM     63  C   UNL A   1      45.080  24.484  28.909  1.00  0.00     0.031 C 
ATOM     64  C   UNL A   1      45.980  28.632  33.247  1.00  0.00     0.029 A 
ATOM     65  C   UNL A   1      45.403  27.880  32.236  1.00  0.00     0.049 A 
ATOM     66  H   UNL A   1      43.546  28.161  31.273  1.00  0.00     0.167 HD
ATOM     67  C   UNL A   1      45.319  26.042  30.574  1.00  0.00     0.074 A 
ATOM     68  C   UNL A   1      45.879  24.900  29.884  1.00  0.00     0.031 C 
ATOM     69  C   UNL A   1      45.949  26.722  31.566  1.00  0.00     0.034 A 
BRANCH  56  70
ATOM     70  C   UNL A   1      42.793  31.564  33.774  1.00  0.00     0.023 A 
ATOM     71  C   UNL A   1      42.156  31.402  35.020  1.00  0.00     0.031 A 
ATOM     72  C   UNL A   1      43.262  32.845  33.434  1.00  0.00     0.131 A 
ATOM     73  C   UNL A   1      41.969  32.509  35.858  1.00  0.00     0.055 A 
ATOM     74  C   UNL A   1      43.119  33.935  34.295  1.00  0.00     0.041 A 
ATOM     75  F   UNL A   1      43.871  33.059  32.256  1.00  0.00    -0.206 F 
ATOM     76  C   UNL A   1      42.456  33.771  35.508  1.00  0.00     0.022 A 
BRANCH  73  77
ATOM     77  S   UNL A   1      41.017  32.374  37.397  1.00  0.00     0.124 S 
ATOM     78  O   UNL A   1      41.922  31.599  38.242  1.00  0.00    -0.237 OA
ATOM     79  O   UNL A   1      40.853  33.774  37.779  1.00  0.00    -0.237 OA
ATOM     80  O   UNL A   1      39.797  31.681  36.997  1.00  0.00    -0.744 OA
ENDBRANCH  73  77
ENDBRANCH  56  70
BRANCH  57  81
ATOM     81  C   UNL A   1      42.709  24.002  27.185  1.00  0.00     0.023 A 
ATOM     82  C   UNL A   1      42.041  22.800  27.486  1.00  0.00     0.031 A 
ATOM     83  C   UNL A   1      43.434  24.066  25.983  1.00  0.00     0.131 A 
ATOM     84  C   UNL A   1      42.180  21.691  26.640  1.00  0.00     0.055 A 
ATOM     85  C   UNL A   1      43.500  22.986  25.101  1.00  0.00     0.041 A 
ATOM     86  F   UNL A   1      44.098  25.185  25.652  1.00  0.00    -0.206 F 
ATOM     87  C   UNL A   1      42.888  21.783  25.439  1.00  0.00     0.022 A 
BRANCH  84  88
ATOM     88  S   UNL A   1      41.572  20.057  27.142  1.00  0.00     0.124 S 
ATOM     89  O   UNL A   1      41.154  19.481  25.869  1.00  0.00    -0.237 OA
ATOM     90  O   UNL A   1      42.767  19.467  27.741  1.00  0.00    -0.237 OA
ATOM     91  O   UNL A   1      40.497  20.363  28.081  1.00  0.00    -0.744 OA
ENDBRANCH  84  88
ENDBRANCH  57  81
BRANCH  69  92
ATOM     92  C   UNL A   1      47.318  26.262  32.013  1.00  0.00     0.023 A 
ATOM     93  C   UNL A   1      48.461  26.656  31.288  1.00  0.00     0.031 A 
ATOM     94  C   UNL A   1      47.477  25.308  33.033  1.00  0.00     0.131 A 
ATOM     95  C   UNL A   1      49.698  26.057  31.554  1.00  0.00     0.055 A 
ATOM     96  C   UNL A   1      48.725  24.759  33.335  1.00  0.00     0.041 A 
ATOM     97  F   UNL A   1      46.420  24.889  33.746  1.00  0.00    -0.206 F 
ATOM     98  C   UNL A   1      49.839  25.119  32.582  1.00  0.00     0.022 A 
BRANCH  95  99
ATOM     99  S   UNL A   1      51.143  26.389  30.508  1.00  0.00     0.124 S 
ATOM    100  O   UNL A   1      50.658  25.993  29.187  1.00  0.00    -0.237 OA
ATOM    101  O   UNL A   1      51.336  27.824  30.697  1.00  0.00    -0.237 OA
ATOM    102  O   UNL A   1      52.186  25.535  31.066  1.00  0.00    -0.744 OA
ENDBRANCH  95  99
ENDBRANCH  69  92
ENDBRANCH  43  44
ENDBRANCH  35  38
ENDBRANCH  33  34
ENDBRANCH   1  33
TORSDOF 19
ENDMDL
MODEL 2
REMARK VINA RESULT:     -11.6      1.973      2.275
REMARK SMILES CC[C@H](C)[C@H](NC(=O)[C@H](C(C)C)n1c(=O)[nH]c2ccccc2c1=O)C(=O)NCCCNC(=O)c1ccc(-c2c3nc(c(-c4cc(S(=O)(=O)[O-])ccc4F)c4ccc([nH]4)c(-c4cc(S(=O)(=O)[O-])ccc4F)c4nc(c(-c5cc(S(=O)(=O)[O-])ccc5F)c5ccc2[nH]5)C=C4)C=C3)cc1
REMARK SMILES IDX 29 1 28 2 27 3 25 4 26 5 5 7 3 8 4 9 2 10 1 11 6 12 7 13
REMARK SMILES IDX 8 15 9 16 13 17 14 18 23 19 15 20 16 21 22 22 24 23 17 24
REMARK SMILES IDX 21 26 18 27 20 28 19 29 10 30 11 31 12 32 30 33 31 34 32 35
REMARK SMILES IDX 33 37 34 38 35 39 96 40 36 41 95 42 37 43 38 44 39 45 89 46
REMARK SMILES IDX 40 47 94 48 88 49 90 50 41 51 93 52 87 53 86 54 42 56 74 57
REMARK SMILES IDX 54 58 73 59 55 60 58 61 72 62 91 63 56 64 57 65 71 67 92 68
REMARK SMILES IDX 59 69 43 70 44 71 52 72 45 73 51 74 53 75 50 76 46 77 47 78
REMARK SMILES IDX 48 79 49 80 75 81 76 82 84 83 77 84 83 85 85 86 82 87 78 88
REMARK SMILES IDX 79 89 80 90 81 91 60 92 61 93 69 94 62 95 68 96 70 97 67 98
REMARK SMILES IDX 63 99 64 100 65 101 66 102
REMARK H PARENT 27 6 6 14 16 25 31 36 90 55 58 66
REMARK Flexibility Score: inf
ROOT
ATOM      1  C   UNL A   1      33.490  27.898  26.805  1.00  0.00     0.042 C 
ENDROOT
BRANCH   1   2
ATOM      2  C   UNL A   1      31.996  27.908  27.111  1.00  0.00     0.117 C 
BRANCH   2   3
ATOM      3  N   UNL A   1      31.211  26.693  26.849  1.00  0.00    -0.354 N 
ATOM      4  C   UNL A   1      31.399  25.507  26.201  1.00  0.00     0.242 C 
ATOM      5  O   UNL A   1      31.075  24.530  26.902  1.00  0.00    -0.273 OA
ATOM      6  H   UNL A   1      30.311  26.750  27.246  1.00  0.00     0.163 HD
BRANCH   4   7
ATOM      7  C   UNL A   1      32.072  25.211  24.806  1.00  0.00     0.174 C 
BRANCH   7   8
ATOM      8  C   UNL A   1      31.559  26.231  23.717  1.00  0.00     0.018 C 
ATOM      9  C   UNL A   1      31.841  25.777  22.277  1.00  0.00     0.010 C 
BRANCH   8  10
ATOM     10  C   UNL A   1      30.085  26.602  23.938  1.00  0.00     0.002 C 
ATOM     11  C   UNL A   1      29.478  27.738  23.138  1.00  0.00     0.004 C 
ENDBRANCH   8  10
ENDBRANCH   7   8
BRANCH   7  12
ATOM     12  N   UNL A   1      32.208  23.842  24.237  1.00  0.00    -0.342 N 
ATOM     13  C   UNL A   1      33.321  23.041  24.270  1.00  0.00     0.244 C 
ATOM     14  H   UNL A   1      31.413  23.471  23.788  1.00  0.00     0.164 HD
ATOM     15  O   UNL A   1      33.893  22.896  23.178  1.00  0.00    -0.273 OA
BRANCH  13  16
ATOM     16  C   UNL A   1      33.843  22.234  25.504  1.00  0.00     0.187 C 
BRANCH  16  17
ATOM     17  N   UNL A   1      34.118  20.845  25.138  1.00  0.00    -0.247 N 
ATOM     18  C   UNL A   1      35.425  20.468  24.863  1.00  0.00     0.329 A 
ATOM     19  C   UNL A   1      33.052  19.962  25.150  1.00  0.00     0.264 A 
ATOM     20  O   UNL A   1      36.372  21.244  24.755  1.00  0.00    -0.248 OA
ATOM     21  N   UNL A   1      35.656  19.132  24.694  1.00  0.00    -0.307 N 
ATOM     22  C   UNL A   1      33.339  18.546  24.907  1.00  0.00     0.064 A 
ATOM     23  O   UNL A   1      31.894  20.293  25.399  1.00  0.00    -0.268 OA
ATOM     24  C   UNL A   1      34.662  18.161  24.737  1.00  0.00     0.055 A 
ATOM     25  H   UNL A   1      36.582  18.838  24.532  1.00  0.00     0.171 HD
ATOM     26  C   UNL A   1      32.314  17.597  24.914  1.00  0.00     0.016 A 
ATOM     27  C   UNL A   1      34.984  16.811  24.618  1.00  0.00     0.027 A 
ATOM     28  C   UNL A   1      32.631  16.247  24.793  1.00  0.00     0.001 A 
ATOM     29  C   UNL A   1      33.965  15.855  24.661  1.00  0.00     0.002 A 
ENDBRANCH  16  17
BRANCH  16  30
ATOM     30  C   UNL A   1      34.702  22.831  26.633  1.00  0.00     0.016 C 
ATOM     31  C   UNL A   1      35.327  24.211  26.430  1.00  0.00     0.010 C 
ATOM     32  C   UNL A   1      33.946  22.751  27.938  1.00  0.00     0.010 C 
ENDBRANCH  16  30
ENDBRANCH  13  16
ENDBRANCH   7  12
ENDBRANCH   4   7
ENDBRANCH   2   3
ENDBRANCH   1   2
BRANCH   1  33
ATOM     33  C   UNL A   1      33.985  29.046  25.931  1.00  0.00     0.118 C 
BRANCH  33  34
ATOM     34  N   UNL A   1      33.742  30.351  26.511  1.00  0.00    -0.352 N 
ATOM     35  C   UNL A   1      34.412  30.963  27.548  1.00  0.00     0.251 C 
ATOM     36  H   UNL A   1      33.006  30.868  26.111  1.00  0.00     0.163 HD
ATOM     37  O   UNL A   1      33.926  31.967  28.064  1.00  0.00    -0.269 OA
BRANCH  35  38
ATOM     38  C   UNL A   1      35.692  30.409  28.063  1.00  0.00     0.039 A 
ATOM     39  C   UNL A   1      36.915  30.687  27.441  1.00  0.00     0.014 A 
ATOM     40  C   UNL A   1      35.672  29.634  29.226  1.00  0.00     0.014 A 
ATOM     41  C   UNL A   1      38.094  30.109  27.923  1.00  0.00     0.010 A 
ATOM     42  C   UNL A   1      36.864  29.112  29.744  1.00  0.00     0.010 A 
ATOM     43  C   UNL A   1      38.087  29.322  29.087  1.00  0.00    -0.014 A 
BRANCH  43  44
ATOM     44  C   UNL A   1      39.354  28.754  29.638  1.00  0.00     0.031 A 
ATOM     45  C   UNL A   1      40.011  29.366  30.850  1.00  0.00     0.074 A 
ATOM     46  C   UNL A   1      39.929  27.693  29.036  1.00  0.00     0.049 A 
ATOM     47  N   UNL A   1      41.141  29.048  31.427  1.00  0.00    -0.248 NA
ATOM     48  C   UNL A   1      39.309  30.489  31.492  1.00  0.00     0.031 C 
ATOM     49  C   UNL A   1      39.392  27.011  27.858  1.00  0.00     0.029 A 
ATOM     50  N   UNL A   1      41.080  26.998  29.322  1.00  0.00    -0.354 N 
ATOM     51  C   UNL A   1      41.294  29.935  32.489  1.00  0.00     0.074 A 
ATOM     52  C   UNL A   1      40.163  30.835  32.447  1.00  0.00     0.031 C 
ATOM     53  C   UNL A   1      40.187  25.978  27.545  1.00  0.00     0.029 A 
ATOM     54  C   UNL A   1      41.335  25.964  28.449  1.00  0.00     0.049 A 
ATOM     55  H   UNL A   1      41.668  27.219  30.082  1.00  0.00     0.167 HD
ATOM     56  C   UNL A   1      42.277  29.980  33.423  1.00  0.00     0.034 A 
ATOM     57  C   UNL A   1      42.380  25.112  28.364  1.00  0.00     0.034 A 
ATOM     58  C   UNL A   1      43.390  29.063  33.458  1.00  0.00     0.049 A 
ATOM     59  C   UNL A   1      43.488  25.216  29.381  1.00  0.00     0.074 A 
ATOM     60  C   UNL A   1      44.422  29.011  34.380  1.00  0.00     0.029 A 
ATOM     61  N   UNL A   1      43.621  28.042  32.546  1.00  0.00    -0.354 N 
ATOM     62  N   UNL A   1      43.590  26.027  30.408  1.00  0.00    -0.248 NA
ATOM     63  C   UNL A   1      44.621  24.292  29.239  1.00  0.00     0.031 C 
ATOM     64  C   UNL A   1      45.313  28.013  33.984  1.00  0.00     0.029 A 
ATOM     65  C   UNL A   1      44.794  27.377  32.867  1.00  0.00     0.049 A 
ATOM     66  H   UNL A   1      43.038  27.824  31.785  1.00  0.00     0.167 HD
ATOM     67  C   UNL A   1      44.780  25.692  31.048  1.00  0.00     0.074 A 
ATOM     68  C   UNL A   1      45.350  24.587  30.308  1.00  0.00     0.031 C 
ATOM     69  C   UNL A   1      45.349  26.256  32.144  1.00  0.00     0.034 A 
BRANCH  56  70
ATOM     70  C   UNL A   1      42.209  31.034  34.506  1.00  0.00     0.023 A 
ATOM     71  C   UNL A   1      42.795  32.299  34.301  1.00  0.00     0.031 A 
ATOM     72  C   UNL A   1      41.699  30.743  35.784  1.00  0.00     0.131 A 
ATOM     73  C   UNL A   1      42.894  33.205  35.365  1.00  0.00     0.055 A 
ATOM     74  C   UNL A   1      41.754  31.669  36.828  1.00  0.00     0.041 A 
ATOM     75  F   UNL A   1      41.136  29.550  36.039  1.00  0.00    -0.206 F 
ATOM     76  C   UNL A   1      42.367  32.901  36.624  1.00  0.00     0.022 A 
BRANCH  73  77
ATOM     77  S   UNL A   1      43.780  34.778  35.183  1.00  0.00     0.124 S 
ATOM     78  O   UNL A   1      44.943  34.377  34.396  1.00  0.00    -0.237 OA
ATOM     79  O   UNL A   1      42.801  35.599  34.475  1.00  0.00    -0.237 OA
ATOM     80  O   UNL A   1      44.068  35.181  36.555  1.00  0.00    -0.744 OA
ENDBRANCH  73  77
ENDBRANCH  56  70
BRANCH  57  81
ATOM     81  C   UNL A   1      42.388  24.068  27.293  1.00  0.00     0.023 A 
ATOM     82  C   UNL A   1      41.731  22.836  27.473  1.00  0.00     0.031 A 
ATOM     83  C   UNL A   1      43.137  24.246  26.118  1.00  0.00     0.131 A 
ATOM     84  C   UNL A   1      41.905  21.807  26.537  1.00  0.00     0.055 A 
ATOM     85  C   UNL A   1      43.238  23.247  25.148  1.00  0.00     0.041 A 
ATOM     86  F   UNL A   1      43.792  25.398  25.900  1.00  0.00    -0.206 F 
ATOM     87  C   UNL A   1      42.637  22.012  25.365  1.00  0.00     0.022 A 
BRANCH  84  88
ATOM     88  S   UNL A   1      41.311  20.127  26.882  1.00  0.00     0.124 S 
ATOM     89  O   UNL A   1      42.504  19.324  26.639  1.00  0.00    -0.237 OA
ATOM     90  O   UNL A   1      40.898  20.239  28.280  1.00  0.00    -0.237 OA
ATOM     91  O   UNL A   1      40.221  19.945  25.929  1.00  0.00    -0.744 OA
ENDBRANCH  84  88
ENDBRANCH  57  81
BRANCH  69  92
ATOM     92  C   UNL A   1      46.656  25.696  32.658  1.00  0.00     0.023 A 
ATOM     93  C   UNL A   1      46.651  24.742  33.695  1.00  0.00     0.031 A 
ATOM     94  C   UNL A   1      47.894  26.226  32.251  1.00  0.00     0.131 A 
ATOM     95  C   UNL A   1      47.849  24.392  34.329  1.00  0.00     0.055 A 
ATOM     96  C   UNL A   1      49.093  25.827  32.845  1.00  0.00     0.041 A 
ATOM     97  F   UNL A   1      47.955  27.146  31.275  1.00  0.00    -0.206 F 
ATOM     98  C   UNL A   1      49.072  24.920  33.901  1.00  0.00     0.022 A 
BRANCH  95  99
ATOM     99  S   UNL A   1      47.856  23.326  35.798  1.00  0.00     0.124 S 
ATOM    100  O   UNL A   1      48.721  22.228  35.371  1.00  0.00    -0.237 OA
ATOM    101  O   UNL A   1      48.424  24.209  36.813  1.00  0.00    -0.237 OA
ATOM    102  O   UNL A   1      46.453  22.974  35.983  1.00  0.00    -0.744 OA
ENDBRANCH  95  99
ENDBRANCH  69  92
ENDBRANCH  43  44
ENDBRANCH  35  38
ENDBRANCH  33  34
ENDBRANCH   1  33
TORSDOF 19
ENDMDL
MODEL 3
REMARK VINA RESULT:     -11.6      2.831      7.958
REMARK SMILES CC[C@H](C)[C@H](NC(=O)[C@H](C(C)C)n1c(=O)[nH]c2ccccc2c1=O)C(=O)NCCCNC(=O)c1ccc(-c2c3nc(c(-c4cc(S(=O)(=O)[O-])ccc4F)c4ccc([nH]4)c(-c4cc(S(=O)(=O)[O-])ccc4F)c4nc(c(-c5cc(S(=O)(=O)[O-])ccc5F)c5ccc2[nH]5)C=C4)C=C3)cc1
REMARK SMILES IDX 29 1 28 2 27 3 25 4 26 5 5 7 3 8 4 9 2 10 1 11 6 12 7 13
REMARK SMILES IDX 8 15 9 16 13 17 14 18 23 19 15 20 16 21 22 22 24 23 17 24
REMARK SMILES IDX 21 26 18 27 20 28 19 29 10 30 11 31 12 32 30 33 31 34 32 35
REMARK SMILES IDX 33 37 34 38 35 39 96 40 36 41 95 42 37 43 38 44 39 45 89 46
REMARK SMILES IDX 40 47 94 48 88 49 90 50 41 51 93 52 87 53 86 54 42 56 74 57
REMARK SMILES IDX 54 58 73 59 55 60 58 61 72 62 91 63 56 64 57 65 71 67 92 68
REMARK SMILES IDX 59 69 43 70 44 71 52 72 45 73 51 74 53 75 50 76 46 77 47 78
REMARK SMILES IDX 48 79 49 80 75 81 76 82 84 83 77 84 83 85 85 86 82 87 78 88
REMARK SMILES IDX 79 89 80 90 81 91 60 92 61 93 69 94 62 95 68 96 70 97 67 98
REMARK SMILES IDX 63 99 64 100 65 101 66 102
REMARK H PARENT 27 6 6 14 16 25 31 36 90 55 58 66
REMARK Flexibility Score: inf
ROOT
ATOM      1  C   UNL A   1      31.681  28.558  26.703  1.00  0.00     0.042 C 
ENDROOT
BRANCH   1   2
ATOM      2  C   UNL A   1      32.061  27.085  26.823  1.00  0.00     0.117 C 
BRANCH   2   3
ATOM      3  N   UNL A   1      31.037  26.065  26.553  1.00  0.00    -0.354 N 
ATOM      4  C   UNL A   1      30.943  24.918  25.820  1.00  0.00     0.242 C 
ATOM      5  O   UNL A   1      30.485  23.970  26.484  1.00  0.00    -0.273 OA
ATOM      6  H   UNL A   1      30.196  26.262  27.027  1.00  0.00     0.163 HD
BRANCH   4   7
ATOM      7  C   UNL A   1      31.446  24.608  24.358  1.00  0.00     0.174 C 
BRANCH   7   8
ATOM      8  C   UNL A   1      30.552  25.357  23.296  1.00  0.00     0.018 C 
ATOM      9  C   UNL A   1      29.411  26.171  23.925  1.00  0.00     0.010 C 
BRANCH   8  10
ATOM     10  C   UNL A   1      31.403  26.190  22.327  1.00  0.00     0.002 C 
ATOM     11  C   UNL A   1      31.967  27.519  22.790  1.00  0.00     0.004 C 
ENDBRANCH   8  10
ENDBRANCH   7   8
BRANCH   7  12
ATOM     12  N   UNL A   1      31.805  23.240  23.890  1.00  0.00    -0.342 N 
ATOM     13  C   UNL A   1      33.019  22.615  24.022  1.00  0.00     0.244 C 
ATOM     14  H   UNL A   1      31.095  22.731  23.436  1.00  0.00     0.164 HD
ATOM     15  O   UNL A   1      33.659  22.488  22.965  1.00  0.00    -0.273 OA
BRANCH  13  16
ATOM     16  C   UNL A   1      33.589  21.971  25.327  1.00  0.00     0.187 C 
BRANCH  16  17
ATOM     17  N   UNL A   1      33.982  20.581  25.092  1.00  0.00    -0.247 N 
ATOM     18  C   UNL A   1      35.328  20.279  24.940  1.00  0.00     0.329 A 
ATOM     19  C   UNL A   1      32.978  19.629  25.100  1.00  0.00     0.264 A 
ATOM     20  O   UNL A   1      36.227  21.110  24.838  1.00  0.00    -0.248 OA
ATOM     21  N   UNL A   1      35.658  18.954  24.895  1.00  0.00    -0.307 N 
ATOM     22  C   UNL A   1      33.375  18.222  24.992  1.00  0.00     0.064 A 
ATOM     23  O   UNL A   1      31.785  19.894  25.241  1.00  0.00    -0.268 OA
ATOM     24  C   UNL A   1      34.729  17.921  24.946  1.00  0.00     0.055 A 
ATOM     25  H   UNL A   1      36.610  18.715  24.822  1.00  0.00     0.171 HD
ATOM     26  C   UNL A   1      32.416  17.206  25.001  1.00  0.00     0.016 A 
ATOM     27  C   UNL A   1      35.146  16.592  24.956  1.00  0.00     0.027 A 
ATOM     28  C   UNL A   1      32.829  15.876  25.011  1.00  0.00     0.001 A 
ATOM     29  C   UNL A   1      34.192  15.571  25.004  1.00  0.00     0.002 A 
ENDBRANCH  16  17
BRANCH  16  30
ATOM     30  C   UNL A   1      34.383  22.738  26.400  1.00  0.00     0.016 C 
ATOM     31  C   UNL A   1      34.749  24.199  26.139  1.00  0.00     0.010 C 
ATOM     32  C   UNL A   1      33.714  22.565  27.743  1.00  0.00     0.010 C 
ENDBRANCH  16  30
ENDBRANCH  13  16
ENDBRANCH   7  12
ENDBRANCH   4   7
ENDBRANCH   2   3
ENDBRANCH   1   2
BRANCH   1  33
ATOM     33  C   UNL A   1      32.708  29.441  26.002  1.00  0.00     0.118 C 
BRANCH  33  34
ATOM     34  N   UNL A   1      32.435  30.857  26.143  1.00  0.00    -0.352 N 
ATOM     35  C   UNL A   1      33.025  31.760  27.001  1.00  0.00     0.251 C 
ATOM     36  H   UNL A   1      31.739  31.221  25.550  1.00  0.00     0.163 HD
ATOM     37  O   UNL A   1      32.511  32.865  27.152  1.00  0.00    -0.269 OA
BRANCH  35  38
ATOM     38  C   UNL A   1      34.253  31.402  27.760  1.00  0.00     0.039 A 
ATOM     39  C   UNL A   1      35.280  32.328  27.973  1.00  0.00     0.014 A 
ATOM     40  C   UNL A   1      34.354  30.122  28.312  1.00  0.00     0.014 A 
ATOM     41  C   UNL A   1      36.443  31.942  28.649  1.00  0.00     0.010 A 
ATOM     42  C   UNL A   1      35.491  29.760  29.046  1.00  0.00     0.010 A 
ATOM     43  C   UNL A   1      36.560  30.657  29.204  1.00  0.00    -0.014 A 
BRANCH  43  44
ATOM     44  C   UNL A   1      37.776  30.263  29.978  1.00  0.00     0.031 A 
ATOM     45  C   UNL A   1      38.782  29.302  29.396  1.00  0.00     0.074 A 
ATOM     46  C   UNL A   1      37.969  30.757  31.218  1.00  0.00     0.049 A 
ATOM     47  N   UNL A   1      39.858  28.800  29.945  1.00  0.00    -0.248 NA
ATOM     48  C   UNL A   1      38.542  28.837  28.020  1.00  0.00     0.031 C 
ATOM     49  C   UNL A   1      37.069  31.695  31.891  1.00  0.00     0.029 A 
ATOM     50  N   UNL A   1      38.974  30.550  32.133  1.00  0.00    -0.354 N 
ATOM     51  C   UNL A   1      40.417  27.952  28.991  1.00  0.00     0.074 A 
ATOM     52  C   UNL A   1      39.534  27.973  27.847  1.00  0.00     0.031 C 
ATOM     53  C   UNL A   1      37.578  32.010  33.090  1.00  0.00     0.029 A 
ATOM     54  C   UNL A   1      38.800  31.241  33.311  1.00  0.00     0.049 A 
ATOM     55  H   UNL A   1      39.745  29.962  31.962  1.00  0.00     0.167 HD
ATOM     56  C   UNL A   1      41.569  27.240  29.059  1.00  0.00     0.034 A 
ATOM     57  C   UNL A   1      39.525  31.245  34.452  1.00  0.00     0.034 A 
ATOM     58  C   UNL A   1      42.446  27.244  30.205  1.00  0.00     0.049 A 
ATOM     59  C   UNL A   1      40.774  30.403  34.524  1.00  0.00     0.074 A 
ATOM     60  C   UNL A   1      43.650  26.577  30.359  1.00  0.00     0.029 A 
ATOM     61  N   UNL A   1      42.227  27.943  31.384  1.00  0.00    -0.354 N 
ATOM     62  N   UNL A   1      41.313  29.650  33.594  1.00  0.00    -0.248 NA
ATOM     63  C   UNL A   1      41.519  30.411  35.790  1.00  0.00     0.031 C 
ATOM     64  C   UNL A   1      44.118  26.810  31.652  1.00  0.00     0.029 A 
ATOM     65  C   UNL A   1      43.257  27.697  32.279  1.00  0.00     0.049 A 
ATOM     66  H   UNL A   1      41.454  28.526  31.558  1.00  0.00     0.167 HD
ATOM     67  C   UNL A   1      42.473  29.119  34.153  1.00  0.00     0.074 A 
ATOM     68  C   UNL A   1      42.571  29.658  35.492  1.00  0.00     0.031 C 
ATOM     69  C   UNL A   1      43.368  28.258  33.606  1.00  0.00     0.034 A 
BRANCH  56  70
ATOM     70  C   UNL A   1      41.983  26.402  27.869  1.00  0.00     0.023 A 
ATOM     71  C   UNL A   1      41.580  25.056  27.778  1.00  0.00     0.031 A 
ATOM     72  C   UNL A   1      42.888  26.888  26.908  1.00  0.00     0.131 A 
ATOM     73  C   UNL A   1      42.114  24.233  26.776  1.00  0.00     0.055 A 
ATOM     74  C   UNL A   1      43.376  26.077  25.880  1.00  0.00     0.041 A 
ATOM     75  F   UNL A   1      43.310  28.162  26.950  1.00  0.00    -0.206 F 
ATOM     76  C   UNL A   1      43.000  24.739  25.821  1.00  0.00     0.022 A 
BRANCH  73  77
ATOM     77  S   UNL A   1      41.743  22.457  26.720  1.00  0.00     0.124 S 
ATOM     78  O   UNL A   1      40.296  22.447  26.923  1.00  0.00    -0.237 OA
ATOM     79  O   UNL A   1      42.186  22.096  25.376  1.00  0.00    -0.237 OA
ATOM     80  O   UNL A   1      42.527  21.899  27.816  1.00  0.00    -0.744 OA
ENDBRANCH  73  77
ENDBRANCH  56  70
BRANCH  57  81
ATOM     81  C   UNL A   1      39.092  32.112  35.591  1.00  0.00     0.023 A 
ATOM     82  C   UNL A   1      39.509  33.454  35.684  1.00  0.00     0.031 A 
ATOM     83  C   UNL A   1      38.341  31.584  36.655  1.00  0.00     0.131 A 
ATOM     84  C   UNL A   1      39.244  34.190  36.847  1.00  0.00     0.055 A 
ATOM     85  C   UNL A   1      38.007  32.348  37.774  1.00  0.00     0.041 A 
ATOM     86  F   UNL A   1      37.926  30.307  36.622  1.00  0.00    -0.206 F 
ATOM     87  C   UNL A   1      38.478  33.652  37.884  1.00  0.00     0.022 A 
BRANCH  84  88
ATOM     88  S   UNL A   1      40.010  35.814  37.114  1.00  0.00     0.124 S 
ATOM     89  O   UNL A   1      41.420  35.467  37.258  1.00  0.00    -0.237 OA
ATOM     90  O   UNL A   1      39.654  36.515  35.882  1.00  0.00    -0.237 OA
ATOM     91  O   UNL A   1      39.354  36.310  38.319  1.00  0.00    -0.744 OA
ENDBRANCH  84  88
ENDBRANCH  57  81
BRANCH  69  92
ATOM     92  C   UNL A   1      44.567  27.833  34.423  1.00  0.00     0.023 A 
ATOM     93  C   UNL A   1      44.478  26.707  35.266  1.00  0.00     0.031 A 
ATOM     94  C   UNL A   1      45.724  28.629  34.501  1.00  0.00     0.131 A 
ATOM     95  C   UNL A   1      45.496  26.443  36.190  1.00  0.00     0.055 A 
ATOM     96  C   UNL A   1      46.765  28.325  35.382  1.00  0.00     0.041 A 
ATOM     97  F   UNL A   1      45.855  29.719  33.729  1.00  0.00    -0.206 F 
ATOM     98  C   UNL A   1      46.645  27.239  36.244  1.00  0.00     0.022 A 
BRANCH  95  99
ATOM     99  S   UNL A   1      45.321  25.128  37.428  1.00  0.00     0.124 S 
ATOM    100  O   UNL A   1      44.144  25.569  38.173  1.00  0.00    -0.237 OA
ATOM    101  O   UNL A   1      45.122  23.946  36.592  1.00  0.00    -0.237 OA
ATOM    102  O   UNL A   1      46.576  25.171  38.169  1.00  0.00    -0.744 OA
ENDBRANCH  95  99
ENDBRANCH  69  92
ENDBRANCH  43  44
ENDBRANCH  35  38
ENDBRANCH  33  34
ENDBRANCH   1  33
TORSDOF 19
ENDMDL
