MODEL 1
REMARK VINA RESULT:     -14.7      0.000      0.000
REMARK SMILES C[C@]1(C(=O)NCCCNC(=O)c2ccc(-c3c4nc(c(-c5cc(S(=O)(=O)[O-])ccc5F)c5ccc([nH]5)c(-c5cc(S(=O)(=O)[O-])ccc5F)c5nc(c(-c6cc(S(=O)(=O)[O-])ccc6F)c6ccc3[nH]6)C=C5)C=C4)cc2)[NH2+]C2(C(=O)c3ccccc3C2=O)[C@@H]2C(=O)N(c3ccccc3)C(=O)[C@H]21
REMARK SMILES IDX 8 1 7 2 6 3 5 4 3 5 4 6 2 8 1 9 75 10 99 11 76 12 87 15
REMARK SMILES IDX 97 16 77 17 85 18 88 19 90 20 98 21 78 22 79 23 84 24 86 25
REMARK SMILES IDX 89 26 80 27 83 28 81 29 82 30 91 31 92 32 96 33 93 34 95 35
REMARK SMILES IDX 94 36 9 37 10 38 11 40 12 41 13 42 74 43 14 44 73 45 15 46
REMARK SMILES IDX 16 47 17 48 67 49 18 50 72 51 66 52 68 53 19 54 71 55 65 56
REMARK SMILES IDX 64 57 20 59 52 60 32 61 51 62 33 63 36 64 50 65 69 66 34 67
REMARK SMILES IDX 35 68 49 70 70 71 37 72 21 73 22 74 30 75 23 76 29 77 31 78
REMARK SMILES IDX 28 79 24 80 25 81 26 82 27 83 53 84 54 85 62 86 55 87 61 88
REMARK SMILES IDX 63 89 60 90 56 91 57 92 58 93 59 94 38 95 39 96 47 97 40 98
REMARK SMILES IDX 46 99 48 100 45 101 41 102 42 103 43 104 44 105
REMARK H PARENT 5 7 75 13 75 14 9 39 68 58 36 69
REMARK Flexibility Score: inf
ROOT
ATOM      1  C   UNL A   1      32.537  33.089  27.279  1.00  0.00     0.118 C 
ENDROOT
BRANCH   1   2
ATOM      2  C   UNL A   1      33.549  32.132  27.884  1.00  0.00     0.042 C 
BRANCH   2   3
ATOM      3  C   UNL A   1      33.561  30.769  27.207  1.00  0.00     0.118 C 
BRANCH   3   4
ATOM      4  N   UNL A   1      32.753  29.736  27.801  1.00  0.00    -0.351 N 
ATOM      5  C   UNL A   1      32.501  28.452  27.416  1.00  0.00     0.281 C 
ATOM      6  O   UNL A   1      31.701  27.861  28.159  1.00  0.00    -0.268 OA
ATOM      7  H   UNL A   1      32.299  30.005  28.633  1.00  0.00     0.163 HD
BRANCH   5   8
ATOM      8  C   UNL A   1      33.131  27.693  26.169  1.00  0.00     0.186 C 
ATOM      9  C   UNL A   1      34.570  28.256  26.024  1.00  0.00     0.091 C 
ATOM     10  N   UNL A   1      33.226  26.191  26.355  1.00  0.00    -0.314 N 
ATOM     11  C   UNL A   1      32.459  27.800  24.828  1.00  0.00     0.170 C 
ATOM     12  C   UNL A   1      32.393  25.498  25.280  1.00  0.00     0.236 C 
ATOM     13  H   UNL A   1      32.871  25.939  27.278  1.00  0.00     0.348 HD
ATOM     14  H   UNL A   1      34.200  25.897  26.277  1.00  0.00     0.348 HD
ATOM     15  C   UNL A   1      31.533  26.606  24.755  1.00  0.00     0.177 C 
ATOM     16  C   UNL A   1      31.554  28.884  24.367  1.00  0.00     0.244 C 
ATOM     17  C   UNL A   1      33.244  24.764  24.241  1.00  0.00     0.232 C 
ATOM     18  C   UNL A   1      31.619  24.343  25.941  1.00  0.00     0.232 C 
ATOM     19  C   UNL A   1      30.904  26.868  23.430  1.00  0.00     0.245 C 
ATOM     20  N   UNL A   1      30.739  28.259  23.421  1.00  0.00    -0.250 N 
ATOM     21  O   UNL A   1      31.587  30.044  24.736  1.00  0.00    -0.273 OA
ATOM     22  O   UNL A   1      34.071  25.262  23.497  1.00  0.00    -0.286 OA
ATOM     23  C   UNL A   1      32.944  23.324  24.321  1.00  0.00     0.036 A 
ATOM     24  C   UNL A   1      32.029  23.091  25.335  1.00  0.00     0.036 A 
ATOM     25  O   UNL A   1      30.783  24.368  26.824  1.00  0.00    -0.286 OA
ATOM     26  O   UNL A   1      30.508  26.015  22.657  1.00  0.00    -0.273 OA
ATOM     27  C   UNL A   1      33.442  22.271  23.575  1.00  0.00     0.013 A 
ATOM     28  C   UNL A   1      31.591  21.824  25.681  1.00  0.00     0.013 A 
ATOM     29  C   UNL A   1      32.999  20.977  23.892  1.00  0.00     0.001 A 
ATOM     30  C   UNL A   1      32.087  20.754  24.943  1.00  0.00     0.001 A 
BRANCH  20  31
ATOM     31  C   UNL A   1      29.707  28.950  22.759  1.00  0.00     0.052 A 
ATOM     32  C   UNL A   1      30.009  29.944  21.818  1.00  0.00     0.027 A 
ATOM     33  C   UNL A   1      28.379  28.764  23.159  1.00  0.00     0.027 A 
ATOM     34  C   UNL A   1      28.996  30.740  21.283  1.00  0.00     0.002 A 
ATOM     35  C   UNL A   1      27.377  29.600  22.663  1.00  0.00     0.002 A 
ATOM     36  C   UNL A   1      27.683  30.583  21.723  1.00  0.00     0.000 A 
ENDBRANCH  20  31
ENDBRANCH   5   8
ENDBRANCH   3   4
ENDBRANCH   2   3
ENDBRANCH   1   2
BRANCH   1  37
ATOM     37  N   UNL A   1      32.532  34.404  27.911  1.00  0.00    -0.352 N 
ATOM     38  C   UNL A   1      33.293  34.999  28.894  1.00  0.00     0.251 C 
ATOM     39  H   UNL A   1      31.830  34.997  27.558  1.00  0.00     0.163 HD
ATOM     40  O   UNL A   1      32.938  36.118  29.272  1.00  0.00    -0.269 OA
BRANCH  38  41
ATOM     41  C   UNL A   1      34.471  34.357  29.546  1.00  0.00     0.039 A 
ATOM     42  C   UNL A   1      35.774  34.481  29.075  1.00  0.00     0.014 A 
ATOM     43  C   UNL A   1      34.268  33.637  30.736  1.00  0.00     0.014 A 
ATOM     44  C   UNL A   1      36.821  33.779  29.675  1.00  0.00     0.010 A 
ATOM     45  C   UNL A   1      35.339  33.022  31.405  1.00  0.00     0.010 A 
ATOM     46  C   UNL A   1      36.629  33.055  30.860  1.00  0.00    -0.014 A 
BRANCH  46  47
ATOM     47  C   UNL A   1      37.793  32.384  31.513  1.00  0.00     0.031 A 
ATOM     48  C   UNL A   1      38.240  32.780  32.897  1.00  0.00     0.074 A 
ATOM     49  C   UNL A   1      38.419  31.371  30.877  1.00  0.00     0.049 A 
ATOM     50  N   UNL A   1      39.237  32.312  33.605  1.00  0.00    -0.248 NA
ATOM     51  C   UNL A   1      37.479  33.842  33.572  1.00  0.00     0.031 C 
ATOM     52  C   UNL A   1      38.071  30.885  29.540  1.00  0.00     0.029 A 
ATOM     53  N   UNL A   1      39.447  30.546  31.267  1.00  0.00    -0.354 N 
ATOM     54  C   UNL A   1      39.240  33.037  34.791  1.00  0.00     0.074 A 
ATOM     55  C   UNL A   1      38.162  33.998  34.698  1.00  0.00     0.031 C 
ATOM     56  C   UNL A   1      38.811  29.806  29.256  1.00  0.00     0.029 A 
ATOM     57  C   UNL A   1      39.764  29.578  30.338  1.00  0.00     0.049 A 
ATOM     58  H   UNL A   1      39.914  30.638  32.129  1.00  0.00     0.167 HD
ATOM     59  C   UNL A   1      40.059  32.905  35.862  1.00  0.00     0.034 A 
ATOM     60  C   UNL A   1      40.724  28.630  30.334  1.00  0.00     0.034 A 
ATOM     61  C   UNL A   1      41.105  31.917  35.957  1.00  0.00     0.049 A 
ATOM     62  C   UNL A   1      41.646  28.527  31.521  1.00  0.00     0.074 A 
ATOM     63  C   UNL A   1      41.966  31.687  37.015  1.00  0.00     0.029 A 
ATOM     64  N   UNL A   1      41.426  30.992  34.973  1.00  0.00    -0.354 N 
ATOM     65  N   UNL A   1      41.623  29.215  32.638  1.00  0.00    -0.248 NA
ATOM     66  C   UNL A   1      42.731  27.539  31.448  1.00  0.00     0.031 C 
ATOM     67  C   UNL A   1      42.844  30.667  36.650  1.00  0.00     0.029 A 
ATOM     68  C   UNL A   1      42.489  30.210  35.391  1.00  0.00     0.049 A 
ATOM     69  H   UNL A   1      40.965  30.905  34.107  1.00  0.00     0.167 HD
ATOM     70  C   UNL A   1      42.682  28.738  33.403  1.00  0.00     0.074 A 
ATOM     71  C   UNL A   1      43.309  27.682  32.635  1.00  0.00     0.031 C 
ATOM     72  C   UNL A   1      43.100  29.148  34.626  1.00  0.00     0.034 A 
BRANCH  59  73
ATOM     73  C   UNL A   1      39.874  33.830  37.040  1.00  0.00     0.023 A 
ATOM     74  C   UNL A   1      39.232  33.365  38.204  1.00  0.00     0.031 A 
ATOM     75  C   UNL A   1      40.204  35.194  36.964  1.00  0.00     0.131 A 
ATOM     76  C   UNL A   1      38.906  34.264  39.227  1.00  0.00     0.055 A 
ATOM     77  C   UNL A   1      39.910  36.080  38.002  1.00  0.00     0.041 A 
ATOM     78  F   UNL A   1      40.820  35.688  35.877  1.00  0.00    -0.206 F 
ATOM     79  C   UNL A   1      39.247  35.618  39.135  1.00  0.00     0.022 A 
BRANCH  76  80
ATOM     80  S   UNL A   1      37.973  33.730  40.688  1.00  0.00     0.124 S 
ATOM     81  O   UNL A   1      38.901  32.782  41.302  1.00  0.00    -0.237 OA
ATOM     82  O   UNL A   1      37.795  34.984  41.412  1.00  0.00    -0.237 OA
ATOM     83  O   UNL A   1      36.760  33.141  40.135  1.00  0.00    -0.744 OA
ENDBRANCH  76  80
ENDBRANCH  59  73
BRANCH  60  84
ATOM     84  C   UNL A   1      40.829  27.704  29.165  1.00  0.00     0.023 A 
ATOM     85  C   UNL A   1      41.784  27.925  28.154  1.00  0.00     0.031 A 
ATOM     86  C   UNL A   1      39.899  26.669  28.976  1.00  0.00     0.131 A 
ATOM     87  C   UNL A   1      41.723  27.192  26.962  1.00  0.00     0.055 A 
ATOM     88  C   UNL A   1      39.894  25.885  27.820  1.00  0.00     0.041 A 
ATOM     89  F   UNL A   1      38.966  26.420  29.907  1.00  0.00    -0.206 F 
ATOM     90  C   UNL A   1      40.794  26.161  26.795  1.00  0.00     0.022 A 
BRANCH  87  91
ATOM     91  S   UNL A   1      42.733  27.667  25.531  1.00  0.00     0.124 S 
ATOM     92  O   UNL A   1      42.661  26.472  24.698  1.00  0.00    -0.237 OA
ATOM     93  O   UNL A   1      42.009  28.833  25.028  1.00  0.00    -0.237 OA
ATOM     94  O   UNL A   1      44.039  27.956  26.113  1.00  0.00    -0.744 OA
ENDBRANCH  87  91
ENDBRANCH  60  84
BRANCH  72  95
ATOM     95  C   UNL A   1      44.297  28.472  35.248  1.00  0.00     0.023 A 
ATOM     96  C   UNL A   1      44.111  27.463  36.212  1.00  0.00     0.031 A 
ATOM     97  C   UNL A   1      45.599  28.949  35.023  1.00  0.00     0.131 A 
ATOM     98  C   UNL A   1      45.203  27.004  36.957  1.00  0.00     0.055 A 
ATOM     99  C   UNL A   1      46.692  28.452  35.735  1.00  0.00     0.041 A 
ATOM    100  F   UNL A   1      45.823  29.915  34.118  1.00  0.00    -0.206 F 
ATOM    101  C   UNL A   1      46.494  27.488  36.719  1.00  0.00     0.022 A 
BRANCH  98 102
ATOM    102  S   UNL A   1      44.975  25.831  38.323  1.00  0.00     0.124 S 
ATOM    103  O   UNL A   1      46.332  25.714  38.851  1.00  0.00    -0.237 OA
ATOM    104  O   UNL A   1      44.031  26.541  39.182  1.00  0.00    -0.237 OA
ATOM    105  O   UNL A   1      44.456  24.631  37.675  1.00  0.00    -0.744 OA
ENDBRANCH  98 102
ENDBRANCH  72  95
ENDBRANCH  46  47
ENDBRANCH  38  41
ENDBRANCH   1  37
TORSDOF 14
ENDMDL
MODEL 2
REMARK VINA RESULT:     -14.4      5.845     10.413
REMARK SMILES C[C@]1(C(=O)NCCCNC(=O)c2ccc(-c3c4nc(c(-c5cc(S(=O)(=O)[O-])ccc5F)c5ccc([nH]5)c(-c5cc(S(=O)(=O)[O-])ccc5F)c5nc(c(-c6cc(S(=O)(=O)[O-])ccc6F)c6ccc3[nH]6)C=C5)C=C4)cc2)[NH2+]C2(C(=O)c3ccccc3C2=O)[C@@H]2C(=O)N(c3ccccc3)C(=O)[C@H]21
REMARK SMILES IDX 8 1 7 2 6 3 5 4 3 5 4 6 2 8 1 9 75 10 99 11 76 12 87 15
REMARK SMILES IDX 97 16 77 17 85 18 88 19 90 20 98 21 78 22 79 23 84 24 86 25
REMARK SMILES IDX 89 26 80 27 83 28 81 29 82 30 91 31 92 32 96 33 93 34 95 35
REMARK SMILES IDX 94 36 9 37 10 38 11 40 12 41 13 42 74 43 14 44 73 45 15 46
REMARK SMILES IDX 16 47 17 48 67 49 18 50 72 51 66 52 68 53 19 54 71 55 65 56
REMARK SMILES IDX 64 57 20 59 52 60 32 61 51 62 33 63 36 64 50 65 69 66 34 67
REMARK SMILES IDX 35 68 49 70 70 71 37 72 21 73 22 74 30 75 23 76 29 77 31 78
REMARK SMILES IDX 28 79 24 80 25 81 26 82 27 83 53 84 54 85 62 86 55 87 61 88
REMARK SMILES IDX 63 89 60 90 56 91 57 92 58 93 59 94 38 95 39 96 47 97 40 98
REMARK SMILES IDX 46 99 48 100 45 101 41 102 42 103 43 104 44 105
REMARK H PARENT 5 7 75 13 75 14 9 39 68 58 36 69
REMARK Flexibility Score: inf
ROOT
ATOM      1  C   UNL A   1      39.577  19.569  25.900  1.00  0.00     0.118 C 
ENDROOT
BRANCH   1   2
ATOM      2  C   UNL A   1      39.760  21.076  25.932  1.00  0.00     0.042 C 
BRANCH   2   3
ATOM      3  C   UNL A   1      38.444  21.838  25.857  1.00  0.00     0.118 C 
BRANCH   3   4
ATOM      4  N   UNL A   1      38.058  22.351  24.567  1.00  0.00    -0.351 N 
ATOM      5  C   UNL A   1      36.927  22.989  24.150  1.00  0.00     0.281 C 
ATOM      6  O   UNL A   1      36.923  23.243  22.935  1.00  0.00    -0.268 OA
ATOM      7  H   UNL A   1      38.730  22.215  23.860  1.00  0.00     0.163 HD
BRANCH   5   8
ATOM      8  C   UNL A   1      35.693  23.422  25.053  1.00  0.00     0.186 C 
ATOM      9  C   UNL A   1      36.300  23.812  26.428  1.00  0.00     0.091 C 
ATOM     10  N   UNL A   1      34.934  24.619  24.513  1.00  0.00    -0.314 N 
ATOM     11  C   UNL A   1      34.585  22.436  25.304  1.00  0.00     0.170 C 
ATOM     12  C   UNL A   1      33.492  24.209  24.223  1.00  0.00     0.236 C 
ATOM     13  H   UNL A   1      35.377  24.943  23.653  1.00  0.00     0.348 HD
ATOM     14  H   UNL A   1      34.945  25.371  25.202  1.00  0.00     0.348 HD
ATOM     15  C   UNL A   1      33.559  22.714  24.227  1.00  0.00     0.177 C 
ATOM     16  C   UNL A   1      34.674  20.955  25.230  1.00  0.00     0.244 C 
ATOM     17  C   UNL A   1      32.485  24.835  25.191  1.00  0.00     0.232 C 
ATOM     18  C   UNL A   1      33.077  24.831  22.877  1.00  0.00     0.232 C 
ATOM     19  C   UNL A   1      32.570  21.649  24.555  1.00  0.00     0.245 C 
ATOM     20  N   UNL A   1      33.375  20.558  24.906  1.00  0.00    -0.250 N 
ATOM     21  O   UNL A   1      35.670  20.290  25.450  1.00  0.00    -0.273 OA
ATOM     22  O   UNL A   1      32.447  24.681  26.399  1.00  0.00    -0.286 OA
ATOM     23  C   UNL A   1      31.583  25.715  24.427  1.00  0.00     0.036 A 
ATOM     24  C   UNL A   1      31.962  25.731  23.094  1.00  0.00     0.036 A 
ATOM     25  O   UNL A   1      33.537  24.659  21.763  1.00  0.00    -0.286 OA
ATOM     26  O   UNL A   1      31.367  21.727  24.381  1.00  0.00    -0.273 OA
ATOM     27  C   UNL A   1      30.508  26.471  24.856  1.00  0.00     0.013 A 
ATOM     28  C   UNL A   1      31.329  26.508  22.139  1.00  0.00     0.013 A 
ATOM     29  C   UNL A   1      29.836  27.253  23.903  1.00  0.00     0.001 A 
ATOM     30  C   UNL A   1      30.249  27.278  22.556  1.00  0.00     0.001 A 
BRANCH  20  31
ATOM     31  C   UNL A   1      33.040  19.205  24.712  1.00  0.00     0.052 A 
ATOM     32  C   UNL A   1      32.789  18.371  25.809  1.00  0.00     0.027 A 
ATOM     33  C   UNL A   1      33.120  18.649  23.430  1.00  0.00     0.027 A 
ATOM     34  C   UNL A   1      32.619  16.998  25.627  1.00  0.00     0.002 A 
ATOM     35  C   UNL A   1      33.005  17.268  23.260  1.00  0.00     0.002 A 
ATOM     36  C   UNL A   1      32.749  16.444  24.356  1.00  0.00     0.000 A 
ENDBRANCH  20  31
ENDBRANCH   5   8
ENDBRANCH   3   4
ENDBRANCH   2   3
ENDBRANCH   1   2
BRANCH   1  37
ATOM     37  N   UNL A   1      40.834  18.831  25.970  1.00  0.00    -0.352 N 
ATOM     38  C   UNL A   1      42.150  19.194  26.153  1.00  0.00     0.251 C 
ATOM     39  H   UNL A   1      40.715  17.859  25.862  1.00  0.00     0.163 HD
ATOM     40  O   UNL A   1      42.993  18.300  26.048  1.00  0.00    -0.269 OA
BRANCH  38  41
ATOM     41  C   UNL A   1      42.607  20.589  26.417  1.00  0.00     0.039 A 
ATOM     42  C   UNL A   1      42.638  21.161  27.685  1.00  0.00     0.014 A 
ATOM     43  C   UNL A   1      43.090  21.352  25.340  1.00  0.00     0.014 A 
ATOM     44  C   UNL A   1      42.986  22.503  27.856  1.00  0.00     0.010 A 
ATOM     45  C   UNL A   1      43.547  22.667  25.528  1.00  0.00     0.010 A 
ATOM     46  C   UNL A   1      43.467  23.273  26.788  1.00  0.00    -0.014 A 
BRANCH  46  47
ATOM     47  C   UNL A   1      43.903  24.680  27.030  1.00  0.00     0.031 A 
ATOM     48  C   UNL A   1      42.943  25.708  27.570  1.00  0.00     0.074 A 
ATOM     49  C   UNL A   1      45.192  25.024  26.815  1.00  0.00     0.049 A 
ATOM     50  N   UNL A   1      43.151  26.976  27.826  1.00  0.00    -0.248 NA
ATOM     51  C   UNL A   1      41.569  25.263  27.854  1.00  0.00     0.031 C 
ATOM     52  C   UNL A   1      46.222  24.115  26.307  1.00  0.00     0.029 A 
ATOM     53  N   UNL A   1      45.869  26.202  27.021  1.00  0.00    -0.354 N 
ATOM     54  C   UNL A   1      41.936  27.483  28.271  1.00  0.00     0.074 A 
ATOM     55  C   UNL A   1      40.985  26.394  28.225  1.00  0.00     0.031 C 
ATOM     56  C   UNL A   1      47.406  24.740  26.316  1.00  0.00     0.029 A 
ATOM     57  C   UNL A   1      47.213  26.127  26.728  1.00  0.00     0.049 A 
ATOM     58  H   UNL A   1      45.434  27.023  27.347  1.00  0.00     0.167 HD
ATOM     59  C   UNL A   1      41.645  28.738  28.690  1.00  0.00     0.034 A 
ATOM     60  C   UNL A   1      48.183  27.066  26.757  1.00  0.00     0.034 A 
ATOM     61  C   UNL A   1      42.613  29.804  28.767  1.00  0.00     0.049 A 
ATOM     62  C   UNL A   1      47.826  28.463  27.191  1.00  0.00     0.074 A 
ATOM     63  C   UNL A   1      42.419  31.101  29.208  1.00  0.00     0.029 A 
ATOM     64  N   UNL A   1      43.951  29.700  28.411  1.00  0.00    -0.354 N 
ATOM     65  N   UNL A   1      46.673  28.919  27.620  1.00  0.00    -0.248 NA
ATOM     66  C   UNL A   1      48.887  29.478  27.133  1.00  0.00     0.031 C 
ATOM     67  C   UNL A   1      43.619  31.797  29.063  1.00  0.00     0.029 A 
ATOM     68  C   UNL A   1      44.584  30.918  28.597  1.00  0.00     0.049 A 
ATOM     69  H   UNL A   1      44.384  28.882  28.076  1.00  0.00     0.167 HD
ATOM     70  C   UNL A   1      46.872  30.269  27.890  1.00  0.00     0.074 A 
ATOM     71  C   UNL A   1      48.263  30.551  27.604  1.00  0.00     0.031 C 
ATOM     72  C   UNL A   1      45.976  31.189  28.325  1.00  0.00     0.034 A 
BRANCH  59  73
ATOM     73  C   UNL A   1      40.233  29.056  29.116  1.00  0.00     0.023 A 
ATOM     74  C   UNL A   1      39.874  28.974  30.475  1.00  0.00     0.031 A 
ATOM     75  C   UNL A   1      39.218  29.302  28.175  1.00  0.00     0.131 A 
ATOM     76  C   UNL A   1      38.530  29.099  30.850  1.00  0.00     0.055 A 
ATOM     77  C   UNL A   1      37.885  29.463  28.558  1.00  0.00     0.041 A 
ATOM     78  F   UNL A   1      39.508  29.393  26.866  1.00  0.00    -0.206 F 
ATOM     79  C   UNL A   1      37.535  29.349  29.899  1.00  0.00     0.022 A 
BRANCH  76  80
ATOM     80  S   UNL A   1      38.010  28.881  32.574  1.00  0.00     0.124 S 
ATOM     81  O   UNL A   1      38.992  29.698  33.286  1.00  0.00    -0.237 OA
ATOM     82  O   UNL A   1      36.653  29.416  32.554  1.00  0.00    -0.237 OA
ATOM     83  O   UNL A   1      38.121  27.444  32.796  1.00  0.00    -0.744 OA
ENDBRANCH  76  80
ENDBRANCH  59  73
BRANCH  60  84
ATOM     84  C   UNL A   1      49.577  26.684  26.377  1.00  0.00     0.023 A 
ATOM     85  C   UNL A   1      50.578  26.542  27.356  1.00  0.00     0.031 A 
ATOM     86  C   UNL A   1      49.958  26.584  25.029  1.00  0.00     0.131 A 
ATOM     87  C   UNL A   1      51.919  26.409  26.973  1.00  0.00     0.055 A 
ATOM     88  C   UNL A   1      51.286  26.368  24.652  1.00  0.00     0.041 A 
ATOM     89  F   UNL A   1      49.044  26.716  24.056  1.00  0.00    -0.206 F 
ATOM     90  C   UNL A   1      52.278  26.304  25.626  1.00  0.00     0.022 A 
BRANCH  87  91
ATOM     91  S   UNL A   1      53.250  26.538  28.199  1.00  0.00     0.124 S 
ATOM     92  O   UNL A   1      54.199  25.537  27.726  1.00  0.00    -0.237 OA
ATOM     93  O   UNL A   1      53.667  27.930  28.042  1.00  0.00    -0.237 OA
ATOM     94  O   UNL A   1      52.585  26.234  29.462  1.00  0.00    -0.744 OA
ENDBRANCH  87  91
ENDBRANCH  60  84
BRANCH  72  95
ATOM     95  C   UNL A   1      46.439  32.610  28.532  1.00  0.00     0.023 A 
ATOM     96  C   UNL A   1      46.631  33.454  27.423  1.00  0.00     0.031 A 
ATOM     97  C   UNL A   1      46.858  33.060  29.795  1.00  0.00     0.131 A 
ATOM     98  C   UNL A   1      47.280  34.683  27.589  1.00  0.00     0.055 A 
ATOM     99  C   UNL A   1      47.462  34.308  29.962  1.00  0.00     0.041 A 
ATOM    100  F   UNL A   1      46.702  32.286  30.881  1.00  0.00    -0.206 F 
ATOM    101  C   UNL A   1      47.690  35.118  28.854  1.00  0.00     0.022 A 
BRANCH  98 102
ATOM    102  S   UNL A   1      47.698  35.720  26.159  1.00  0.00     0.124 S 
ATOM    103  O   UNL A   1      46.644  36.730  26.199  1.00  0.00    -0.237 OA
ATOM    104  O   UNL A   1      49.034  36.196  26.507  1.00  0.00    -0.237 OA
ATOM    105  O   UNL A   1      47.633  34.801  25.027  1.00  0.00    -0.744 OA
ENDBRANCH  98 102
ENDBRANCH  72  95
ENDBRANCH  46  47
ENDBRANCH  38  41
ENDBRANCH   1  37
TORSDOF 14
ENDMDL
MODEL 3
REMARK VINA RESULT:     -14.4      0.405      7.377
REMARK SMILES C[C@]1(C(=O)NCCCNC(=O)c2ccc(-c3c4nc(c(-c5cc(S(=O)(=O)[O-])ccc5F)c5ccc([nH]5)c(-c5cc(S(=O)(=O)[O-])ccc5F)c5nc(c(-c6cc(S(=O)(=O)[O-])ccc6F)c6ccc3[nH]6)C=C5)C=C4)cc2)[NH2+]C2(C(=O)c3ccccc3C2=O)[C@@H]2C(=O)N(c3ccccc3)C(=O)[C@H]21
REMARK SMILES IDX 8 1 7 2 6 3 5 4 3 5 4 6 2 8 1 9 75 10 99 11 76 12 87 15
REMARK SMILES IDX 97 16 77 17 85 18 88 19 90 20 98 21 78 22 79 23 84 24 86 25
REMARK SMILES IDX 89 26 80 27 83 28 81 29 82 30 91 31 92 32 96 33 93 34 95 35
REMARK SMILES IDX 94 36 9 37 10 38 11 40 12 41 13 42 74 43 14 44 73 45 15 46
REMARK SMILES IDX 16 47 17 48 67 49 18 50 72 51 66 52 68 53 19 54 71 55 65 56
REMARK SMILES IDX 64 57 20 59 52 60 32 61 51 62 33 63 36 64 50 65 69 66 34 67
REMARK SMILES IDX 35 68 49 70 70 71 37 72 21 73 22 74 30 75 23 76 29 77 31 78
REMARK SMILES IDX 28 79 24 80 25 81 26 82 27 83 53 84 54 85 62 86 55 87 61 88
REMARK SMILES IDX 63 89 60 90 56 91 57 92 58 93 59 94 38 95 39 96 47 97 40 98
REMARK SMILES IDX 46 99 48 100 45 101 41 102 42 103 43 104 44 105
REMARK H PARENT 5 7 75 13 75 14 9 39 68 58 36 69
REMARK Flexibility Score: inf
ROOT
ATOM      1  C   UNL A   1      32.620  33.089  27.320  1.00  0.00     0.118 C 
ENDROOT
BRANCH   1   2
ATOM      2  C   UNL A   1      33.597  32.081  27.898  1.00  0.00     0.042 C 
BRANCH   2   3
ATOM      3  C   UNL A   1      33.554  30.735  27.189  1.00  0.00     0.118 C 
BRANCH   3   4
ATOM      4  N   UNL A   1      32.739  29.707  27.785  1.00  0.00    -0.351 N 
ATOM      5  C   UNL A   1      32.483  28.423  27.405  1.00  0.00     0.281 C 
ATOM      6  O   UNL A   1      31.678  27.839  28.147  1.00  0.00    -0.268 OA
ATOM      7  H   UNL A   1      32.284  29.982  28.614  1.00  0.00     0.163 HD
BRANCH   5   8
ATOM      8  C   UNL A   1      33.115  27.656  26.163  1.00  0.00     0.186 C 
ATOM      9  C   UNL A   1      34.555  28.217  26.017  1.00  0.00     0.091 C 
ATOM     10  N   UNL A   1      33.208  26.155  26.359  1.00  0.00    -0.314 N 
ATOM     11  C   UNL A   1      32.445  27.755  24.820  1.00  0.00     0.170 C 
ATOM     12  C   UNL A   1      32.376  25.456  25.287  1.00  0.00     0.236 C 
ATOM     13  H   UNL A   1      32.852  25.909  27.283  1.00  0.00     0.348 HD
ATOM     14  H   UNL A   1      34.181  25.859  26.285  1.00  0.00     0.348 HD
ATOM     15  C   UNL A   1      31.518  26.561  24.753  1.00  0.00     0.177 C 
ATOM     16  C   UNL A   1      31.542  28.837  24.351  1.00  0.00     0.244 C 
ATOM     17  C   UNL A   1      33.228  24.714  24.254  1.00  0.00     0.232 C 
ATOM     18  C   UNL A   1      31.600  24.305  25.953  1.00  0.00     0.232 C 
ATOM     19  C   UNL A   1      30.892  26.816  23.426  1.00  0.00     0.245 C 
ATOM     20  N   UNL A   1      30.728  28.207  23.408  1.00  0.00    -0.250 N 
ATOM     21  O   UNL A   1      31.576  29.999  24.713  1.00  0.00    -0.273 OA
ATOM     22  O   UNL A   1      34.057  25.207  23.508  1.00  0.00    -0.286 OA
ATOM     23  C   UNL A   1      32.927  23.275  24.342  1.00  0.00     0.036 A 
ATOM     24  C   UNL A   1      32.010  23.050  25.356  1.00  0.00     0.036 A 
ATOM     25  O   UNL A   1      30.762  24.337  26.835  1.00  0.00    -0.286 OA
ATOM     26  O   UNL A   1      30.496  25.959  22.657  1.00  0.00    -0.273 OA
ATOM     27  C   UNL A   1      33.425  22.218  23.604  1.00  0.00     0.013 A 
ATOM     28  C   UNL A   1      31.569  21.785  25.709  1.00  0.00     0.013 A 
ATOM     29  C   UNL A   1      32.980  20.926  23.928  1.00  0.00     0.001 A 
ATOM     30  C   UNL A   1      32.066  20.710  24.979  1.00  0.00     0.001 A 
BRANCH  20  31
ATOM     31  C   UNL A   1      29.698  28.895  22.739  1.00  0.00     0.052 A 
ATOM     32  C   UNL A   1      30.003  29.892  21.803  1.00  0.00     0.027 A 
ATOM     33  C   UNL A   1      28.368  28.702  23.129  1.00  0.00     0.027 A 
ATOM     34  C   UNL A   1      28.990  30.685  21.262  1.00  0.00     0.002 A 
ATOM     35  C   UNL A   1      27.366  29.535  22.628  1.00  0.00     0.002 A 
ATOM     36  C   UNL A   1      27.675  30.521  21.692  1.00  0.00     0.000 A 
ENDBRANCH  20  31
ENDBRANCH   5   8
ENDBRANCH   3   4
ENDBRANCH   2   3
ENDBRANCH   1   2
BRANCH   1  37
ATOM     37  N   UNL A   1      32.666  34.388  27.983  1.00  0.00    -0.352 N 
ATOM     38  C   UNL A   1      33.439  34.923  28.991  1.00  0.00     0.251 C 
ATOM     39  H   UNL A   1      31.998  35.021  27.635  1.00  0.00     0.163 HD
ATOM     40  O   UNL A   1      33.131  36.048  29.391  1.00  0.00    -0.269 OA
BRANCH  38  41
ATOM     41  C   UNL A   1      34.575  34.212  29.644  1.00  0.00     0.039 A 
ATOM     42  C   UNL A   1      34.423  33.337  30.715  1.00  0.00     0.014 A 
ATOM     43  C   UNL A   1      35.867  34.383  29.115  1.00  0.00     0.014 A 
ATOM     44  C   UNL A   1      35.535  32.775  31.344  1.00  0.00     0.010 A 
ATOM     45  C   UNL A   1      36.975  33.728  29.677  1.00  0.00     0.010 A 
ATOM     46  C   UNL A   1      36.827  32.941  30.826  1.00  0.00    -0.014 A 
BRANCH  46  47
ATOM     47  C   UNL A   1      37.980  32.256  31.483  1.00  0.00     0.031 A 
ATOM     48  C   UNL A   1      38.694  31.115  30.805  1.00  0.00     0.074 A 
ATOM     49  C   UNL A   1      38.426  32.702  32.678  1.00  0.00     0.049 A 
ATOM     50  N   UNL A   1      39.703  30.401  31.238  1.00  0.00    -0.248 NA
ATOM     51  C   UNL A   1      38.212  30.717  29.473  1.00  0.00     0.031 C 
ATOM     52  C   UNL A   1      37.829  33.807  33.430  1.00  0.00     0.029 A 
ATOM     53  N   UNL A   1      39.490  32.315  33.457  1.00  0.00    -0.354 N 
ATOM     54  C   UNL A   1      39.957  29.456  30.251  1.00  0.00     0.074 A 
ATOM     55  C   UNL A   1      38.979  29.668  29.206  1.00  0.00     0.031 C 
ATOM     56  C   UNL A   1      38.575  34.061  34.512  1.00  0.00     0.029 A 
ATOM     57  C   UNL A   1      39.646  33.072  34.597  1.00  0.00     0.049 A 
ATOM     58  H   UNL A   1      40.086  31.566  33.222  1.00  0.00     0.167 HD
ATOM     59  C   UNL A   1      40.924  28.508  30.214  1.00  0.00     0.034 A 
ATOM     60  C   UNL A   1      40.528  32.975  35.615  1.00  0.00     0.034 A 
ATOM     61  C   UNL A   1      41.916  28.334  31.246  1.00  0.00     0.049 A 
ATOM     62  C   UNL A   1      41.570  31.889  35.570  1.00  0.00     0.074 A 
ATOM     63  C   UNL A   1      42.954  27.420  31.283  1.00  0.00     0.029 A 
ATOM     64  N   UNL A   1      42.007  29.087  32.408  1.00  0.00    -0.354 N 
ATOM     65  N   UNL A   1      41.801  31.014  34.621  1.00  0.00    -0.248 NA
ATOM     66  C   UNL A   1      42.461  31.762  36.731  1.00  0.00     0.031 C 
ATOM     67  C   UNL A   1      43.634  27.579  32.490  1.00  0.00     0.029 A 
ATOM     68  C   UNL A   1      43.066  28.638  33.179  1.00  0.00     0.049 A 
ATOM     69  H   UNL A   1      41.406  29.830  32.648  1.00  0.00     0.167 HD
ATOM     70  C   UNL A   1      42.866  30.238  35.066  1.00  0.00     0.074 A 
ATOM     71  C   UNL A   1      43.255  30.765  36.357  1.00  0.00     0.031 C 
ATOM     72  C   UNL A   1      43.458  29.179  34.460  1.00  0.00     0.034 A 
BRANCH  59  73
ATOM     73  C   UNL A   1      40.989  27.577  29.029  1.00  0.00     0.023 A 
ATOM     74  C   UNL A   1      41.967  27.775  28.034  1.00  0.00     0.031 A 
ATOM     75  C   UNL A   1      40.011  26.591  28.812  1.00  0.00     0.131 A 
ATOM     76  C   UNL A   1      41.922  27.024  26.852  1.00  0.00     0.055 A 
ATOM     77  C   UNL A   1      39.993  25.819  27.648  1.00  0.00     0.041 A 
ATOM     78  F   UNL A   1      39.059  26.361  29.730  1.00  0.00    -0.206 F 
ATOM     79  C   UNL A   1      40.944  26.043  26.658  1.00  0.00     0.022 A 
BRANCH  76  80
ATOM     80  S   UNL A   1      43.088  27.330  25.498  1.00  0.00     0.124 S 
ATOM     81  O   UNL A   1      43.329  25.976  25.003  1.00  0.00    -0.237 OA
ATOM     82  O   UNL A   1      42.308  28.187  24.611  1.00  0.00    -0.237 OA
ATOM     83  O   UNL A   1      44.227  27.964  26.151  1.00  0.00    -0.744 OA
ENDBRANCH  76  80
ENDBRANCH  59  73
BRANCH  60  84
ATOM     84  C   UNL A   1      40.452  33.957  36.740  1.00  0.00     0.023 A 
ATOM     85  C   UNL A   1      39.875  33.598  37.972  1.00  0.00     0.031 A 
ATOM     86  C   UNL A   1      40.834  35.296  36.558  1.00  0.00     0.131 A 
ATOM     87  C   UNL A   1      39.605  34.582  38.932  1.00  0.00     0.055 A 
ATOM     88  C   UNL A   1      40.639  36.260  37.551  1.00  0.00     0.041 A 
ATOM     89  F   UNL A   1      41.385  35.691  35.400  1.00  0.00    -0.206 F 
ATOM     90  C   UNL A   1      39.999  35.909  38.736  1.00  0.00     0.022 A 
BRANCH  87  91
ATOM     91  S   UNL A   1      38.586  34.204  40.386  1.00  0.00     0.124 S 
ATOM     92  O   UNL A   1      37.536  33.370  39.813  1.00  0.00    -0.237 OA
ATOM     93  O   UNL A   1      39.542  33.514  41.249  1.00  0.00    -0.237 OA
ATOM     94  O   UNL A   1      38.164  35.517  40.861  1.00  0.00    -0.744 OA
ENDBRANCH  87  91
ENDBRANCH  60  84
BRANCH  72  95
ATOM     95  C   UNL A   1      44.601  28.488  35.161  1.00  0.00     0.023 A 
ATOM     96  C   UNL A   1      44.338  27.564  36.189  1.00  0.00     0.031 A 
ATOM     97  C   UNL A   1      45.932  28.878  34.938  1.00  0.00     0.131 A 
ATOM     98  C   UNL A   1      45.385  27.103  36.995  1.00  0.00     0.055 A 
ATOM     99  C   UNL A   1      46.979  28.379  35.714  1.00  0.00     0.041 A 
ATOM    100  F   UNL A   1      46.230  29.763  33.974  1.00  0.00    -0.206 F 
ATOM    101  C   UNL A   1      46.706  27.500  36.759  1.00  0.00     0.022 A 
BRANCH  98 102
ATOM    102  S   UNL A   1      45.062  26.047  38.435  1.00  0.00     0.124 S 
ATOM    103  O   UNL A   1      43.726  26.482  38.836  1.00  0.00    -0.237 OA
ATOM    104  O   UNL A   1      45.136  24.709  37.856  1.00  0.00    -0.237 OA
ATOM    105  O   UNL A   1      46.130  26.388  39.369  1.00  0.00    -0.744 OA
ENDBRANCH  98 102
ENDBRANCH  72  95
ENDBRANCH  46  47
ENDBRANCH  38  41
ENDBRANCH   1  37
TORSDOF 14
ENDMDL
