MODEL 1
REMARK VINA RESULT:     -12.6      0.000      0.000
REMARK SMILES Cc1cc2c(c(C)c1Br)C=C(C(=O)NCCCNC(=O)c1ccc(-c3c4nc(c(-c5cc(S(=O)(=O)[O-])ccc5F)c5ccc([nH]5)c(-c5cc(S(=O)(=O)[O-])ccc5F)c5nc(c(-c6cc(S(=O)(=O)[O-])ccc6F)c6ccc3[nH]6)C=C5)C=C4)cc1)[C@@H](C(F)(F)F)O2
REMARK SMILES IDX 17 1 16 2 15 3 14 4 12 5 13 6 11 8 1 9 2 10 3 11 8 12 4 13
REMARK SMILES IDX 6 14 9 15 5 16 89 17 7 18 10 19 84 20 85 21 86 22 87 23
REMARK SMILES IDX 88 24 18 25 19 26 20 28 21 29 22 30 83 31 23 32 82 33 24 34
REMARK SMILES IDX 25 35 26 36 76 37 27 38 81 39 75 40 77 41 28 42 80 43 74 44
REMARK SMILES IDX 73 45 29 47 61 48 41 49 60 50 42 51 45 52 59 53 78 54 43 55
REMARK SMILES IDX 44 56 58 58 79 59 46 60 30 61 31 62 39 63 32 64 38 65 40 66
REMARK SMILES IDX 37 67 33 68 34 69 35 70 36 71 62 72 63 73 71 74 64 75 70 76
REMARK SMILES IDX 72 77 69 78 65 79 66 80 67 81 68 82 47 83 48 84 56 85 49 86
REMARK SMILES IDX 55 87 57 88 54 89 50 90 51 91 52 92 53 93
REMARK H PARENT 14 7 18 27 77 46 45 57
REMARK Flexibility Score: inf
ROOT
ATOM      1  C   UNL A   1      33.525  29.292  24.838  1.00  0.00     0.118 C 
ENDROOT
BRANCH   1   2
ATOM      2  C   UNL A   1      32.817  28.888  23.551  1.00  0.00     0.042 C 
BRANCH   2   3
ATOM      3  C   UNL A   1      31.871  27.716  23.758  1.00  0.00     0.118 C 
BRANCH   3   4
ATOM      4  N   UNL A   1      31.579  27.494  25.167  1.00  0.00    -0.352 N 
ATOM      5  C   UNL A   1      31.586  26.455  26.032  1.00  0.00     0.251 C 
ATOM      6  O   UNL A   1      31.266  26.732  27.192  1.00  0.00    -0.270 OA
ATOM      7  H   UNL A   1      31.300  28.328  25.611  1.00  0.00     0.163 HD
BRANCH   5   8
ATOM      8  C   UNL A   1      31.951  25.051  25.683  1.00  0.00     0.067 C 
ATOM      9  C   UNL A   1      34.657  19.232  24.625  1.00  0.00     0.046 C 
ATOM     10  C   UNL A   1      34.377  20.675  24.951  1.00  0.00    -0.033 A 
ATOM     11  C   UNL A   1      33.040  21.080  24.996  1.00  0.00     0.051 A 
ATOM     12  C   UNL A   1      35.387  21.635  25.178  1.00  0.00     0.024 A 
ATOM     13  C   UNL A   1      32.709  22.401  25.268  1.00  0.00     0.128 A 
ATOM     14  C   UNL A   1      35.062  22.983  25.480  1.00  0.00    -0.026 A 
ATOM     15  Br  UNL A   1      37.213  21.070  25.057  1.00  0.00    -0.050 Br
ATOM     16  C   UNL A   1      33.695  23.357  25.526  1.00  0.00     0.021 A 
ATOM     17  O   UNL A   1      31.372  22.667  25.304  1.00  0.00    -0.475 OA
ATOM     18  C   UNL A   1      36.115  24.031  25.758  1.00  0.00     0.046 C 
ATOM     19  C   UNL A   1      33.240  24.711  25.869  1.00  0.00     0.026 C 
ATOM     20  C   UNL A   1      30.984  24.052  25.126  1.00  0.00     0.314 C 
BRANCH  20  21
ATOM     21  C   UNL A   1      30.655  24.307  23.644  1.00  0.00     0.429 C 
ATOM     22  F   UNL A   1      29.672  25.234  23.526  1.00  0.00    -0.167 F 
ATOM     23  F   UNL A   1      31.715  24.784  22.947  1.00  0.00    -0.167 F 
ATOM     24  F   UNL A   1      30.239  23.193  23.001  1.00  0.00    -0.167 F 
ENDBRANCH  20  21
ENDBRANCH   5   8
ENDBRANCH   3   4
ENDBRANCH   2   3
ENDBRANCH   1   2
BRANCH   1  25
ATOM     25  N   UNL A   1      32.875  30.437  25.473  1.00  0.00    -0.352 N 
ATOM     26  C   UNL A   1      33.094  31.007  26.701  1.00  0.00     0.251 C 
ATOM     27  H   UNL A   1      32.171  30.865  24.935  1.00  0.00     0.163 HD
ATOM     28  O   UNL A   1      32.245  31.759  27.177  1.00  0.00    -0.269 OA
BRANCH  26  29
ATOM     29  C   UNL A   1      34.336  30.713  27.441  1.00  0.00     0.039 A 
ATOM     30  C   UNL A   1      35.283  31.722  27.627  1.00  0.00     0.014 A 
ATOM     31  C   UNL A   1      34.574  29.426  27.930  1.00  0.00     0.014 A 
ATOM     32  C   UNL A   1      36.438  31.453  28.361  1.00  0.00     0.010 A 
ATOM     33  C   UNL A   1      35.671  29.188  28.745  1.00  0.00     0.010 A 
ATOM     34  C   UNL A   1      36.623  30.193  28.956  1.00  0.00    -0.014 A 
BRANCH  34  35
ATOM     35  C   UNL A   1      37.825  29.889  29.769  1.00  0.00     0.031 A 
ATOM     36  C   UNL A   1      38.877  28.964  29.220  1.00  0.00     0.074 A 
ATOM     37  C   UNL A   1      37.940  30.402  31.009  1.00  0.00     0.049 A 
ATOM     38  N   UNL A   1      39.955  28.506  29.799  1.00  0.00    -0.248 NA
ATOM     39  C   UNL A   1      38.675  28.464  27.849  1.00  0.00     0.031 C 
ATOM     40  C   UNL A   1      36.965  31.286  31.652  1.00  0.00     0.029 A 
ATOM     41  N   UNL A   1      38.927  30.259  31.950  1.00  0.00    -0.354 N 
ATOM     42  C   UNL A   1      40.554  27.663  28.869  1.00  0.00     0.074 A 
ATOM     43  C   UNL A   1      39.685  27.617  27.715  1.00  0.00     0.031 C 
ATOM     44  C   UNL A   1      37.425  31.642  32.863  1.00  0.00     0.029 A 
ATOM     45  C   UNL A   1      38.700  30.974  33.103  1.00  0.00     0.049 A 
ATOM     46  H   UNL A   1      39.725  29.698  31.813  1.00  0.00     0.167 HD
ATOM     47  C   UNL A   1      41.738  27.013  28.960  1.00  0.00     0.034 A 
ATOM     48  C   UNL A   1      39.435  31.074  34.228  1.00  0.00     0.034 A 
ATOM     49  C   UNL A   1      42.608  27.093  30.102  1.00  0.00     0.049 A 
ATOM     50  C   UNL A   1      40.732  30.314  34.317  1.00  0.00     0.074 A 
ATOM     51  C   UNL A   1      43.849  26.511  30.280  1.00  0.00     0.029 A 
ATOM     52  N   UNL A   1      42.328  27.804  31.261  1.00  0.00    -0.354 N 
ATOM     53  N   UNL A   1      41.288  29.530  33.422  1.00  0.00    -0.248 NA
ATOM     54  C   UNL A   1      41.497  30.447  35.564  1.00  0.00     0.031 C 
ATOM     55  C   UNL A   1      44.295  26.821  31.567  1.00  0.00     0.029 A 
ATOM     56  C   UNL A   1      43.362  27.652  32.169  1.00  0.00     0.049 A 
ATOM     57  H   UNL A   1      41.516  28.339  31.415  1.00  0.00     0.167 HD
ATOM     58  C   UNL A   1      42.480  29.093  33.991  1.00  0.00     0.074 A 
ATOM     59  C   UNL A   1      42.566  29.707  35.301  1.00  0.00     0.031 C 
ATOM     60  C   UNL A   1      43.420  28.263  33.475  1.00  0.00     0.034 A 
BRANCH  47  61
ATOM     61  C   UNL A   1      42.159  26.162  27.790  1.00  0.00     0.023 A 
ATOM     62  C   UNL A   1      41.775  24.814  27.690  1.00  0.00     0.031 A 
ATOM     63  C   UNL A   1      42.937  26.708  26.754  1.00  0.00     0.131 A 
ATOM     64  C   UNL A   1      42.208  24.043  26.601  1.00  0.00     0.055 A 
ATOM     65  C   UNL A   1      43.308  25.954  25.640  1.00  0.00     0.041 A 
ATOM     66  F   UNL A   1      43.347  27.984  26.810  1.00  0.00    -0.206 F 
ATOM     67  C   UNL A   1      42.949  24.611  25.562  1.00  0.00     0.022 A 
BRANCH  64  68
ATOM     68  S   UNL A   1      41.854  22.265  26.601  1.00  0.00     0.124 S 
ATOM     69  O   UNL A   1      42.524  21.834  25.376  1.00  0.00    -0.237 OA
ATOM     70  O   UNL A   1      42.460  21.820  27.851  1.00  0.00    -0.237 OA
ATOM     71  O   UNL A   1      40.394  22.206  26.559  1.00  0.00    -0.744 OA
ENDBRANCH  64  68
ENDBRANCH  47  61
BRANCH  48  72
ATOM     72  C   UNL A   1      38.965  31.930  35.353  1.00  0.00     0.023 A 
ATOM     73  C   UNL A   1      38.339  31.365  36.475  1.00  0.00     0.031 A 
ATOM     74  C   UNL A   1      39.141  33.325  35.325  1.00  0.00     0.131 A 
ATOM     75  C   UNL A   1      37.892  32.193  37.516  1.00  0.00     0.055 A 
ATOM     76  C   UNL A   1      38.730  34.141  36.381  1.00  0.00     0.041 A 
ATOM     77  F   UNL A   1      39.743  33.913  34.279  1.00  0.00    -0.206 F 
ATOM     78  C   UNL A   1      38.095  33.575  37.482  1.00  0.00     0.022 A 
BRANCH  75  79
ATOM     79  S   UNL A   1      37.008  31.439  38.909  1.00  0.00     0.124 S 
ATOM     80  O   UNL A   1      35.795  32.245  38.961  1.00  0.00    -0.237 OA
ATOM     81  O   UNL A   1      36.846  30.061  38.456  1.00  0.00    -0.237 OA
ATOM     82  O   UNL A   1      37.927  31.618  40.031  1.00  0.00    -0.744 OA
ENDBRANCH  75  79
ENDBRANCH  48  72
BRANCH  60  83
ATOM     83  C   UNL A   1      44.634  27.981  34.318  1.00  0.00     0.023 A 
ATOM     84  C   UNL A   1      44.689  26.866  35.170  1.00  0.00     0.031 A 
ATOM     85  C   UNL A   1      45.770  28.804  34.221  1.00  0.00     0.131 A 
ATOM     86  C   UNL A   1      45.850  26.616  35.914  1.00  0.00     0.055 A 
ATOM     87  C   UNL A   1      46.940  28.522  34.926  1.00  0.00     0.041 A 
ATOM     88  F   UNL A   1      45.768  29.879  33.415  1.00  0.00    -0.206 F 
ATOM     89  C   UNL A   1      46.982  27.426  35.783  1.00  0.00     0.022 A 
BRANCH  86  90
ATOM     90  S   UNL A   1      45.852  25.233  37.086  1.00  0.00     0.124 S 
ATOM     91  O   UNL A   1      44.511  25.320  37.658  1.00  0.00    -0.237 OA
ATOM     92  O   UNL A   1      46.101  24.086  36.219  1.00  0.00    -0.237 OA
ATOM     93  O   UNL A   1      46.941  25.562  38.003  1.00  0.00    -0.744 OA
ENDBRANCH  86  90
ENDBRANCH  60  83
ENDBRANCH  34  35
ENDBRANCH  26  29
ENDBRANCH   1  25
TORSDOF 14
ENDMDL
MODEL 2
REMARK VINA RESULT:     -12.4      2.618      3.515
REMARK SMILES Cc1cc2c(c(C)c1Br)C=C(C(=O)NCCCNC(=O)c1ccc(-c3c4nc(c(-c5cc(S(=O)(=O)[O-])ccc5F)c5ccc([nH]5)c(-c5cc(S(=O)(=O)[O-])ccc5F)c5nc(c(-c6cc(S(=O)(=O)[O-])ccc6F)c6ccc3[nH]6)C=C5)C=C4)cc1)[C@@H](C(F)(F)F)O2
REMARK SMILES IDX 17 1 16 2 15 3 14 4 12 5 13 6 11 8 1 9 2 10 3 11 8 12 4 13
REMARK SMILES IDX 6 14 9 15 5 16 89 17 7 18 10 19 84 20 85 21 86 22 87 23
REMARK SMILES IDX 88 24 18 25 19 26 20 28 21 29 22 30 83 31 23 32 82 33 24 34
REMARK SMILES IDX 25 35 26 36 76 37 27 38 81 39 75 40 77 41 28 42 80 43 74 44
REMARK SMILES IDX 73 45 29 47 61 48 41 49 60 50 42 51 45 52 59 53 78 54 43 55
REMARK SMILES IDX 44 56 58 58 79 59 46 60 30 61 31 62 39 63 32 64 38 65 40 66
REMARK SMILES IDX 37 67 33 68 34 69 35 70 36 71 62 72 63 73 71 74 64 75 70 76
REMARK SMILES IDX 72 77 69 78 65 79 66 80 67 81 68 82 47 83 48 84 56 85 49 86
REMARK SMILES IDX 55 87 57 88 54 89 50 90 51 91 52 92 53 93
REMARK H PARENT 14 7 18 27 77 46 45 57
REMARK Flexibility Score: inf
ROOT
ATOM      1  C   UNL A   1      32.764  32.228  27.176  1.00  0.00     0.118 C 
ENDROOT
BRANCH   1   2
ATOM      2  C   UNL A   1      31.446  31.667  26.655  1.00  0.00     0.042 C 
BRANCH   2   3
ATOM      3  C   UNL A   1      31.652  30.471  25.740  1.00  0.00     0.118 C 
BRANCH   3   4
ATOM      4  N   UNL A   1      30.746  30.495  24.600  1.00  0.00    -0.352 N 
ATOM      5  C   UNL A   1      30.376  29.655  23.607  1.00  0.00     0.251 C 
ATOM      6  O   UNL A   1      29.526  30.100  22.829  1.00  0.00    -0.270 OA
ATOM      7  H   UNL A   1      30.274  31.357  24.535  1.00  0.00     0.163 HD
BRANCH   5   8
ATOM      8  C   UNL A   1      30.907  28.275  23.409  1.00  0.00     0.067 C 
ATOM      9  C   UNL A   1      32.370  21.938  23.394  1.00  0.00     0.046 C 
ATOM     10  C   UNL A   1      31.824  23.310  23.687  1.00  0.00    -0.033 A 
ATOM     11  C   UNL A   1      32.113  24.329  22.776  1.00  0.00     0.051 A 
ATOM     12  C   UNL A   1      31.072  23.622  24.840  1.00  0.00     0.024 A 
ATOM     13  C   UNL A   1      31.662  25.624  22.995  1.00  0.00     0.128 A 
ATOM     14  C   UNL A   1      30.584  24.936  25.064  1.00  0.00    -0.026 A 
ATOM     15  Br  UNL A   1      30.734  22.222  26.104  1.00  0.00    -0.050 Br
ATOM     16  C   UNL A   1      30.890  25.944  24.115  1.00  0.00     0.021 A 
ATOM     17  O   UNL A   1      31.992  26.524  22.024  1.00  0.00    -0.475 OA
ATOM     18  C   UNL A   1      29.752  25.300  26.271  1.00  0.00     0.046 C 
ATOM     19  C   UNL A   1      30.405  27.325  24.220  1.00  0.00     0.026 C 
ATOM     20  C   UNL A   1      31.957  27.922  22.401  1.00  0.00     0.314 C 
BRANCH  20  21
ATOM     21  C   UNL A   1      33.366  28.374  22.831  1.00  0.00     0.429 C 
ATOM     22  F   UNL A   1      34.290  27.985  21.918  1.00  0.00    -0.167 F 
ATOM     23  F   UNL A   1      33.475  29.721  22.935  1.00  0.00    -0.167 F 
ATOM     24  F   UNL A   1      33.737  27.863  24.026  1.00  0.00    -0.167 F 
ENDBRANCH  20  21
ENDBRANCH   5   8
ENDBRANCH   3   4
ENDBRANCH   2   3
ENDBRANCH   1   2
BRANCH   1  25
ATOM     25  N   UNL A   1      32.664  33.657  27.464  1.00  0.00    -0.352 N 
ATOM     26  C   UNL A   1      33.228  34.395  28.474  1.00  0.00     0.251 C 
ATOM     27  H   UNL A   1      32.105  34.170  26.837  1.00  0.00     0.163 HD
ATOM     28  O   UNL A   1      32.780  35.513  28.726  1.00  0.00    -0.269 OA
BRANCH  26  29
ATOM     29  C   UNL A   1      34.357  33.846  29.247  1.00  0.00     0.039 A 
ATOM     30  C   UNL A   1      34.110  32.944  30.284  1.00  0.00     0.014 A 
ATOM     31  C   UNL A   1      35.665  34.246  28.960  1.00  0.00     0.014 A 
ATOM     32  C   UNL A   1      35.182  32.396  30.988  1.00  0.00     0.010 A 
ATOM     33  C   UNL A   1      36.733  33.624  29.590  1.00  0.00     0.010 A 
ATOM     34  C   UNL A   1      36.503  32.705  30.621  1.00  0.00    -0.014 A 
BRANCH  34  35
ATOM     35  C   UNL A   1      37.662  32.112  31.330  1.00  0.00     0.031 A 
ATOM     36  C   UNL A   1      38.449  31.009  30.673  1.00  0.00     0.074 A 
ATOM     37  C   UNL A   1      37.971  32.528  32.573  1.00  0.00     0.049 A 
ATOM     38  N   UNL A   1      39.438  30.303  31.152  1.00  0.00    -0.248 NA
ATOM     39  C   UNL A   1      38.050  30.630  29.306  1.00  0.00     0.031 C 
ATOM     40  C   UNL A   1      37.257  33.570  33.317  1.00  0.00     0.029 A 
ATOM     41  N   UNL A   1      38.965  32.132  33.430  1.00  0.00    -0.354 N 
ATOM     42  C   UNL A   1      39.773  29.396  30.153  1.00  0.00     0.074 A 
ATOM     43  C   UNL A   1      38.839  29.593  29.069  1.00  0.00     0.031 C 
ATOM     44  C   UNL A   1      37.866  33.760  34.499  1.00  0.00     0.029 A 
ATOM     45  C   UNL A   1      38.978  32.823  34.620  1.00  0.00     0.049 A 
ATOM     46  H   UNL A   1      39.610  31.419  33.215  1.00  0.00     0.167 HD
ATOM     47  C   UNL A   1      40.791  28.504  30.132  1.00  0.00     0.034 A 
ATOM     48  C   UNL A   1      39.791  32.710  35.687  1.00  0.00     0.034 A 
ATOM     49  C   UNL A   1      41.733  28.341  31.206  1.00  0.00     0.049 A 
ATOM     50  C   UNL A   1      40.895  31.685  35.653  1.00  0.00     0.074 A 
ATOM     51  C   UNL A   1      42.827  27.498  31.269  1.00  0.00     0.029 A 
ATOM     52  N   UNL A   1      41.695  29.039  32.405  1.00  0.00    -0.354 N 
ATOM     53  N   UNL A   1      41.205  30.843  34.693  1.00  0.00    -0.248 NA
ATOM     54  C   UNL A   1      41.754  31.591  36.840  1.00  0.00     0.031 C 
ATOM     55  C   UNL A   1      43.416  27.642  32.528  1.00  0.00     0.029 A 
ATOM     56  C   UNL A   1      42.730  28.625  33.226  1.00  0.00     0.049 A 
ATOM     57  H   UNL A   1      41.031  29.728  32.638  1.00  0.00     0.167 HD
ATOM     58  C   UNL A   1      42.309  30.134  35.155  1.00  0.00     0.074 A 
ATOM     59  C   UNL A   1      42.615  30.652  36.473  1.00  0.00     0.031 C 
ATOM     60  C   UNL A   1      43.008  29.146  34.542  1.00  0.00     0.034 A 
BRANCH  47  61
ATOM     61  C   UNL A   1      40.936  27.639  28.906  1.00  0.00     0.023 A 
ATOM     62  C   UNL A   1      41.919  27.902  27.937  1.00  0.00     0.031 A 
ATOM     63  C   UNL A   1      40.096  26.529  28.714  1.00  0.00     0.131 A 
ATOM     64  C   UNL A   1      42.008  27.093  26.795  1.00  0.00     0.055 A 
ATOM     65  C   UNL A   1      40.233  25.687  27.609  1.00  0.00     0.041 A 
ATOM     66  F   UNL A   1      39.128  26.245  29.599  1.00  0.00    -0.206 F 
ATOM     67  C   UNL A   1      41.189  25.972  26.637  1.00  0.00     0.022 A 
BRANCH  64  68
ATOM     68  S   UNL A   1      43.157  27.574  25.478  1.00  0.00     0.124 S 
ATOM     69  O   UNL A   1      42.273  28.301  24.570  1.00  0.00    -0.237 OA
ATOM     70  O   UNL A   1      44.142  28.378  26.192  1.00  0.00    -0.237 OA
ATOM     71  O   UNL A   1      43.648  26.294  24.968  1.00  0.00    -0.744 OA
ENDBRANCH  64  68
ENDBRANCH  47  61
BRANCH  48  72
ATOM     72  C   UNL A   1      39.597  33.592  36.872  1.00  0.00     0.023 A 
ATOM     73  C   UNL A   1      38.999  33.102  38.043  1.00  0.00     0.031 A 
ATOM     74  C   UNL A   1      40.013  34.935  36.851  1.00  0.00     0.131 A 
ATOM     75  C   UNL A   1      38.813  33.957  39.141  1.00  0.00     0.055 A 
ATOM     76  C   UNL A   1      39.861  35.770  37.960  1.00  0.00     0.041 A 
ATOM     77  F   UNL A   1      40.599  35.448  35.758  1.00  0.00    -0.206 F 
ATOM     78  C   UNL A   1      39.252  35.283  39.112  1.00  0.00     0.022 A 
BRANCH  75  79
ATOM     79  S   UNL A   1      37.957  33.316  40.607  1.00  0.00     0.124 S 
ATOM     80  O   UNL A   1      36.628  33.036  40.075  1.00  0.00    -0.237 OA
ATOM     81  O   UNL A   1      38.770  32.154  40.951  1.00  0.00    -0.237 OA
ATOM     82  O   UNL A   1      38.030  34.425  41.555  1.00  0.00    -0.744 OA
ENDBRANCH  75  79
ENDBRANCH  48  72
BRANCH  60  83
ATOM     83  C   UNL A   1      44.186  28.570  35.280  1.00  0.00     0.023 A 
ATOM     84  C   UNL A   1      44.022  27.568  36.249  1.00  0.00     0.031 A 
ATOM     85  C   UNL A   1      45.492  28.988  34.966  1.00  0.00     0.131 A 
ATOM     86  C   UNL A   1      45.145  27.030  36.891  1.00  0.00     0.055 A 
ATOM     87  C   UNL A   1      46.609  28.415  35.572  1.00  0.00     0.041 A 
ATOM     88  F   UNL A   1      45.700  29.940  34.042  1.00  0.00    -0.206 F 
ATOM     89  C   UNL A   1      46.439  27.434  36.545  1.00  0.00     0.022 A 
BRANCH  86  90
ATOM     90  S   UNL A   1      44.895  25.816  38.213  1.00  0.00     0.124 S 
ATOM     91  O   UNL A   1      43.753  26.380  38.928  1.00  0.00    -0.237 OA
ATOM     92  O   UNL A   1      44.637  24.588  37.469  1.00  0.00    -0.237 OA
ATOM     93  O   UNL A   1      46.159  25.840  38.946  1.00  0.00    -0.744 OA
ENDBRANCH  86  90
ENDBRANCH  60  83
ENDBRANCH  34  35
ENDBRANCH  26  29
ENDBRANCH   1  25
TORSDOF 14
ENDMDL
MODEL 3
REMARK VINA RESULT:     -12.4      5.329     10.050
REMARK SMILES Cc1cc2c(c(C)c1Br)C=C(C(=O)NCCCNC(=O)c1ccc(-c3c4nc(c(-c5cc(S(=O)(=O)[O-])ccc5F)c5ccc([nH]5)c(-c5cc(S(=O)(=O)[O-])ccc5F)c5nc(c(-c6cc(S(=O)(=O)[O-])ccc6F)c6ccc3[nH]6)C=C5)C=C4)cc1)[C@@H](C(F)(F)F)O2
REMARK SMILES IDX 17 1 16 2 15 3 14 4 12 5 13 6 11 8 1 9 2 10 3 11 8 12 4 13
REMARK SMILES IDX 6 14 9 15 5 16 89 17 7 18 10 19 84 20 85 21 86 22 87 23
REMARK SMILES IDX 88 24 18 25 19 26 20 28 21 29 22 30 83 31 23 32 82 33 24 34
REMARK SMILES IDX 25 35 26 36 76 37 27 38 81 39 75 40 77 41 28 42 80 43 74 44
REMARK SMILES IDX 73 45 29 47 61 48 41 49 60 50 42 51 45 52 59 53 78 54 43 55
REMARK SMILES IDX 44 56 58 58 79 59 46 60 30 61 31 62 39 63 32 64 38 65 40 66
REMARK SMILES IDX 37 67 33 68 34 69 35 70 36 71 62 72 63 73 71 74 64 75 70 76
REMARK SMILES IDX 72 77 69 78 65 79 66 80 67 81 68 82 47 83 48 84 56 85 49 86
REMARK SMILES IDX 55 87 57 88 54 89 50 90 51 91 52 92 53 93
REMARK H PARENT 14 7 18 27 77 46 45 57
REMARK Flexibility Score: inf
ROOT
ATOM      1  C   UNL A   1      35.939  22.429  26.426  1.00  0.00     0.118 C 
ENDROOT
BRANCH   1   2
ATOM      2  C   UNL A   1      34.538  21.869  26.636  1.00  0.00     0.042 C 
BRANCH   2   3
ATOM      3  C   UNL A   1      33.676  21.995  25.390  1.00  0.00     0.118 C 
BRANCH   3   4
ATOM      4  N   UNL A   1      34.455  22.398  24.227  1.00  0.00    -0.352 N 
ATOM      5  C   UNL A   1      34.452  23.413  23.333  1.00  0.00     0.251 C 
ATOM      6  O   UNL A   1      35.344  23.365  22.479  1.00  0.00    -0.270 OA
ATOM      7  H   UNL A   1      35.180  21.759  24.042  1.00  0.00     0.163 HD
BRANCH   5   8
ATOM      8  C   UNL A   1      33.480  24.544  23.321  1.00  0.00     0.067 C 
ATOM      9  C   UNL A   1      30.100  30.064  23.957  1.00  0.00     0.046 C 
ATOM     10  C   UNL A   1      31.103  28.946  24.057  1.00  0.00    -0.033 A 
ATOM     11  C   UNL A   1      30.974  27.879  23.164  1.00  0.00     0.051 A 
ATOM     12  C   UNL A   1      32.134  28.906  25.021  1.00  0.00     0.024 A 
ATOM     13  C   UNL A   1      31.850  26.803  23.216  1.00  0.00     0.128 A 
ATOM     14  C   UNL A   1      33.050  27.823  25.070  1.00  0.00    -0.026 A 
ATOM     15  Br  UNL A   1      32.258  30.352  26.271  1.00  0.00    -0.050 Br
ATOM     16  C   UNL A   1      32.896  26.762  24.142  1.00  0.00     0.021 A 
ATOM     17  O   UNL A   1      31.634  25.835  22.279  1.00  0.00    -0.475 OA
ATOM     18  C   UNL A   1      34.184  27.761  26.067  1.00  0.00     0.046 C 
ATOM     19  C   UNL A   1      33.807  25.613  24.072  1.00  0.00     0.026 C 
ATOM     20  C   UNL A   1      32.189  24.527  22.561  1.00  0.00     0.314 C 
BRANCH  20  21
ATOM     21  C   UNL A   1      31.118  23.647  23.232  1.00  0.00     0.429 C 
ATOM     22  F   UNL A   1      31.168  23.781  24.581  1.00  0.00    -0.167 F 
ATOM     23  F   UNL A   1      29.858  23.980  22.861  1.00  0.00    -0.167 F 
ATOM     24  F   UNL A   1      31.269  22.333  22.952  1.00  0.00    -0.167 F 
ENDBRANCH  20  21
ENDBRANCH   5   8
ENDBRANCH   3   4
ENDBRANCH   2   3
ENDBRANCH   1   2
BRANCH   1  25
ATOM     25  N   UNL A   1      36.910  21.367  26.170  1.00  0.00    -0.352 N 
ATOM     26  C   UNL A   1      38.269  21.436  26.000  1.00  0.00     0.251 C 
ATOM     27  H   UNL A   1      36.529  20.461  26.110  1.00  0.00     0.163 HD
ATOM     28  O   UNL A   1      38.863  20.487  25.491  1.00  0.00    -0.269 OA
BRANCH  26  29
ATOM     29  C   UNL A   1      39.006  22.642  26.422  1.00  0.00     0.039 A 
ATOM     30  C   UNL A   1      40.085  22.520  27.300  1.00  0.00     0.014 A 
ATOM     31  C   UNL A   1      38.610  23.902  25.966  1.00  0.00     0.014 A 
ATOM     32  C   UNL A   1      40.805  23.657  27.666  1.00  0.00     0.010 A 
ATOM     33  C   UNL A   1      39.387  25.016  26.248  1.00  0.00     0.010 A 
ATOM     34  C   UNL A   1      40.483  24.909  27.114  1.00  0.00    -0.014 A 
BRANCH  34  35
ATOM     35  C   UNL A   1      41.251  26.128  27.460  1.00  0.00     0.031 A 
ATOM     36  C   UNL A   1      40.620  27.182  28.329  1.00  0.00     0.074 A 
ATOM     37  C   UNL A   1      42.486  26.306  26.953  1.00  0.00     0.049 A 
ATOM     38  N   UNL A   1      41.085  28.352  28.678  1.00  0.00    -0.248 NA
ATOM     39  C   UNL A   1      39.273  26.894  28.852  1.00  0.00     0.031 C 
ATOM     40  C   UNL A   1      43.184  25.363  26.074  1.00  0.00     0.029 A 
ATOM     41  N   UNL A   1      43.377  27.337  27.103  1.00  0.00    -0.354 N 
ATOM     42  C   UNL A   1      40.091  28.940  29.451  1.00  0.00     0.074 A 
ATOM     43  C   UNL A   1      38.969  28.029  29.464  1.00  0.00     0.031 C 
ATOM     44  C   UNL A   1      44.410  25.839  25.803  1.00  0.00     0.029 A 
ATOM     45  C   UNL A   1      44.568  27.141  26.444  1.00  0.00     0.049 A 
ATOM     46  H   UNL A   1      43.183  28.144  27.635  1.00  0.00     0.167 HD
ATOM     47  C   UNL A   1      40.126  30.118  30.117  1.00  0.00     0.034 A 
ATOM     48  C   UNL A   1      45.661  27.924  26.361  1.00  0.00     0.034 A 
ATOM     49  C   UNL A   1      41.262  30.999  30.120  1.00  0.00     0.049 A 
ATOM     50  C   UNL A   1      45.662  29.246  27.082  1.00  0.00     0.074 A 
ATOM     51  C   UNL A   1      41.420  32.195  30.796  1.00  0.00     0.029 A 
ATOM     52  N   UNL A   1      42.438  30.778  29.417  1.00  0.00    -0.354 N 
ATOM     53  N   UNL A   1      44.716  29.781  27.820  1.00  0.00    -0.248 NA
ATOM     54  C   UNL A   1      46.871  30.071  26.960  1.00  0.00     0.031 C 
ATOM     55  C   UNL A   1      42.667  32.727  30.456  1.00  0.00     0.029 A 
ATOM     56  C   UNL A   1      43.315  31.830  29.620  1.00  0.00     0.049 A 
ATOM     57  H   UNL A   1      42.622  29.990  28.856  1.00  0.00     0.167 HD
ATOM     58  C   UNL A   1      45.225  30.996  28.266  1.00  0.00     0.074 A 
ATOM     59  C   UNL A   1      46.563  31.111  27.723  1.00  0.00     0.031 C 
ATOM     60  C   UNL A   1      44.640  31.930  29.057  1.00  0.00     0.034 A 
BRANCH  47  61
ATOM     61  C   UNL A   1      38.900  30.517  30.896  1.00  0.00     0.023 A 
ATOM     62  C   UNL A   1      37.816  31.162  30.276  1.00  0.00     0.031 A 
ATOM     63  C   UNL A   1      38.804  30.233  32.269  1.00  0.00     0.131 A 
ATOM     64  C   UNL A   1      36.702  31.545  31.037  1.00  0.00     0.055 A 
ATOM     65  C   UNL A   1      37.665  30.555  33.008  1.00  0.00     0.041 A 
ATOM     66  F   UNL A   1      39.819  29.636  32.914  1.00  0.00    -0.206 F 
ATOM     67  C   UNL A   1      36.607  31.221  32.393  1.00  0.00     0.022 A 
BRANCH  64  68
ATOM     68  S   UNL A   1      35.411  32.541  30.247  1.00  0.00     0.124 S 
ATOM     69  O   UNL A   1      35.151  31.772  29.032  1.00  0.00    -0.237 OA
ATOM     70  O   UNL A   1      34.349  32.536  31.246  1.00  0.00    -0.237 OA
ATOM     71  O   UNL A   1      36.059  33.834  30.032  1.00  0.00    -0.744 OA
ENDBRANCH  64  68
ENDBRANCH  47  61
BRANCH  48  72
ATOM     72  C   UNL A   1      46.843  27.477  25.573  1.00  0.00     0.023 A 
ATOM     73  C   UNL A   1      46.984  27.833  24.223  1.00  0.00     0.031 A 
ATOM     74  C   UNL A   1      47.851  26.692  26.160  1.00  0.00     0.131 A 
ATOM     75  C   UNL A   1      48.100  27.387  23.496  1.00  0.00     0.055 A 
ATOM     76  C   UNL A   1      48.978  26.284  25.443  1.00  0.00     0.041 A 
ATOM     77  F   UNL A   1      47.767  26.333  27.450  1.00  0.00    -0.206 F 
ATOM     78  C   UNL A   1      49.103  26.626  24.101  1.00  0.00     0.022 A 
BRANCH  75  79
ATOM     79  S   UNL A   1      48.207  27.792  21.731  1.00  0.00     0.124 S 
ATOM     80  O   UNL A   1      46.886  28.353  21.475  1.00  0.00    -0.237 OA
ATOM     81  O   UNL A   1      49.322  28.732  21.702  1.00  0.00    -0.237 OA
ATOM     82  O   UNL A   1      48.470  26.500  21.102  1.00  0.00    -0.744 OA
ENDBRANCH  75  79
ENDBRANCH  48  72
BRANCH  60  83
ATOM     83  C   UNL A   1      45.447  33.152  29.400  1.00  0.00     0.023 A 
ATOM     84  C   UNL A   1      45.364  34.322  28.628  1.00  0.00     0.031 A 
ATOM     85  C   UNL A   1      46.262  33.164  30.546  1.00  0.00     0.131 A 
ATOM     86  C   UNL A   1      46.105  35.453  28.998  1.00  0.00     0.055 A 
ATOM     87  C   UNL A   1      46.958  34.308  30.937  1.00  0.00     0.041 A 
ATOM     88  F   UNL A   1      46.369  32.071  31.319  1.00  0.00    -0.206 F 
ATOM     89  C   UNL A   1      46.886  35.459  30.158  1.00  0.00     0.022 A 
BRANCH  86  90
ATOM     90  S   UNL A   1      46.062  36.912  27.923  1.00  0.00     0.124 S 
ATOM     91  O   UNL A   1      45.917  36.308  26.602  1.00  0.00    -0.237 OA
ATOM     92  O   UNL A   1      44.899  37.638  28.423  1.00  0.00    -0.237 OA
ATOM     93  O   UNL A   1      47.348  37.560  28.172  1.00  0.00    -0.744 OA
ENDBRANCH  86  90
ENDBRANCH  60  83
ENDBRANCH  34  35
ENDBRANCH  26  29
ENDBRANCH   1  25
TORSDOF 14
ENDMDL
