MODEL 1
REMARK VINA RESULT:     -11.2      0.000      0.000
REMARK SMILES CC[C@@H]1CCC[C@@H](Oc2cncc(C(=O)NCCCNC(=O)c3ccc(-c4c5nc(c(-c6cc(S(=O)(=O)[O-])ccc6F)c6ccc([nH]6)c(-c6cc(S(=O)(=O)[O-])ccc6F)c6nc(c(-c7cc(S(=O)(=O)[O-])ccc7F)c7ccc4[nH]7)C=C6)C=C5)cc3)n2)C1
REMARK SMILES IDX 18 1 17 2 16 3 14 4 15 5 13 7 9 8 10 9 86 10 11 11 12 12
REMARK SMILES IDX 8 13 7 14 3 15 4 16 87 17 5 18 6 19 2 20 1 21 19 22 20 23
REMARK SMILES IDX 21 24 22 26 23 27 24 28 85 29 25 30 84 31 26 32 27 33 28 34
REMARK SMILES IDX 78 35 29 36 83 37 77 38 79 39 30 40 82 41 76 42 75 43 31 45
REMARK SMILES IDX 63 46 43 47 62 48 44 49 47 50 61 51 80 52 45 53 46 54 60 56
REMARK SMILES IDX 81 57 48 58 32 59 33 60 41 61 34 62 40 63 42 64 39 65 35 66
REMARK SMILES IDX 36 67 37 68 38 69 64 70 65 71 73 72 66 73 72 74 74 75 71 76
REMARK SMILES IDX 67 77 68 78 69 79 70 80 49 81 50 82 58 83 51 84 57 85 59 86
REMARK SMILES IDX 56 87 52 88 53 89 54 90 55 91
REMARK H PARENT 16 6 20 25 79 44 47 55
REMARK Flexibility Score: inf
ROOT
ATOM      1  C   UNL A   1      40.732  21.013  27.477  1.00  0.00     0.042 C 
ENDROOT
BRANCH   1   2
ATOM      2  C   UNL A   1      42.056  20.296  27.723  1.00  0.00     0.118 C 
BRANCH   2   3
ATOM      3  N   UNL A   1      42.068  18.975  27.114  1.00  0.00    -0.351 N 
ATOM      4  C   UNL A   1      42.835  18.451  26.104  1.00  0.00     0.271 C 
ATOM      5  O   UNL A   1      42.585  17.304  25.731  1.00  0.00    -0.267 OA
ATOM      6  H   UNL A   1      41.410  18.348  27.492  1.00  0.00     0.163 HD
BRANCH   4   7
ATOM      7  C   UNL A   1      43.956  19.193  25.467  1.00  0.00     0.150 A 
ATOM      8  C   UNL A   1      44.806  21.084  24.425  1.00  0.00     0.233 A 
ATOM      9  C   UNL A   1      46.043  20.465  24.433  1.00  0.00     0.179 A 
ATOM     10  N   UNL A   1      43.745  20.425  24.938  1.00  0.00    -0.205 NA
ATOM     11  N   UNL A   1      46.289  19.233  24.955  1.00  0.00    -0.257 NA
ATOM     12  C   UNL A   1      45.210  18.610  25.473  1.00  0.00     0.145 A 
BRANCH   8  13
ATOM     13  O   UNL A   1      44.453  22.295  23.955  1.00  0.00    -0.473 OA
BRANCH  13  14
ATOM     14  C   UNL A   1      44.537  23.588  24.554  1.00  0.00     0.175 C 
ATOM     15  C   UNL A   1      43.864  23.440  27.015  1.00  0.00    -0.008 C 
ATOM     16  C   UNL A   1      45.295  23.879  27.404  1.00  0.00     0.004 C 
ATOM     17  C   UNL A   1      43.489  23.927  25.617  1.00  0.00     0.048 C 
ATOM     18  C   UNL A   1      46.385  23.773  26.330  1.00  0.00     0.004 C 
ATOM     19  C   UNL A   1      45.935  24.079  24.910  1.00  0.00     0.045 C 
BRANCH  15  20
ATOM     20  C   UNL A   1      42.872  23.866  28.119  1.00  0.00     0.000 C 
ATOM     21  C   UNL A   1      43.391  23.704  29.540  1.00  0.00     0.004 C 
ENDBRANCH  15  20
ENDBRANCH  13  14
ENDBRANCH   8  13
ENDBRANCH   4   7
ENDBRANCH   2   3
ENDBRANCH   1   2
BRANCH   1  22
ATOM     22  C   UNL A   1      40.679  21.729  26.127  1.00  0.00     0.118 C 
BRANCH  22  23
ATOM     23  N   UNL A   1      39.320  22.115  25.759  1.00  0.00    -0.352 N 
ATOM     24  C   UNL A   1      38.577  23.206  26.133  1.00  0.00     0.251 C 
ATOM     25  H   UNL A   1      38.865  21.494  25.146  1.00  0.00     0.163 HD
ATOM     26  O   UNL A   1      37.368  23.217  25.934  1.00  0.00    -0.269 OA
BRANCH  24  27
ATOM     27  C   UNL A   1      39.242  24.353  26.783  1.00  0.00     0.039 A 
ATOM     28  C   UNL A   1      39.948  25.265  25.995  1.00  0.00     0.014 A 
ATOM     29  C   UNL A   1      39.161  24.526  28.167  1.00  0.00     0.014 A 
ATOM     30  C   UNL A   1      40.497  26.403  26.589  1.00  0.00     0.010 A 
ATOM     31  C   UNL A   1      39.645  25.694  28.744  1.00  0.00     0.010 A 
ATOM     32  C   UNL A   1      40.301  26.653  27.957  1.00  0.00    -0.014 A 
BRANCH  32  33
ATOM     33  C   UNL A   1      40.722  27.934  28.578  1.00  0.00     0.031 A 
ATOM     34  C   UNL A   1      42.178  28.219  28.814  1.00  0.00     0.074 A 
ATOM     35  C   UNL A   1      39.777  28.800  28.999  1.00  0.00     0.049 A 
ATOM     36  N   UNL A   1      42.729  29.220  29.449  1.00  0.00    -0.248 NA
ATOM     37  C   UNL A   1      43.138  27.237  28.288  1.00  0.00     0.031 C 
ATOM     38  C   UNL A   1      38.332  28.612  28.846  1.00  0.00     0.029 A 
ATOM     39  N   UNL A   1      39.884  30.000  29.655  1.00  0.00    -0.354 N 
ATOM     40  C   UNL A   1      44.100  28.991  29.398  1.00  0.00     0.074 A 
ATOM     41  C   UNL A   1      44.291  27.727  28.721  1.00  0.00     0.031 C 
ATOM     42  C   UNL A   1      37.691  29.666  29.375  1.00  0.00     0.029 A 
ATOM     43  C   UNL A   1      38.670  30.573  29.963  1.00  0.00     0.049 A 
ATOM     44  H   UNL A   1      40.748  30.414  29.885  1.00  0.00     0.167 HD
ATOM     45  C   UNL A   1      45.103  29.778  29.858  1.00  0.00     0.034 A 
ATOM     46  C   UNL A   1      38.379  31.686  30.666  1.00  0.00     0.034 A 
ATOM     47  C   UNL A   1      44.893  31.036  30.532  1.00  0.00     0.049 A 
ATOM     48  C   UNL A   1      39.517  32.501  31.231  1.00  0.00     0.074 A 
ATOM     49  C   UNL A   1      45.840  31.929  31.001  1.00  0.00     0.029 A 
ATOM     50  N   UNL A   1      43.651  31.574  30.846  1.00  0.00    -0.354 N 
ATOM     51  N   UNL A   1      40.810  32.296  31.129  1.00  0.00    -0.248 NA
ATOM     52  C   UNL A   1      39.157  33.697  32.004  1.00  0.00     0.031 C 
ATOM     53  C   UNL A   1      45.175  32.966  31.662  1.00  0.00     0.029 A 
ATOM     54  C   UNL A   1      43.810  32.764  31.537  1.00  0.00     0.049 A 
ATOM     55  H   UNL A   1      42.786  31.168  30.611  1.00  0.00     0.167 HD
ATOM     56  C   UNL A   1      41.414  33.354  31.803  1.00  0.00     0.074 A 
ATOM     57  C   UNL A   1      40.348  34.206  32.281  1.00  0.00     0.031 C 
ATOM     58  C   UNL A   1      42.733  33.597  32.015  1.00  0.00     0.034 A 
BRANCH  45  59
ATOM     59  C   UNL A   1      46.519  29.296  29.661  1.00  0.00     0.023 A 
ATOM     60  C   UNL A   1      47.226  29.557  28.474  1.00  0.00     0.031 A 
ATOM     61  C   UNL A   1      47.179  28.583  30.678  1.00  0.00     0.131 A 
ATOM     62  C   UNL A   1      48.531  29.067  28.315  1.00  0.00     0.055 A 
ATOM     63  C   UNL A   1      48.503  28.163  30.542  1.00  0.00     0.041 A 
ATOM     64  F   UNL A   1      46.547  28.287  31.824  1.00  0.00    -0.206 F 
ATOM     65  C   UNL A   1      49.184  28.395  29.351  1.00  0.00     0.022 A 
BRANCH  62  66
ATOM     66  S   UNL A   1      49.324  29.226  26.692  1.00  0.00     0.124 S 
ATOM     67  O   UNL A   1      48.300  28.675  25.808  1.00  0.00    -0.237 OA
ATOM     68  O   UNL A   1      49.550  30.663  26.591  1.00  0.00    -0.237 OA
ATOM     69  O   UNL A   1      50.531  28.413  26.819  1.00  0.00    -0.744 OA
ENDBRANCH  62  66
ENDBRANCH  45  59
BRANCH  46  70
ATOM     70  C   UNL A   1      36.963  32.084  30.920  1.00  0.00     0.023 A 
ATOM     71  C   UNL A   1      36.186  32.667  29.907  1.00  0.00     0.031 A 
ATOM     72  C   UNL A   1      36.391  31.967  32.200  1.00  0.00     0.131 A 
ATOM     73  C   UNL A   1      34.911  33.175  30.207  1.00  0.00     0.055 A 
ATOM     74  C   UNL A   1      35.095  32.407  32.476  1.00  0.00     0.041 A 
ATOM     75  F   UNL A   1      37.087  31.420  33.210  1.00  0.00    -0.206 F 
ATOM     76  C   UNL A   1      34.354  33.034  31.479  1.00  0.00     0.022 A 
BRANCH  73  77
ATOM     77  S   UNL A   1      34.049  34.145  28.940  1.00  0.00     0.124 S 
ATOM     78  O   UNL A   1      35.125  34.990  28.433  1.00  0.00    -0.237 OA
ATOM     79  O   UNL A   1      33.570  33.105  28.037  1.00  0.00    -0.237 OA
ATOM     80  O   UNL A   1      33.011  34.843  29.695  1.00  0.00    -0.744 OA
ENDBRANCH  73  77
ENDBRANCH  46  70
BRANCH  58  81
ATOM     81  C   UNL A   1      43.084  34.854  32.773  1.00  0.00     0.023 A 
ATOM     82  C   UNL A   1      43.311  36.072  32.109  1.00  0.00     0.031 A 
ATOM     83  C   UNL A   1      43.198  34.832  34.174  1.00  0.00     0.131 A 
ATOM     84  C   UNL A   1      43.695  37.206  32.841  1.00  0.00     0.055 A 
ATOM     85  C   UNL A   1      43.515  35.979  34.903  1.00  0.00     0.041 A 
ATOM     86  F   UNL A   1      42.995  33.695  34.858  1.00  0.00    -0.206 F 
ATOM     87  C   UNL A   1      43.777  37.171  34.235  1.00  0.00     0.022 A 
BRANCH  84  88
ATOM     88  S   UNL A   1      44.169  38.704  31.937  1.00  0.00     0.124 S 
ATOM     89  O   UNL A   1      43.768  38.375  30.573  1.00  0.00    -0.237 OA
ATOM     90  O   UNL A   1      43.379  39.734  32.602  1.00  0.00    -0.237 OA
ATOM     91  O   UNL A   1      45.613  38.793  32.155  1.00  0.00    -0.744 OA
ENDBRANCH  84  88
ENDBRANCH  58  81
ENDBRANCH  32  33
ENDBRANCH  24  27
ENDBRANCH  22  23
ENDBRANCH   1  22
TORSDOF 16
ENDMDL
MODEL 2
REMARK VINA RESULT:     -10.4      5.627      9.415
REMARK SMILES CC[C@@H]1CCC[C@@H](Oc2cncc(C(=O)NCCCNC(=O)c3ccc(-c4c5nc(c(-c6cc(S(=O)(=O)[O-])ccc6F)c6ccc([nH]6)c(-c6cc(S(=O)(=O)[O-])ccc6F)c6nc(c(-c7cc(S(=O)(=O)[O-])ccc7F)c7ccc4[nH]7)C=C6)C=C5)cc3)n2)C1
REMARK SMILES IDX 18 1 17 2 16 3 14 4 15 5 13 7 9 8 10 9 86 10 11 11 12 12
REMARK SMILES IDX 8 13 7 14 3 15 4 16 87 17 5 18 6 19 2 20 1 21 19 22 20 23
REMARK SMILES IDX 21 24 22 26 23 27 24 28 85 29 25 30 84 31 26 32 27 33 28 34
REMARK SMILES IDX 78 35 29 36 83 37 77 38 79 39 30 40 82 41 76 42 75 43 31 45
REMARK SMILES IDX 63 46 43 47 62 48 44 49 47 50 61 51 80 52 45 53 46 54 60 56
REMARK SMILES IDX 81 57 48 58 32 59 33 60 41 61 34 62 40 63 42 64 39 65 35 66
REMARK SMILES IDX 36 67 37 68 38 69 64 70 65 71 73 72 66 73 72 74 74 75 71 76
REMARK SMILES IDX 67 77 68 78 69 79 70 80 49 81 50 82 58 83 51 84 57 85 59 86
REMARK SMILES IDX 56 87 52 88 53 89 54 90 55 91
REMARK H PARENT 16 6 20 25 79 44 47 55
REMARK Flexibility Score: inf
ROOT
ATOM      1  C   UNL A   1      32.417  29.594  25.517  1.00  0.00     0.042 C 
ENDROOT
BRANCH   1   2
ATOM      2  C   UNL A   1      33.605  28.685  25.220  1.00  0.00     0.118 C 
BRANCH   2   3
ATOM      3  N   UNL A   1      33.986  28.746  23.818  1.00  0.00    -0.351 N 
ATOM      4  C   UNL A   1      33.641  27.952  22.752  1.00  0.00     0.271 C 
ATOM      5  O   UNL A   1      34.171  28.191  21.666  1.00  0.00    -0.267 OA
ATOM      6  H   UNL A   1      34.597  29.484  23.594  1.00  0.00     0.163 HD
BRANCH   4   7
ATOM      7  C   UNL A   1      32.650  26.848  22.849  1.00  0.00     0.150 A 
ATOM      8  C   UNL A   1      32.131  24.589  22.952  1.00  0.00     0.233 A 
ATOM      9  C   UNL A   1      30.809  24.955  23.118  1.00  0.00     0.179 A 
ATOM     10  N   UNL A   1      33.062  25.555  22.799  1.00  0.00    -0.205 NA
ATOM     11  N   UNL A   1      30.363  26.240  23.173  1.00  0.00    -0.257 NA
ATOM     12  C   UNL A   1      31.320  27.180  23.033  1.00  0.00     0.145 A 
BRANCH   8  13
ATOM     13  O   UNL A   1      32.684  23.362  22.898  1.00  0.00    -0.473 OA
BRANCH  13  14
ATOM     14  C   UNL A   1      33.254  22.551  23.926  1.00  0.00     0.175 C 
ATOM     15  C   UNL A   1      35.458  23.581  24.708  1.00  0.00    -0.008 C 
ATOM     16  C   UNL A   1      34.836  23.783  26.108  1.00  0.00     0.004 C 
ATOM     17  C   UNL A   1      34.781  22.440  23.952  1.00  0.00     0.048 C 
ATOM     18  C   UNL A   1      33.308  23.703  26.223  1.00  0.00     0.004 C 
ATOM     19  C   UNL A   1      32.637  22.686  25.313  1.00  0.00     0.045 C 
BRANCH  15  20
ATOM     20  C   UNL A   1      36.990  23.429  24.838  1.00  0.00     0.000 C 
ATOM     21  C   UNL A   1      37.580  23.991  26.123  1.00  0.00     0.004 C 
ENDBRANCH  15  20
ENDBRANCH  13  14
ENDBRANCH   8  13
ENDBRANCH   4   7
ENDBRANCH   2   3
ENDBRANCH   1   2
BRANCH   1  22
ATOM     22  C   UNL A   1      32.442  30.172  26.933  1.00  0.00     0.118 C 
BRANCH  22  23
ATOM     23  N   UNL A   1      32.499  31.630  26.935  1.00  0.00    -0.352 N 
ATOM     24  C   UNL A   1      33.409  32.479  27.513  1.00  0.00     0.251 C 
ATOM     25  H   UNL A   1      31.770  32.074  26.445  1.00  0.00     0.163 HD
ATOM     26  O   UNL A   1      33.141  33.669  27.632  1.00  0.00    -0.269 OA
BRANCH  24  27
ATOM     27  C   UNL A   1      34.698  31.948  27.997  1.00  0.00     0.039 A 
ATOM     28  C   UNL A   1      35.819  32.782  28.001  1.00  0.00     0.014 A 
ATOM     29  C   UNL A   1      34.795  30.630  28.449  1.00  0.00     0.014 A 
ATOM     30  C   UNL A   1      37.017  32.318  28.546  1.00  0.00     0.010 A 
ATOM     31  C   UNL A   1      35.967  30.194  29.057  1.00  0.00     0.010 A 
ATOM     32  C   UNL A   1      37.084  31.041  29.129  1.00  0.00    -0.014 A 
BRANCH  32  33
ATOM     33  C   UNL A   1      38.289  30.589  29.867  1.00  0.00     0.031 A 
ATOM     34  C   UNL A   1      39.193  29.545  29.275  1.00  0.00     0.074 A 
ATOM     35  C   UNL A   1      38.516  31.069  31.107  1.00  0.00     0.049 A 
ATOM     36  N   UNL A   1      40.217  28.939  29.817  1.00  0.00    -0.248 NA
ATOM     37  C   UNL A   1      38.890  29.108  27.904  1.00  0.00     0.031 C 
ATOM     38  C   UNL A   1      37.688  32.066  31.791  1.00  0.00     0.029 A 
ATOM     39  N   UNL A   1      39.496  30.774  32.021  1.00  0.00    -0.354 N 
ATOM     40  C   UNL A   1      40.683  28.051  28.854  1.00  0.00     0.074 A 
ATOM     41  C   UNL A   1      39.794  28.157  27.717  1.00  0.00     0.031 C 
ATOM     42  C   UNL A   1      38.205  32.311  33.005  1.00  0.00     0.029 A 
ATOM     43  C   UNL A   1      39.360  31.446  33.215  1.00  0.00     0.049 A 
ATOM     44  H   UNL A   1      40.229  30.141  31.841  1.00  0.00     0.167 HD
ATOM     45  C   UNL A   1      41.767  27.239  28.910  1.00  0.00     0.034 A 
ATOM     46  C   UNL A   1      40.067  31.353  34.359  1.00  0.00     0.034 A 
ATOM     47  C   UNL A   1      42.643  27.146  30.053  1.00  0.00     0.049 A 
ATOM     48  C   UNL A   1      41.222  30.383  34.417  1.00  0.00     0.074 A 
ATOM     49  C   UNL A   1      43.790  26.387  30.199  1.00  0.00     0.029 A 
ATOM     50  N   UNL A   1      42.462  27.824  31.252  1.00  0.00    -0.354 N 
ATOM     51  N   UNL A   1      41.680  29.588  33.478  1.00  0.00    -0.248 NA
ATOM     52  C   UNL A   1      41.956  30.301  35.686  1.00  0.00     0.031 C 
ATOM     53  C   UNL A   1      44.259  26.548  31.506  1.00  0.00     0.029 A 
ATOM     54  C   UNL A   1      43.453  27.468  32.153  1.00  0.00     0.049 A 
ATOM     55  H   UNL A   1      41.736  28.464  31.434  1.00  0.00     0.167 HD
ATOM     56  C   UNL A   1      42.772  28.931  34.039  1.00  0.00     0.074 A 
ATOM     57  C   UNL A   1      42.920  29.444  35.384  1.00  0.00     0.031 C 
ATOM     58  C   UNL A   1      43.578  27.984  33.496  1.00  0.00     0.034 A 
BRANCH  45  59
ATOM     59  C   UNL A   1      42.060  26.376  27.709  1.00  0.00     0.023 A 
ATOM     60  C   UNL A   1      41.719  25.012  27.683  1.00  0.00     0.031 A 
ATOM     61  C   UNL A   1      42.670  26.924  26.566  1.00  0.00     0.131 A 
ATOM     62  C   UNL A   1      42.034  24.233  26.560  1.00  0.00     0.055 A 
ATOM     63  C   UNL A   1      42.913  26.160  25.424  1.00  0.00     0.041 A 
ATOM     64  F   UNL A   1      43.036  28.215  26.541  1.00  0.00    -0.206 F 
ATOM     65  C   UNL A   1      42.604  24.803  25.419  1.00  0.00     0.022 A 
BRANCH  62  66
ATOM     66  S   UNL A   1      41.788  22.439  26.652  1.00  0.00     0.124 S 
ATOM     67  O   UNL A   1      42.581  22.093  27.829  1.00  0.00    -0.237 OA
ATOM     68  O   UNL A   1      40.341  22.326  26.801  1.00  0.00    -0.237 OA
ATOM     69  O   UNL A   1      42.324  21.953  25.383  1.00  0.00    -0.744 OA
ENDBRANCH  62  66
ENDBRANCH  45  59
BRANCH  46  70
ATOM     70  C   UNL A   1      39.691  32.157  35.560  1.00  0.00     0.023 A 
ATOM     71  C   UNL A   1      38.887  31.607  36.571  1.00  0.00     0.031 A 
ATOM     72  C   UNL A   1      40.058  33.510  35.677  1.00  0.00     0.131 A 
ATOM     73  C   UNL A   1      38.417  32.422  37.613  1.00  0.00     0.055 A 
ATOM     74  C   UNL A   1      39.648  34.298  36.754  1.00  0.00     0.041 A 
ATOM     75  F   UNL A   1      40.824  34.091  34.739  1.00  0.00    -0.206 F 
ATOM     76  C   UNL A   1      38.805  33.759  37.721  1.00  0.00     0.022 A 
BRANCH  73  77
ATOM     77  S   UNL A   1      37.179  31.742  38.750  1.00  0.00     0.124 S 
ATOM     78  O   UNL A   1      36.050  32.637  38.526  1.00  0.00    -0.237 OA
ATOM     79  O   UNL A   1      37.027  30.380  38.251  1.00  0.00    -0.237 OA
ATOM     80  O   UNL A   1      37.819  31.859  40.059  1.00  0.00    -0.744 OA
ENDBRANCH  73  77
ENDBRANCH  46  70
BRANCH  58  81
ATOM     81  C   UNL A   1      44.707  27.470  34.355  1.00  0.00     0.023 A 
ATOM     82  C   UNL A   1      44.557  26.327  35.159  1.00  0.00     0.031 A 
ATOM     83  C   UNL A   1      45.945  28.136  34.375  1.00  0.00     0.131 A 
ATOM     84  C   UNL A   1      45.608  25.915  35.991  1.00  0.00     0.055 A 
ATOM     85  C   UNL A   1      47.010  27.682  35.154  1.00  0.00     0.041 A 
ATOM     86  F   UNL A   1      46.142  29.235  33.629  1.00  0.00    -0.206 F 
ATOM     87  C   UNL A   1      46.841  26.573  35.977  1.00  0.00     0.022 A 
BRANCH  84  88
ATOM     88  S   UNL A   1      45.314  24.557  37.155  1.00  0.00     0.124 S 
ATOM     89  O   UNL A   1      44.916  23.473  36.264  1.00  0.00    -0.237 OA
ATOM     90  O   UNL A   1      46.615  24.408  37.799  1.00  0.00    -0.237 OA
ATOM     91  O   UNL A   1      44.252  25.072  38.020  1.00  0.00    -0.744 OA
ENDBRANCH  84  88
ENDBRANCH  58  81
ENDBRANCH  32  33
ENDBRANCH  24  27
ENDBRANCH  22  23
ENDBRANCH   1  22
TORSDOF 16
ENDMDL
MODEL 3
REMARK VINA RESULT:     -10.3      4.481     10.641
REMARK SMILES CC[C@@H]1CCC[C@@H](Oc2cncc(C(=O)NCCCNC(=O)c3ccc(-c4c5nc(c(-c6cc(S(=O)(=O)[O-])ccc6F)c6ccc([nH]6)c(-c6cc(S(=O)(=O)[O-])ccc6F)c6nc(c(-c7cc(S(=O)(=O)[O-])ccc7F)c7ccc4[nH]7)C=C6)C=C5)cc3)n2)C1
REMARK SMILES IDX 18 1 17 2 16 3 14 4 15 5 13 7 9 8 10 9 86 10 11 11 12 12
REMARK SMILES IDX 8 13 7 14 3 15 4 16 87 17 5 18 6 19 2 20 1 21 19 22 20 23
REMARK SMILES IDX 21 24 22 26 23 27 24 28 85 29 25 30 84 31 26 32 27 33 28 34
REMARK SMILES IDX 78 35 29 36 83 37 77 38 79 39 30 40 82 41 76 42 75 43 31 45
REMARK SMILES IDX 63 46 43 47 62 48 44 49 47 50 61 51 80 52 45 53 46 54 60 56
REMARK SMILES IDX 81 57 48 58 32 59 33 60 41 61 34 62 40 63 42 64 39 65 35 66
REMARK SMILES IDX 36 67 37 68 38 69 64 70 65 71 73 72 66 73 72 74 74 75 71 76
REMARK SMILES IDX 67 77 68 78 69 79 70 80 49 81 50 82 58 83 51 84 57 85 59 86
REMARK SMILES IDX 56 87 52 88 53 89 54 90 55 91
REMARK H PARENT 16 6 20 25 79 44 47 55
REMARK Flexibility Score: inf
ROOT
ATOM      1  C   UNL A   1      37.817  20.393  25.016  1.00  0.00     0.042 C 
ENDROOT
BRANCH   1   2
ATOM      2  C   UNL A   1      36.618  21.246  25.417  1.00  0.00     0.118 C 
BRANCH   2   3
ATOM      3  N   UNL A   1      35.363  20.584  25.098  1.00  0.00    -0.351 N 
ATOM      4  C   UNL A   1      34.151  21.088  24.696  1.00  0.00     0.271 C 
ATOM      5  O   UNL A   1      33.218  20.294  24.559  1.00  0.00    -0.267 OA
ATOM      6  H   UNL A   1      35.386  19.604  25.188  1.00  0.00     0.163 HD
BRANCH   4   7
ATOM      7  C   UNL A   1      33.928  22.528  24.400  1.00  0.00     0.150 A 
ATOM      8  C   UNL A   1      33.319  24.666  25.062  1.00  0.00     0.233 A 
ATOM      9  C   UNL A   1      33.650  25.096  23.791  1.00  0.00     0.179 A 
ATOM     10  N   UNL A   1      33.447  23.356  25.362  1.00  0.00    -0.205 NA
ATOM     11  N   UNL A   1      34.135  24.293  22.804  1.00  0.00    -0.257 NA
ATOM     12  C   UNL A   1      34.266  22.994  23.142  1.00  0.00     0.145 A 
BRANCH   8  13
ATOM     13  O   UNL A   1      32.850  25.367  26.112  1.00  0.00    -0.473 OA
BRANCH  13  14
ATOM     14  C   UNL A   1      31.582  25.986  26.328  1.00  0.00     0.175 C 
ATOM     15  C   UNL A   1      31.274  27.913  24.679  1.00  0.00    -0.008 C 
ATOM     16  C   UNL A   1      30.075  27.157  24.061  1.00  0.00     0.004 C 
ATOM     17  C   UNL A   1      31.509  27.502  26.130  1.00  0.00     0.048 C 
ATOM     18  C   UNL A   1      29.942  25.662  24.375  1.00  0.00     0.004 C 
ATOM     19  C   UNL A   1      30.368  25.248  25.775  1.00  0.00     0.045 C 
BRANCH  15  20
ATOM     20  C   UNL A   1      31.090  29.433  24.475  1.00  0.00     0.000 C 
ATOM     21  C   UNL A   1      29.914  29.820  23.590  1.00  0.00     0.004 C 
ENDBRANCH  15  20
ENDBRANCH  13  14
ENDBRANCH   8  13
ENDBRANCH   4   7
ENDBRANCH   2   3
ENDBRANCH   1   2
BRANCH   1  22
ATOM     22  C   UNL A   1      39.097  20.765  25.767  1.00  0.00     0.118 C 
BRANCH  22  23
ATOM     23  N   UNL A   1      39.986  19.622  25.946  1.00  0.00    -0.352 N 
ATOM     24  C   UNL A   1      41.349  19.576  26.095  1.00  0.00     0.251 C 
ATOM     25  H   UNL A   1      39.537  18.746  25.962  1.00  0.00     0.163 HD
ATOM     26  O   UNL A   1      41.940  18.510  25.963  1.00  0.00    -0.269 OA
BRANCH  24  27
ATOM     27  C   UNL A   1      42.092  20.814  26.401  1.00  0.00     0.039 A 
ATOM     28  C   UNL A   1      42.458  21.664  25.355  1.00  0.00     0.014 A 
ATOM     29  C   UNL A   1      42.423  21.132  27.721  1.00  0.00     0.014 A 
ATOM     30  C   UNL A   1      43.074  22.882  25.644  1.00  0.00     0.010 A 
ATOM     31  C   UNL A   1      42.971  22.377  28.012  1.00  0.00     0.010 A 
ATOM     32  C   UNL A   1      43.284  23.271  26.978  1.00  0.00    -0.014 A 
BRANCH  32  33
ATOM     33  C   UNL A   1      43.777  24.629  27.319  1.00  0.00     0.031 A 
ATOM     34  C   UNL A   1      42.820  25.684  27.798  1.00  0.00     0.074 A 
ATOM     35  C   UNL A   1      45.077  24.924  27.116  1.00  0.00     0.049 A 
ATOM     36  N   UNL A   1      43.040  26.952  28.027  1.00  0.00    -0.248 NA
ATOM     37  C   UNL A   1      41.430  25.262  28.027  1.00  0.00     0.031 C 
ATOM     38  C   UNL A   1      46.090  23.985  26.627  1.00  0.00     0.029 A 
ATOM     39  N   UNL A   1      45.770  26.098  27.277  1.00  0.00    -0.354 N 
ATOM     40  C   UNL A   1      41.818  27.481  28.429  1.00  0.00     0.074 A 
ATOM     41  C   UNL A   1      40.850  26.407  28.356  1.00  0.00     0.031 C 
ATOM     42  C   UNL A   1      47.273  24.613  26.546  1.00  0.00     0.029 A 
ATOM     43  C   UNL A   1      47.095  26.013  26.913  1.00  0.00     0.049 A 
ATOM     44  H   UNL A   1      45.358  26.924  27.620  1.00  0.00     0.167 HD
ATOM     45  C   UNL A   1      41.539  28.742  28.840  1.00  0.00     0.034 A 
ATOM     46  C   UNL A   1      48.050  26.963  26.852  1.00  0.00     0.034 A 
ATOM     47  C   UNL A   1      42.517  29.800  28.906  1.00  0.00     0.049 A 
ATOM     48  C   UNL A   1      47.689  28.375  27.243  1.00  0.00     0.074 A 
ATOM     49  C   UNL A   1      42.350  31.101  29.346  1.00  0.00     0.029 A 
ATOM     50  N   UNL A   1      43.844  29.684  28.509  1.00  0.00    -0.354 N 
ATOM     51  N   UNL A   1      46.540  28.846  27.670  1.00  0.00    -0.248 NA
ATOM     52  C   UNL A   1      48.754  29.383  27.147  1.00  0.00     0.031 C 
ATOM     53  C   UNL A   1      43.550  31.789  29.146  1.00  0.00     0.029 A 
ATOM     54  C   UNL A   1      44.491  30.900  28.656  1.00  0.00     0.049 A 
ATOM     55  H   UNL A   1      44.261  28.859  28.172  1.00  0.00     0.167 HD
ATOM     56  C   UNL A   1      46.754  30.200  27.916  1.00  0.00     0.074 A 
ATOM     57  C   UNL A   1      48.146  30.461  27.619  1.00  0.00     0.031 C 
ATOM     58  C   UNL A   1      45.879  31.145  28.344  1.00  0.00     0.034 A 
BRANCH  45  59
ATOM     59  C   UNL A   1      40.117  29.052  29.237  1.00  0.00     0.023 A 
ATOM     60  C   UNL A   1      39.723  29.094  30.586  1.00  0.00     0.031 A 
ATOM     61  C   UNL A   1      39.147  29.329  28.258  1.00  0.00     0.131 A 
ATOM     62  C   UNL A   1      38.386  29.357  30.917  1.00  0.00     0.055 A 
ATOM     63  C   UNL A   1      37.834  29.662  28.597  1.00  0.00     0.041 A 
ATOM     64  F   UNL A   1      39.460  29.283  26.954  1.00  0.00    -0.206 F 
ATOM     65  C   UNL A   1      37.444  29.668  29.933  1.00  0.00     0.022 A 
BRANCH  62  66
ATOM     66  S   UNL A   1      37.869  29.179  32.645  1.00  0.00     0.124 S 
ATOM     67  O   UNL A   1      37.777  27.727  32.777  1.00  0.00    -0.237 OA
ATOM     68  O   UNL A   1      38.961  29.818  33.369  1.00  0.00    -0.237 OA
ATOM     69  O   UNL A   1      36.590  29.884  32.695  1.00  0.00    -0.744 OA
ENDBRANCH  62  66
ENDBRANCH  45  59
BRANCH  46  70
ATOM     70  C   UNL A   1      49.424  26.639  26.365  1.00  0.00     0.023 A 
ATOM     71  C   UNL A   1      49.887  27.132  25.136  1.00  0.00     0.031 A 
ATOM     72  C   UNL A   1      50.263  25.764  27.080  1.00  0.00     0.131 A 
ATOM     73  C   UNL A   1      51.118  26.693  24.624  1.00  0.00     0.055 A 
ATOM     74  C   UNL A   1      51.519  25.387  26.600  1.00  0.00     0.041 A 
ATOM     75  F   UNL A   1      49.873  25.259  28.260  1.00  0.00    -0.206 F 
ATOM     76  C   UNL A   1      51.945  25.837  25.354  1.00  0.00     0.022 A 
BRANCH  73  77
ATOM     77  S   UNL A   1      51.559  27.150  22.925  1.00  0.00     0.124 S 
ATOM     78  O   UNL A   1      52.654  26.228  22.646  1.00  0.00    -0.237 OA
ATOM     79  O   UNL A   1      50.312  26.899  22.211  1.00  0.00    -0.237 OA
ATOM     80  O   UNL A   1      51.940  28.556  23.039  1.00  0.00    -0.744 OA
ENDBRANCH  73  77
ENDBRANCH  46  70
BRANCH  58  81
ATOM     81  C   UNL A   1      46.421  32.539  28.542  1.00  0.00     0.023 A 
ATOM     82  C   UNL A   1      46.545  33.439  27.469  1.00  0.00     0.031 A 
ATOM     83  C   UNL A   1      46.823  32.971  29.818  1.00  0.00     0.131 A 
ATOM     84  C   UNL A   1      47.108  34.705  27.680  1.00  0.00     0.055 A 
ATOM     85  C   UNL A   1      47.322  34.257  30.035  1.00  0.00     0.041 A 
ATOM     86  F   UNL A   1      46.730  32.153  30.878  1.00  0.00    -0.206 F 
ATOM     87  C   UNL A   1      47.478  35.127  28.960  1.00  0.00     0.022 A 
BRANCH  84  88
ATOM     88  S   UNL A   1      47.432  35.763  26.244  1.00  0.00     0.124 S 
ATOM     89  O   UNL A   1      48.602  36.517  26.680  1.00  0.00    -0.237 OA
ATOM     90  O   UNL A   1      47.663  34.788  25.183  1.00  0.00    -0.237 OA
ATOM     91  O   UNL A   1      46.203  36.544  26.110  1.00  0.00    -0.744 OA
ENDBRANCH  84  88
ENDBRANCH  58  81
ENDBRANCH  32  33
ENDBRANCH  24  27
ENDBRANCH  22  23
ENDBRANCH   1  22
TORSDOF 16
ENDMDL
