MODEL 1
REMARK VINA RESULT:     -10.0      0.000      0.000
REMARK SMILES [NH3+][C@H](CC(F)(F)C(F)(F)C(F)(F)C(F)(F)Cl)C(=O)NCCCNC(=O)c1ccc(-c2c3nc(c(-c4cc(S(=O)(=O)[O-])ccc4F)c4ccc([nH]4)c(-c4cc(S(=O)(=O)[O-])ccc4F)c4nc(c(-c5cc(S(=O)(=O)[O-])ccc5F)c5ccc2[nH]5)C=C4)C=C3)cc1
REMARK SMILES IDX 20 1 19 2 17 3 18 4 2 6 1 7 3 11 4 12 5 13 6 14 7 15 8 16
REMARK SMILES IDX 9 17 10 18 11 19 12 20 13 21 14 22 15 23 16 24 21 25 22 26
REMARK SMILES IDX 23 27 24 28 25 30 26 31 27 32 88 33 28 34 87 35 29 36 30 37
REMARK SMILES IDX 31 38 81 39 32 40 86 41 80 42 82 43 33 44 85 45 79 46 78 47
REMARK SMILES IDX 34 49 66 50 46 51 65 52 47 53 50 54 64 55 83 56 48 57 49 58
REMARK SMILES IDX 63 60 84 61 51 62 35 63 36 64 44 65 37 66 43 67 45 68 42 69
REMARK SMILES IDX 38 70 39 71 40 72 41 73 67 74 68 75 76 76 69 77 75 78 77 79
REMARK SMILES IDX 74 80 70 81 71 82 72 83 73 84 52 85 53 86 61 87 54 88 60 89
REMARK SMILES IDX 62 90 59 91 55 92 56 93 57 94 58 95
REMARK H PARENT 19 5 1 8 1 9 1 10 23 29 82 48 50 59
REMARK Flexibility Score: inf
ROOT
ATOM      1  C   UNL A   1      42.556  19.680  27.439  1.00  0.00     0.118 C 
ENDROOT
BRANCH   1   2
ATOM      2  N   UNL A   1      43.084  18.979  26.277  1.00  0.00    -0.351 N 
ATOM      3  C   UNL A   1      43.951  19.293  25.283  1.00  0.00     0.278 C 
ATOM      4  O   UNL A   1      44.362  18.329  24.624  1.00  0.00    -0.268 OA
ATOM      5  H   UNL A   1      42.730  18.064  26.193  1.00  0.00     0.163 HD
BRANCH   3   6
ATOM      6  C   UNL A   1      44.397  20.724  24.885  1.00  0.00     0.277 C 
BRANCH   6   7
ATOM      7  N   UNL A   1      44.896  20.767  23.493  1.00  0.00    -0.347 N 
ATOM      8  H   UNL A   1      44.116  20.637  22.848  1.00  0.00     0.345 HD
ATOM      9  H   UNL A   1      45.580  20.024  23.352  1.00  0.00     0.345 HD
ATOM     10  H   UNL A   1      45.334  21.671  23.316  1.00  0.00     0.345 HD
ENDBRANCH   6   7
BRANCH   6  11
ATOM     11  C   UNL A   1      45.230  21.586  25.864  1.00  0.00     0.159 C 
BRANCH  11  12
ATOM     12  C   UNL A   1      44.622  22.870  26.410  1.00  0.00     0.323 C 
ATOM     13  F   UNL A   1      43.553  23.148  25.631  1.00  0.00    -0.199 F 
ATOM     14  F   UNL A   1      44.081  22.575  27.632  1.00  0.00    -0.199 F 
BRANCH  12  15
ATOM     15  C   UNL A   1      45.558  24.069  26.577  1.00  0.00     0.379 C 
ATOM     16  F   UNL A   1      45.203  24.767  27.694  1.00  0.00    -0.192 F 
ATOM     17  F   UNL A   1      46.822  23.650  26.826  1.00  0.00    -0.192 F 
BRANCH  15  18
ATOM     18  C   UNL A   1      45.527  24.943  25.342  1.00  0.00     0.392 C 
ATOM     19  F   UNL A   1      45.740  24.170  24.234  1.00  0.00    -0.191 F 
ATOM     20  F   UNL A   1      44.292  25.491  25.176  1.00  0.00    -0.191 F 
BRANCH  18  21
ATOM     21  C   UNL A   1      46.600  26.016  25.402  1.00  0.00     0.390 C 
ATOM     22  F   UNL A   1      46.939  26.305  26.683  1.00  0.00    -0.181 F 
ATOM     23  F   UNL A   1      47.739  25.598  24.789  1.00  0.00    -0.181 F 
ATOM     24  Cl  UNL A   1      46.066  27.516  24.592  1.00  0.00    -0.041 Cl
ENDBRANCH  18  21
ENDBRANCH  15  18
ENDBRANCH  12  15
ENDBRANCH  11  12
ENDBRANCH   6  11
ENDBRANCH   3   6
ENDBRANCH   1   2
BRANCH   1  25
ATOM     25  C   UNL A   1      41.124  20.215  27.304  1.00  0.00     0.042 C 
BRANCH  25  26
ATOM     26  C   UNL A   1      40.929  21.494  26.493  1.00  0.00     0.118 C 
BRANCH  26  27
ATOM     27  N   UNL A   1      39.570  21.674  26.023  1.00  0.00    -0.352 N 
ATOM     28  C   UNL A   1      38.756  22.780  26.122  1.00  0.00     0.251 C 
ATOM     29  H   UNL A   1      39.172  20.896  25.568  1.00  0.00     0.163 HD
ATOM     30  O   UNL A   1      37.583  22.691  25.761  1.00  0.00    -0.269 OA
BRANCH  28  31
ATOM     31  C   UNL A   1      39.258  24.053  26.698  1.00  0.00     0.039 A 
ATOM     32  C   UNL A   1      39.968  24.922  25.866  1.00  0.00     0.014 A 
ATOM     33  C   UNL A   1      39.065  24.389  28.042  1.00  0.00     0.014 A 
ATOM     34  C   UNL A   1      40.433  26.147  26.360  1.00  0.00     0.010 A 
ATOM     35  C   UNL A   1      39.481  25.637  28.520  1.00  0.00     0.010 A 
ATOM     36  C   UNL A   1      40.172  26.530  27.686  1.00  0.00    -0.014 A 
BRANCH  36  37
ATOM     37  C   UNL A   1      40.633  27.853  28.198  1.00  0.00     0.031 A 
ATOM     38  C   UNL A   1      42.099  28.202  28.203  1.00  0.00     0.074 A 
ATOM     39  C   UNL A   1      39.737  28.740  28.677  1.00  0.00     0.049 A 
ATOM     40  N   UNL A   1      42.689  29.296  28.617  1.00  0.00    -0.248 NA
ATOM     41  C   UNL A   1      43.021  27.179  27.695  1.00  0.00     0.031 C 
ATOM     42  C   UNL A   1      38.292  28.520  28.756  1.00  0.00     0.029 A 
ATOM     43  N   UNL A   1      39.907  30.004  29.191  1.00  0.00    -0.354 N 
ATOM     44  C   UNL A   1      44.051  29.092  28.424  1.00  0.00     0.074 A 
ATOM     45  C   UNL A   1      44.199  27.746  27.909  1.00  0.00     0.031 C 
ATOM     46  C   UNL A   1      37.707  29.618  29.265  1.00  0.00     0.029 A 
ATOM     47  C   UNL A   1      38.734  30.606  29.586  1.00  0.00     0.049 A 
ATOM     48  H   UNL A   1      40.786  30.439  29.268  1.00  0.00     0.167 HD
ATOM     49  C   UNL A   1      45.080  29.951  28.634  1.00  0.00     0.034 A 
ATOM     50  C   UNL A   1      38.506  31.809  30.151  1.00  0.00     0.034 A 
ATOM     51  C   UNL A   1      44.924  31.293  29.140  1.00  0.00     0.049 A 
ATOM     52  C   UNL A   1      39.670  32.735  30.412  1.00  0.00     0.074 A 
ATOM     53  C   UNL A   1      45.898  32.260  29.333  1.00  0.00     0.029 A 
ATOM     54  N   UNL A   1      43.722  31.859  29.544  1.00  0.00    -0.354 N 
ATOM     55  N   UNL A   1      40.947  32.543  30.170  1.00  0.00    -0.248 NA
ATOM     56  C   UNL A   1      39.362  34.041  31.010  1.00  0.00     0.031 C 
ATOM     57  C   UNL A   1      45.297  33.382  29.915  1.00  0.00     0.029 A 
ATOM     58  C   UNL A   1      43.935  33.145  30.018  1.00  0.00     0.049 A 
ATOM     59  H   UNL A   1      42.846  31.411  29.502  1.00  0.00     0.167 HD
ATOM     60  C   UNL A   1      41.586  33.719  30.557  1.00  0.00     0.074 A 
ATOM     61  C   UNL A   1      40.556  34.614  31.041  1.00  0.00     0.031 C 
ATOM     62  C   UNL A   1      42.905  34.031  30.505  1.00  0.00     0.034 A 
BRANCH  49  63
ATOM     63  C   UNL A   1      46.474  29.449  28.339  1.00  0.00     0.023 A 
ATOM     64  C   UNL A   1      47.191  28.676  29.268  1.00  0.00     0.031 A 
ATOM     65  C   UNL A   1      47.101  29.761  27.120  1.00  0.00     0.131 A 
ATOM     66  C   UNL A   1      48.517  28.306  28.997  1.00  0.00     0.055 A 
ATOM     67  C   UNL A   1      48.393  29.321  26.823  1.00  0.00     0.041 A 
ATOM     68  F   UNL A   1      46.473  30.509  26.200  1.00  0.00    -0.206 F 
ATOM     69  C   UNL A   1      49.115  28.602  27.771  1.00  0.00     0.022 A 
BRANCH  66  70
ATOM     70  S   UNL A   1      49.495  27.554  30.328  1.00  0.00     0.124 S 
ATOM     71  O   UNL A   1      48.523  27.510  31.419  1.00  0.00    -0.237 OA
ATOM     72  O   UNL A   1      49.872  26.268  29.755  1.00  0.00    -0.237 OA
ATOM     73  O   UNL A   1      50.594  28.499  30.521  1.00  0.00    -0.744 OA
ENDBRANCH  66  70
ENDBRANCH  49  63
BRANCH  50  74
ATOM     74  C   UNL A   1      37.122  32.215  30.530  1.00  0.00     0.023 A 
ATOM     75  C   UNL A   1      36.248  32.782  29.589  1.00  0.00     0.031 A 
ATOM     76  C   UNL A   1      36.670  32.082  31.855  1.00  0.00     0.131 A 
ATOM     77  C   UNL A   1      34.983  33.237  29.995  1.00  0.00     0.055 A 
ATOM     78  C   UNL A   1      35.392  32.490  32.243  1.00  0.00     0.041 A 
ATOM     79  F   UNL A   1      37.465  31.544  32.793  1.00  0.00    -0.206 F 
ATOM     80  C   UNL A   1      34.545  33.082  31.313  1.00  0.00     0.022 A 
BRANCH  77  81
ATOM     81  S   UNL A   1      33.944  34.108  28.790  1.00  0.00     0.124 S 
ATOM     82  O   UNL A   1      33.590  33.033  27.870  1.00  0.00    -0.237 OA
ATOM     83  O   UNL A   1      32.866  34.616  29.631  1.00  0.00    -0.237 OA
ATOM     84  O   UNL A   1      34.839  35.128  28.244  1.00  0.00    -0.744 OA
ENDBRANCH  77  81
ENDBRANCH  50  74
BRANCH  62  85
ATOM     85  C   UNL A   1      43.306  35.421  30.936  1.00  0.00     0.023 A 
ATOM     86  C   UNL A   1      43.527  35.747  32.285  1.00  0.00     0.031 A 
ATOM     87  C   UNL A   1      43.480  36.431  29.973  1.00  0.00     0.131 A 
ATOM     88  C   UNL A   1      43.873  37.061  32.639  1.00  0.00     0.055 A 
ATOM     89  C   UNL A   1      43.873  37.723  30.325  1.00  0.00     0.041 A 
ATOM     90  F   UNL A   1      43.280  36.175  28.671  1.00  0.00    -0.206 F 
ATOM     91  C   UNL A   1      44.064  38.046  31.666  1.00  0.00     0.022 A 
BRANCH  88  92
ATOM     92  S   UNL A   1      44.016  37.486  34.396  1.00  0.00     0.124 S 
ATOM     93  O   UNL A   1      42.640  37.330  34.859  1.00  0.00    -0.237 OA
ATOM     94  O   UNL A   1      44.968  36.493  34.883  1.00  0.00    -0.237 OA
ATOM     95  O   UNL A   1      44.512  38.861  34.379  1.00  0.00    -0.744 OA
ENDBRANCH  88  92
ENDBRANCH  62  85
ENDBRANCH  36  37
ENDBRANCH  28  31
ENDBRANCH  26  27
ENDBRANCH  25  26
ENDBRANCH   1  25
TORSDOF 19
ENDMDL
MODEL 2
REMARK VINA RESULT:      -9.8      1.515      2.061
REMARK SMILES [NH3+][C@H](CC(F)(F)C(F)(F)C(F)(F)C(F)(F)Cl)C(=O)NCCCNC(=O)c1ccc(-c2c3nc(c(-c4cc(S(=O)(=O)[O-])ccc4F)c4ccc([nH]4)c(-c4cc(S(=O)(=O)[O-])ccc4F)c4nc(c(-c5cc(S(=O)(=O)[O-])ccc5F)c5ccc2[nH]5)C=C4)C=C3)cc1
REMARK SMILES IDX 20 1 19 2 17 3 18 4 2 6 1 7 3 11 4 12 5 13 6 14 7 15 8 16
REMARK SMILES IDX 9 17 10 18 11 19 12 20 13 21 14 22 15 23 16 24 21 25 22 26
REMARK SMILES IDX 23 27 24 28 25 30 26 31 27 32 88 33 28 34 87 35 29 36 30 37
REMARK SMILES IDX 31 38 81 39 32 40 86 41 80 42 82 43 33 44 85 45 79 46 78 47
REMARK SMILES IDX 34 49 66 50 46 51 65 52 47 53 50 54 64 55 83 56 48 57 49 58
REMARK SMILES IDX 63 60 84 61 51 62 35 63 36 64 44 65 37 66 43 67 45 68 42 69
REMARK SMILES IDX 38 70 39 71 40 72 41 73 67 74 68 75 76 76 69 77 75 78 77 79
REMARK SMILES IDX 74 80 70 81 71 82 72 83 73 84 52 85 53 86 61 87 54 88 60 89
REMARK SMILES IDX 62 90 59 91 55 92 56 93 57 94 58 95
REMARK H PARENT 19 5 1 8 1 9 1 10 23 29 82 48 50 59
REMARK Flexibility Score: inf
ROOT
ATOM      1  C   UNL A   1      42.234  19.866  25.906  1.00  0.00     0.118 C 
ENDROOT
BRANCH   1   2
ATOM      2  N   UNL A   1      43.330  18.908  25.877  1.00  0.00    -0.351 N 
ATOM      3  C   UNL A   1      44.547  18.866  25.280  1.00  0.00     0.278 C 
ATOM      4  O   UNL A   1      45.314  17.999  25.718  1.00  0.00    -0.268 OA
ATOM      5  H   UNL A   1      43.146  18.105  26.416  1.00  0.00     0.163 HD
BRANCH   3   6
ATOM      6  C   UNL A   1      45.006  19.746  24.089  1.00  0.00     0.277 C 
BRANCH   6   7
ATOM      7  N   UNL A   1      45.288  18.929  22.889  1.00  0.00    -0.347 N 
ATOM      8  H   UNL A   1      44.678  18.111  22.883  1.00  0.00     0.345 HD
ATOM      9  H   UNL A   1      46.262  18.626  22.903  1.00  0.00     0.345 HD
ATOM     10  H   UNL A   1      45.118  19.485  22.051  1.00  0.00     0.345 HD
ENDBRANCH   6   7
BRANCH   6  11
ATOM     11  C   UNL A   1      46.024  20.891  24.307  1.00  0.00     0.159 C 
BRANCH  11  12
ATOM     12  C   UNL A   1      45.536  22.330  24.241  1.00  0.00     0.323 C 
ATOM     13  F   UNL A   1      46.629  23.095  24.028  1.00  0.00    -0.199 F 
ATOM     14  F   UNL A   1      44.805  22.459  23.091  1.00  0.00    -0.199 F 
BRANCH  12  15
ATOM     15  C   UNL A   1      44.684  22.833  25.409  1.00  0.00     0.379 C 
ATOM     16  F   UNL A   1      43.370  22.572  25.156  1.00  0.00    -0.192 F 
ATOM     17  F   UNL A   1      44.960  22.127  26.532  1.00  0.00    -0.192 F 
BRANCH  15  18
ATOM     18  C   UNL A   1      44.924  24.309  25.644  1.00  0.00     0.392 C 
ATOM     19  F   UNL A   1      45.477  24.863  24.523  1.00  0.00    -0.191 F 
ATOM     20  F   UNL A   1      43.744  24.960  25.832  1.00  0.00    -0.191 F 
BRANCH  18  21
ATOM     21  C   UNL A   1      45.866  24.532  26.814  1.00  0.00     0.390 C 
ATOM     22  F   UNL A   1      45.196  24.539  27.994  1.00  0.00    -0.181 F 
ATOM     23  F   UNL A   1      46.780  23.530  26.900  1.00  0.00    -0.181 F 
ATOM     24  Cl  UNL A   1      46.759  26.069  26.646  1.00  0.00    -0.041 Cl
ENDBRANCH  18  21
ENDBRANCH  15  18
ENDBRANCH  12  15
ENDBRANCH  11  12
ENDBRANCH   6  11
ENDBRANCH   3   6
ENDBRANCH   1   2
BRANCH   1  25
ATOM     25  C   UNL A   1      41.705  20.235  27.299  1.00  0.00     0.042 C 
BRANCH  25  26
ATOM     26  C   UNL A   1      40.998  21.579  27.447  1.00  0.00     0.118 C 
BRANCH  26  27
ATOM     27  N   UNL A   1      39.759  21.662  26.699  1.00  0.00    -0.352 N 
ATOM     28  C   UNL A   1      38.971  22.761  26.443  1.00  0.00     0.251 C 
ATOM     29  H   UNL A   1      39.435  20.812  26.321  1.00  0.00     0.163 HD
ATOM     30  O   UNL A   1      37.887  22.600  25.884  1.00  0.00    -0.269 OA
BRANCH  28  31
ATOM     31  C   UNL A   1      39.387  24.120  26.871  1.00  0.00     0.039 A 
ATOM     32  C   UNL A   1      39.106  24.517  28.181  1.00  0.00     0.014 A 
ATOM     33  C   UNL A   1      40.022  25.014  26.002  1.00  0.00     0.014 A 
ATOM     34  C   UNL A   1      39.507  25.779  28.636  1.00  0.00     0.010 A 
ATOM     35  C   UNL A   1      40.473  26.252  26.474  1.00  0.00     0.010 A 
ATOM     36  C   UNL A   1      40.219  26.651  27.796  1.00  0.00    -0.014 A 
BRANCH  36  37
ATOM     37  C   UNL A   1      40.682  27.977  28.297  1.00  0.00     0.031 A 
ATOM     38  C   UNL A   1      42.152  28.307  28.338  1.00  0.00     0.074 A 
ATOM     39  C   UNL A   1      39.786  28.884  28.734  1.00  0.00     0.049 A 
ATOM     40  N   UNL A   1      42.745  29.401  28.749  1.00  0.00    -0.248 NA
ATOM     41  C   UNL A   1      43.075  27.262  27.875  1.00  0.00     0.031 C 
ATOM     42  C   UNL A   1      38.336  28.685  28.775  1.00  0.00     0.029 A 
ATOM     43  N   UNL A   1      39.958  30.155  29.228  1.00  0.00    -0.354 N 
ATOM     44  C   UNL A   1      44.109  29.175  28.599  1.00  0.00     0.074 A 
ATOM     45  C   UNL A   1      44.254  27.818  28.113  1.00  0.00     0.031 C 
ATOM     46  C   UNL A   1      37.752  29.799  29.246  1.00  0.00     0.029 A 
ATOM     47  C   UNL A   1      38.782  30.780  29.579  1.00  0.00     0.049 A 
ATOM     48  H   UNL A   1      40.841  30.580  29.323  1.00  0.00     0.167 HD
ATOM     49  C   UNL A   1      45.144  30.024  28.822  1.00  0.00     0.034 A 
ATOM     50  C   UNL A   1      38.555  31.996  30.115  1.00  0.00     0.034 A 
ATOM     51  C   UNL A   1      44.992  31.378  29.298  1.00  0.00     0.049 A 
ATOM     52  C   UNL A   1      39.724  32.911  30.392  1.00  0.00     0.074 A 
ATOM     53  C   UNL A   1      45.972  32.335  29.502  1.00  0.00     0.029 A 
ATOM     54  N   UNL A   1      43.786  31.967  29.658  1.00  0.00    -0.354 N 
ATOM     55  N   UNL A   1      41.004  32.698  30.191  1.00  0.00    -0.248 NA
ATOM     56  C   UNL A   1      39.416  34.232  30.957  1.00  0.00     0.031 C 
ATOM     57  C   UNL A   1      45.371  33.475  30.045  1.00  0.00     0.029 A 
ATOM     58  C   UNL A   1      44.003  33.258  30.113  1.00  0.00     0.049 A 
ATOM     59  H   UNL A   1      42.906  31.530  29.598  1.00  0.00     0.167 HD
ATOM     60  C   UNL A   1      41.648  33.873  30.574  1.00  0.00     0.074 A 
ATOM     61  C   UNL A   1      40.617  34.791  31.011  1.00  0.00     0.031 C 
ATOM     62  C   UNL A   1      42.972  34.167  30.554  1.00  0.00     0.034 A 
BRANCH  49  63
ATOM     63  C   UNL A   1      46.538  29.499  28.577  1.00  0.00     0.023 A 
ATOM     64  C   UNL A   1      47.209  28.714  29.531  1.00  0.00     0.031 A 
ATOM     65  C   UNL A   1      47.214  29.800  27.381  1.00  0.00     0.131 A 
ATOM     66  C   UNL A   1      48.538  28.321  29.307  1.00  0.00     0.055 A 
ATOM     67  C   UNL A   1      48.508  29.338  27.130  1.00  0.00     0.041 A 
ATOM     68  F   UNL A   1      46.631  30.558  26.439  1.00  0.00    -0.206 F 
ATOM     69  C   UNL A   1      49.183  28.607  28.103  1.00  0.00     0.022 A 
BRANCH  66  70
ATOM     70  S   UNL A   1      49.454  27.554  30.672  1.00  0.00     0.124 S 
ATOM     71  O   UNL A   1      50.451  26.765  29.950  1.00  0.00    -0.237 OA
ATOM     72  O   UNL A   1      49.959  28.710  31.402  1.00  0.00    -0.237 OA
ATOM     73  O   UNL A   1      48.437  26.769  31.369  1.00  0.00    -0.744 OA
ENDBRANCH  66  70
ENDBRANCH  49  63
BRANCH  50  74
ATOM     74  C   UNL A   1      37.166  32.427  30.446  1.00  0.00     0.023 A 
ATOM     75  C   UNL A   1      36.326  32.985  29.469  1.00  0.00     0.031 A 
ATOM     76  C   UNL A   1      36.676  32.329  31.760  1.00  0.00     0.131 A 
ATOM     77  C   UNL A   1      35.056  33.464  29.829  1.00  0.00     0.055 A 
ATOM     78  C   UNL A   1      35.393  32.760  32.103  1.00  0.00     0.041 A 
ATOM     79  F   UNL A   1      37.438  31.801  32.731  1.00  0.00    -0.206 F 
ATOM     80  C   UNL A   1      34.580  33.343  31.137  1.00  0.00     0.022 A 
BRANCH  77  81
ATOM     81  S   UNL A   1      34.062  34.322  28.578  1.00  0.00     0.124 S 
ATOM     82  O   UNL A   1      34.843  35.534  28.359  1.00  0.00    -0.237 OA
ATOM     83  O   UNL A   1      34.053  33.356  27.484  1.00  0.00    -0.237 OA
ATOM     84  O   UNL A   1      32.775  34.519  29.242  1.00  0.00    -0.744 OA
ENDBRANCH  77  81
ENDBRANCH  50  74
BRANCH  62  85
ATOM     85  C   UNL A   1      43.379  35.559  30.971  1.00  0.00     0.023 A 
ATOM     86  C   UNL A   1      43.455  36.620  30.052  1.00  0.00     0.031 A 
ATOM     87  C   UNL A   1      43.684  35.827  32.318  1.00  0.00     0.131 A 
ATOM     88  C   UNL A   1      43.864  37.891  30.484  1.00  0.00     0.055 A 
ATOM     89  C   UNL A   1      44.041  37.104  32.752  1.00  0.00     0.041 A 
ATOM     90  F   UNL A   1      43.628  34.851  33.238  1.00  0.00    -0.206 F 
ATOM     91  C   UNL A   1      44.141  38.144  31.831  1.00  0.00     0.022 A 
BRANCH  88  92
ATOM     92  S   UNL A   1      44.088  39.204  29.254  1.00  0.00     0.124 S 
ATOM     93  O   UNL A   1      42.839  39.950  29.375  1.00  0.00    -0.237 OA
ATOM     94  O   UNL A   1      45.286  39.884  29.735  1.00  0.00    -0.237 OA
ATOM     95  O   UNL A   1      44.255  38.475  27.998  1.00  0.00    -0.744 OA
ENDBRANCH  88  92
ENDBRANCH  62  85
ENDBRANCH  36  37
ENDBRANCH  28  31
ENDBRANCH  26  27
ENDBRANCH  25  26
ENDBRANCH   1  25
TORSDOF 19
ENDMDL
MODEL 3
REMARK VINA RESULT:      -9.7      1.874      2.370
REMARK SMILES [NH3+][C@H](CC(F)(F)C(F)(F)C(F)(F)C(F)(F)Cl)C(=O)NCCCNC(=O)c1ccc(-c2c3nc(c(-c4cc(S(=O)(=O)[O-])ccc4F)c4ccc([nH]4)c(-c4cc(S(=O)(=O)[O-])ccc4F)c4nc(c(-c5cc(S(=O)(=O)[O-])ccc5F)c5ccc2[nH]5)C=C4)C=C3)cc1
REMARK SMILES IDX 20 1 19 2 17 3 18 4 2 6 1 7 3 11 4 12 5 13 6 14 7 15 8 16
REMARK SMILES IDX 9 17 10 18 11 19 12 20 13 21 14 22 15 23 16 24 21 25 22 26
REMARK SMILES IDX 23 27 24 28 25 30 26 31 27 32 88 33 28 34 87 35 29 36 30 37
REMARK SMILES IDX 31 38 81 39 32 40 86 41 80 42 82 43 33 44 85 45 79 46 78 47
REMARK SMILES IDX 34 49 66 50 46 51 65 52 47 53 50 54 64 55 83 56 48 57 49 58
REMARK SMILES IDX 63 60 84 61 51 62 35 63 36 64 44 65 37 66 43 67 45 68 42 69
REMARK SMILES IDX 38 70 39 71 40 72 41 73 67 74 68 75 76 76 69 77 75 78 77 79
REMARK SMILES IDX 74 80 70 81 71 82 72 83 73 84 52 85 53 86 61 87 54 88 60 89
REMARK SMILES IDX 62 90 59 91 55 92 56 93 57 94 58 95
REMARK H PARENT 19 5 1 8 1 9 1 10 23 29 82 48 50 59
REMARK Flexibility Score: inf
ROOT
ATOM      1  C   UNL A   1      42.277  20.024  26.043  1.00  0.00     0.118 C 
ENDROOT
BRANCH   1   2
ATOM      2  N   UNL A   1      43.276  18.966  25.973  1.00  0.00    -0.351 N 
ATOM      3  C   UNL A   1      44.479  18.826  25.365  1.00  0.00     0.278 C 
ATOM      4  O   UNL A   1      45.161  17.875  25.769  1.00  0.00    -0.268 OA
ATOM      5  H   UNL A   1      43.018  18.168  26.488  1.00  0.00     0.163 HD
BRANCH   3   6
ATOM      6  C   UNL A   1      45.015  19.697  24.199  1.00  0.00     0.277 C 
BRANCH   6   7
ATOM      7  N   UNL A   1      45.261  18.886  22.987  1.00  0.00    -0.347 N 
ATOM      8  H   UNL A   1      45.637  17.976  23.256  1.00  0.00     0.345 HD
ATOM      9  H   UNL A   1      45.930  19.366  22.385  1.00  0.00     0.345 HD
ATOM     10  H   UNL A   1      44.384  18.754  22.482  1.00  0.00     0.345 HD
ENDBRANCH   6   7
BRANCH   6  11
ATOM     11  C   UNL A   1      46.104  20.765  24.456  1.00  0.00     0.159 C 
BRANCH  11  12
ATOM     12  C   UNL A   1      45.722  22.236  24.380  1.00  0.00     0.323 C 
ATOM     13  F   UNL A   1      46.787  22.882  23.855  1.00  0.00    -0.199 F 
ATOM     14  F   UNL A   1      44.751  22.354  23.422  1.00  0.00    -0.199 F 
BRANCH  12  15
ATOM     15  C   UNL A   1      45.210  22.892  25.665  1.00  0.00     0.379 C 
ATOM     16  F   UNL A   1      43.860  22.724  25.752  1.00  0.00    -0.192 F 
ATOM     17  F   UNL A   1      45.703  22.249  26.751  1.00  0.00    -0.192 F 
BRANCH  15  18
ATOM     18  C   UNL A   1      45.592  24.356  25.702  1.00  0.00     0.392 C 
ATOM     19  F   UNL A   1      46.412  24.638  24.644  1.00  0.00    -0.191 F 
ATOM     20  F   UNL A   1      44.493  25.141  25.534  1.00  0.00    -0.191 F 
BRANCH  18  21
ATOM     21  C   UNL A   1      46.321  24.700  26.989  1.00  0.00     0.390 C 
ATOM     22  F   UNL A   1      47.518  24.067  27.064  1.00  0.00    -0.181 F 
ATOM     23  F   UNL A   1      46.588  26.032  27.055  1.00  0.00    -0.181 F 
ATOM     24  Cl  UNL A   1      45.347  24.270  28.423  1.00  0.00    -0.041 Cl
ENDBRANCH  18  21
ENDBRANCH  15  18
ENDBRANCH  12  15
ENDBRANCH  11  12
ENDBRANCH   6  11
ENDBRANCH   3   6
ENDBRANCH   1   2
BRANCH   1  25
ATOM     25  C   UNL A   1      41.576  20.194  27.398  1.00  0.00     0.042 C 
BRANCH  25  26
ATOM     26  C   UNL A   1      40.786  21.480  27.622  1.00  0.00     0.118 C 
BRANCH  26  27
ATOM     27  N   UNL A   1      39.651  21.621  26.732  1.00  0.00    -0.352 N 
ATOM     28  C   UNL A   1      38.945  22.754  26.397  1.00  0.00     0.251 C 
ATOM     29  H   UNL A   1      39.342  20.788  26.305  1.00  0.00     0.163 HD
ATOM     30  O   UNL A   1      37.931  22.643  25.709  1.00  0.00    -0.269 OA
BRANCH  28  31
ATOM     31  C   UNL A   1      39.360  24.091  26.891  1.00  0.00     0.039 A 
ATOM     32  C   UNL A   1      39.047  24.437  28.208  1.00  0.00     0.014 A 
ATOM     33  C   UNL A   1      40.025  25.013  26.075  1.00  0.00     0.014 A 
ATOM     34  C   UNL A   1      39.447  25.676  28.724  1.00  0.00     0.010 A 
ATOM     35  C   UNL A   1      40.473  26.227  26.609  1.00  0.00     0.010 A 
ATOM     36  C   UNL A   1      40.187  26.574  27.939  1.00  0.00    -0.014 A 
BRANCH  36  37
ATOM     37  C   UNL A   1      40.648  27.875  28.504  1.00  0.00     0.031 A 
ATOM     38  C   UNL A   1      42.119  28.169  28.646  1.00  0.00     0.074 A 
ATOM     39  C   UNL A   1      39.746  28.791  28.912  1.00  0.00     0.049 A 
ATOM     40  N   UNL A   1      42.709  29.237  29.123  1.00  0.00    -0.248 NA
ATOM     41  C   UNL A   1      43.046  27.115  28.211  1.00  0.00     0.031 C 
ATOM     42  C   UNL A   1      38.293  28.625  28.858  1.00  0.00     0.029 A 
ATOM     43  N   UNL A   1      39.914  30.044  29.452  1.00  0.00    -0.354 N 
ATOM     44  C   UNL A   1      44.075  28.983  29.051  1.00  0.00     0.074 A 
ATOM     45  C   UNL A   1      44.219  27.637  28.536  1.00  0.00     0.031 C 
ATOM     46  C   UNL A   1      37.704  29.740  29.324  1.00  0.00     0.029 A 
ATOM     47  C   UNL A   1      38.734  30.686  29.747  1.00  0.00     0.049 A 
ATOM     48  H   UNL A   1      40.799  30.445  29.613  1.00  0.00     0.167 HD
ATOM     49  C   UNL A   1      45.112  29.801  29.361  1.00  0.00     0.034 A 
ATOM     50  C   UNL A   1      38.500  31.893  30.303  1.00  0.00     0.034 A 
ATOM     51  C   UNL A   1      44.960  31.144  29.866  1.00  0.00     0.049 A 
ATOM     52  C   UNL A   1      39.669  32.772  30.677  1.00  0.00     0.074 A 
ATOM     53  C   UNL A   1      45.947  32.072  30.157  1.00  0.00     0.029 A 
ATOM     54  N   UNL A   1      43.748  31.752  30.167  1.00  0.00    -0.354 N 
ATOM     55  N   UNL A   1      40.955  32.535  30.549  1.00  0.00    -0.248 NA
ATOM     56  C   UNL A   1      39.356  34.084  31.260  1.00  0.00     0.031 C 
ATOM     57  C   UNL A   1      45.338  33.212  30.695  1.00  0.00     0.029 A 
ATOM     58  C   UNL A   1      43.965  33.025  30.672  1.00  0.00     0.049 A 
ATOM     59  H   UNL A   1      42.863  31.338  30.041  1.00  0.00     0.167 HD
ATOM     60  C   UNL A   1      41.599  33.683  31.005  1.00  0.00     0.074 A 
ATOM     61  C   UNL A   1      40.563  34.612  31.404  1.00  0.00     0.031 C 
ATOM     62  C   UNL A   1      42.928  33.945  31.074  1.00  0.00     0.034 A 
BRANCH  49  63
ATOM     63  C   UNL A   1      46.507  29.250  29.188  1.00  0.00     0.023 A 
ATOM     64  C   UNL A   1      47.155  29.264  27.941  1.00  0.00     0.031 A 
ATOM     65  C   UNL A   1      47.192  28.685  30.279  1.00  0.00     0.131 A 
ATOM     66  C   UNL A   1      48.414  28.660  27.798  1.00  0.00     0.055 A 
ATOM     67  C   UNL A   1      48.478  28.157  30.147  1.00  0.00     0.041 A 
ATOM     68  F   UNL A   1      46.618  28.628  31.490  1.00  0.00    -0.206 F 
ATOM     69  C   UNL A   1      49.090  28.128  28.897  1.00  0.00     0.022 A 
BRANCH  66  70
ATOM     70  S   UNL A   1      49.090  28.454  26.127  1.00  0.00     0.124 S 
ATOM     71  O   UNL A   1      47.888  28.578  25.305  1.00  0.00    -0.237 OA
ATOM     72  O   UNL A   1      50.044  29.553  26.035  1.00  0.00    -0.237 OA
ATOM     73  O   UNL A   1      49.678  27.116  26.158  1.00  0.00    -0.744 OA
ENDBRANCH  66  70
ENDBRANCH  49  63
BRANCH  50  74
ATOM     74  C   UNL A   1      37.104  32.348  30.560  1.00  0.00     0.023 A 
ATOM     75  C   UNL A   1      36.322  32.910  29.538  1.00  0.00     0.031 A 
ATOM     76  C   UNL A   1      36.546  32.267  31.849  1.00  0.00     0.131 A 
ATOM     77  C   UNL A   1      35.043  33.410  29.830  1.00  0.00     0.055 A 
ATOM     78  C   UNL A   1      35.254  32.721  32.123  1.00  0.00     0.041 A 
ATOM     79  F   UNL A   1      37.250  31.736  32.860  1.00  0.00    -0.206 F 
ATOM     80  C   UNL A   1      34.500  33.308  31.113  1.00  0.00     0.022 A 
BRANCH  77  81
ATOM     81  S   UNL A   1      34.128  34.273  28.523  1.00  0.00     0.124 S 
ATOM     82  O   UNL A   1      32.813  34.428  29.135  1.00  0.00    -0.237 OA
ATOM     83  O   UNL A   1      34.910  35.494  28.361  1.00  0.00    -0.237 OA
ATOM     84  O   UNL A   1      34.186  33.343  27.397  1.00  0.00    -0.744 OA
ENDBRANCH  77  81
ENDBRANCH  50  74
BRANCH  62  85
ATOM     85  C   UNL A   1      43.339  35.316  31.556  1.00  0.00     0.023 A 
ATOM     86  C   UNL A   1      43.548  36.385  30.667  1.00  0.00     0.031 A 
ATOM     87  C   UNL A   1      43.511  35.554  32.931  1.00  0.00     0.131 A 
ATOM     88  C   UNL A   1      43.955  37.634  31.161  1.00  0.00     0.055 A 
ATOM     89  C   UNL A   1      43.867  36.811  33.421  1.00  0.00     0.041 A 
ATOM     90  F   UNL A   1      43.326  34.568  33.823  1.00  0.00    -0.206 F 
ATOM     91  C   UNL A   1      44.099  37.858  32.534  1.00  0.00     0.022 A 
BRANCH  88  92
ATOM     92  S   UNL A   1      44.353  38.955  29.984  1.00  0.00     0.124 S 
ATOM     93  O   UNL A   1      43.485  38.627  28.856  1.00  0.00    -0.237 OA
ATOM     94  O   UNL A   1      44.001  40.158  30.730  1.00  0.00    -0.237 OA
ATOM     95  O   UNL A   1      45.783  38.778  29.737  1.00  0.00    -0.744 OA
ENDBRANCH  88  92
ENDBRANCH  62  85
ENDBRANCH  36  37
ENDBRANCH  28  31
ENDBRANCH  26  27
ENDBRANCH  25  26
ENDBRANCH   1  25
TORSDOF 19
ENDMDL
