MODEL 1
REMARK VINA RESULT:     -11.7      0.000      0.000
REMARK SMILES CCN(Cc1ccccn1)c1nc(C)cc(C)c1C(=O)NCCCNC(=O)c1ccc(-c2c3nc(c(-c4cc(S(=O)(=O)[O-])ccc4F)c4ccc([nH]4)c(-c4cc(S(=O)(=O)[O-])ccc4F)c4nc(c(-c5cc(S(=O)(=O)[O-])ccc5F)c5ccc2[nH]5)C=C4)C=C3)cc1
REMARK SMILES IDX 23 1 22 2 21 3 19 4 20 5 18 7 11 8 12 9 13 10 16 11 14 12
REMARK SMILES IDX 15 13 17 14 3 15 2 16 1 17 4 18 5 19 6 20 10 21 7 22 9 23
REMARK SMILES IDX 8 24 24 25 25 26 26 27 27 29 28 30 29 31 90 32 30 33 89 34
REMARK SMILES IDX 31 35 32 36 33 37 83 38 34 39 88 40 82 41 84 42 35 43 87 44
REMARK SMILES IDX 81 45 80 46 36 48 68 49 48 50 67 51 49 52 52 53 66 54 85 55
REMARK SMILES IDX 50 56 51 57 65 59 86 60 53 61 37 62 38 63 46 64 39 65 45 66
REMARK SMILES IDX 47 67 44 68 40 69 41 70 42 71 43 72 69 73 70 74 78 75 71 76
REMARK SMILES IDX 77 77 79 78 76 79 72 80 73 81 74 82 75 83 54 84 55 85 63 86
REMARK SMILES IDX 56 87 62 88 64 89 61 90 57 91 58 92 59 93 60 94
REMARK H PARENT 21 6 25 28 84 47 52 58
REMARK Flexibility Score: inf
ROOT
ATOM      1  C   UNL A   1      35.069  22.193  27.415  1.00  0.00     0.042 C 
ENDROOT
BRANCH   1   2
ATOM      2  C   UNL A   1      33.551  22.133  27.342  1.00  0.00     0.118 C 
BRANCH   2   3
ATOM      3  N   UNL A   1      32.994  23.414  26.969  1.00  0.00    -0.352 N 
ATOM      4  C   UNL A   1      32.081  23.521  25.946  1.00  0.00     0.255 C 
ATOM      5  O   UNL A   1      30.881  23.404  26.183  1.00  0.00    -0.269 OA
ATOM      6  H   UNL A   1      33.271  24.223  27.456  1.00  0.00     0.163 HD
BRANCH   4   7
ATOM      7  C   UNL A   1      32.568  23.920  24.601  1.00  0.00     0.085 A 
ATOM      8  C   UNL A   1      32.624  25.296  24.312  1.00  0.00     0.142 A 
ATOM      9  N   UNL A   1      32.768  25.721  23.034  1.00  0.00    -0.235 NA
ATOM     10  C   UNL A   1      32.831  24.841  22.020  1.00  0.00     0.040 A 
ATOM     11  C   UNL A   1      32.743  22.994  23.543  1.00  0.00    -0.033 A 
ATOM     12  C   UNL A   1      32.750  25.407  20.637  1.00  0.00     0.067 C 
ATOM     13  C   UNL A   1      32.873  23.483  22.238  1.00  0.00     0.028 A 
ATOM     14  C   UNL A   1      32.756  21.505  23.690  1.00  0.00     0.045 C 
BRANCH   8  15
ATOM     15  N   UNL A   1      32.529  26.305  25.268  1.00  0.00    -0.350 N 
BRANCH  15  16
ATOM     16  C   UNL A   1      33.640  27.242  25.411  1.00  0.00     0.115 C 
ATOM     17  C   UNL A   1      33.637  27.951  26.754  1.00  0.00     0.027 C 
ENDBRANCH  15  16
BRANCH  15  18
ATOM     18  C   UNL A   1      31.165  26.795  25.555  1.00  0.00     0.174 C 
BRANCH  18  19
ATOM     19  C   UNL A   1      30.537  27.788  24.575  1.00  0.00     0.060 A 
ATOM     20  C   UNL A   1      29.607  27.402  23.605  1.00  0.00     0.026 A 
ATOM     21  N   UNL A   1      30.927  29.088  24.699  1.00  0.00    -0.259 NA
ATOM     22  C   UNL A   1      28.989  28.372  22.819  1.00  0.00     0.004 A 
ATOM     23  C   UNL A   1      30.314  30.005  23.918  1.00  0.00     0.111 A 
ATOM     24  C   UNL A   1      29.340  29.702  22.984  1.00  0.00     0.020 A 
ENDBRANCH  18  19
ENDBRANCH  15  18
ENDBRANCH   8  15
ENDBRANCH   4   7
ENDBRANCH   2   3
ENDBRANCH   1   2
BRANCH   1  25
ATOM     25  C   UNL A   1      35.682  22.422  26.044  1.00  0.00     0.118 C 
BRANCH  25  26
ATOM     26  N   UNL A   1      36.603  21.347  25.685  1.00  0.00    -0.352 N 
ATOM     27  C   UNL A   1      37.977  21.349  25.608  1.00  0.00     0.251 C 
ATOM     28  H   UNL A   1      36.176  20.488  25.464  1.00  0.00     0.163 HD
ATOM     29  O   UNL A   1      38.557  20.437  25.041  1.00  0.00    -0.269 OA
BRANCH  27  30
ATOM     30  C   UNL A   1      38.727  22.473  26.202  1.00  0.00     0.039 A 
ATOM     31  C   UNL A   1      39.845  22.214  26.998  1.00  0.00     0.014 A 
ATOM     32  C   UNL A   1      38.327  23.786  25.949  1.00  0.00     0.014 A 
ATOM     33  C   UNL A   1      40.610  23.280  27.474  1.00  0.00     0.010 A 
ATOM     34  C   UNL A   1      39.148  24.835  26.327  1.00  0.00     0.010 A 
ATOM     35  C   UNL A   1      40.293  24.595  27.103  1.00  0.00    -0.014 A 
BRANCH  35  36
ATOM     36  C   UNL A   1      41.102  25.763  27.528  1.00  0.00     0.031 A 
ATOM     37  C   UNL A   1      40.457  26.824  28.375  1.00  0.00     0.074 A 
ATOM     38  C   UNL A   1      42.355  25.925  27.059  1.00  0.00     0.049 A 
ATOM     39  N   UNL A   1      40.883  28.023  28.674  1.00  0.00    -0.248 NA
ATOM     40  C   UNL A   1      39.124  26.507  28.913  1.00  0.00     0.031 C 
ATOM     41  C   UNL A   1      43.074  24.972  26.211  1.00  0.00     0.029 A 
ATOM     42  N   UNL A   1      43.239  26.962  27.212  1.00  0.00    -0.354 N 
ATOM     43  C   UNL A   1      39.856  28.614  29.404  1.00  0.00     0.074 A 
ATOM     44  C   UNL A   1      38.763  27.667  29.436  1.00  0.00     0.031 C 
ATOM     45  C   UNL A   1      44.294  25.460  25.937  1.00  0.00     0.029 A 
ATOM     46  C   UNL A   1      44.422  26.786  26.534  1.00  0.00     0.049 A 
ATOM     47  H   UNL A   1      43.044  27.760  27.757  1.00  0.00     0.167 HD
ATOM     48  C   UNL A   1      39.841  29.825  30.014  1.00  0.00     0.034 A 
ATOM     49  C   UNL A   1      45.477  27.612  26.390  1.00  0.00     0.034 A 
ATOM     50  C   UNL A   1      40.956  30.737  29.988  1.00  0.00     0.049 A 
ATOM     51  C   UNL A   1      45.428  28.970  27.046  1.00  0.00     0.074 A 
ATOM     52  C   UNL A   1      41.079  31.968  30.606  1.00  0.00     0.029 A 
ATOM     53  N   UNL A   1      42.146  30.514  29.304  1.00  0.00    -0.354 N 
ATOM     54  N   UNL A   1      44.461  29.509  27.752  1.00  0.00    -0.248 NA
ATOM     55  C   UNL A   1      46.609  29.828  26.888  1.00  0.00     0.031 C 
ATOM     56  C   UNL A   1      42.313  32.517  30.244  1.00  0.00     0.029 A 
ATOM     57  C   UNL A   1      42.996  31.595  29.466  1.00  0.00     0.049 A 
ATOM     58  H   UNL A   1      42.354  29.706  28.781  1.00  0.00     0.167 HD
ATOM     59  C   UNL A   1      44.936  30.753  28.160  1.00  0.00     0.074 A 
ATOM     60  C   UNL A   1      46.273  30.882  27.617  1.00  0.00     0.031 C 
ATOM     61  C   UNL A   1      44.330  31.697  28.922  1.00  0.00     0.034 A 
BRANCH  48  62
ATOM     62  C   UNL A   1      38.574  30.224  30.731  1.00  0.00     0.023 A 
ATOM     63  C   UNL A   1      37.525  30.882  30.063  1.00  0.00     0.031 A 
ATOM     64  C   UNL A   1      38.428  29.994  32.110  1.00  0.00     0.131 A 
ATOM     65  C   UNL A   1      36.429  31.372  30.787  1.00  0.00     0.055 A 
ATOM     66  C   UNL A   1      37.288  30.397  32.808  1.00  0.00     0.041 A 
ATOM     67  F   UNL A   1      39.402  29.391  32.809  1.00  0.00    -0.206 F 
ATOM     68  C   UNL A   1      36.289  31.109  32.152  1.00  0.00     0.022 A 
BRANCH  65  69
ATOM     69  S   UNL A   1      35.281  32.502  29.953  1.00  0.00     0.124 S 
ATOM     70  O   UNL A   1      34.306  32.761  31.011  1.00  0.00    -0.237 OA
ATOM     71  O   UNL A   1      36.145  33.620  29.593  1.00  0.00    -0.237 OA
ATOM     72  O   UNL A   1      34.777  31.713  28.832  1.00  0.00    -0.744 OA
ENDBRANCH  65  69
ENDBRANCH  48  62
BRANCH  49  73
ATOM     73  C   UNL A   1      46.666  27.191  25.594  1.00  0.00     0.023 A 
ATOM     74  C   UNL A   1      46.888  27.711  24.309  1.00  0.00     0.031 A 
ATOM     75  C   UNL A   1      47.579  26.241  26.086  1.00  0.00     0.131 A 
ATOM     76  C   UNL A   1      47.965  27.243  23.540  1.00  0.00     0.055 A 
ATOM     77  C   UNL A   1      48.681  25.820  25.338  1.00  0.00     0.041 A 
ATOM     78  F   UNL A   1      47.419  25.715  27.311  1.00  0.00    -0.206 F 
ATOM     79  C   UNL A   1      48.871  26.312  24.051  1.00  0.00     0.022 A 
BRANCH  76  80
ATOM     80  S   UNL A   1      48.111  27.808  21.823  1.00  0.00     0.124 S 
ATOM     81  O   UNL A   1      46.842  28.503  21.631  1.00  0.00    -0.237 OA
ATOM     82  O   UNL A   1      49.302  28.648  21.881  1.00  0.00    -0.237 OA
ATOM     83  O   UNL A   1      48.264  26.565  21.069  1.00  0.00    -0.744 OA
ENDBRANCH  76  80
ENDBRANCH  49  73
BRANCH  61  84
ATOM     84  C   UNL A   1      45.133  32.922  29.276  1.00  0.00     0.023 A 
ATOM     85  C   UNL A   1      45.151  34.063  28.458  1.00  0.00     0.031 A 
ATOM     86  C   UNL A   1      45.864  32.952  30.477  1.00  0.00     0.131 A 
ATOM     87  C   UNL A   1      45.913  35.179  28.838  1.00  0.00     0.055 A 
ATOM     88  C   UNL A   1      46.576  34.084  30.876  1.00  0.00     0.041 A 
ATOM     89  F   UNL A   1      45.880  31.886  31.293  1.00  0.00    -0.206 F 
ATOM     90  C   UNL A   1      46.609  35.203  30.050  1.00  0.00     0.022 A 
BRANCH  87  91
ATOM     91  S   UNL A   1      46.028  36.587  27.700  1.00  0.00     0.124 S 
ATOM     92  O   UNL A   1      45.056  37.516  28.268  1.00  0.00    -0.237 OA
ATOM     93  O   UNL A   1      47.429  36.975  27.824  1.00  0.00    -0.237 OA
ATOM     94  O   UNL A   1      45.656  36.014  26.407  1.00  0.00    -0.744 OA
ENDBRANCH  87  91
ENDBRANCH  61  84
ENDBRANCH  35  36
ENDBRANCH  27  30
ENDBRANCH  25  26
ENDBRANCH   1  25
TORSDOF 17
ENDMDL
MODEL 2
REMARK VINA RESULT:     -11.6      1.843      4.007
REMARK SMILES CCN(Cc1ccccn1)c1nc(C)cc(C)c1C(=O)NCCCNC(=O)c1ccc(-c2c3nc(c(-c4cc(S(=O)(=O)[O-])ccc4F)c4ccc([nH]4)c(-c4cc(S(=O)(=O)[O-])ccc4F)c4nc(c(-c5cc(S(=O)(=O)[O-])ccc5F)c5ccc2[nH]5)C=C4)C=C3)cc1
REMARK SMILES IDX 23 1 22 2 21 3 19 4 20 5 18 7 11 8 12 9 13 10 16 11 14 12
REMARK SMILES IDX 15 13 17 14 3 15 2 16 1 17 4 18 5 19 6 20 10 21 7 22 9 23
REMARK SMILES IDX 8 24 24 25 25 26 26 27 27 29 28 30 29 31 90 32 30 33 89 34
REMARK SMILES IDX 31 35 32 36 33 37 83 38 34 39 88 40 82 41 84 42 35 43 87 44
REMARK SMILES IDX 81 45 80 46 36 48 68 49 48 50 67 51 49 52 52 53 66 54 85 55
REMARK SMILES IDX 50 56 51 57 65 59 86 60 53 61 37 62 38 63 46 64 39 65 45 66
REMARK SMILES IDX 47 67 44 68 40 69 41 70 42 71 43 72 69 73 70 74 78 75 71 76
REMARK SMILES IDX 77 77 79 78 76 79 72 80 73 81 74 82 75 83 54 84 55 85 63 86
REMARK SMILES IDX 56 87 62 88 64 89 61 90 57 91 58 92 59 93 60 94
REMARK H PARENT 21 6 25 28 84 47 52 58
REMARK Flexibility Score: inf
ROOT
ATOM      1  C   UNL A   1      36.767  22.788  23.780  1.00  0.00     0.042 C 
ENDROOT
BRANCH   1   2
ATOM      2  C   UNL A   1      35.577  23.679  23.462  1.00  0.00     0.118 C 
BRANCH   2   3
ATOM      3  N   UNL A   1      34.380  22.896  23.247  1.00  0.00    -0.352 N 
ATOM      4  C   UNL A   1      33.135  23.481  23.267  1.00  0.00     0.255 C 
ATOM      5  O   UNL A   1      32.660  23.942  22.232  1.00  0.00    -0.269 OA
ATOM      6  H   UNL A   1      34.458  21.929  23.082  1.00  0.00     0.163 HD
BRANCH   4   7
ATOM      7  C   UNL A   1      32.338  23.408  24.517  1.00  0.00     0.085 A 
ATOM      8  C   UNL A   1      32.156  22.139  25.098  1.00  0.00     0.142 A 
ATOM      9  N   UNL A   1      31.211  21.954  26.051  1.00  0.00    -0.235 NA
ATOM     10  C   UNL A   1      30.416  22.966  26.438  1.00  0.00     0.040 A 
ATOM     11  C   UNL A   1      31.572  24.497  25.003  1.00  0.00    -0.033 A 
ATOM     12  C   UNL A   1      29.256  22.610  27.314  1.00  0.00     0.067 C 
ATOM     13  C   UNL A   1      30.599  24.250  25.978  1.00  0.00     0.028 A 
ATOM     14  C   UNL A   1      31.679  25.911  24.526  1.00  0.00     0.045 C 
BRANCH   8  15
ATOM     15  N   UNL A   1      32.886  21.004  24.755  1.00  0.00    -0.350 N 
BRANCH  15  16
ATOM     16  C   UNL A   1      34.013  20.614  25.599  1.00  0.00     0.115 C 
ATOM     17  C   UNL A   1      33.998  21.309  26.950  1.00  0.00     0.027 C 
ENDBRANCH  15  16
BRANCH  15  18
ATOM     18  C   UNL A   1      32.134  19.938  24.062  1.00  0.00     0.174 C 
BRANCH  18  19
ATOM     19  C   UNL A   1      32.607  18.494  24.238  1.00  0.00     0.060 A 
ATOM     20  C   UNL A   1      33.483  17.877  23.341  1.00  0.00     0.026 A 
ATOM     21  N   UNL A   1      32.133  17.831  25.330  1.00  0.00    -0.259 NA
ATOM     22  C   UNL A   1      33.964  16.598  23.618  1.00  0.00     0.004 A 
ATOM     23  C   UNL A   1      32.614  16.591  25.569  1.00  0.00     0.111 A 
ATOM     24  C   UNL A   1      33.531  15.944  24.760  1.00  0.00     0.020 A 
ENDBRANCH  18  19
ENDBRANCH  15  18
ENDBRANCH   8  15
ENDBRANCH   4   7
ENDBRANCH   2   3
ENDBRANCH   1   2
BRANCH   1  25
ATOM     25  C   UNL A   1      36.958  22.629  25.279  1.00  0.00     0.118 C 
BRANCH  25  26
ATOM     26  N   UNL A   1      37.804  21.479  25.590  1.00  0.00    -0.352 N 
ATOM     27  C   UNL A   1      39.080  21.434  26.101  1.00  0.00     0.251 C 
ATOM     28  H   UNL A   1      37.399  20.601  25.405  1.00  0.00     0.163 HD
ATOM     29  O   UNL A   1      39.722  20.397  26.048  1.00  0.00    -0.269 OA
BRANCH  27  30
ATOM     30  C   UNL A   1      39.660  22.657  26.691  1.00  0.00     0.039 A 
ATOM     31  C   UNL A   1      40.608  22.548  27.712  1.00  0.00     0.014 A 
ATOM     32  C   UNL A   1      39.274  23.909  26.213  1.00  0.00     0.014 A 
ATOM     33  C   UNL A   1      41.228  23.701  28.197  1.00  0.00     0.010 A 
ATOM     34  C   UNL A   1      39.969  25.038  26.616  1.00  0.00     0.010 A 
ATOM     35  C   UNL A   1      40.947  24.948  27.619  1.00  0.00    -0.014 A 
BRANCH  35  36
ATOM     36  C   UNL A   1      41.616  26.199  28.051  1.00  0.00     0.031 A 
ATOM     37  C   UNL A   1      40.812  27.240  28.780  1.00  0.00     0.074 A 
ATOM     38  C   UNL A   1      42.890  26.445  27.687  1.00  0.00     0.049 A 
ATOM     39  N   UNL A   1      41.111  28.482  29.051  1.00  0.00    -0.248 NA
ATOM     40  C   UNL A   1      39.465  26.836  29.214  1.00  0.00     0.031 C 
ATOM     41  C   UNL A   1      43.758  25.518  26.958  1.00  0.00     0.029 A 
ATOM     42  N   UNL A   1      43.670  27.560  27.861  1.00  0.00    -0.354 N 
ATOM     43  C   UNL A   1      39.977  29.017  29.654  1.00  0.00     0.074 A 
ATOM     44  C   UNL A   1      38.965  27.984  29.640  1.00  0.00     0.031 C 
ATOM     45  C   UNL A   1      44.956  26.095  26.767  1.00  0.00     0.029 A 
ATOM     46  C   UNL A   1      44.921  27.453  27.302  1.00  0.00     0.049 A 
ATOM     47  H   UNL A   1      43.362  28.362  28.344  1.00  0.00     0.167 HD
ATOM     48  C   UNL A   1      39.808  30.250  30.194  1.00  0.00     0.034 A 
ATOM     49  C   UNL A   1      45.915  28.358  27.207  1.00  0.00     0.034 A 
ATOM     50  C   UNL A   1      40.844  31.251  30.218  1.00  0.00     0.049 A 
ATOM     51  C   UNL A   1      45.697  29.735  27.783  1.00  0.00     0.074 A 
ATOM     52  C   UNL A   1      40.810  32.515  30.778  1.00  0.00     0.029 A 
ATOM     53  N   UNL A   1      42.106  31.098  29.655  1.00  0.00    -0.354 N 
ATOM     54  N   UNL A   1      44.628  30.223  28.371  1.00  0.00    -0.248 NA
ATOM     55  C   UNL A   1      46.814  30.683  27.684  1.00  0.00     0.031 C 
ATOM     56  C   UNL A   1      42.024  33.149  30.498  1.00  0.00     0.029 A 
ATOM     57  C   UNL A   1      42.848  32.254  29.834  1.00  0.00     0.049 A 
ATOM     58  H   UNL A   1      42.426  30.288  29.197  1.00  0.00     0.167 HD
ATOM     59  C   UNL A   1      44.962  31.520  28.752  1.00  0.00     0.074 A 
ATOM     60  C   UNL A   1      46.329  31.737  28.323  1.00  0.00     0.031 C 
ATOM     61  C   UNL A   1      44.214  32.443  29.406  1.00  0.00     0.034 A 
BRANCH  48  62
ATOM     62  C   UNL A   1      38.452  30.572  30.775  1.00  0.00     0.023 A 
ATOM     63  C   UNL A   1      37.452  31.195  30.007  1.00  0.00     0.031 A 
ATOM     64  C   UNL A   1      38.168  30.304  32.125  1.00  0.00     0.131 A 
ATOM     65  C   UNL A   1      36.260  31.616  30.614  1.00  0.00     0.055 A 
ATOM     66  C   UNL A   1      36.941  30.638  32.700  1.00  0.00     0.041 A 
ATOM     67  F   UNL A   1      39.088  29.732  32.916  1.00  0.00    -0.206 F 
ATOM     68  C   UNL A   1      35.985  31.316  31.950  1.00  0.00     0.022 A 
BRANCH  65  69
ATOM     69  S   UNL A   1      35.156  32.710  29.678  1.00  0.00     0.124 S 
ATOM     70  O   UNL A   1      36.050  33.822  29.359  1.00  0.00    -0.237 OA
ATOM     71  O   UNL A   1      34.756  31.870  28.556  1.00  0.00    -0.237 OA
ATOM     72  O   UNL A   1      34.097  33.027  30.634  1.00  0.00    -0.744 OA
ENDBRANCH  65  69
ENDBRANCH  48  62
BRANCH  49  73
ATOM     73  C   UNL A   1      47.202  28.003  26.543  1.00  0.00     0.023 A 
ATOM     74  C   UNL A   1      47.315  28.021  25.144  1.00  0.00     0.031 A 
ATOM     75  C   UNL A   1      48.328  27.609  27.289  1.00  0.00     0.131 A 
ATOM     76  C   UNL A   1      48.507  27.606  24.532  1.00  0.00     0.055 A 
ATOM     77  C   UNL A   1      49.531  27.250  26.676  1.00  0.00     0.041 A 
ATOM     78  F   UNL A   1      48.278  27.580  28.630  1.00  0.00    -0.206 F 
ATOM     79  C   UNL A   1      49.620  27.233  25.287  1.00  0.00     0.022 A 
BRANCH  76  80
ATOM     80  S   UNL A   1      48.551  27.473  22.723  1.00  0.00     0.124 S 
ATOM     81  O   UNL A   1      48.443  26.031  22.530  1.00  0.00    -0.237 OA
ATOM     82  O   UNL A   1      47.387  28.262  22.334  1.00  0.00    -0.237 OA
ATOM     83  O   UNL A   1      49.843  28.056  22.371  1.00  0.00    -0.744 OA
ENDBRANCH  76  80
ENDBRANCH  49  73
BRANCH  61  84
ATOM     84  C   UNL A   1      44.880  33.747  29.763  1.00  0.00     0.023 A 
ATOM     85  C   UNL A   1      44.811  34.873  28.927  1.00  0.00     0.031 A 
ATOM     86  C   UNL A   1      45.566  33.866  30.985  1.00  0.00     0.131 A 
ATOM     87  C   UNL A   1      45.446  36.064  29.311  1.00  0.00     0.055 A 
ATOM     88  C   UNL A   1      46.149  35.069  31.386  1.00  0.00     0.041 A 
ATOM     89  F   UNL A   1      45.662  32.819  31.819  1.00  0.00    -0.206 F 
ATOM     90  C   UNL A   1      46.097  36.174  30.543  1.00  0.00     0.022 A 
BRANCH  87  91
ATOM     91  S   UNL A   1      45.457  37.460  28.153  1.00  0.00     0.124 S 
ATOM     92  O   UNL A   1      46.396  37.001  27.134  1.00  0.00    -0.237 OA
ATOM     93  O   UNL A   1      44.060  37.538  27.741  1.00  0.00    -0.237 OA
ATOM     94  O   UNL A   1      45.925  38.579  28.969  1.00  0.00    -0.744 OA
ENDBRANCH  87  91
ENDBRANCH  61  84
ENDBRANCH  35  36
ENDBRANCH  27  30
ENDBRANCH  25  26
ENDBRANCH   1  25
TORSDOF 17
ENDMDL
MODEL 3
REMARK VINA RESULT:     -11.5      5.013      9.979
REMARK SMILES CCN(Cc1ccccn1)c1nc(C)cc(C)c1C(=O)NCCCNC(=O)c1ccc(-c2c3nc(c(-c4cc(S(=O)(=O)[O-])ccc4F)c4ccc([nH]4)c(-c4cc(S(=O)(=O)[O-])ccc4F)c4nc(c(-c5cc(S(=O)(=O)[O-])ccc5F)c5ccc2[nH]5)C=C4)C=C3)cc1
REMARK SMILES IDX 23 1 22 2 21 3 19 4 20 5 18 7 11 8 12 9 13 10 16 11 14 12
REMARK SMILES IDX 15 13 17 14 3 15 2 16 1 17 4 18 5 19 6 20 10 21 7 22 9 23
REMARK SMILES IDX 8 24 24 25 25 26 26 27 27 29 28 30 29 31 90 32 30 33 89 34
REMARK SMILES IDX 31 35 32 36 33 37 83 38 34 39 88 40 82 41 84 42 35 43 87 44
REMARK SMILES IDX 81 45 80 46 36 48 68 49 48 50 67 51 49 52 52 53 66 54 85 55
REMARK SMILES IDX 50 56 51 57 65 59 86 60 53 61 37 62 38 63 46 64 39 65 45 66
REMARK SMILES IDX 47 67 44 68 40 69 41 70 42 71 43 72 69 73 70 74 78 75 71 76
REMARK SMILES IDX 77 77 79 78 76 79 72 80 73 81 74 82 75 83 54 84 55 85 63 86
REMARK SMILES IDX 56 87 62 88 64 89 61 90 57 91 58 92 59 93 60 94
REMARK H PARENT 21 6 25 28 84 47 52 58
REMARK Flexibility Score: inf
ROOT
ATOM      1  C   UNL A   1      31.823  28.982  27.411  1.00  0.00     0.042 C 
ENDROOT
BRANCH   1   2
ATOM      2  C   UNL A   1      31.868  27.489  27.128  1.00  0.00     0.118 C 
BRANCH   2   3
ATOM      3  N   UNL A   1      30.669  27.049  26.449  1.00  0.00    -0.352 N 
ATOM      4  C   UNL A   1      30.569  25.775  25.939  1.00  0.00     0.255 C 
ATOM      5  O   UNL A   1      30.142  24.866  26.646  1.00  0.00    -0.269 OA
ATOM      6  H   UNL A   1      29.913  27.670  26.350  1.00  0.00     0.163 HD
BRANCH   4   7
ATOM      7  C   UNL A   1      30.845  25.566  24.495  1.00  0.00     0.085 A 
ATOM      8  C   UNL A   1      31.918  24.722  24.155  1.00  0.00     0.142 A 
ATOM      9  N   UNL A   1      32.412  24.719  22.893  1.00  0.00    -0.235 NA
ATOM     10  C   UNL A   1      31.905  25.538  21.954  1.00  0.00     0.040 A 
ATOM     11  C   UNL A   1      30.243  26.348  23.478  1.00  0.00    -0.033 A 
ATOM     12  C   UNL A   1      32.665  25.634  20.669  1.00  0.00     0.067 C 
ATOM     13  C   UNL A   1      30.799  26.321  22.194  1.00  0.00     0.028 A 
ATOM     14  C   UNL A   1      29.069  27.256  23.665  1.00  0.00     0.045 C 
BRANCH   8  15
ATOM     15  N   UNL A   1      32.555  23.860  25.044  1.00  0.00    -0.350 N 
BRANCH  15  16
ATOM     16  C   UNL A   1      32.266  22.430  24.962  1.00  0.00     0.115 C 
ATOM     17  C   UNL A   1      30.922  22.071  25.568  1.00  0.00     0.027 C 
ENDBRANCH  15  16
BRANCH  15  18
ATOM     18  C   UNL A   1      33.900  24.274  25.492  1.00  0.00     0.174 C 
BRANCH  18  19
ATOM     19  C   UNL A   1      35.095  23.422  25.059  1.00  0.00     0.060 A 
ATOM     20  C   UNL A   1      35.593  23.435  23.753  1.00  0.00     0.026 A 
ATOM     21  N   UNL A   1      35.665  22.645  26.023  1.00  0.00    -0.259 NA
ATOM     22  C   UNL A   1      36.752  22.723  23.451  1.00  0.00     0.004 A 
ATOM     23  C   UNL A   1      36.785  21.962  25.698  1.00  0.00     0.111 A 
ATOM     24  C   UNL A   1      37.369  21.980  24.444  1.00  0.00     0.020 A 
ENDBRANCH  18  19
ENDBRANCH  15  18
ENDBRANCH   8  15
ENDBRANCH   4   7
ENDBRANCH   2   3
ENDBRANCH   1   2
BRANCH   1  25
ATOM     25  C   UNL A   1      32.846  29.737  26.579  1.00  0.00     0.118 C 
BRANCH  25  26
ATOM     26  N   UNL A   1      32.664  31.182  26.693  1.00  0.00    -0.352 N 
ATOM     27  C   UNL A   1      33.393  32.112  27.397  1.00  0.00     0.251 C 
ATOM     28  H   UNL A   1      31.902  31.547  26.187  1.00  0.00     0.163 HD
ATOM     29  O   UNL A   1      32.938  33.229  27.584  1.00  0.00    -0.269 OA
BRANCH  27  30
ATOM     30  C   UNL A   1      34.713  31.730  27.936  1.00  0.00     0.039 A 
ATOM     31  C   UNL A   1      35.749  32.667  27.955  1.00  0.00     0.014 A 
ATOM     32  C   UNL A   1      34.913  30.444  28.439  1.00  0.00     0.014 A 
ATOM     33  C   UNL A   1      36.964  32.335  28.556  1.00  0.00     0.010 A 
ATOM     34  C   UNL A   1      36.076  30.155  29.132  1.00  0.00     0.010 A 
ATOM     35  C   UNL A   1      37.119  31.093  29.190  1.00  0.00    -0.014 A 
BRANCH  35  36
ATOM     36  C   UNL A   1      38.364  30.705  29.896  1.00  0.00     0.031 A 
ATOM     37  C   UNL A   1      39.290  29.715  29.246  1.00  0.00     0.074 A 
ATOM     38  C   UNL A   1      38.596  31.143  31.149  1.00  0.00     0.049 A 
ATOM     39  N   UNL A   1      40.301  29.063  29.757  1.00  0.00    -0.248 NA
ATOM     40  C   UNL A   1      39.000  29.375  27.843  1.00  0.00     0.031 C 
ATOM     41  C   UNL A   1      37.754  32.087  31.888  1.00  0.00     0.029 A 
ATOM     42  N   UNL A   1      39.598  30.833  32.033  1.00  0.00    -0.354 N 
ATOM     43  C   UNL A   1      40.744  28.211  28.749  1.00  0.00     0.074 A 
ATOM     44  C   UNL A   1      39.845  28.379  27.629  1.00  0.00     0.031 C 
ATOM     45  C   UNL A   1      38.287  32.294  33.103  1.00  0.00     0.029 A 
ATOM     46  C   UNL A   1      39.469  31.452  33.255  1.00  0.00     0.049 A 
ATOM     47  H   UNL A   1      40.340  30.224  31.813  1.00  0.00     0.167 HD
ATOM     48  C   UNL A   1      41.820  27.385  28.752  1.00  0.00     0.034 A 
ATOM     49  C   UNL A   1      40.206  31.331  34.376  1.00  0.00     0.034 A 
ATOM     50  C   UNL A   1      42.715  27.258  29.874  1.00  0.00     0.049 A 
ATOM     51  C   UNL A   1      41.379  30.381  34.372  1.00  0.00     0.074 A 
ATOM     52  C   UNL A   1      43.863  26.494  29.980  1.00  0.00     0.029 A 
ATOM     53  N   UNL A   1      42.560  27.916  31.089  1.00  0.00    -0.354 N 
ATOM     54  N   UNL A   1      41.801  29.597  33.407  1.00  0.00    -0.248 NA
ATOM     55  C   UNL A   1      42.173  30.299  35.605  1.00  0.00     0.031 C 
ATOM     56  C   UNL A   1      44.365  26.638  31.277  1.00  0.00     0.029 A 
ATOM     57  C   UNL A   1      43.579  27.555  31.957  1.00  0.00     0.049 A 
ATOM     58  H   UNL A   1      41.834  28.545  31.302  1.00  0.00     0.167 HD
ATOM     59  C   UNL A   1      42.938  28.963  33.902  1.00  0.00     0.074 A 
ATOM     60  C   UNL A   1      43.130  29.454  35.252  1.00  0.00     0.031 C 
ATOM     61  C   UNL A   1      43.755  28.066  33.295  1.00  0.00     0.034 A 
BRANCH  48  62
ATOM     62  C   UNL A   1      42.058  26.553  27.515  1.00  0.00     0.023 A 
ATOM     63  C   UNL A   1      41.641  25.211  27.439  1.00  0.00     0.031 A 
ATOM     64  C   UNL A   1      42.755  27.085  26.417  1.00  0.00     0.131 A 
ATOM     65  C   UNL A   1      42.010  24.423  26.339  1.00  0.00     0.055 A 
ATOM     66  C   UNL A   1      43.034  26.322  25.281  1.00  0.00     0.041 A 
ATOM     67  F   UNL A   1      43.198  28.351  26.437  1.00  0.00    -0.206 F 
ATOM     68  C   UNL A   1      42.678  24.977  25.245  1.00  0.00     0.022 A 
BRANCH  65  69
ATOM     69  S   UNL A   1      41.753  22.631  26.439  1.00  0.00     0.124 S 
ATOM     70  O   UNL A   1      42.409  22.173  25.216  1.00  0.00    -0.237 OA
ATOM     71  O   UNL A   1      42.419  22.285  27.689  1.00  0.00    -0.237 OA
ATOM     72  O   UNL A   1      40.299  22.492  26.446  1.00  0.00    -0.744 OA
ENDBRANCH  65  69
ENDBRANCH  48  62
BRANCH  49  73
ATOM     73  C   UNL A   1      39.865  32.118  35.596  1.00  0.00     0.023 A 
ATOM     74  C   UNL A   1      38.956  31.618  36.540  1.00  0.00     0.031 A 
ATOM     75  C   UNL A   1      40.413  33.394  35.821  1.00  0.00     0.131 A 
ATOM     76  C   UNL A   1      38.583  32.405  37.640  1.00  0.00     0.055 A 
ATOM     77  C   UNL A   1      40.081  34.151  36.947  1.00  0.00     0.041 A 
ATOM     78  F   UNL A   1      41.293  33.919  34.954  1.00  0.00    -0.206 F 
ATOM     79  C   UNL A   1      39.149  33.663  37.858  1.00  0.00     0.022 A 
BRANCH  76  80
ATOM     80  S   UNL A   1      37.274  31.795  38.737  1.00  0.00     0.124 S 
ATOM     81  O   UNL A   1      37.931  31.849  40.039  1.00  0.00    -0.237 OA
ATOM     82  O   UNL A   1      36.212  32.770  38.513  1.00  0.00    -0.237 OA
ATOM     83  O   UNL A   1      37.003  30.453  38.228  1.00  0.00    -0.744 OA
ENDBRANCH  76  80
ENDBRANCH  49  73
BRANCH  61  84
ATOM     84  C   UNL A   1      44.972  27.612  34.058  1.00  0.00     0.023 A 
ATOM     85  C   UNL A   1      44.965  26.455  34.854  1.00  0.00     0.031 A 
ATOM     86  C   UNL A   1      46.172  28.339  33.951  1.00  0.00     0.131 A 
ATOM     87  C   UNL A   1      46.129  26.075  35.539  1.00  0.00     0.055 A 
ATOM     88  C   UNL A   1      47.340  27.927  34.592  1.00  0.00     0.041 A 
ATOM     89  F   UNL A   1      46.231  29.453  33.204  1.00  0.00    -0.206 F 
ATOM     90  C   UNL A   1      47.321  26.793  35.397  1.00  0.00     0.022 A 
BRANCH  87  91
ATOM     91  S   UNL A   1      46.056  24.656  36.666  1.00  0.00     0.124 S 
ATOM     92  O   UNL A   1      47.154  23.826  36.180  1.00  0.00    -0.237 OA
ATOM     93  O   UNL A   1      46.260  25.280  37.969  1.00  0.00    -0.237 OA
ATOM     94  O   UNL A   1      44.718  24.109  36.444  1.00  0.00    -0.744 OA
ENDBRANCH  87  91
ENDBRANCH  61  84
ENDBRANCH  35  36
ENDBRANCH  27  30
ENDBRANCH  25  26
ENDBRANCH   1  25
TORSDOF 17
ENDMDL
