MODEL 1
REMARK VINA RESULT:     -10.5      0.000      0.000
REMARK SMILES CN(C)C(=O)CC[NH2+]Cc1cc(C(=O)NCCCNC(=O)c2ccc(-c3c4nc(c(-c5cc(S(=O)(=O)[O-])ccc5F)c5ccc([nH]5)c(-c5cc(S(=O)(=O)[O-])ccc5F)c5nc(c(-c6cc(S(=O)(=O)[O-])ccc6F)c6ccc3[nH]6)C=C5)C=C4)cc2)cs1
REMARK SMILES IDX 16 1 15 2 13 3 14 4 12 6 10 7 11 8 86 9 85 10 9 11 8 12 7 15
REMARK SMILES IDX 6 16 4 17 1 18 2 19 3 20 5 21 17 22 18 23 19 24 20 25 21 27
REMARK SMILES IDX 22 28 23 29 84 30 24 31 83 32 25 33 26 34 27 35 77 36 28 37
REMARK SMILES IDX 82 38 76 39 78 40 29 41 81 42 75 43 74 44 30 46 62 47 42 48
REMARK SMILES IDX 61 49 43 50 46 51 60 52 79 53 44 54 45 55 59 57 80 58 47 59
REMARK SMILES IDX 31 60 32 61 40 62 33 63 39 64 41 65 38 66 34 67 35 68 36 69
REMARK SMILES IDX 37 70 63 71 64 72 72 73 65 74 71 75 73 76 70 77 66 78 67 79
REMARK SMILES IDX 68 80 69 81 48 82 49 83 57 84 50 85 56 86 58 87 55 88 51 89
REMARK SMILES IDX 52 90 53 91 54 92
REMARK H PARENT 15 5 8 13 8 14 19 26 78 45 46 56
REMARK Flexibility Score: inf
ROOT
ATOM      1  C   UNL A   1      31.946  30.454  27.170  1.00  0.00     0.118 C 
ENDROOT
BRANCH   1   2
ATOM      2  N   UNL A   1      33.310  30.163  27.589  1.00  0.00    -0.352 N 
ATOM      3  C   UNL A   1      34.223  29.240  27.142  1.00  0.00     0.252 C 
ATOM      4  O   UNL A   1      35.298  29.150  27.747  1.00  0.00    -0.269 OA
ATOM      5  H   UNL A   1      33.635  30.728  28.326  1.00  0.00     0.163 HD
BRANCH   3   6
ATOM      6  C   UNL A   1      33.905  28.350  26.029  1.00  0.00     0.051 A 
ATOM      7  C   UNL A   1      33.332  27.658  23.869  1.00  0.00     0.059 A 
ATOM      8  C   UNL A   1      34.020  28.590  24.620  1.00  0.00     0.035 A 
ATOM      9  S   UNL A   1      32.943  26.283  24.806  1.00  0.00    -0.142 S 
ATOM     10  C   UNL A   1      33.475  27.051  26.240  1.00  0.00     0.079 A 
BRANCH   7  11
ATOM     11  C   UNL A   1      32.896  27.776  22.437  1.00  0.00     0.308 C 
BRANCH  11  12
ATOM     12  N   UNL A   1      31.661  28.570  22.311  1.00  0.00    -0.341 N 
ATOM     13  H   UNL A   1      31.577  29.173  23.129  1.00  0.00     0.346 HD
ATOM     14  H   UNL A   1      31.730  29.108  21.448  1.00  0.00     0.346 HD
BRANCH  12  15
ATOM     15  C   UNL A   1      30.453  27.736  22.216  1.00  0.00     0.270 C 
BRANCH  15  16
ATOM     16  C   UNL A   1      29.247  28.332  22.941  1.00  0.00     0.161 C 
BRANCH  16  17
ATOM     17  C   UNL A   1      29.462  29.810  23.204  1.00  0.00     0.227 C 
ATOM     18  C   UNL A   1      28.946  32.151  22.750  1.00  0.00     0.146 C 
ATOM     19  N   UNL A   1      28.805  30.742  22.415  1.00  0.00    -0.349 N 
ATOM     20  C   UNL A   1      28.027  30.455  21.219  1.00  0.00     0.146 C 
ATOM     21  O   UNL A   1      30.165  30.143  24.164  1.00  0.00    -0.275 OA
ENDBRANCH  16  17
ENDBRANCH  15  16
ENDBRANCH  12  15
ENDBRANCH  11  12
ENDBRANCH   7  11
ENDBRANCH   3   6
ENDBRANCH   1   2
BRANCH   1  22
ATOM     22  C   UNL A   1      31.674  31.932  26.916  1.00  0.00     0.042 C 
BRANCH  22  23
ATOM     23  C   UNL A   1      32.910  32.824  26.950  1.00  0.00     0.118 C 
BRANCH  23  24
ATOM     24  N   UNL A   1      32.664  34.096  27.619  1.00  0.00    -0.352 N 
ATOM     25  C   UNL A   1      33.157  34.626  28.784  1.00  0.00     0.251 C 
ATOM     26  H   UNL A   1      32.029  34.682  27.148  1.00  0.00     0.163 HD
ATOM     27  O   UNL A   1      32.613  35.633  29.237  1.00  0.00    -0.269 OA
BRANCH  25  28
ATOM     28  C   UNL A   1      34.308  34.026  29.499  1.00  0.00     0.039 A 
ATOM     29  C   UNL A   1      35.602  34.390  29.105  1.00  0.00     0.014 A 
ATOM     30  C   UNL A   1      34.143  33.055  30.489  1.00  0.00     0.014 A 
ATOM     31  C   UNL A   1      36.715  33.819  29.728  1.00  0.00     0.010 A 
ATOM     32  C   UNL A   1      35.250  32.547  31.167  1.00  0.00     0.010 A 
ATOM     33  C   UNL A   1      36.550  32.910  30.784  1.00  0.00    -0.014 A 
BRANCH  33  34
ATOM     34  C   UNL A   1      37.721  32.310  31.477  1.00  0.00     0.031 A 
ATOM     35  C   UNL A   1      38.497  31.196  30.823  1.00  0.00     0.074 A 
ATOM     36  C   UNL A   1      38.051  32.728  32.714  1.00  0.00     0.049 A 
ATOM     37  N   UNL A   1      39.496  30.493  31.292  1.00  0.00    -0.248 NA
ATOM     38  C   UNL A   1      38.068  30.800  29.473  1.00  0.00     0.031 C 
ATOM     39  C   UNL A   1      37.347  33.765  33.471  1.00  0.00     0.029 A 
ATOM     40  N   UNL A   1      39.055  32.326  33.558  1.00  0.00    -0.354 N 
ATOM     41  C   UNL A   1      39.799  29.556  30.308  1.00  0.00     0.074 A 
ATOM     42  C   UNL A   1      38.838  29.748  29.242  1.00  0.00     0.031 C 
ATOM     43  C   UNL A   1      37.955  33.935  34.655  1.00  0.00     0.029 A 
ATOM     44  C   UNL A   1      39.066  32.994  34.761  1.00  0.00     0.049 A 
ATOM     45  H   UNL A   1      39.708  31.627  33.325  1.00  0.00     0.167 HD
ATOM     46  C   UNL A   1      40.796  28.636  30.287  1.00  0.00     0.034 A 
ATOM     47  C   UNL A   1      39.875  32.859  35.830  1.00  0.00     0.034 A 
ATOM     48  C   UNL A   1      41.758  28.472  31.349  1.00  0.00     0.049 A 
ATOM     49  C   UNL A   1      40.991  31.848  35.774  1.00  0.00     0.074 A 
ATOM     50  C   UNL A   1      42.836  27.606  31.416  1.00  0.00     0.029 A 
ATOM     51  N   UNL A   1      41.760  29.194  32.538  1.00  0.00    -0.354 N 
ATOM     52  N   UNL A   1      41.288  30.997  34.821  1.00  0.00    -0.248 NA
ATOM     53  C   UNL A   1      41.890  31.795  36.933  1.00  0.00     0.031 C 
ATOM     54  C   UNL A   1      43.457  27.767  32.661  1.00  0.00     0.029 A 
ATOM     55  C   UNL A   1      42.808  28.781  33.347  1.00  0.00     0.049 A 
ATOM     56  H   UNL A   1      41.111  29.896  32.771  1.00  0.00     0.167 HD
ATOM     57  C   UNL A   1      42.430  30.329  35.252  1.00  0.00     0.074 A 
ATOM     58  C   UNL A   1      42.774  30.887  36.544  1.00  0.00     0.031 C 
ATOM     59  C   UNL A   1      43.134  29.344  34.637  1.00  0.00     0.034 A 
BRANCH  46  60
ATOM     60  C   UNL A   1      40.872  27.726  29.082  1.00  0.00     0.023 A 
ATOM     61  C   UNL A   1      41.797  27.945  28.046  1.00  0.00     0.031 A 
ATOM     62  C   UNL A   1      39.981  26.646  28.947  1.00  0.00     0.131 A 
ATOM     63  C   UNL A   1      41.756  27.154  26.888  1.00  0.00     0.055 A 
ATOM     64  C   UNL A   1      40.001  25.808  27.829  1.00  0.00     0.041 A 
ATOM     65  F   UNL A   1      39.062  26.394  29.893  1.00  0.00    -0.206 F 
ATOM     66  C   UNL A   1      40.880  26.071  26.782  1.00  0.00     0.022 A 
BRANCH  63  67
ATOM     67  S   UNL A   1      42.757  27.655  25.461  1.00  0.00     0.124 S 
ATOM     68  O   UNL A   1      42.917  26.386  24.754  1.00  0.00    -0.237 OA
ATOM     69  O   UNL A   1      41.907  28.646  24.811  1.00  0.00    -0.237 OA
ATOM     70  O   UNL A   1      43.979  28.180  26.066  1.00  0.00    -0.744 OA
ENDBRANCH  63  67
ENDBRANCH  46  60
BRANCH  47  71
ATOM     71  C   UNL A   1      39.669  33.702  37.040  1.00  0.00     0.023 A 
ATOM     72  C   UNL A   1      38.994  33.201  38.164  1.00  0.00     0.031 A 
ATOM     73  C   UNL A   1      40.119  35.034  37.079  1.00  0.00     0.131 A 
ATOM     74  C   UNL A   1      38.745  34.038  39.262  1.00  0.00     0.055 A 
ATOM     75  C   UNL A   1      39.910  35.849  38.193  1.00  0.00     0.041 A 
ATOM     76  F   UNL A   1      40.778  35.559  36.034  1.00  0.00    -0.206 F 
ATOM     77  C   UNL A   1      39.209  35.356  39.289  1.00  0.00     0.022 A 
BRANCH  74  78
ATOM     78  S   UNL A   1      37.740  33.401  40.630  1.00  0.00     0.124 S 
ATOM     79  O   UNL A   1      36.601  32.829  39.922  1.00  0.00    -0.237 OA
ATOM     80  O   UNL A   1      38.650  32.449  41.257  1.00  0.00    -0.237 OA
ATOM     81  O   UNL A   1      37.447  34.594  41.422  1.00  0.00    -0.744 OA
ENDBRANCH  74  78
ENDBRANCH  47  71
BRANCH  59  82
ATOM     82  C   UNL A   1      44.375  28.855  35.340  1.00  0.00     0.023 A 
ATOM     83  C   UNL A   1      44.315  27.909  36.379  1.00  0.00     0.031 A 
ATOM     84  C   UNL A   1      45.635  29.368  34.984  1.00  0.00     0.131 A 
ATOM     85  C   UNL A   1      45.483  27.556  37.069  1.00  0.00     0.055 A 
ATOM     86  C   UNL A   1      46.802  28.968  35.635  1.00  0.00     0.041 A 
ATOM     87  F   UNL A   1      45.751  30.274  33.999  1.00  0.00    -0.206 F 
ATOM     88  C   UNL A   1      46.729  28.069  36.696  1.00  0.00     0.022 A 
BRANCH  85  89
ATOM     89  S   UNL A   1      45.342  26.496  38.535  1.00  0.00     0.124 S 
ATOM     90  O   UNL A   1      45.872  25.228  38.048  1.00  0.00    -0.237 OA
ATOM     91  O   UNL A   1      46.168  27.201  39.509  1.00  0.00    -0.237 OA
ATOM     92  O   UNL A   1      43.908  26.499  38.823  1.00  0.00    -0.744 OA
ENDBRANCH  85  89
ENDBRANCH  59  82
ENDBRANCH  33  34
ENDBRANCH  25  28
ENDBRANCH  23  24
ENDBRANCH  22  23
ENDBRANCH   1  22
TORSDOF 18
ENDMDL
MODEL 2
REMARK VINA RESULT:     -10.0      3.899      8.948
REMARK SMILES CN(C)C(=O)CC[NH2+]Cc1cc(C(=O)NCCCNC(=O)c2ccc(-c3c4nc(c(-c5cc(S(=O)(=O)[O-])ccc5F)c5ccc([nH]5)c(-c5cc(S(=O)(=O)[O-])ccc5F)c5nc(c(-c6cc(S(=O)(=O)[O-])ccc6F)c6ccc3[nH]6)C=C5)C=C4)cc2)cs1
REMARK SMILES IDX 16 1 15 2 13 3 14 4 12 6 10 7 11 8 86 9 85 10 9 11 8 12 7 15
REMARK SMILES IDX 6 16 4 17 1 18 2 19 3 20 5 21 17 22 18 23 19 24 20 25 21 27
REMARK SMILES IDX 22 28 23 29 84 30 24 31 83 32 25 33 26 34 27 35 77 36 28 37
REMARK SMILES IDX 82 38 76 39 78 40 29 41 81 42 75 43 74 44 30 46 62 47 42 48
REMARK SMILES IDX 61 49 43 50 46 51 60 52 79 53 44 54 45 55 59 57 80 58 47 59
REMARK SMILES IDX 31 60 32 61 40 62 33 63 39 64 41 65 38 66 34 67 35 68 36 69
REMARK SMILES IDX 37 70 63 71 64 72 72 73 65 74 71 75 73 76 70 77 66 78 67 79
REMARK SMILES IDX 68 80 69 81 48 82 49 83 57 84 50 85 56 86 58 87 55 88 51 89
REMARK SMILES IDX 52 90 53 91 54 92
REMARK H PARENT 15 5 8 13 8 14 19 26 78 45 46 56
REMARK Flexibility Score: inf
ROOT
ATOM      1  C   UNL A   1      31.356  27.933  24.210  1.00  0.00     0.118 C 
ENDROOT
BRANCH   1   2
ATOM      2  N   UNL A   1      32.358  28.212  23.190  1.00  0.00    -0.352 N 
ATOM      3  C   UNL A   1      33.243  27.392  22.535  1.00  0.00     0.252 C 
ATOM      4  O   UNL A   1      34.055  27.917  21.764  1.00  0.00    -0.269 OA
ATOM      5  H   UNL A   1      32.410  29.157  22.923  1.00  0.00     0.163 HD
BRANCH   3   6
ATOM      6  C   UNL A   1      33.265  25.956  22.793  1.00  0.00     0.051 A 
ATOM      7  C   UNL A   1      33.842  23.912  23.777  1.00  0.00     0.059 A 
ATOM      8  C   UNL A   1      33.627  25.259  23.993  1.00  0.00     0.035 A 
ATOM      9  S   UNL A   1      33.188  23.421  22.276  1.00  0.00    -0.142 S 
ATOM     10  C   UNL A   1      32.852  25.040  21.838  1.00  0.00     0.079 A 
BRANCH   7  11
ATOM     11  C   UNL A   1      34.585  22.950  24.657  1.00  0.00     0.308 C 
BRANCH  11  12
ATOM     12  N   UNL A   1      33.691  21.910  25.197  1.00  0.00    -0.341 N 
ATOM     13  H   UNL A   1      33.570  22.072  26.196  1.00  0.00     0.346 HD
ATOM     14  H   UNL A   1      32.807  21.973  24.692  1.00  0.00     0.346 HD
BRANCH  12  15
ATOM     15  C   UNL A   1      34.214  20.549  25.001  1.00  0.00     0.270 C 
BRANCH  15  16
ATOM     16  C   UNL A   1      33.256  19.635  24.239  1.00  0.00     0.161 C 
BRANCH  16  17
ATOM     17  C   UNL A   1      33.032  18.344  25.002  1.00  0.00     0.227 C 
ATOM     18  C   UNL A   1      33.346  15.937  25.254  1.00  0.00     0.146 C 
ATOM     19  N   UNL A   1      33.480  17.149  24.459  1.00  0.00    -0.349 N 
ATOM     20  C   UNL A   1      34.019  16.965  23.120  1.00  0.00     0.146 C 
ATOM     21  O   UNL A   1      32.518  18.401  26.124  1.00  0.00    -0.275 OA
ENDBRANCH  16  17
ENDBRANCH  15  16
ENDBRANCH  12  15
ENDBRANCH  11  12
ENDBRANCH   7  11
ENDBRANCH   3   6
ENDBRANCH   1   2
BRANCH   1  22
ATOM     22  C   UNL A   1      31.712  28.461  25.595  1.00  0.00     0.042 C 
BRANCH  22  23
ATOM     23  C   UNL A   1      33.017  29.247  25.663  1.00  0.00     0.118 C 
BRANCH  23  24
ATOM     24  N   UNL A   1      32.811  30.643  26.030  1.00  0.00    -0.352 N 
ATOM     25  C   UNL A   1      33.366  31.420  27.015  1.00  0.00     0.251 C 
ATOM     26  H   UNL A   1      32.155  31.114  25.467  1.00  0.00     0.163 HD
ATOM     27  O   UNL A   1      32.850  32.513  27.248  1.00  0.00    -0.269 OA
BRANCH  25  28
ATOM     28  C   UNL A   1      34.549  30.983  27.793  1.00  0.00     0.039 A 
ATOM     29  C   UNL A   1      35.596  31.893  27.981  1.00  0.00     0.014 A 
ATOM     30  C   UNL A   1      34.684  29.677  28.268  1.00  0.00     0.014 A 
ATOM     31  C   UNL A   1      36.747  31.510  28.677  1.00  0.00     0.010 A 
ATOM     32  C   UNL A   1      35.795  29.318  29.031  1.00  0.00     0.010 A 
ATOM     33  C   UNL A   1      36.846  30.225  29.231  1.00  0.00    -0.014 A 
BRANCH  33  34
ATOM     34  C   UNL A   1      38.051  29.805  29.996  1.00  0.00     0.031 A 
ATOM     35  C   UNL A   1      38.296  30.351  31.378  1.00  0.00     0.074 A 
ATOM     36  C   UNL A   1      38.949  28.980  29.425  1.00  0.00     0.049 A 
ATOM     37  N   UNL A   1      39.320  30.169  32.173  1.00  0.00    -0.248 NA
ATOM     38  C   UNL A   1      37.267  31.248  31.924  1.00  0.00     0.031 C 
ATOM     39  C   UNL A   1      38.847  28.423  28.074  1.00  0.00     0.029 A 
ATOM     40  N   UNL A   1      40.130  28.471  29.904  1.00  0.00    -0.354 N 
ATOM     41  C   UNL A   1      39.070  30.947  33.300  1.00  0.00     0.074 A 
ATOM     42  C   UNL A   1      37.825  31.644  33.058  1.00  0.00     0.031 C 
ATOM     43  C   UNL A   1      39.907  27.632  27.843  1.00  0.00     0.029 A 
ATOM     44  C   UNL A   1      40.784  27.656  29.009  1.00  0.00     0.049 A 
ATOM     45  H   UNL A   1      40.478  28.670  30.803  1.00  0.00     0.167 HD
ATOM     46  C   UNL A   1      39.801  31.054  34.439  1.00  0.00     0.034 A 
ATOM     47  C   UNL A   1      41.959  27.005  29.114  1.00  0.00     0.034 A 
ATOM     48  C   UNL A   1      41.030  30.335  34.674  1.00  0.00     0.049 A 
ATOM     49  C   UNL A   1      42.741  27.119  30.397  1.00  0.00     0.074 A 
ATOM     50  C   UNL A   1      41.828  30.331  35.805  1.00  0.00     0.029 A 
ATOM     51  N   UNL A   1      41.642  29.488  33.757  1.00  0.00    -0.354 N 
ATOM     52  N   UNL A   1      42.472  27.827  31.469  1.00  0.00    -0.248 NA
ATOM     53  C   UNL A   1      43.975  26.329  30.489  1.00  0.00     0.031 C 
ATOM     54  C   UNL A   1      42.946  29.525  35.554  1.00  0.00     0.029 A 
ATOM     55  C   UNL A   1      42.813  28.971  34.292  1.00  0.00     0.049 A 
ATOM     56  H   UNL A   1      41.294  29.284  32.859  1.00  0.00     0.167 HD
ATOM     57  C   UNL A   1      43.488  27.543  32.376  1.00  0.00     0.074 A 
ATOM     58  C   UNL A   1      44.365  26.588  31.728  1.00  0.00     0.031 C 
ATOM     59  C   UNL A   1      43.681  28.024  33.630  1.00  0.00     0.034 A 
BRANCH  46  60
ATOM     60  C   UNL A   1      39.292  32.002  35.501  1.00  0.00     0.023 A 
ATOM     61  C   UNL A   1      39.694  33.349  35.543  1.00  0.00     0.031 A 
ATOM     62  C   UNL A   1      38.426  31.546  36.510  1.00  0.00     0.131 A 
ATOM     63  C   UNL A   1      39.299  34.167  36.612  1.00  0.00     0.055 A 
ATOM     64  C   UNL A   1      37.968  32.388  37.527  1.00  0.00     0.041 A 
ATOM     65  F   UNL A   1      38.021  30.266  36.537  1.00  0.00    -0.206 F 
ATOM     66  C   UNL A   1      38.419  33.703  37.592  1.00  0.00     0.022 A 
BRANCH  63  67
ATOM     67  S   UNL A   1      40.073  35.798  36.787  1.00  0.00     0.124 S 
ATOM     68  O   UNL A   1      39.650  36.459  35.555  1.00  0.00    -0.237 OA
ATOM     69  O   UNL A   1      39.477  36.301  38.020  1.00  0.00    -0.237 OA
ATOM     70  O   UNL A   1      41.501  35.494  36.864  1.00  0.00    -0.744 OA
ENDBRANCH  63  67
ENDBRANCH  46  60
BRANCH  47  71
ATOM     71  C   UNL A   1      42.468  26.184  27.981  1.00  0.00     0.023 A 
ATOM     72  C   UNL A   1      42.000  24.878  27.768  1.00  0.00     0.031 A 
ATOM     73  C   UNL A   1      43.455  26.682  27.112  1.00  0.00     0.131 A 
ATOM     74  C   UNL A   1      42.551  24.096  26.740  1.00  0.00     0.055 A 
ATOM     75  C   UNL A   1      43.966  25.917  26.061  1.00  0.00     0.041 A 
ATOM     76  F   UNL A   1      43.930  27.928  27.267  1.00  0.00    -0.206 F 
ATOM     77  C   UNL A   1      43.522  24.611  25.879  1.00  0.00     0.022 A 
BRANCH  74  78
ATOM     78  S   UNL A   1      42.030  22.366  26.592  1.00  0.00     0.124 S 
ATOM     79  O   UNL A   1      42.531  21.795  27.836  1.00  0.00    -0.237 OA
ATOM     80  O   UNL A   1      40.580  22.495  26.483  1.00  0.00    -0.237 OA
ATOM     81  O   UNL A   1      42.705  21.910  25.378  1.00  0.00    -0.744 OA
ENDBRANCH  74  78
ENDBRANCH  47  71
BRANCH  59  82
ATOM     82  C   UNL A   1      44.859  27.476  34.396  1.00  0.00     0.023 A 
ATOM     83  C   UNL A   1      44.751  26.327  35.200  1.00  0.00     0.031 A 
ATOM     84  C   UNL A   1      46.101  28.133  34.344  1.00  0.00     0.131 A 
ATOM     85  C   UNL A   1      45.846  25.910  35.971  1.00  0.00     0.055 A 
ATOM     86  C   UNL A   1      47.204  27.678  35.067  1.00  0.00     0.041 A 
ATOM     87  F   UNL A   1      46.260  29.235  33.592  1.00  0.00    -0.206 F 
ATOM     88  C   UNL A   1      47.076  26.570  35.899  1.00  0.00     0.022 A 
BRANCH  85  89
ATOM     89  S   UNL A   1      45.612  24.554  37.153  1.00  0.00     0.124 S 
ATOM     90  O   UNL A   1      45.015  25.242  38.293  1.00  0.00    -0.237 OA
ATOM     91  O   UNL A   1      44.730  23.652  36.421  1.00  0.00    -0.237 OA
ATOM     92  O   UNL A   1      46.967  24.052  37.373  1.00  0.00    -0.744 OA
ENDBRANCH  85  89
ENDBRANCH  59  82
ENDBRANCH  33  34
ENDBRANCH  25  28
ENDBRANCH  23  24
ENDBRANCH  22  23
ENDBRANCH   1  22
TORSDOF 18
ENDMDL
MODEL 3
REMARK VINA RESULT:      -9.9      5.088      8.225
REMARK SMILES CN(C)C(=O)CC[NH2+]Cc1cc(C(=O)NCCCNC(=O)c2ccc(-c3c4nc(c(-c5cc(S(=O)(=O)[O-])ccc5F)c5ccc([nH]5)c(-c5cc(S(=O)(=O)[O-])ccc5F)c5nc(c(-c6cc(S(=O)(=O)[O-])ccc6F)c6ccc3[nH]6)C=C5)C=C4)cc2)cs1
REMARK SMILES IDX 16 1 15 2 13 3 14 4 12 6 10 7 11 8 86 9 85 10 9 11 8 12 7 15
REMARK SMILES IDX 6 16 4 17 1 18 2 19 3 20 5 21 17 22 18 23 19 24 20 25 21 27
REMARK SMILES IDX 22 28 23 29 84 30 24 31 83 32 25 33 26 34 27 35 77 36 28 37
REMARK SMILES IDX 82 38 76 39 78 40 29 41 81 42 75 43 74 44 30 46 62 47 42 48
REMARK SMILES IDX 61 49 43 50 46 51 60 52 79 53 44 54 45 55 59 57 80 58 47 59
REMARK SMILES IDX 31 60 32 61 40 62 33 63 39 64 41 65 38 66 34 67 35 68 36 69
REMARK SMILES IDX 37 70 63 71 64 72 72 73 65 74 71 75 73 76 70 77 66 78 67 79
REMARK SMILES IDX 68 80 69 81 48 82 49 83 57 84 50 85 56 86 58 87 55 88 51 89
REMARK SMILES IDX 52 90 53 91 54 92
REMARK H PARENT 15 5 8 13 8 14 19 26 78 45 46 56
REMARK Flexibility Score: inf
ROOT
ATOM      1  C   UNL A   1      35.086  22.958  23.561  1.00  0.00     0.118 C 
ENDROOT
BRANCH   1   2
ATOM      2  N   UNL A   1      34.467  21.840  24.259  1.00  0.00    -0.352 N 
ATOM      3  C   UNL A   1      33.320  21.757  25.009  1.00  0.00     0.252 C 
ATOM      4  O   UNL A   1      33.072  20.682  25.569  1.00  0.00    -0.269 OA
ATOM      5  H   UNL A   1      34.959  20.992  24.179  1.00  0.00     0.163 HD
BRANCH   3   6
ATOM      6  C   UNL A   1      32.458  22.920  25.192  1.00  0.00     0.051 A 
ATOM      7  C   UNL A   1      30.953  24.638  24.681  1.00  0.00     0.059 A 
ATOM      8  C   UNL A   1      31.321  23.333  24.422  1.00  0.00     0.035 A 
ATOM      9  S   UNL A   1      31.665  25.197  26.130  1.00  0.00    -0.142 S 
ATOM     10  C   UNL A   1      32.633  23.793  26.254  1.00  0.00     0.079 A 
BRANCH   7  11
ATOM     11  C   UNL A   1      30.096  25.533  23.835  1.00  0.00     0.308 C 
BRANCH  11  12
ATOM     12  N   UNL A   1      30.129  26.927  24.316  1.00  0.00    -0.341 N 
ATOM     13  H   UNL A   1      29.395  27.046  25.014  1.00  0.00     0.346 HD
ATOM     14  H   UNL A   1      31.056  27.094  24.706  1.00  0.00     0.346 HD
BRANCH  12  15
ATOM     15  C   UNL A   1      29.918  27.908  23.240  1.00  0.00     0.270 C 
BRANCH  15  16
ATOM     16  C   UNL A   1      30.989  28.997  23.196  1.00  0.00     0.161 C 
BRANCH  16  17
ATOM     17  C   UNL A   1      32.243  28.539  23.915  1.00  0.00     0.227 C 
ATOM     18  C   UNL A   1      33.721  28.577  25.856  1.00  0.00     0.146 C 
ATOM     19  N   UNL A   1      32.569  29.104  25.138  1.00  0.00    -0.349 N 
ATOM     20  C   UNL A   1      31.906  30.239  25.761  1.00  0.00     0.146 C 
ATOM     21  O   UNL A   1      32.905  27.620  23.420  1.00  0.00    -0.275 OA
ENDBRANCH  16  17
ENDBRANCH  15  16
ENDBRANCH  12  15
ENDBRANCH  11  12
ENDBRANCH   7  11
ENDBRANCH   3   6
ENDBRANCH   1   2
BRANCH   1  22
ATOM     22  C   UNL A   1      36.469  23.330  24.080  1.00  0.00     0.042 C 
BRANCH  22  23
ATOM     23  C   UNL A   1      36.638  23.207  25.591  1.00  0.00     0.118 C 
BRANCH  23  24
ATOM     24  N   UNL A   1      37.725  22.309  25.962  1.00  0.00    -0.352 N 
ATOM     25  C   UNL A   1      38.989  22.550  26.436  1.00  0.00     0.251 C 
ATOM     26  H   UNL A   1      37.512  21.354  25.853  1.00  0.00     0.163 HD
ATOM     27  O   UNL A   1      39.787  21.614  26.459  1.00  0.00    -0.269 OA
BRANCH  25  28
ATOM     28  C   UNL A   1      39.411  23.889  26.913  1.00  0.00     0.039 A 
ATOM     29  C   UNL A   1      39.979  24.776  25.991  1.00  0.00     0.014 A 
ATOM     30  C   UNL A   1      39.334  24.256  28.258  1.00  0.00     0.014 A 
ATOM     31  C   UNL A   1      40.425  26.035  26.407  1.00  0.00     0.010 A 
ATOM     32  C   UNL A   1      39.703  25.540  28.658  1.00  0.00     0.010 A 
ATOM     33  C   UNL A   1      40.267  26.439  27.741  1.00  0.00    -0.014 A 
BRANCH  33  34
ATOM     34  C   UNL A   1      40.712  27.782  28.199  1.00  0.00     0.031 A 
ATOM     35  C   UNL A   1      42.178  28.129  28.212  1.00  0.00     0.074 A 
ATOM     36  C   UNL A   1      39.803  28.666  28.655  1.00  0.00     0.049 A 
ATOM     37  N   UNL A   1      42.771  29.212  28.644  1.00  0.00    -0.248 NA
ATOM     38  C   UNL A   1      43.101  27.105  27.700  1.00  0.00     0.031 C 
ATOM     39  C   UNL A   1      38.361  28.429  28.736  1.00  0.00     0.029 A 
ATOM     40  N   UNL A   1      39.958  29.939  29.143  1.00  0.00    -0.354 N 
ATOM     41  C   UNL A   1      44.136  28.991  28.480  1.00  0.00     0.074 A 
ATOM     42  C   UNL A   1      44.280  27.647  27.961  1.00  0.00     0.031 C 
ATOM     43  C   UNL A   1      37.761  29.528  29.221  1.00  0.00     0.029 A 
ATOM     44  C   UNL A   1      38.776  30.532  29.523  1.00  0.00     0.049 A 
ATOM     45  H   UNL A   1      40.832  30.387  29.215  1.00  0.00     0.167 HD
ATOM     46  C   UNL A   1      45.170  29.837  28.720  1.00  0.00     0.034 A 
ATOM     47  C   UNL A   1      38.539  31.746  30.058  1.00  0.00     0.034 A 
ATOM     48  C   UNL A   1      45.007  31.182  29.217  1.00  0.00     0.049 A 
ATOM     49  C   UNL A   1      39.699  32.677  30.293  1.00  0.00     0.074 A 
ATOM     50  C   UNL A   1      45.976  32.140  29.455  1.00  0.00     0.029 A 
ATOM     51  N   UNL A   1      43.789  31.761  29.555  1.00  0.00    -0.354 N 
ATOM     52  N   UNL A   1      40.980  32.468  30.096  1.00  0.00    -0.248 NA
ATOM     53  C   UNL A   1      39.377  34.015  30.805  1.00  0.00     0.031 C 
ATOM     54  C   UNL A   1      45.353  33.278  29.983  1.00  0.00     0.029 A 
ATOM     55  C   UNL A   1      43.987  33.056  30.013  1.00  0.00     0.049 A 
ATOM     56  H   UNL A   1      42.914  31.317  29.481  1.00  0.00     0.167 HD
ATOM     57  C   UNL A   1      41.614  33.660  30.430  1.00  0.00     0.074 A 
ATOM     58  C   UNL A   1      40.573  34.586  30.827  1.00  0.00     0.031 C 
ATOM     59  C   UNL A   1      42.937  33.965  30.411  1.00  0.00     0.034 A 
BRANCH  46  60
ATOM     60  C   UNL A   1      46.565  29.313  28.468  1.00  0.00     0.023 A 
ATOM     61  C   UNL A   1      47.037  29.063  27.167  1.00  0.00     0.031 A 
ATOM     62  C   UNL A   1      47.423  29.021  29.543  1.00  0.00     0.131 A 
ATOM     63  C   UNL A   1      48.291  28.461  26.978  1.00  0.00     0.055 A 
ATOM     64  C   UNL A   1      48.704  28.500  29.345  1.00  0.00     0.041 A 
ATOM     65  F   UNL A   1      47.024  29.220  30.810  1.00  0.00    -0.206 F 
ATOM     66  C   UNL A   1      49.138  28.201  28.057  1.00  0.00     0.022 A 
BRANCH  63  67
ATOM     67  S   UNL A   1      48.733  27.885  25.316  1.00  0.00     0.124 S 
ATOM     68  O   UNL A   1      48.936  26.456  25.544  1.00  0.00    -0.237 OA
ATOM     69  O   UNL A   1      47.558  28.247  24.532  1.00  0.00    -0.237 OA
ATOM     70  O   UNL A   1      49.947  28.637  25.004  1.00  0.00    -0.744 OA
ENDBRANCH  63  67
ENDBRANCH  46  60
BRANCH  47  71
ATOM     71  C   UNL A   1      37.149  32.157  30.403  1.00  0.00     0.023 A 
ATOM     72  C   UNL A   1      36.278  32.654  29.420  1.00  0.00     0.031 A 
ATOM     73  C   UNL A   1      36.681  32.088  31.727  1.00  0.00     0.131 A 
ATOM     74  C   UNL A   1      35.000  33.107  29.783  1.00  0.00     0.055 A 
ATOM     75  C   UNL A   1      35.392  32.495  32.075  1.00  0.00     0.041 A 
ATOM     76  F   UNL A   1      37.472  31.611  32.702  1.00  0.00    -0.206 F 
ATOM     77  C   UNL A   1      34.547  33.020  31.102  1.00  0.00     0.022 A 
BRANCH  74  78
ATOM     78  S   UNL A   1      33.961  33.881  28.514  1.00  0.00     0.124 S 
ATOM     79  O   UNL A   1      32.908  34.487  29.320  1.00  0.00    -0.237 OA
ATOM     80  O   UNL A   1      34.896  34.804  27.879  1.00  0.00    -0.237 OA
ATOM     81  O   UNL A   1      33.541  32.753  27.684  1.00  0.00    -0.744 OA
ENDBRANCH  74  78
ENDBRANCH  47  71
BRANCH  59  82
ATOM     82  C   UNL A   1      43.315  35.378  30.779  1.00  0.00     0.023 A 
ATOM     83  C   UNL A   1      43.463  35.781  32.119  1.00  0.00     0.031 A 
ATOM     84  C   UNL A   1      43.497  36.344  29.774  1.00  0.00     0.131 A 
ATOM     85  C   UNL A   1      43.719  37.127  32.418  1.00  0.00     0.055 A 
ATOM     86  C   UNL A   1      43.811  37.670  30.076  1.00  0.00     0.041 A 
ATOM     87  F   UNL A   1      43.367  36.014  28.478  1.00  0.00    -0.206 F 
ATOM     88  C   UNL A   1      43.907  38.071  31.405  1.00  0.00     0.022 A 
BRANCH  85  89
ATOM     89  S   UNL A   1      43.696  37.651  34.155  1.00  0.00     0.124 S 
ATOM     90  O   UNL A   1      42.900  38.872  34.095  1.00  0.00    -0.237 OA
ATOM     91  O   UNL A   1      43.068  36.512  34.816  1.00  0.00    -0.237 OA
ATOM     92  O   UNL A   1      45.110  37.849  34.472  1.00  0.00    -0.744 OA
ENDBRANCH  85  89
ENDBRANCH  59  82
ENDBRANCH  33  34
ENDBRANCH  25  28
ENDBRANCH  23  24
ENDBRANCH  22  23
ENDBRANCH   1  22
TORSDOF 18
ENDMDL
