MODEL 1
REMARK VINA RESULT:     -12.6      0.000      0.000
REMARK SMILES C[C@H](C(=O)NC1CCCC1)[N@@H+]1CCn2nc(CCC(=O)NCCCNC(=O)c3ccc(-c4c5nc(c(-c6cc(S(=O)(=O)[O-])ccc6F)c6ccc([nH]6)c(-c6cc(S(=O)(=O)[O-])ccc6F)c6nc(c(-c7cc(S(=O)(=O)[O-])ccc7F)c7ccc4[nH]7)C=C6)C=C5)cc3)cc2C1
REMARK SMILES IDX 22 1 21 2 19 3 20 4 18 6 17 7 16 8 11 9 12 10 93 11 13 13
REMARK SMILES IDX 92 14 14 15 91 16 15 17 2 18 1 19 3 20 4 21 5 22 6 24 7 25
REMARK SMILES IDX 10 26 8 27 9 28 23 29 24 30 25 31 26 32 27 34 28 35 29 36
REMARK SMILES IDX 90 37 30 38 89 39 31 40 32 41 33 42 83 43 34 44 88 45 82 46
REMARK SMILES IDX 84 47 35 48 87 49 81 50 80 51 36 53 68 54 48 55 67 56 49 57
REMARK SMILES IDX 52 58 66 59 85 60 50 61 51 62 65 64 86 65 53 66 37 67 38 68
REMARK SMILES IDX 46 69 39 70 45 71 47 72 44 73 40 74 41 75 42 76 43 77 69 78
REMARK SMILES IDX 70 79 78 80 71 81 77 82 79 83 76 84 72 85 73 86 74 87 75 88
REMARK SMILES IDX 54 89 55 90 63 91 56 92 62 93 64 94 61 95 57 96 58 97 59 98
REMARK SMILES IDX 60 99
REMARK H PARENT 21 5 11 12 5 23 25 33 84 52 52 63
REMARK Flexibility Score: inf
ROOT
ATOM      1  C   UNL A   1      33.320  35.111  30.418  1.00  0.00     0.117 C 
ENDROOT
BRANCH   1   2
ATOM      2  N   UNL A   1      33.999  35.220  29.144  1.00  0.00    -0.356 N 
ATOM      3  C   UNL A   1      34.323  34.244  28.252  1.00  0.00     0.220 C 
ATOM      4  O   UNL A   1      35.027  34.539  27.284  1.00  0.00    -0.275 OA
ATOM      5  H   UNL A   1      34.266  36.132  28.886  1.00  0.00     0.163 HD
BRANCH   3   6
ATOM      6  C   UNL A   1      33.758  32.843  28.390  1.00  0.00     0.106 C 
BRANCH   6   7
ATOM      7  C   UNL A   1      34.761  31.753  28.027  1.00  0.00     0.068 C 
BRANCH   7   8
ATOM      8  C   UNL A   1      34.182  30.608  27.261  1.00  0.00     0.063 A 
ATOM      9  N   UNL A   1      32.981  27.457  24.343  1.00  0.00    -0.318 N 
ATOM     10  C   UNL A   1      31.719  28.161  24.348  1.00  0.00     0.287 C 
ATOM     11  C   UNL A   1      33.626  27.323  25.645  1.00  0.00     0.319 C 
ATOM     12  H   UNL A   1      32.474  26.648  23.984  1.00  0.00     0.349 HD
ATOM     13  C   UNL A   1      31.565  29.333  25.343  1.00  0.00     0.206 C 
ATOM     14  C   UNL A   1      33.765  28.659  26.272  1.00  0.00     0.093 A 
ATOM     15  N   UNL A   1      32.735  29.538  26.161  1.00  0.00    -0.258 N 
ATOM     16  C   UNL A   1      34.739  29.327  26.983  1.00  0.00     0.055 A 
ATOM     17  N   UNL A   1      32.941  30.710  26.775  1.00  0.00    -0.177 NA
BRANCH   9  18
ATOM     18  C   UNL A   1      33.791  27.161  23.158  1.00  0.00     0.271 C 
ATOM     19  C   UNL A   1      34.195  28.351  22.288  1.00  0.00     0.086 C 
BRANCH  18  20
ATOM     20  C   UNL A   1      33.465  25.953  22.254  1.00  0.00     0.278 C 
ATOM     21  O   UNL A   1      33.263  26.164  21.046  1.00  0.00    -0.268 OA
ATOM     22  N   UNL A   1      33.068  24.733  22.695  1.00  0.00    -0.348 N 
ATOM     23  H   UNL A   1      32.139  24.524  22.440  1.00  0.00     0.163 HD
BRANCH  22  24
ATOM     24  C   UNL A   1      33.698  23.646  23.466  1.00  0.00     0.082 C 
ATOM     25  C   UNL A   1      35.047  24.198  24.864  1.00  0.00     0.025 C 
ATOM     26  C   UNL A   1      32.228  22.650  24.382  1.00  0.00     0.025 C 
ATOM     27  C   UNL A   1      34.394  23.412  26.681  1.00  0.00     0.002 C 
ATOM     28  C   UNL A   1      32.580  22.603  26.363  1.00  0.00     0.002 C 
ENDBRANCH  22  24
ENDBRANCH  18  20
ENDBRANCH   9  18
ENDBRANCH   7   8
ENDBRANCH   6   7
ENDBRANCH   3   6
ENDBRANCH   1   2
BRANCH   1  29
ATOM     29  C   UNL A   1      34.297  34.917  31.560  1.00  0.00     0.042 C 
BRANCH  29  30
ATOM     30  C   UNL A   1      33.871  33.851  32.591  1.00  0.00     0.118 C 
BRANCH  30  31
ATOM     31  N   UNL A   1      35.035  33.126  33.365  1.00  0.00    -0.352 N 
ATOM     32  C   UNL A   1      36.256  32.079  33.009  1.00  0.00     0.251 C 
ATOM     33  H   UNL A   1      35.032  33.362  34.321  1.00  0.00     0.163 HD
ATOM     34  O   UNL A   1      36.720  32.043  34.172  1.00  0.00    -0.269 OA
BRANCH  32  35
ATOM     35  C   UNL A   1      36.773  31.226  31.091  1.00  0.00     0.039 A 
ATOM     36  C   UNL A   1      36.511  29.930  30.498  1.00  0.00     0.014 A 
ATOM     37  C   UNL A   1      37.700  31.689  30.064  1.00  0.00     0.014 A 
ATOM     38  C   UNL A   1      37.577  29.104  30.123  1.00  0.00     0.010 A 
ATOM     39  C   UNL A   1      38.882  30.999  29.839  1.00  0.00     0.010 A 
ATOM     40  C   UNL A   1      38.839  29.659  30.108  1.00  0.00    -0.014 A 
BRANCH  40  41
ATOM     41  C   UNL A   1      40.007  28.825  30.000  1.00  0.00     0.031 A 
ATOM     42  C   UNL A   1      40.465  28.552  31.366  1.00  0.00     0.074 A 
ATOM     43  C   UNL A   1      40.599  28.347  28.888  1.00  0.00     0.049 A 
ATOM     44  N   UNL A   1      41.301  29.288  32.016  1.00  0.00    -0.248 NA
ATOM     45  C   UNL A   1      39.625  27.687  32.211  1.00  0.00     0.031 C 
ATOM     46  C   UNL A   1      40.182  28.346  27.486  1.00  0.00     0.029 A 
ATOM     47  N   UNL A   1      41.781  27.671  28.835  1.00  0.00    -0.354 N 
ATOM     48  C   UNL A   1      41.282  28.769  33.292  1.00  0.00     0.074 A 
ATOM     49  C   UNL A   1      40.039  28.064  33.421  1.00  0.00     0.031 C 
ATOM     50  C   UNL A   1      40.975  27.506  26.774  1.00  0.00     0.029 A 
ATOM     51  C   UNL A   1      42.037  27.015  27.635  1.00  0.00     0.049 A 
ATOM     52  H   UNL A   1      42.409  27.648  29.593  1.00  0.00     0.167 HD
ATOM     53  C   UNL A   1      42.439  28.641  33.984  1.00  0.00     0.034 A 
ATOM     54  C   UNL A   1      43.010  26.080  27.432  1.00  0.00     0.034 A 
ATOM     55  C   UNL A   1      43.474  29.496  33.437  1.00  0.00     0.049 A 
ATOM     56  C   UNL A   1      44.058  26.355  28.461  1.00  0.00     0.074 A 
ATOM     57  C   UNL A   1      43.548  30.857  33.193  1.00  0.00     0.029 A 
ATOM     58  N   UNL A   1      44.427  28.924  32.619  1.00  0.00    -0.354 N 
ATOM     59  N   UNL A   1      44.755  27.465  28.475  1.00  0.00    -0.248 NA
ATOM     60  C   UNL A   1      43.936  25.695  29.756  1.00  0.00     0.031 C 
ATOM     61  C   UNL A   1      44.159  30.972  31.909  1.00  0.00     0.029 A 
ATOM     62  C   UNL A   1      44.523  29.694  31.478  1.00  0.00     0.049 A 
ATOM     63  H   UNL A   1      44.948  28.112  32.815  1.00  0.00     0.167 HD
ATOM     64  C   UNL A   1      44.789  27.863  29.805  1.00  0.00     0.074 A 
ATOM     65  C   UNL A   1      44.325  26.695  30.558  1.00  0.00     0.031 C 
ATOM     66  C   UNL A   1      44.886  29.181  30.163  1.00  0.00     0.034 A 
BRANCH  53  67
ATOM     67  C   UNL A   1      42.700  27.454  34.865  1.00  0.00     0.023 A 
ATOM     68  C   UNL A   1      43.484  26.428  34.331  1.00  0.00     0.031 A 
ATOM     69  C   UNL A   1      42.026  27.159  36.080  1.00  0.00     0.131 A 
ATOM     70  C   UNL A   1      43.516  25.170  34.948  1.00  0.00     0.055 A 
ATOM     71  C   UNL A   1      42.128  25.934  36.731  1.00  0.00     0.041 A 
ATOM     72  F   UNL A   1      41.149  27.989  36.656  1.00  0.00    -0.206 F 
ATOM     73  C   UNL A   1      42.854  24.917  36.149  1.00  0.00     0.022 A 
BRANCH  70  74
ATOM     74  S   UNL A   1      44.297  23.814  34.051  1.00  0.00     0.124 S 
ATOM     75  O   UNL A   1      43.801  22.653  34.782  1.00  0.00    -0.237 OA
ATOM     76  O   UNL A   1      43.766  24.004  32.705  1.00  0.00    -0.237 OA
ATOM     77  O   UNL A   1      45.724  24.087  34.205  1.00  0.00    -0.744 OA
ENDBRANCH  70  74
ENDBRANCH  53  67
BRANCH  54  78
ATOM     78  C   UNL A   1      42.819  24.762  26.739  1.00  0.00     0.023 A 
ATOM     79  C   UNL A   1      43.808  24.134  25.943  1.00  0.00     0.031 A 
ATOM     80  C   UNL A   1      41.680  23.976  27.040  1.00  0.00     0.131 A 
ATOM     81  C   UNL A   1      43.625  22.801  25.485  1.00  0.00     0.055 A 
ATOM     82  C   UNL A   1      41.504  22.668  26.583  1.00  0.00     0.041 A 
ATOM     83  F   UNL A   1      40.722  24.424  27.866  1.00  0.00    -0.206 F 
ATOM     84  C   UNL A   1      42.480  22.071  25.808  1.00  0.00     0.022 A 
BRANCH  81  85
ATOM     85  S   UNL A   1      44.915  21.950  24.508  1.00  0.00     0.124 S 
ATOM     86  O   UNL A   1      44.261  20.696  24.153  1.00  0.00    -0.237 OA
ATOM     87  O   UNL A   1      45.153  22.889  23.417  1.00  0.00    -0.237 OA
ATOM     88  O   UNL A   1      46.028  21.815  25.450  1.00  0.00    -0.744 OA
ENDBRANCH  81  85
ENDBRANCH  54  78
BRANCH  66  89
ATOM     89  C   UNL A   1      45.202  30.213  29.087  1.00  0.00     0.023 A 
ATOM     90  C   UNL A   1      46.502  30.598  28.674  1.00  0.00     0.031 A 
ATOM     91  C   UNL A   1      44.118  30.724  28.349  1.00  0.00     0.131 A 
ATOM     92  C   UNL A   1      46.670  31.462  27.567  1.00  0.00     0.055 A 
ATOM     93  C   UNL A   1      44.289  31.557  27.244  1.00  0.00     0.041 A 
ATOM     94  F   UNL A   1      42.859  30.381  28.669  1.00  0.00    -0.206 F 
ATOM     95  C   UNL A   1      45.566  31.934  26.851  1.00  0.00     0.022 A 
BRANCH  92  96
ATOM     96  S   UNL A   1      48.332  32.000  27.038  1.00  0.00     0.124 S 
ATOM     97  O   UNL A   1      48.930  30.780  26.510  1.00  0.00    -0.237 OA
ATOM     98  O   UNL A   1      48.030  33.041  26.059  1.00  0.00    -0.237 OA
ATOM     99  O   UNL A   1      48.943  32.491  28.275  1.00  0.00    -0.744 OA
ENDBRANCH  92  96
ENDBRANCH  66  89
ENDBRANCH  40  41
ENDBRANCH  32  35
ENDBRANCH  30  31
ENDBRANCH  29  30
ENDBRANCH   1  29
TORSDOF 18
ENDMDL
MODEL 2
REMARK VINA RESULT:     -12.2      3.103      7.935
REMARK SMILES C[C@H](C(=O)NC1CCCC1)[N@@H+]1CCn2nc(CCC(=O)NCCCNC(=O)c3ccc(-c4c5nc(c(-c6cc(S(=O)(=O)[O-])ccc6F)c6ccc([nH]6)c(-c6cc(S(=O)(=O)[O-])ccc6F)c6nc(c(-c7cc(S(=O)(=O)[O-])ccc7F)c7ccc4[nH]7)C=C6)C=C5)cc3)cc2C1
REMARK SMILES IDX 22 1 21 2 19 3 20 4 18 6 17 7 16 8 11 9 12 10 93 11 13 13
REMARK SMILES IDX 92 14 14 15 91 16 15 17 2 18 1 19 3 20 4 21 5 22 6 24 7 25
REMARK SMILES IDX 10 26 8 27 9 28 23 29 24 30 25 31 26 32 27 34 28 35 29 36
REMARK SMILES IDX 90 37 30 38 89 39 31 40 32 41 33 42 83 43 34 44 88 45 82 46
REMARK SMILES IDX 84 47 35 48 87 49 81 50 80 51 36 53 68 54 48 55 67 56 49 57
REMARK SMILES IDX 52 58 66 59 85 60 50 61 51 62 65 64 86 65 53 66 37 67 38 68
REMARK SMILES IDX 46 69 39 70 45 71 47 72 44 73 40 74 41 75 42 76 43 77 69 78
REMARK SMILES IDX 70 79 78 80 71 81 77 82 79 83 76 84 72 85 73 86 74 87 75 88
REMARK SMILES IDX 54 89 55 90 63 91 56 92 62 93 64 94 61 95 57 96 58 97 59 98
REMARK SMILES IDX 60 99
REMARK H PARENT 21 5 11 12 5 23 25 33 84 52 52 63
REMARK Flexibility Score: inf
ROOT
ATOM      1  C   UNL A   1      34.282  29.955  26.973  1.00  0.00     0.117 C 
ENDROOT
BRANCH   1   2
ATOM      2  N   UNL A   1      33.274  30.108  25.945  1.00  0.00    -0.356 N 
ATOM      3  C   UNL A   1      32.208  29.312  25.656  1.00  0.00     0.220 C 
ATOM      4  O   UNL A   1      31.548  29.554  24.644  1.00  0.00    -0.275 OA
ATOM      5  H   UNL A   1      33.375  30.902  25.371  1.00  0.00     0.163 HD
BRANCH   3   6
ATOM      6  C   UNL A   1      31.782  28.206  26.603  1.00  0.00     0.106 C 
BRANCH   6   7
ATOM      7  C   UNL A   1      30.855  27.184  25.954  1.00  0.00     0.068 C 
BRANCH   7   8
ATOM      8  C   UNL A   1      31.553  26.012  25.344  1.00  0.00     0.063 A 
ATOM      9  N   UNL A   1      33.979  22.416  24.312  1.00  0.00    -0.318 N 
ATOM     10  C   UNL A   1      34.720  23.350  23.495  1.00  0.00     0.287 C 
ATOM     11  C   UNL A   1      32.532  22.595  24.307  1.00  0.00     0.319 C 
ATOM     12  H   UNL A   1      34.364  21.674  23.728  1.00  0.00     0.349 HD
ATOM     13  C   UNL A   1      34.182  24.795  23.405  1.00  0.00     0.206 C 
ATOM     14  C   UNL A   1      32.201  23.994  24.666  1.00  0.00     0.093 A 
ATOM     15  N   UNL A   1      32.966  24.994  24.155  1.00  0.00    -0.258 N 
ATOM     16  C   UNL A   1      31.264  24.622  25.459  1.00  0.00     0.055 A 
ATOM     17  N   UNL A   1      32.581  26.224  24.517  1.00  0.00    -0.177 NA
BRANCH   9  18
ATOM     18  C   UNL A   1      34.546  21.550  25.349  1.00  0.00     0.271 C 
ATOM     19  C   UNL A   1      35.629  20.565  24.905  1.00  0.00     0.086 C 
BRANCH  18  20
ATOM     20  C   UNL A   1      33.643  20.875  26.403  1.00  0.00     0.278 C 
ATOM     21  O   UNL A   1      33.432  21.480  27.468  1.00  0.00    -0.268 OA
ATOM     22  N   UNL A   1      33.309  19.560  26.417  1.00  0.00    -0.348 N 
ATOM     23  H   UNL A   1      33.695  19.082  27.188  1.00  0.00     0.163 HD
BRANCH  22  24
ATOM     24  C   UNL A   1      32.506  18.677  25.552  1.00  0.00     0.082 C 
ATOM     25  C   UNL A   1      32.357  19.211  23.610  1.00  0.00     0.025 C 
ATOM     26  C   UNL A   1      33.340  16.863  25.634  1.00  0.00     0.025 C 
ATOM     27  C   UNL A   1      33.049  17.600  22.483  1.00  0.00     0.002 C 
ATOM     28  C   UNL A   1      33.786  16.243  23.771  1.00  0.00     0.002 C 
ENDBRANCH  22  24
ENDBRANCH  18  20
ENDBRANCH   9  18
ENDBRANCH   7   8
ENDBRANCH   6   7
ENDBRANCH   3   6
ENDBRANCH   1   2
BRANCH   1  29
ATOM     29  C   UNL A   1      34.312  31.145  27.911  1.00  0.00     0.042 C 
BRANCH  29  30
ATOM     30  C   UNL A   1      35.541  32.062  27.741  1.00  0.00     0.118 C 
BRANCH  30  31
ATOM     31  N   UNL A   1      36.633  31.980  28.873  1.00  0.00    -0.352 N 
ATOM     32  C   UNL A   1      37.942  31.044  29.227  1.00  0.00     0.251 C 
ATOM     33  H   UNL A   1      36.496  32.678  29.555  1.00  0.00     0.163 HD
ATOM     34  O   UNL A   1      38.254  31.671  30.265  1.00  0.00    -0.269 OA
BRANCH  32  35
ATOM     35  C   UNL A   1      38.741  29.381  28.102  1.00  0.00     0.039 A 
ATOM     36  C   UNL A   1      38.884  27.972  28.412  1.00  0.00     0.014 A 
ATOM     37  C   UNL A   1      39.527  29.354  26.872  1.00  0.00     0.014 A 
ATOM     38  C   UNL A   1      40.153  27.384  28.430  1.00  0.00     0.010 A 
ATOM     39  C   UNL A   1      40.863  28.989  26.915  1.00  0.00     0.010 A 
ATOM     40  C   UNL A   1      41.201  28.114  27.910  1.00  0.00    -0.014 A 
BRANCH  40  41
ATOM     41  C   UNL A   1      42.563  27.705  28.132  1.00  0.00     0.031 A 
ATOM     42  C   UNL A   1      42.770  26.475  27.360  1.00  0.00     0.074 A 
ATOM     43  C   UNL A   1      43.511  28.304  28.878  1.00  0.00     0.049 A 
ATOM     44  N   UNL A   1      42.555  25.286  27.811  1.00  0.00    -0.248 NA
ATOM     45  C   UNL A   1      42.783  26.579  25.891  1.00  0.00     0.031 C 
ATOM     46  C   UNL A   1      43.549  29.608  29.540  1.00  0.00     0.029 A 
ATOM     47  N   UNL A   1      44.746  27.804  29.161  1.00  0.00    -0.354 N 
ATOM     48  C   UNL A   1      42.693  24.478  26.704  1.00  0.00     0.074 A 
ATOM     49  C   UNL A   1      42.487  25.323  25.562  1.00  0.00     0.031 C 
ATOM     50  C   UNL A   1      44.817  29.881  29.938  1.00  0.00     0.029 A 
ATOM     51  C   UNL A   1      45.653  28.720  29.685  1.00  0.00     0.049 A 
ATOM     52  H   UNL A   1      44.980  26.860  29.005  1.00  0.00     0.167 HD
ATOM     53  C   UNL A   1      43.333  23.290  26.813  1.00  0.00     0.034 A 
ATOM     54  C   UNL A   1      46.998  28.528  29.805  1.00  0.00     0.034 A 
ATOM     55  C   UNL A   1      43.384  22.846  28.191  1.00  0.00     0.049 A 
ATOM     56  C   UNL A   1      47.192  27.048  29.870  1.00  0.00     0.074 A 
ATOM     57  C   UNL A   1      42.411  22.626  29.152  1.00  0.00     0.029 A 
ATOM     58  N   UNL A   1      44.558  23.031  28.894  1.00  0.00    -0.354 N 
ATOM     59  N   UNL A   1      46.731  26.321  30.859  1.00  0.00    -0.248 NA
ATOM     60  C   UNL A   1      47.375  26.324  28.616  1.00  0.00     0.031 C 
ATOM     61  C   UNL A   1      42.940  23.186  30.352  1.00  0.00     0.029 A 
ATOM     62  C   UNL A   1      44.241  23.625  30.098  1.00  0.00     0.049 A 
ATOM     63  H   UNL A   1      45.461  22.782  28.590  1.00  0.00     0.167 HD
ATOM     64  C   UNL A   1      46.170  25.198  30.262  1.00  0.00     0.074 A 
ATOM     65  C   UNL A   1      46.659  25.224  28.882  1.00  0.00     0.031 C 
ATOM     66  C   UNL A   1      45.123  24.525  30.832  1.00  0.00     0.034 A 
BRANCH  53  67
ATOM     67  C   UNL A   1      44.238  22.784  25.727  1.00  0.00     0.023 A 
ATOM     68  C   UNL A   1      44.073  21.453  25.333  1.00  0.00     0.031 A 
ATOM     69  C   UNL A   1      45.403  23.438  25.245  1.00  0.00     0.131 A 
ATOM     70  C   UNL A   1      45.060  20.815  24.569  1.00  0.00     0.055 A 
ATOM     71  C   UNL A   1      46.337  22.824  24.419  1.00  0.00     0.041 A 
ATOM     72  F   UNL A   1      45.765  24.669  25.624  1.00  0.00    -0.206 F 
ATOM     73  C   UNL A   1      46.185  21.492  24.099  1.00  0.00     0.022 A 
BRANCH  70  74
ATOM     74  S   UNL A   1      44.932  19.029  24.353  1.00  0.00     0.124 S 
ATOM     75  O   UNL A   1      43.667  18.742  25.021  1.00  0.00    -0.237 OA
ATOM     76  O   UNL A   1      44.934  18.905  22.898  1.00  0.00    -0.237 OA
ATOM     77  O   UNL A   1      46.125  18.522  25.026  1.00  0.00    -0.744 OA
ENDBRANCH  70  74
ENDBRANCH  53  67
BRANCH  54  78
ATOM     78  C   UNL A   1      48.058  29.510  29.397  1.00  0.00     0.023 A 
ATOM     79  C   UNL A   1      49.045  30.021  30.274  1.00  0.00     0.031 A 
ATOM     80  C   UNL A   1      48.240  29.806  28.024  1.00  0.00     0.131 A 
ATOM     81  C   UNL A   1      50.129  30.790  29.769  1.00  0.00     0.055 A 
ATOM     82  C   UNL A   1      49.304  30.567  27.535  1.00  0.00     0.041 A 
ATOM     83  F   UNL A   1      47.427  29.296  27.086  1.00  0.00    -0.206 F 
ATOM     84  C   UNL A   1      50.260  31.057  28.406  1.00  0.00     0.022 A 
BRANCH  81  85
ATOM     85  S   UNL A   1      51.447  31.408  30.876  1.00  0.00     0.124 S 
ATOM     86  O   UNL A   1      50.700  32.219  31.829  1.00  0.00    -0.237 OA
ATOM     87  O   UNL A   1      52.029  30.173  31.391  1.00  0.00    -0.237 OA
ATOM     88  O   UNL A   1      52.323  32.166  29.980  1.00  0.00    -0.744 OA
ENDBRANCH  81  85
ENDBRANCH  54  78
BRANCH  66  89
ATOM     89  C   UNL A   1      44.719  24.868  32.261  1.00  0.00     0.023 A 
ATOM     90  C   UNL A   1      44.062  26.057  32.665  1.00  0.00     0.031 A 
ATOM     91  C   UNL A   1      44.887  23.866  33.234  1.00  0.00     0.131 A 
ATOM     92  C   UNL A   1      43.610  26.201  33.997  1.00  0.00     0.055 A 
ATOM     93  C   UNL A   1      44.419  24.003  34.541  1.00  0.00     0.041 A 
ATOM     94  F   UNL A   1      45.479  22.703  32.915  1.00  0.00    -0.206 F 
ATOM     95  C   UNL A   1      43.782  25.174  34.929  1.00  0.00     0.022 A 
BRANCH  92  96
ATOM     96  S   UNL A   1      42.792  27.737  34.551  1.00  0.00     0.124 S 
ATOM     97  O   UNL A   1      43.654  28.209  35.628  1.00  0.00    -0.237 OA
ATOM     98  O   UNL A   1      42.784  28.547  33.335  1.00  0.00    -0.237 OA
ATOM     99  O   UNL A   1      41.470  27.283  34.986  1.00  0.00    -0.744 OA
ENDBRANCH  92  96
ENDBRANCH  66  89
ENDBRANCH  40  41
ENDBRANCH  32  35
ENDBRANCH  30  31
ENDBRANCH  29  30
ENDBRANCH   1  29
TORSDOF 18
ENDMDL
MODEL 3
REMARK VINA RESULT:     -12.1      2.650      6.970
REMARK SMILES C[C@H](C(=O)NC1CCCC1)[N@@H+]1CCn2nc(CCC(=O)NCCCNC(=O)c3ccc(-c4c5nc(c(-c6cc(S(=O)(=O)[O-])ccc6F)c6ccc([nH]6)c(-c6cc(S(=O)(=O)[O-])ccc6F)c6nc(c(-c7cc(S(=O)(=O)[O-])ccc7F)c7ccc4[nH]7)C=C6)C=C5)cc3)cc2C1
REMARK SMILES IDX 22 1 21 2 19 3 20 4 18 6 17 7 16 8 11 9 12 10 93 11 13 13
REMARK SMILES IDX 92 14 14 15 91 16 15 17 2 18 1 19 3 20 4 21 5 22 6 24 7 25
REMARK SMILES IDX 10 26 8 27 9 28 23 29 24 30 25 31 26 32 27 34 28 35 29 36
REMARK SMILES IDX 90 37 30 38 89 39 31 40 32 41 33 42 83 43 34 44 88 45 82 46
REMARK SMILES IDX 84 47 35 48 87 49 81 50 80 51 36 53 68 54 48 55 67 56 49 57
REMARK SMILES IDX 52 58 66 59 85 60 50 61 51 62 65 64 86 65 53 66 37 67 38 68
REMARK SMILES IDX 46 69 39 70 45 71 47 72 44 73 40 74 41 75 42 76 43 77 69 78
REMARK SMILES IDX 70 79 78 80 71 81 77 82 79 83 76 84 72 85 73 86 74 87 75 88
REMARK SMILES IDX 54 89 55 90 63 91 56 92 62 93 64 94 61 95 57 96 58 97 59 98
REMARK SMILES IDX 60 99
REMARK H PARENT 21 5 11 12 5 23 25 33 84 52 52 63
REMARK Flexibility Score: inf
ROOT
ATOM      1  C   UNL A   1      37.524  33.531  29.824  1.00  0.00     0.117 C 
ENDROOT
BRANCH   1   2
ATOM      2  N   UNL A   1      36.511  34.332  29.170  1.00  0.00    -0.356 N 
ATOM      3  C   UNL A   1      35.335  33.943  28.605  1.00  0.00     0.220 C 
ATOM      4  O   UNL A   1      34.679  34.776  27.977  1.00  0.00    -0.275 OA
ATOM      5  H   UNL A   1      36.700  35.297  29.128  1.00  0.00     0.163 HD
BRANCH   3   6
ATOM      6  C   UNL A   1      34.794  32.542  28.816  1.00  0.00     0.106 C 
BRANCH   6   7
ATOM      7  C   UNL A   1      35.542  31.483  28.014  1.00  0.00     0.068 C 
BRANCH   7   8
ATOM      8  C   UNL A   1      34.663  30.470  27.353  1.00  0.00     0.063 A 
ATOM      9  N   UNL A   1      32.550  27.583  24.692  1.00  0.00    -0.318 N 
ATOM     10  C   UNL A   1      31.472  28.542  24.777  1.00  0.00     0.287 C 
ATOM     11  C   UNL A   1      33.273  27.345  25.936  1.00  0.00     0.319 C 
ATOM     12  H   UNL A   1      31.852  26.893  24.414  1.00  0.00     0.349 HD
ATOM     13  C   UNL A   1      31.665  29.743  25.729  1.00  0.00     0.206 C 
ATOM     14  C   UNL A   1      33.750  28.633  26.490  1.00  0.00     0.093 A 
ATOM     15  N   UNL A   1      32.925  29.711  26.432  1.00  0.00    -0.258 N 
ATOM     16  C   UNL A   1      34.907  29.093  27.083  1.00  0.00     0.055 A 
ATOM     17  N   UNL A   1      33.431  30.825  26.973  1.00  0.00    -0.177 NA
BRANCH   9  18
ATOM     18  C   UNL A   1      33.162  27.091  23.455  1.00  0.00     0.271 C 
ATOM     19  C   UNL A   1      33.928  28.114  22.614  1.00  0.00     0.086 C 
BRANCH  18  20
ATOM     20  C   UNL A   1      32.401  26.128  22.520  1.00  0.00     0.278 C 
ATOM     21  O   UNL A   1      31.527  26.603  21.774  1.00  0.00    -0.268 OA
ATOM     22  N   UNL A   1      32.368  24.778  22.649  1.00  0.00    -0.348 N 
ATOM     23  H   UNL A   1      31.471  24.443  22.884  1.00  0.00     0.163 HD
BRANCH  22  24
ATOM     24  C   UNL A   1      33.357  23.693  22.524  1.00  0.00     0.082 C 
ATOM     25  C   UNL A   1      34.890  23.713  23.839  1.00  0.00     0.025 C 
ATOM     26  C   UNL A   1      32.370  21.971  22.751  1.00  0.00     0.025 C 
ATOM     27  C   UNL A   1      34.866  21.880  24.828  1.00  0.00     0.002 C 
ATOM     28  C   UNL A   1      33.208  20.905  24.238  1.00  0.00     0.002 C 
ENDBRANCH  22  24
ENDBRANCH  18  20
ENDBRANCH   9  18
ENDBRANCH   7   8
ENDBRANCH   6   7
ENDBRANCH   3   6
ENDBRANCH   1   2
BRANCH   1  29
ATOM     29  C   UNL A   1      37.105  33.128  31.224  1.00  0.00     0.042 C 
BRANCH  29  30
ATOM     30  C   UNL A   1      38.147  32.282  31.984  1.00  0.00     0.118 C 
BRANCH  30  31
ATOM     31  N   UNL A   1      37.629  30.928  32.600  1.00  0.00    -0.352 N 
ATOM     32  C   UNL A   1      37.518  29.351  32.136  1.00  0.00     0.251 C 
ATOM     33  H   UNL A   1      37.275  31.060  33.510  1.00  0.00     0.163 HD
ATOM     34  O   UNL A   1      37.028  28.948  33.216  1.00  0.00    -0.269 OA
BRANCH  32  35
ATOM     35  C   UNL A   1      38.143  28.458  30.269  1.00  0.00     0.039 A 
ATOM     36  C   UNL A   1      38.575  27.117  29.926  1.00  0.00     0.014 A 
ATOM     37  C   UNL A   1      38.489  29.071  28.991  1.00  0.00     0.014 A 
ATOM     38  C   UNL A   1      39.853  26.908  29.397  1.00  0.00     0.010 A 
ATOM     39  C   UNL A   1      39.806  29.070  28.560  1.00  0.00     0.010 A 
ATOM     40  C   UNL A   1      40.565  28.018  28.993  1.00  0.00    -0.014 A 
BRANCH  40  41
ATOM     41  C   UNL A   1      41.970  27.921  28.694  1.00  0.00     0.031 A 
ATOM     42  C   UNL A   1      42.165  26.667  27.960  1.00  0.00     0.074 A 
ATOM     43  C   UNL A   1      42.955  28.791  28.992  1.00  0.00     0.049 A 
ATOM     44  N   UNL A   1      42.414  25.529  28.514  1.00  0.00    -0.248 NA
ATOM     45  C   UNL A   1      41.620  26.578  26.595  1.00  0.00     0.031 C 
ATOM     46  C   UNL A   1      42.924  30.152  29.528  1.00  0.00     0.029 A 
ATOM     47  N   UNL A   1      44.289  28.589  28.804  1.00  0.00    -0.354 N 
ATOM     48  C   UNL A   1      42.326  24.626  27.477  1.00  0.00     0.074 A 
ATOM     49  C   UNL A   1      41.528  25.255  26.463  1.00  0.00     0.031 C 
ATOM     50  C   UNL A   1      44.148  30.722  29.397  1.00  0.00     0.029 A 
ATOM     51  C   UNL A   1      45.082  29.728  28.897  1.00  0.00     0.049 A 
ATOM     52  H   UNL A   1      44.665  27.699  28.614  1.00  0.00     0.167 HD
ATOM     53  C   UNL A   1      43.221  23.615  27.387  1.00  0.00     0.034 A 
ATOM     54  C   UNL A   1      46.384  29.826  28.502  1.00  0.00     0.034 A 
ATOM     55  C   UNL A   1      43.871  23.375  28.660  1.00  0.00     0.049 A 
ATOM     56  C   UNL A   1      46.929  28.436  28.556  1.00  0.00     0.074 A 
ATOM     57  C   UNL A   1      43.394  23.093  29.929  1.00  0.00     0.029 A 
ATOM     58  N   UNL A   1      45.141  23.881  28.850  1.00  0.00    -0.354 N 
ATOM     59  N   UNL A   1      47.042  27.768  29.678  1.00  0.00    -0.248 NA
ATOM     60  C   UNL A   1      46.810  27.605  27.362  1.00  0.00     0.031 C 
ATOM     61  C   UNL A   1      44.175  23.901  30.808  1.00  0.00     0.029 A 
ATOM     62  C   UNL A   1      45.153  24.554  30.055  1.00  0.00     0.049 A 
ATOM     63  H   UNL A   1      45.904  23.779  28.235  1.00  0.00     0.167 HD
ATOM     64  C   UNL A   1      46.584  26.488  29.395  1.00  0.00     0.074 A 
ATOM     65  C   UNL A   1      46.518  26.428  27.932  1.00  0.00     0.031 C 
ATOM     66  C   UNL A   1      46.004  25.700  30.352  1.00  0.00     0.034 A 
BRANCH  53  67
ATOM     67  C   UNL A   1      43.763  23.161  26.062  1.00  0.00     0.023 A 
ATOM     68  C   UNL A   1      43.616  21.807  25.748  1.00  0.00     0.031 A 
ATOM     69  C   UNL A   1      44.626  23.909  25.219  1.00  0.00     0.131 A 
ATOM     70  C   UNL A   1      44.354  21.242  24.699  1.00  0.00     0.055 A 
ATOM     71  C   UNL A   1      45.292  23.360  24.128  1.00  0.00     0.041 A 
ATOM     72  F   UNL A   1      44.963  25.182  25.453  1.00  0.00    -0.206 F 
ATOM     73  C   UNL A   1      45.182  22.008  23.880  1.00  0.00     0.022 A 
BRANCH  70  74
ATOM     74  S   UNL A   1      44.348  19.445  24.540  1.00  0.00     0.124 S 
ATOM     75  O   UNL A   1      43.026  19.109  25.055  1.00  0.00    -0.237 OA
ATOM     76  O   UNL A   1      44.544  19.273  23.103  1.00  0.00    -0.237 OA
ATOM     77  O   UNL A   1      45.471  19.030  25.378  1.00  0.00    -0.744 OA
ENDBRANCH  70  74
ENDBRANCH  53  67
BRANCH  54  78
ATOM     78  C   UNL A   1      46.962  30.937  27.674  1.00  0.00     0.023 A 
ATOM     79  C   UNL A   1      46.198  31.991  27.117  1.00  0.00     0.031 A 
ATOM     80  C   UNL A   1      48.368  31.088  27.597  1.00  0.00     0.131 A 
ATOM     81  C   UNL A   1      46.840  33.108  26.516  1.00  0.00     0.055 A 
ATOM     82  C   UNL A   1      48.993  32.185  27.001  1.00  0.00     0.041 A 
ATOM     83  F   UNL A   1      49.198  30.206  28.176  1.00  0.00    -0.206 F 
ATOM     84  C   UNL A   1      48.231  33.206  26.463  1.00  0.00     0.022 A 
BRANCH  81  85
ATOM     85  S   UNL A   1      45.874  34.508  25.846  1.00  0.00     0.124 S 
ATOM     86  O   UNL A   1      45.283  33.932  24.644  1.00  0.00    -0.237 OA
ATOM     87  O   UNL A   1      44.957  34.809  26.940  1.00  0.00    -0.237 OA
ATOM     88  O   UNL A   1      46.885  35.537  25.597  1.00  0.00    -0.744 OA
ENDBRANCH  81  85
ENDBRANCH  54  78
BRANCH  66  89
ATOM     89  C   UNL A   1      46.077  26.140  31.809  1.00  0.00     0.023 A 
ATOM     90  C   UNL A   1      45.018  26.735  32.541  1.00  0.00     0.031 A 
ATOM     91  C   UNL A   1      47.241  25.805  32.524  1.00  0.00     0.131 A 
ATOM     92  C   UNL A   1      45.159  26.971  33.928  1.00  0.00     0.055 A 
ATOM     93  C   UNL A   1      47.367  26.019  33.897  1.00  0.00     0.041 A 
ATOM     94  F   UNL A   1      48.275  25.216  31.899  1.00  0.00    -0.206 F 
ATOM     95  C   UNL A   1      46.327  26.608  34.604  1.00  0.00     0.022 A 
BRANCH  92  96
ATOM     96  S   UNL A   1      43.824  27.768  34.886  1.00  0.00     0.124 S 
ATOM     97  O   UNL A   1      42.937  28.295  33.856  1.00  0.00    -0.237 OA
ATOM     98  O   UNL A   1      43.298  26.658  35.677  1.00  0.00    -0.237 OA
ATOM     99  O   UNL A   1      44.526  28.790  35.666  1.00  0.00    -0.744 OA
ENDBRANCH  92  96
ENDBRANCH  66  89
ENDBRANCH  40  41
ENDBRANCH  32  35
ENDBRANCH  30  31
ENDBRANCH  29  30
ENDBRANCH   1  29
TORSDOF 18
ENDMDL
