MODEL 1
REMARK VINA RESULT:     -12.4      0.000      0.000
REMARK SMILES Nc1ccc(N2CC3(CCC3)C2)c(C(=O)NCCCNC(=O)c2ccc(-c3c4nc(c(-c5cc(S(=O)(=O)[O-])ccc5F)c5ccc([nH]5)c(-c5cc(S(=O)(=O)[O-])ccc5F)c5nc(c(-c6cc(S(=O)(=O)[O-])ccc6F)c6ccc3[nH]6)C=C5)C=C4)cc2)c1
REMARK SMILES IDX 19 1 18 2 17 3 16 4 14 5 15 6 13 8 2 9 3 10 86 11 4 12 5 13
REMARK SMILES IDX 1 14 6 17 7 18 12 19 8 20 9 21 11 22 10 23 20 24 21 25 22 27
REMARK SMILES IDX 23 28 24 29 85 30 25 31 84 32 26 33 27 34 28 35 78 36 29 37
REMARK SMILES IDX 83 38 77 39 79 40 30 41 82 42 76 43 75 44 31 46 63 47 43 48
REMARK SMILES IDX 62 49 44 50 47 51 61 52 80 53 45 54 46 55 60 57 81 58 48 59
REMARK SMILES IDX 32 60 33 61 41 62 34 63 40 64 42 65 39 66 35 67 36 68 37 69
REMARK SMILES IDX 38 70 64 71 65 72 73 73 66 74 72 75 74 76 71 77 67 78 68 79
REMARK SMILES IDX 69 80 70 81 49 82 50 83 58 84 51 85 57 86 59 87 56 88 52 89
REMARK SMILES IDX 53 90 54 91 55 92
REMARK H PARENT 16 7 1 15 1 16 20 26 79 45 47 56
REMARK Flexibility Score: inf
ROOT
ATOM      1  C   UNL A   1      33.003  32.445  27.246  1.00  0.00     0.118 C 
ENDROOT
BRANCH   1   2
ATOM      2  C   UNL A   1      31.748  31.659  26.858  1.00  0.00     0.042 C 
BRANCH   2   3
ATOM      3  C   UNL A   1      31.927  30.149  27.005  1.00  0.00     0.118 C 
BRANCH   3   4
ATOM      4  N   UNL A   1      32.875  29.662  26.025  1.00  0.00    -0.352 N 
ATOM      5  C   UNL A   1      33.081  28.493  25.340  1.00  0.00     0.253 C 
ATOM      6  O   UNL A   1      34.109  28.527  24.669  1.00  0.00    -0.269 OA
ATOM      7  H   UNL A   1      33.543  30.346  25.791  1.00  0.00     0.163 HD
BRANCH   5   8
ATOM      8  C   UNL A   1      32.139  27.319  25.323  1.00  0.00     0.065 A 
ATOM      9  C   UNL A   1      31.479  25.194  26.369  1.00  0.00     0.032 A 
ATOM     10  C   UNL A   1      30.236  25.286  25.764  1.00  0.00     0.027 A 
ATOM     11  C   UNL A   1      32.434  26.171  26.080  1.00  0.00     0.041 A 
ATOM     12  C   UNL A   1      29.953  26.351  24.908  1.00  0.00     0.029 A 
ATOM     13  C   UNL A   1      30.893  27.370  24.649  1.00  0.00     0.050 A 
BRANCH   9  14
ATOM     14  N   UNL A   1      31.802  24.110  27.166  1.00  0.00    -0.399 N 
ATOM     15  H   UNL A   1      32.555  24.171  27.799  1.00  0.00     0.156 HD
ATOM     16  H   UNL A   1      31.280  23.278  27.102  1.00  0.00     0.156 HD
ENDBRANCH   9  14
BRANCH  13  17
ATOM     17  N   UNL A   1      30.494  28.340  23.715  1.00  0.00    -0.370 N 
ATOM     18  C   UNL A   1      30.064  28.189  22.355  1.00  0.00     0.125 C 
ATOM     19  C   UNL A   1      30.110  29.717  23.813  1.00  0.00     0.125 C 
ATOM     20  C   UNL A   1      29.322  29.478  22.553  1.00  0.00     0.005 C 
ATOM     21  C   UNL A   1      29.279  30.550  21.498  1.00  0.00     0.011 C 
ATOM     22  C   UNL A   1      27.808  29.433  22.604  1.00  0.00     0.011 C 
ATOM     23  C   UNL A   1      27.842  30.858  22.002  1.00  0.00     0.001 C 
ENDBRANCH  13  17
ENDBRANCH   5   8
ENDBRANCH   3   4
ENDBRANCH   2   3
ENDBRANCH   1   2
BRANCH   1  24
ATOM     24  N   UNL A   1      32.691  33.828  27.587  1.00  0.00    -0.352 N 
ATOM     25  C   UNL A   1      33.141  34.593  28.635  1.00  0.00     0.251 C 
ATOM     26  H   UNL A   1      32.065  34.280  26.976  1.00  0.00     0.163 HD
ATOM     27  O   UNL A   1      32.562  35.635  28.920  1.00  0.00    -0.269 OA
BRANCH  25  28
ATOM     28  C   UNL A   1      34.312  34.146  29.417  1.00  0.00     0.039 A 
ATOM     29  C   UNL A   1      34.114  33.385  30.572  1.00  0.00     0.014 A 
ATOM     30  C   UNL A   1      35.605  34.487  29.010  1.00  0.00     0.014 A 
ATOM     31  C   UNL A   1      35.220  32.904  31.279  1.00  0.00     0.010 A 
ATOM     32  C   UNL A   1      36.702  33.946  29.671  1.00  0.00     0.010 A 
ATOM     33  C   UNL A   1      36.521  33.147  30.811  1.00  0.00    -0.014 A 
BRANCH  33  34
ATOM     34  C   UNL A   1      37.715  32.574  31.486  1.00  0.00     0.031 A 
ATOM     35  C   UNL A   1      38.456  31.429  30.852  1.00  0.00     0.074 A 
ATOM     36  C   UNL A   1      38.074  33.026  32.704  1.00  0.00     0.049 A 
ATOM     37  N   UNL A   1      39.426  30.699  31.338  1.00  0.00    -0.248 NA
ATOM     38  C   UNL A   1      38.023  31.036  29.502  1.00  0.00     0.031 C 
ATOM     39  C   UNL A   1      37.414  34.114  33.429  1.00  0.00     0.029 A 
ATOM     40  N   UNL A   1      39.066  32.614  33.559  1.00  0.00    -0.354 N 
ATOM     41  C   UNL A   1      39.708  29.748  30.364  1.00  0.00     0.074 A 
ATOM     42  C   UNL A   1      38.766  29.959  29.286  1.00  0.00     0.031 C 
ATOM     43  C   UNL A   1      38.031  34.295  34.608  1.00  0.00     0.029 A 
ATOM     44  C   UNL A   1      39.087  33.297  34.753  1.00  0.00     0.049 A 
ATOM     45  H   UNL A   1      39.704  31.898  33.337  1.00  0.00     0.167 HD
ATOM     46  C   UNL A   1      40.676  28.798  30.364  1.00  0.00     0.034 A 
ATOM     47  C   UNL A   1      39.850  33.124  35.851  1.00  0.00     0.034 A 
ATOM     48  C   UNL A   1      41.609  28.609  31.448  1.00  0.00     0.049 A 
ATOM     49  C   UNL A   1      40.887  32.028  35.848  1.00  0.00     0.074 A 
ATOM     50  C   UNL A   1      42.660  27.713  31.532  1.00  0.00     0.029 A 
ATOM     51  N   UNL A   1      41.596  29.318  32.643  1.00  0.00    -0.354 N 
ATOM     52  N   UNL A   1      41.170  31.162  34.903  1.00  0.00    -0.248 NA
ATOM     53  C   UNL A   1      41.711  31.889  37.056  1.00  0.00     0.031 C 
ATOM     54  C   UNL A   1      43.230  27.825  32.803  1.00  0.00     0.029 A 
ATOM     55  C   UNL A   1      42.597  28.854  33.482  1.00  0.00     0.049 A 
ATOM     56  H   UNL A   1      40.968  30.044  32.861  1.00  0.00     0.167 HD
ATOM     57  C   UNL A   1      42.230  30.401  35.389  1.00  0.00     0.074 A 
ATOM     58  C   UNL A   1      42.540  30.915  36.707  1.00  0.00     0.031 C 
ATOM     59  C   UNL A   1      42.893  29.376  34.796  1.00  0.00     0.034 A 
BRANCH  46  60
ATOM     60  C   UNL A   1      40.749  27.876  29.170  1.00  0.00     0.023 A 
ATOM     61  C   UNL A   1      41.690  28.068  28.142  1.00  0.00     0.031 A 
ATOM     62  C   UNL A   1      39.853  26.799  29.045  1.00  0.00     0.131 A 
ATOM     63  C   UNL A   1      41.662  27.250  27.003  1.00  0.00     0.055 A 
ATOM     64  C   UNL A   1      39.887  25.934  27.949  1.00  0.00     0.041 A 
ATOM     65  F   UNL A   1      38.917  26.577  29.980  1.00  0.00    -0.206 F 
ATOM     66  C   UNL A   1      40.786  26.166  26.911  1.00  0.00     0.022 A 
BRANCH  63  67
ATOM     67  S   UNL A   1      42.683  27.716  25.579  1.00  0.00     0.124 S 
ATOM     68  O   UNL A   1      41.957  28.876  25.064  1.00  0.00    -0.237 OA
ATOM     69  O   UNL A   1      43.975  27.993  26.194  1.00  0.00    -0.237 OA
ATOM     70  O   UNL A   1      42.638  26.532  24.722  1.00  0.00    -0.744 OA
ENDBRANCH  63  67
ENDBRANCH  46  60
BRANCH  47  71
ATOM     71  C   UNL A   1      39.654  33.985  37.053  1.00  0.00     0.023 A 
ATOM     72  C   UNL A   1      39.026  33.485  38.206  1.00  0.00     0.031 A 
ATOM     73  C   UNL A   1      40.051  35.334  37.055  1.00  0.00     0.131 A 
ATOM     74  C   UNL A   1      38.768  34.340  39.289  1.00  0.00     0.055 A 
ATOM     75  C   UNL A   1      39.848  36.164  38.159  1.00  0.00     0.041 A 
ATOM     76  F   UNL A   1      40.659  35.865  35.981  1.00  0.00    -0.206 F 
ATOM     77  C   UNL A   1      39.189  35.671  39.281  1.00  0.00     0.022 A 
BRANCH  74  78
ATOM     78  S   UNL A   1      37.784  33.708  40.676  1.00  0.00     0.124 S 
ATOM     79  O   UNL A   1      36.662  33.085  39.983  1.00  0.00    -0.237 OA
ATOM     80  O   UNL A   1      38.724  32.800  41.325  1.00  0.00    -0.237 OA
ATOM     81  O   UNL A   1      37.457  34.912  41.437  1.00  0.00    -0.744 OA
ENDBRANCH  74  78
ENDBRANCH  47  71
BRANCH  59  82
ATOM     82  C   UNL A   1      44.062  28.781  35.544  1.00  0.00     0.023 A 
ATOM     83  C   UNL A   1      43.913  27.691  36.419  1.00  0.00     0.031 A 
ATOM     84  C   UNL A   1      45.354  29.307  35.356  1.00  0.00     0.131 A 
ATOM     85  C   UNL A   1      45.030  27.191  37.105  1.00  0.00     0.055 A 
ATOM     86  C   UNL A   1      46.469  28.764  35.993  1.00  0.00     0.041 A 
ATOM     87  F   UNL A   1      45.553  30.352  34.535  1.00  0.00    -0.206 F 
ATOM     88  C   UNL A   1      46.309  27.706  36.882  1.00  0.00     0.022 A 
BRANCH  85  89
ATOM     89  S   UNL A   1      44.780  25.902  38.355  1.00  0.00     0.124 S 
ATOM     90  O   UNL A   1      43.918  24.959  37.651  1.00  0.00    -0.237 OA
ATOM     91  O   UNL A   1      46.142  25.448  38.616  1.00  0.00    -0.237 OA
ATOM     92  O   UNL A   1      44.144  26.615  39.462  1.00  0.00    -0.744 OA
ENDBRANCH  85  89
ENDBRANCH  59  82
ENDBRANCH  33  34
ENDBRANCH  25  28
ENDBRANCH   1  24
TORSDOF 15
ENDMDL
MODEL 2
REMARK VINA RESULT:     -12.2      6.227     11.374
REMARK SMILES Nc1ccc(N2CC3(CCC3)C2)c(C(=O)NCCCNC(=O)c2ccc(-c3c4nc(c(-c5cc(S(=O)(=O)[O-])ccc5F)c5ccc([nH]5)c(-c5cc(S(=O)(=O)[O-])ccc5F)c5nc(c(-c6cc(S(=O)(=O)[O-])ccc6F)c6ccc3[nH]6)C=C5)C=C4)cc2)c1
REMARK SMILES IDX 19 1 18 2 17 3 16 4 14 5 15 6 13 8 2 9 3 10 86 11 4 12 5 13
REMARK SMILES IDX 1 14 6 17 7 18 12 19 8 20 9 21 11 22 10 23 20 24 21 25 22 27
REMARK SMILES IDX 23 28 24 29 85 30 25 31 84 32 26 33 27 34 28 35 78 36 29 37
REMARK SMILES IDX 83 38 77 39 79 40 30 41 82 42 76 43 75 44 31 46 63 47 43 48
REMARK SMILES IDX 62 49 44 50 47 51 61 52 80 53 45 54 46 55 60 57 81 58 48 59
REMARK SMILES IDX 32 60 33 61 41 62 34 63 40 64 42 65 39 66 35 67 36 68 37 69
REMARK SMILES IDX 38 70 64 71 65 72 73 73 66 74 72 75 74 76 71 77 67 78 68 79
REMARK SMILES IDX 69 80 70 81 49 82 50 83 58 84 51 85 57 86 59 87 56 88 52 89
REMARK SMILES IDX 53 90 54 91 55 92
REMARK H PARENT 16 7 1 15 1 16 20 26 79 45 47 56
REMARK Flexibility Score: inf
ROOT
ATOM      1  C   UNL A   1      37.013  21.832  25.601  1.00  0.00     0.118 C 
ENDROOT
BRANCH   1   2
ATOM      2  C   UNL A   1      36.758  22.068  24.110  1.00  0.00     0.042 C 
BRANCH   2   3
ATOM      3  C   UNL A   1      36.159  23.444  23.824  1.00  0.00     0.118 C 
BRANCH   3   4
ATOM      4  N   UNL A   1      35.056  23.323  22.893  1.00  0.00    -0.352 N 
ATOM      5  C   UNL A   1      33.720  23.032  22.971  1.00  0.00     0.253 C 
ATOM      6  O   UNL A   1      33.200  22.947  21.861  1.00  0.00    -0.269 OA
ATOM      7  H   UNL A   1      35.340  23.492  21.966  1.00  0.00     0.163 HD
BRANCH   5   8
ATOM      8  C   UNL A   1      32.931  22.907  24.247  1.00  0.00     0.065 A 
ATOM      9  C   UNL A   1      31.491  24.029  25.895  1.00  0.00     0.032 A 
ATOM     10  C   UNL A   1      31.044  22.794  26.339  1.00  0.00     0.027 A 
ATOM     11  C   UNL A   1      32.479  24.063  24.910  1.00  0.00     0.041 A 
ATOM     12  C   UNL A   1      31.563  21.623  25.786  1.00  0.00     0.029 A 
ATOM     13  C   UNL A   1      32.525  21.648  24.755  1.00  0.00     0.050 A 
BRANCH   9  14
ATOM     14  N   UNL A   1      31.039  25.199  26.479  1.00  0.00    -0.399 N 
ATOM     15  H   UNL A   1      30.183  25.207  26.967  1.00  0.00     0.156 HD
ATOM     16  H   UNL A   1      31.572  26.023  26.407  1.00  0.00     0.156 HD
ENDBRANCH   9  14
BRANCH  13  17
ATOM     17  N   UNL A   1      33.006  20.394  24.344  1.00  0.00    -0.370 N 
ATOM     18  C   UNL A   1      34.156  19.658  24.783  1.00  0.00     0.125 C 
ATOM     19  C   UNL A   1      32.441  19.307  23.601  1.00  0.00     0.125 C 
ATOM     20  C   UNL A   1      33.412  18.431  24.346  1.00  0.00     0.005 C 
ATOM     21  C   UNL A   1      34.087  17.299  23.619  1.00  0.00     0.011 C 
ATOM     22  C   UNL A   1      32.910  17.480  25.412  1.00  0.00     0.011 C 
ATOM     23  C   UNL A   1      33.102  16.357  24.366  1.00  0.00     0.001 C 
ENDBRANCH  13  17
ENDBRANCH   5   8
ENDBRANCH   3   4
ENDBRANCH   2   3
ENDBRANCH   1   2
BRANCH   1  24
ATOM     24  N   UNL A   1      37.990  20.772  25.822  1.00  0.00    -0.352 N 
ATOM     25  C   UNL A   1      39.319  20.865  26.152  1.00  0.00     0.251 C 
ATOM     26  H   UNL A   1      37.645  19.856  25.718  1.00  0.00     0.163 HD
ATOM     27  O   UNL A   1      40.047  19.886  26.025  1.00  0.00    -0.269 OA
BRANCH  25  28
ATOM     28  C   UNL A   1      39.863  22.145  26.648  1.00  0.00     0.039 A 
ATOM     29  C   UNL A   1      40.843  22.133  27.644  1.00  0.00     0.014 A 
ATOM     30  C   UNL A   1      39.397  23.358  26.132  1.00  0.00     0.014 A 
ATOM     31  C   UNL A   1      41.409  23.338  28.070  1.00  0.00     0.010 A 
ATOM     32  C   UNL A   1      40.013  24.548  26.502  1.00  0.00     0.010 A 
ATOM     33  C   UNL A   1      41.027  24.551  27.473  1.00  0.00    -0.014 A 
BRANCH  33  34
ATOM     34  C   UNL A   1      41.672  25.839  27.837  1.00  0.00     0.031 A 
ATOM     35  C   UNL A   1      40.885  26.887  28.577  1.00  0.00     0.074 A 
ATOM     36  C   UNL A   1      42.929  26.097  27.423  1.00  0.00     0.049 A 
ATOM     37  N   UNL A   1      41.212  28.121  28.860  1.00  0.00    -0.248 NA
ATOM     38  C   UNL A   1      39.540  26.500  29.028  1.00  0.00     0.031 C 
ATOM     39  C   UNL A   1      43.779  25.167  26.677  1.00  0.00     0.029 A 
ATOM     40  N   UNL A   1      43.704  27.223  27.552  1.00  0.00    -0.354 N 
ATOM     41  C   UNL A   1      40.107  28.665  29.506  1.00  0.00     0.074 A 
ATOM     42  C   UNL A   1      39.083  27.643  29.519  1.00  0.00     0.031 C 
ATOM     43  C   UNL A   1      44.962  25.754  26.431  1.00  0.00     0.029 A 
ATOM     44  C   UNL A   1      44.934  27.120  26.944  1.00  0.00     0.049 A 
ATOM     45  H   UNL A   1      43.408  28.027  28.036  1.00  0.00     0.167 HD
ATOM     46  C   UNL A   1      39.970  29.898  30.055  1.00  0.00     0.034 A 
ATOM     47  C   UNL A   1      45.918  28.030  26.792  1.00  0.00     0.034 A 
ATOM     48  C   UNL A   1      41.008  30.900  30.036  1.00  0.00     0.049 A 
ATOM     49  C   UNL A   1      45.722  29.412  27.366  1.00  0.00     0.074 A 
ATOM     50  C   UNL A   1      40.995  32.162  30.604  1.00  0.00     0.029 A 
ATOM     51  N   UNL A   1      42.238  30.761  29.407  1.00  0.00    -0.354 N 
ATOM     52  N   UNL A   1      44.687  29.899  28.010  1.00  0.00    -0.248 NA
ATOM     53  C   UNL A   1      46.828  30.364  27.197  1.00  0.00     0.031 C 
ATOM     54  C   UNL A   1      42.181  32.812  30.252  1.00  0.00     0.029 A 
ATOM     55  C   UNL A   1      42.976  31.926  29.542  1.00  0.00     0.049 A 
ATOM     56  H   UNL A   1      42.542  29.952  28.935  1.00  0.00     0.167 HD
ATOM     57  C   UNL A   1      45.034  31.203  28.357  1.00  0.00     0.074 A 
ATOM     58  C   UNL A   1      46.376  31.422  27.855  1.00  0.00     0.031 C 
ATOM     59  C   UNL A   1      44.313  32.131  29.035  1.00  0.00     0.034 A 
BRANCH  46  60
ATOM     60  C   UNL A   1      38.641  30.237  30.688  1.00  0.00     0.023 A 
ATOM     61  C   UNL A   1      37.620  30.881  29.967  1.00  0.00     0.031 A 
ATOM     62  C   UNL A   1      38.397  29.931  32.039  1.00  0.00     0.131 A 
ATOM     63  C   UNL A   1      36.438  31.267  30.616  1.00  0.00     0.055 A 
ATOM     64  C   UNL A   1      37.183  30.239  32.657  1.00  0.00     0.041 A 
ATOM     65  F   UNL A   1      39.339  29.338  32.787  1.00  0.00    -0.206 F 
ATOM     66  C   UNL A   1      36.200  30.926  31.949  1.00  0.00     0.022 A 
BRANCH  63  67
ATOM     67  S   UNL A   1      35.284  32.353  29.736  1.00  0.00     0.124 S 
ATOM     68  O   UNL A   1      36.172  33.423  29.284  1.00  0.00    -0.237 OA
ATOM     69  O   UNL A   1      34.757  31.478  28.696  1.00  0.00    -0.237 OA
ATOM     70  O   UNL A   1      34.326  32.745  30.768  1.00  0.00    -0.744 OA
ENDBRANCH  63  67
ENDBRANCH  46  60
BRANCH  47  71
ATOM     71  C   UNL A   1      47.163  27.682  26.050  1.00  0.00     0.023 A 
ATOM     72  C   UNL A   1      47.269  27.908  24.668  1.00  0.00     0.031 A 
ATOM     73  C   UNL A   1      48.254  27.076  26.701  1.00  0.00     0.131 A 
ATOM     74  C   UNL A   1      48.414  27.486  23.974  1.00  0.00     0.055 A 
ATOM     75  C   UNL A   1      49.416  26.715  26.017  1.00  0.00     0.041 A 
ATOM     76  F   UNL A   1      48.210  26.838  28.022  1.00  0.00    -0.206 F 
ATOM     77  C   UNL A   1      49.495  26.906  24.641  1.00  0.00     0.022 A 
BRANCH  74  78
ATOM     78  S   UNL A   1      48.428  27.619  22.165  1.00  0.00     0.124 S 
ATOM     79  O   UNL A   1      48.614  26.229  21.768  1.00  0.00    -0.237 OA
ATOM     80  O   UNL A   1      47.116  28.197  21.893  1.00  0.00    -0.237 OA
ATOM     81  O   UNL A   1      49.563  28.502  21.899  1.00  0.00    -0.744 OA
ENDBRANCH  74  78
ENDBRANCH  47  71
BRANCH  59  82
ATOM     82  C   UNL A   1      44.984  33.451  29.329  1.00  0.00     0.023 A 
ATOM     83  C   UNL A   1      44.870  34.556  28.468  1.00  0.00     0.031 A 
ATOM     84  C   UNL A   1      45.736  33.606  30.509  1.00  0.00     0.131 A 
ATOM     85  C   UNL A   1      45.532  35.753  28.779  1.00  0.00     0.055 A 
ATOM     86  C   UNL A   1      46.339  34.819  30.843  1.00  0.00     0.041 A 
ATOM     87  F   UNL A   1      45.883  32.582  31.365  1.00  0.00    -0.206 F 
ATOM     88  C   UNL A   1      46.247  35.899  29.970  1.00  0.00     0.022 A 
BRANCH  85  89
ATOM     89  S   UNL A   1      45.509  37.103  27.568  1.00  0.00     0.124 S 
ATOM     90  O   UNL A   1      44.163  36.993  27.017  1.00  0.00    -0.237 OA
ATOM     91  O   UNL A   1      45.765  38.275  28.399  1.00  0.00    -0.237 OA
ATOM     92  O   UNL A   1      46.588  36.753  26.644  1.00  0.00    -0.744 OA
ENDBRANCH  85  89
ENDBRANCH  59  82
ENDBRANCH  33  34
ENDBRANCH  25  28
ENDBRANCH   1  24
TORSDOF 15
ENDMDL
MODEL 3
REMARK VINA RESULT:     -12.1      2.392      3.908
REMARK SMILES Nc1ccc(N2CC3(CCC3)C2)c(C(=O)NCCCNC(=O)c2ccc(-c3c4nc(c(-c5cc(S(=O)(=O)[O-])ccc5F)c5ccc([nH]5)c(-c5cc(S(=O)(=O)[O-])ccc5F)c5nc(c(-c6cc(S(=O)(=O)[O-])ccc6F)c6ccc3[nH]6)C=C5)C=C4)cc2)c1
REMARK SMILES IDX 19 1 18 2 17 3 16 4 14 5 15 6 13 8 2 9 3 10 86 11 4 12 5 13
REMARK SMILES IDX 1 14 6 17 7 18 12 19 8 20 9 21 11 22 10 23 20 24 21 25 22 27
REMARK SMILES IDX 23 28 24 29 85 30 25 31 84 32 26 33 27 34 28 35 78 36 29 37
REMARK SMILES IDX 83 38 77 39 79 40 30 41 82 42 76 43 75 44 31 46 63 47 43 48
REMARK SMILES IDX 62 49 44 50 47 51 61 52 80 53 45 54 46 55 60 57 81 58 48 59
REMARK SMILES IDX 32 60 33 61 41 62 34 63 40 64 42 65 39 66 35 67 36 68 37 69
REMARK SMILES IDX 38 70 64 71 65 72 73 73 66 74 72 75 74 76 71 77 67 78 68 79
REMARK SMILES IDX 69 80 70 81 49 82 50 83 58 84 51 85 57 86 59 87 56 88 52 89
REMARK SMILES IDX 53 90 54 91 55 92
REMARK H PARENT 16 7 1 15 1 16 20 26 79 45 47 56
REMARK Flexibility Score: inf
ROOT
ATOM      1  C   UNL A   1      32.614  30.028  26.342  1.00  0.00     0.118 C 
ENDROOT
BRANCH   1   2
ATOM      2  C   UNL A   1      31.558  29.232  27.112  1.00  0.00     0.042 C 
BRANCH   2   3
ATOM      3  C   UNL A   1      32.038  27.835  27.502  1.00  0.00     0.118 C 
BRANCH   3   4
ATOM      4  N   UNL A   1      31.191  26.830  26.894  1.00  0.00    -0.352 N 
ATOM      5  C   UNL A   1      30.906  26.412  25.621  1.00  0.00     0.253 C 
ATOM      6  O   UNL A   1      30.018  25.563  25.603  1.00  0.00    -0.269 OA
ATOM      7  H   UNL A   1      30.692  26.316  27.569  1.00  0.00     0.163 HD
BRANCH   5   8
ATOM      8  C   UNL A   1      31.629  26.855  24.378  1.00  0.00     0.065 A 
ATOM      9  C   UNL A   1      31.909  28.604  22.672  1.00  0.00     0.032 A 
ATOM     10  C   UNL A   1      33.150  28.082  22.345  1.00  0.00     0.027 A 
ATOM     11  C   UNL A   1      31.139  27.940  23.630  1.00  0.00     0.041 A 
ATOM     12  C   UNL A   1      33.615  26.933  22.985  1.00  0.00     0.029 A 
ATOM     13  C   UNL A   1      32.866  26.283  23.989  1.00  0.00     0.050 A 
BRANCH   9  14
ATOM     14  N   UNL A   1      31.402  29.703  22.001  1.00  0.00    -0.399 N 
ATOM     15  H   UNL A   1      31.620  29.843  21.051  1.00  0.00     0.156 HD
ATOM     16  H   UNL A   1      30.822  30.343  22.472  1.00  0.00     0.156 HD
ENDBRANCH   9  14
BRANCH  13  17
ATOM     17  N   UNL A   1      33.428  25.100  24.494  1.00  0.00    -0.370 N 
ATOM     18  C   UNL A   1      33.084  23.732  24.238  1.00  0.00     0.125 C 
ATOM     19  C   UNL A   1      34.648  24.792  25.182  1.00  0.00     0.125 C 
ATOM     20  C   UNL A   1      34.504  23.411  24.600  1.00  0.00     0.005 C 
ATOM     21  C   UNL A   1      34.868  22.218  25.442  1.00  0.00     0.011 C 
ATOM     22  C   UNL A   1      35.439  22.952  23.500  1.00  0.00     0.011 C 
ATOM     23  C   UNL A   1      36.167  22.133  24.592  1.00  0.00     0.001 C 
ENDBRANCH  13  17
ENDBRANCH   5   8
ENDBRANCH   3   4
ENDBRANCH   2   3
ENDBRANCH   1   2
BRANCH   1  24
ATOM     24  N   UNL A   1      32.461  31.464  26.541  1.00  0.00    -0.352 N 
ATOM     25  C   UNL A   1      33.166  32.313  27.359  1.00  0.00     0.251 C 
ATOM     26  H   UNL A   1      31.748  31.887  26.011  1.00  0.00     0.163 HD
ATOM     27  O   UNL A   1      32.721  33.429  27.605  1.00  0.00    -0.269 OA
BRANCH  25  28
ATOM     28  C   UNL A   1      34.448  31.870  27.944  1.00  0.00     0.039 A 
ATOM     29  C   UNL A   1      35.521  32.764  28.000  1.00  0.00     0.014 A 
ATOM     30  C   UNL A   1      34.589  30.567  28.430  1.00  0.00     0.014 A 
ATOM     31  C   UNL A   1      36.714  32.371  28.612  1.00  0.00     0.010 A 
ATOM     32  C   UNL A   1      35.750  30.204  29.104  1.00  0.00     0.010 A 
ATOM     33  C   UNL A   1      36.824  31.103  29.204  1.00  0.00    -0.014 A 
BRANCH  33  34
ATOM     34  C   UNL A   1      38.045  30.687  29.942  1.00  0.00     0.031 A 
ATOM     35  C   UNL A   1      38.992  29.696  29.322  1.00  0.00     0.074 A 
ATOM     36  C   UNL A   1      38.251  31.132  31.198  1.00  0.00     0.049 A 
ATOM     37  N   UNL A   1      40.028  29.099  29.851  1.00  0.00    -0.248 NA
ATOM     38  C   UNL A   1      38.713  29.304  27.932  1.00  0.00     0.031 C 
ATOM     39  C   UNL A   1      37.387  32.075  31.911  1.00  0.00     0.029 A 
ATOM     40  N   UNL A   1      39.237  30.835  32.106  1.00  0.00    -0.354 N 
ATOM     41  C   UNL A   1      40.515  28.245  28.867  1.00  0.00     0.074 A 
ATOM     42  C   UNL A   1      39.624  28.362  27.732  1.00  0.00     0.031 C 
ATOM     43  C   UNL A   1      37.891  32.292  33.137  1.00  0.00     0.029 A 
ATOM     44  C   UNL A   1      39.075  31.459  33.322  1.00  0.00     0.049 A 
ATOM     45  H   UNL A   1      39.990  30.233  31.905  1.00  0.00     0.167 HD
ATOM     46  C   UNL A   1      41.615  27.453  28.902  1.00  0.00     0.034 A 
ATOM     47  C   UNL A   1      39.783  31.352  34.465  1.00  0.00     0.034 A 
ATOM     48  C   UNL A   1      42.493  27.357  30.042  1.00  0.00     0.049 A 
ATOM     49  C   UNL A   1      40.973  30.426  34.497  1.00  0.00     0.074 A 
ATOM     50  C   UNL A   1      43.662  26.626  30.169  1.00  0.00     0.029 A 
ATOM     51  N   UNL A   1      42.295  28.000  31.257  1.00  0.00    -0.354 N 
ATOM     52  N   UNL A   1      41.446  29.655  33.544  1.00  0.00    -0.248 NA
ATOM     53  C   UNL A   1      41.728  30.357  35.755  1.00  0.00     0.031 C 
ATOM     54  C   UNL A   1      44.124  26.764  31.481  1.00  0.00     0.029 A 
ATOM     55  C   UNL A   1      43.298  27.655  32.149  1.00  0.00     0.049 A 
ATOM     56  H   UNL A   1      41.551  28.614  31.456  1.00  0.00     0.167 HD
ATOM     57  C   UNL A   1      42.576  29.041  34.078  1.00  0.00     0.074 A 
ATOM     58  C   UNL A   1      42.717  29.536  35.432  1.00  0.00     0.031 C 
ATOM     59  C   UNL A   1      43.425  28.155  33.498  1.00  0.00     0.034 A 
BRANCH  46  60
ATOM     60  C   UNL A   1      41.906  26.607  27.685  1.00  0.00     0.023 A 
ATOM     61  C   UNL A   1      41.500  25.263  27.603  1.00  0.00     0.031 A 
ATOM     62  C   UNL A   1      42.618  27.143  26.597  1.00  0.00     0.131 A 
ATOM     63  C   UNL A   1      41.874  24.483  26.499  1.00  0.00     0.055 A 
ATOM     64  C   UNL A   1      42.912  26.385  25.462  1.00  0.00     0.041 A 
ATOM     65  F   UNL A   1      43.054  28.412  26.624  1.00  0.00    -0.206 F 
ATOM     66  C   UNL A   1      42.553  25.041  25.415  1.00  0.00     0.022 A 
BRANCH  63  67
ATOM     67  S   UNL A   1      41.593  22.692  26.572  1.00  0.00     0.124 S 
ATOM     68  O   UNL A   1      40.133  22.622  26.546  1.00  0.00    -0.237 OA
ATOM     69  O   UNL A   1      42.277  22.217  25.376  1.00  0.00    -0.237 OA
ATOM     70  O   UNL A   1      42.205  22.300  27.841  1.00  0.00    -0.744 OA
ENDBRANCH  63  67
ENDBRANCH  46  60
BRANCH  47  71
ATOM     71  C   UNL A   1      39.380  32.119  35.679  1.00  0.00     0.023 A 
ATOM     72  C   UNL A   1      38.618  31.517  36.693  1.00  0.00     0.031 A 
ATOM     73  C   UNL A   1      39.713  33.478  35.826  1.00  0.00     0.131 A 
ATOM     74  C   UNL A   1      38.171  32.284  37.781  1.00  0.00     0.055 A 
ATOM     75  C   UNL A   1      39.318  34.220  36.941  1.00  0.00     0.041 A 
ATOM     76  F   UNL A   1      40.442  34.104  34.888  1.00  0.00    -0.206 F 
ATOM     77  C   UNL A   1      38.529  33.626  37.921  1.00  0.00     0.022 A 
BRANCH  74  78
ATOM     78  S   UNL A   1      37.028  31.521  38.967  1.00  0.00     0.124 S 
ATOM     79  O   UNL A   1      35.874  32.407  38.876  1.00  0.00    -0.237 OA
ATOM     80  O   UNL A   1      36.860  30.184  38.408  1.00  0.00    -0.237 OA
ATOM     81  O   UNL A   1      37.762  31.578  40.230  1.00  0.00    -0.744 OA
ENDBRANCH  74  78
ENDBRANCH  47  71
BRANCH  59  82
ATOM     82  C   UNL A   1      44.620  27.709  34.306  1.00  0.00     0.023 A 
ATOM     83  C   UNL A   1      44.595  26.550  35.099  1.00  0.00     0.031 A 
ATOM     84  C   UNL A   1      45.814  28.454  34.259  1.00  0.00     0.131 A 
ATOM     85  C   UNL A   1      45.727  26.192  35.847  1.00  0.00     0.055 A 
ATOM     86  C   UNL A   1      46.955  28.058  34.955  1.00  0.00     0.041 A 
ATOM     87  F   UNL A   1      45.892  29.573  33.520  1.00  0.00    -0.206 F 
ATOM     88  C   UNL A   1      46.913  26.926  35.763  1.00  0.00     0.022 A 
BRANCH  85  89
ATOM     89  S   UNL A   1      45.609  24.793  36.994  1.00  0.00     0.124 S 
ATOM     90  O   UNL A   1      46.828  24.943  37.782  1.00  0.00    -0.237 OA
ATOM     91  O   UNL A   1      44.359  25.067  37.696  1.00  0.00    -0.237 OA
ATOM     92  O   UNL A   1      45.580  23.627  36.113  1.00  0.00    -0.744 OA
ENDBRANCH  85  89
ENDBRANCH  59  82
ENDBRANCH  33  34
ENDBRANCH  25  28
ENDBRANCH   1  24
TORSDOF 15
ENDMDL
