MODEL 1
REMARK VINA RESULT:     -12.5      0.000      0.000
REMARK SMILES O=C(NCCCNC(=O)[C@@H]1C=C[C@H](NS(=O)(=O)c2ccc(Cl)cc2)C1)c1ccc(-c2c3nc(c(-c4cc(S(=O)(=O)[O-])ccc4F)c4ccc([nH]4)c(-c4cc(S(=O)(=O)[O-])ccc4F)c4nc(c(-c5cc(S(=O)(=O)[O-])ccc5F)c5ccc2[nH]5)C=C4)C=C3)cc1
REMARK SMILES IDX 5 1 4 2 3 3 1 4 2 5 26 7 27 8 88 9 28 10 87 11 29 12 30 13
REMARK SMILES IDX 31 14 81 15 32 16 86 17 80 18 82 19 33 20 85 21 79 22 78 23
REMARK SMILES IDX 34 25 66 26 46 27 65 28 47 29 50 30 64 31 83 32 48 33 49 34
REMARK SMILES IDX 63 36 84 37 51 38 35 39 36 40 44 41 37 42 43 43 45 44 42 45
REMARK SMILES IDX 38 46 39 47 40 48 41 49 67 50 68 51 76 52 69 53 75 54 77 55
REMARK SMILES IDX 74 56 70 57 71 58 72 59 73 60 52 61 53 62 61 63 54 64 60 65
REMARK SMILES IDX 62 66 59 67 55 68 56 69 57 70 58 71 6 72 7 73 8 74 9 76
REMARK SMILES IDX 10 77 11 78 25 79 12 80 13 81 14 82 15 84 16 85 17 86 18 87
REMARK SMILES IDX 19 88 24 89 20 90 23 91 21 92 22 93
REMARK H PARENT 3 6 82 24 50 35 7 75 14 83
REMARK Flexibility Score: inf
ROOT
ATOM      1  C   UNL A   1      31.656  28.151  26.178  1.00  0.00     0.042 C 
ENDROOT
BRANCH   1   2
ATOM      2  C   UNL A   1      32.650  29.252  25.859  1.00  0.00     0.118 C 
BRANCH   2   3
ATOM      3  N   UNL A   1      32.217  30.583  26.273  1.00  0.00    -0.352 N 
ATOM      4  O   UNL A   1      32.344  32.589  27.315  1.00  0.00    -0.269 OA
ATOM      5  C   UNL A   1      32.878  31.517  27.047  1.00  0.00     0.251 C 
ATOM      6  H   UNL A   1      31.326  30.856  25.955  1.00  0.00     0.163 HD
BRANCH   5   7
ATOM      7  C   UNL A   1      34.218  31.200  27.592  1.00  0.00     0.039 A 
ATOM      8  C   UNL A   1      34.527  29.901  27.983  1.00  0.00     0.014 A 
ATOM      9  C   UNL A   1      35.155  32.222  27.773  1.00  0.00     0.014 A 
ATOM     10  C   UNL A   1      35.653  29.669  28.756  1.00  0.00     0.010 A 
ATOM     11  C   UNL A   1      36.364  31.954  28.427  1.00  0.00     0.010 A 
ATOM     12  C   UNL A   1      36.604  30.683  28.969  1.00  0.00    -0.014 A 
BRANCH  12  13
ATOM     13  C   UNL A   1      37.841  30.335  29.719  1.00  0.00     0.031 A 
ATOM     14  C   UNL A   1      38.029  30.727  31.160  1.00  0.00     0.074 A 
ATOM     15  C   UNL A   1      38.758  29.562  29.099  1.00  0.00     0.049 A 
ATOM     16  N   UNL A   1      39.020  30.440  31.967  1.00  0.00    -0.248 NA
ATOM     17  C   UNL A   1      36.982  31.556  31.774  1.00  0.00     0.031 C 
ATOM     18  C   UNL A   1      38.680  29.134  27.698  1.00  0.00     0.029 A 
ATOM     19  N   UNL A   1      39.895  28.953  29.563  1.00  0.00    -0.354 N 
ATOM     20  C   UNL A   1      38.728  31.065  33.175  1.00  0.00     0.074 A 
ATOM     21  C   UNL A   1      37.481  31.775  32.983  1.00  0.00     0.031 C 
ATOM     22  C   UNL A   1      39.661  28.258  27.447  1.00  0.00     0.029 A 
ATOM     23  C   UNL A   1      40.502  28.144  28.631  1.00  0.00     0.049 A 
ATOM     24  H   UNL A   1      40.243  29.084  30.474  1.00  0.00     0.167 HD
ATOM     25  C   UNL A   1      39.436  31.044  34.334  1.00  0.00     0.034 A 
ATOM     26  C   UNL A   1      41.626  27.405  28.705  1.00  0.00     0.034 A 
ATOM     27  C   UNL A   1      40.679  30.325  34.502  1.00  0.00     0.049 A 
ATOM     28  C   UNL A   1      42.388  27.404  29.998  1.00  0.00     0.074 A 
ATOM     29  C   UNL A   1      41.491  30.249  35.621  1.00  0.00     0.029 A 
ATOM     30  N   UNL A   1      41.290  29.551  33.521  1.00  0.00    -0.354 N 
ATOM     31  N   UNL A   1      42.109  28.028  31.120  1.00  0.00    -0.248 NA
ATOM     32  C   UNL A   1      43.617  26.605  30.037  1.00  0.00     0.031 C 
ATOM     33  C   UNL A   1      42.614  29.475  35.301  1.00  0.00     0.029 A 
ATOM     34  C   UNL A   1      42.473  29.008  34.005  1.00  0.00     0.049 A 
ATOM     35  H   UNL A   1      40.934  29.408  32.614  1.00  0.00     0.167 HD
ATOM     36  C   UNL A   1      43.133  27.698  31.999  1.00  0.00     0.074 A 
ATOM     37  C   UNL A   1      44.007  26.782  31.291  1.00  0.00     0.031 C 
ATOM     38  C   UNL A   1      43.344  28.121  33.271  1.00  0.00     0.034 A 
BRANCH  25  39
ATOM     39  C   UNL A   1      38.904  31.858  35.492  1.00  0.00     0.023 A 
ATOM     40  C   UNL A   1      38.334  31.252  36.626  1.00  0.00     0.031 A 
ATOM     41  C   UNL A   1      38.956  33.264  35.456  1.00  0.00     0.131 A 
ATOM     42  C   UNL A   1      37.787  32.047  37.647  1.00  0.00     0.055 A 
ATOM     43  C   UNL A   1      38.476  34.047  36.508  1.00  0.00     0.041 A 
ATOM     44  F   UNL A   1      39.470  33.901  34.392  1.00  0.00    -0.206 F 
ATOM     45  C   UNL A   1      37.876  33.440  37.607  1.00  0.00     0.022 A 
BRANCH  42  46
ATOM     46  S   UNL A   1      36.848  31.238  38.972  1.00  0.00     0.124 S 
ATOM     47  O   UNL A   1      36.666  29.893  38.430  1.00  0.00    -0.237 OA
ATOM     48  O   UNL A   1      37.750  31.348  40.113  1.00  0.00    -0.237 OA
ATOM     49  O   UNL A   1      35.626  32.034  39.065  1.00  0.00    -0.744 OA
ENDBRANCH  42  46
ENDBRANCH  25  39
BRANCH  26  50
ATOM     50  C   UNL A   1      42.115  26.661  27.509  1.00  0.00     0.023 A 
ATOM     51  C   UNL A   1      41.869  25.289  27.349  1.00  0.00     0.031 A 
ATOM     52  C   UNL A   1      42.860  27.318  26.511  1.00  0.00     0.131 A 
ATOM     53  C   UNL A   1      42.393  24.611  26.236  1.00  0.00     0.055 A 
ATOM     54  C   UNL A   1      43.324  26.653  25.376  1.00  0.00     0.041 A 
ATOM     55  F   UNL A   1      43.124  28.630  26.613  1.00  0.00    -0.206 F 
ATOM     56  C   UNL A   1      43.104  25.287  25.241  1.00  0.00     0.022 A 
BRANCH  53  57
ATOM     57  S   UNL A   1      42.216  22.808  26.153  1.00  0.00     0.124 S 
ATOM     58  O   UNL A   1      42.990  22.377  27.311  1.00  0.00    -0.237 OA
ATOM     59  O   UNL A   1      40.769  22.643  26.251  1.00  0.00    -0.237 OA
ATOM     60  O   UNL A   1      42.794  22.469  24.855  1.00  0.00    -0.744 OA
ENDBRANCH  53  57
ENDBRANCH  26  50
BRANCH  38  61
ATOM     61  C   UNL A   1      44.567  27.573  33.961  1.00  0.00     0.023 A 
ATOM     62  C   UNL A   1      44.514  26.379  34.703  1.00  0.00     0.031 A 
ATOM     63  C   UNL A   1      45.780  28.281  33.927  1.00  0.00     0.131 A 
ATOM     64  C   UNL A   1      45.632  25.967  35.441  1.00  0.00     0.055 A 
ATOM     65  C   UNL A   1      46.908  27.833  34.614  1.00  0.00     0.041 A 
ATOM     66  F   UNL A   1      45.882  29.429  33.237  1.00  0.00    -0.206 F 
ATOM     67  C   UNL A   1      46.834  26.679  35.391  1.00  0.00     0.022 A 
BRANCH  64  68
ATOM     68  S   UNL A   1      45.459  24.550  36.560  1.00  0.00     0.124 S 
ATOM     69  O   UNL A   1      45.210  25.205  37.841  1.00  0.00    -0.237 OA
ATOM     70  O   UNL A   1      44.329  23.831  35.981  1.00  0.00    -0.237 OA
ATOM     71  O   UNL A   1      46.748  23.870  36.453  1.00  0.00    -0.744 OA
ENDBRANCH  64  68
ENDBRANCH  38  61
ENDBRANCH  12  13
ENDBRANCH   5   7
ENDBRANCH   2   3
ENDBRANCH   1   2
BRANCH   1  72
ATOM     72  C   UNL A   1      32.324  26.867  26.641  1.00  0.00     0.117 C 
BRANCH  72  73
ATOM     73  N   UNL A   1      31.399  25.801  26.931  1.00  0.00    -0.356 N 
ATOM     74  C   UNL A   1      31.532  24.476  26.660  1.00  0.00     0.226 C 
ATOM     75  H   UNL A   1      30.565  26.066  27.383  1.00  0.00     0.163 HD
ATOM     76  O   UNL A   1      30.813  23.704  27.306  1.00  0.00    -0.274 OA
BRANCH  74  77
ATOM     77  C   UNL A   1      32.555  23.898  25.662  1.00  0.00     0.103 C 
ATOM     78  C   UNL A   1      33.973  24.080  26.108  1.00  0.00    -0.016 C 
ATOM     79  C   UNL A   1      32.575  24.341  24.189  1.00  0.00     0.042 C 
ATOM     80  C   UNL A   1      34.752  24.565  25.136  1.00  0.00    -0.011 C 
ATOM     81  C   UNL A   1      34.009  24.834  23.879  1.00  0.00     0.093 C 
BRANCH  81  82
ATOM     82  N   UNL A   1      34.014  26.222  23.432  1.00  0.00    -0.204 NA
ATOM     83  H   UNL A   1      35.000  26.481  23.435  1.00  0.00     0.142 HD
BRANCH  82  84
ATOM     84  S   UNL A   1      33.418  26.900  22.028  1.00  0.00     0.241 S 
ATOM     85  O   UNL A   1      34.271  28.027  21.748  1.00  0.00    -0.207 OA
ATOM     86  O   UNL A   1      33.211  25.865  21.034  1.00  0.00    -0.207 OA
BRANCH  84  87
ATOM     87  C   UNL A   1      31.826  27.552  22.441  1.00  0.00     0.082 A 
ATOM     88  C   UNL A   1      31.580  28.917  22.296  1.00  0.00     0.023 A 
ATOM     89  C   UNL A   1      30.816  26.678  22.869  1.00  0.00     0.023 A 
ATOM     90  C   UNL A   1      30.312  29.414  22.602  1.00  0.00     0.022 A 
ATOM     91  C   UNL A   1      29.554  27.180  23.174  1.00  0.00     0.022 A 
ATOM     92  C   UNL A   1      29.307  28.546  23.040  1.00  0.00     0.041 A 
ATOM     93  Cl  UNL A   1      27.746  29.166  23.413  1.00  0.00    -0.084 Cl
ENDBRANCH  84  87
ENDBRANCH  82  84
ENDBRANCH  81  82
ENDBRANCH  74  77
ENDBRANCH  72  73
ENDBRANCH   1  72
TORSDOF 16
ENDMDL
MODEL 2
REMARK VINA RESULT:     -12.3      0.589      7.591
REMARK SMILES O=C(NCCCNC(=O)[C@@H]1C=C[C@H](NS(=O)(=O)c2ccc(Cl)cc2)C1)c1ccc(-c2c3nc(c(-c4cc(S(=O)(=O)[O-])ccc4F)c4ccc([nH]4)c(-c4cc(S(=O)(=O)[O-])ccc4F)c4nc(c(-c5cc(S(=O)(=O)[O-])ccc5F)c5ccc2[nH]5)C=C4)C=C3)cc1
REMARK SMILES IDX 5 1 4 2 3 3 1 4 2 5 26 7 27 8 88 9 28 10 87 11 29 12 30 13
REMARK SMILES IDX 31 14 81 15 32 16 86 17 80 18 82 19 33 20 85 21 79 22 78 23
REMARK SMILES IDX 34 25 66 26 46 27 65 28 47 29 50 30 64 31 83 32 48 33 49 34
REMARK SMILES IDX 63 36 84 37 51 38 35 39 36 40 44 41 37 42 43 43 45 44 42 45
REMARK SMILES IDX 38 46 39 47 40 48 41 49 67 50 68 51 76 52 69 53 75 54 77 55
REMARK SMILES IDX 74 56 70 57 71 58 72 59 73 60 52 61 53 62 61 63 54 64 60 65
REMARK SMILES IDX 62 66 59 67 55 68 56 69 57 70 58 71 6 72 7 73 8 74 9 76
REMARK SMILES IDX 10 77 11 78 25 79 12 80 13 81 14 82 15 84 16 85 17 86 18 87
REMARK SMILES IDX 19 88 24 89 20 90 23 91 21 92 22 93
REMARK H PARENT 3 6 82 24 50 35 7 75 14 83
REMARK Flexibility Score: inf
ROOT
ATOM      1  C   UNL A   1      31.627  28.156  26.046  1.00  0.00     0.042 C 
ENDROOT
BRANCH   1   2
ATOM      2  C   UNL A   1      32.635  29.227  25.677  1.00  0.00     0.118 C 
BRANCH   2   3
ATOM      3  N   UNL A   1      32.266  30.570  26.118  1.00  0.00    -0.352 N 
ATOM      4  O   UNL A   1      32.458  32.520  27.251  1.00  0.00    -0.269 OA
ATOM      5  C   UNL A   1      32.934  31.423  26.973  1.00  0.00     0.251 C 
ATOM      6  H   UNL A   1      31.420  30.917  25.752  1.00  0.00     0.163 HD
BRANCH   5   7
ATOM      7  C   UNL A   1      34.208  30.991  27.592  1.00  0.00     0.039 A 
ATOM      8  C   UNL A   1      34.390  29.664  27.969  1.00  0.00     0.014 A 
ATOM      9  C   UNL A   1      35.207  31.933  27.858  1.00  0.00     0.014 A 
ATOM     10  C   UNL A   1      35.443  29.330  28.805  1.00  0.00     0.010 A 
ATOM     11  C   UNL A   1      36.348  31.558  28.579  1.00  0.00     0.010 A 
ATOM     12  C   UNL A   1      36.454  30.261  29.102  1.00  0.00    -0.014 A 
BRANCH  12  13
ATOM     13  C   UNL A   1      37.610  29.801  29.919  1.00  0.00     0.031 A 
ATOM     14  C   UNL A   1      38.698  28.941  29.335  1.00  0.00     0.074 A 
ATOM     15  C   UNL A   1      37.713  30.264  31.182  1.00  0.00     0.049 A 
ATOM     16  N   UNL A   1      39.801  28.515  29.900  1.00  0.00    -0.248 NA
ATOM     17  C   UNL A   1      38.526  28.485  27.948  1.00  0.00     0.031 C 
ATOM     18  C   UNL A   1      36.707  31.097  31.851  1.00  0.00     0.029 A 
ATOM     19  N   UNL A   1      38.717  30.158  32.109  1.00  0.00    -0.354 N 
ATOM     20  C   UNL A   1      40.445  27.730  28.948  1.00  0.00     0.074 A 
ATOM     21  C   UNL A   1      39.590  27.712  27.780  1.00  0.00     0.031 C 
ATOM     22  C   UNL A   1      37.186  31.506  33.033  1.00  0.00     0.029 A 
ATOM     23  C   UNL A   1      38.483  30.881  33.256  1.00  0.00     0.049 A 
ATOM     24  H   UNL A   1      39.527  29.617  31.967  1.00  0.00     0.167 HD
ATOM     25  C   UNL A   1      41.638  27.090  29.044  1.00  0.00     0.034 A 
ATOM     26  C   UNL A   1      39.214  31.012  34.379  1.00  0.00     0.034 A 
ATOM     27  C   UNL A   1      42.476  27.125  30.222  1.00  0.00     0.049 A 
ATOM     28  C   UNL A   1      40.528  30.290  34.457  1.00  0.00     0.074 A 
ATOM     29  C   UNL A   1      43.692  26.499  30.439  1.00  0.00     0.029 A 
ATOM     30  N   UNL A   1      42.185  27.831  31.385  1.00  0.00    -0.354 N 
ATOM     31  N   UNL A   1      41.103  29.528  33.554  1.00  0.00    -0.248 NA
ATOM     32  C   UNL A   1      41.289  30.439  35.701  1.00  0.00     0.031 C 
ATOM     33  C   UNL A   1      44.108  26.783  31.746  1.00  0.00     0.029 A 
ATOM     34  C   UNL A   1      43.190  27.643  32.325  1.00  0.00     0.049 A 
ATOM     35  H   UNL A   1      41.382  28.385  31.522  1.00  0.00     0.167 HD
ATOM     36  C   UNL A   1      42.296  29.103  34.127  1.00  0.00     0.074 A 
ATOM     37  C   UNL A   1      42.377  29.734  35.430  1.00  0.00     0.031 C 
ATOM     38  C   UNL A   1      43.235  28.258  33.630  1.00  0.00     0.034 A 
BRANCH  25  39
ATOM     39  C   UNL A   1      42.084  26.262  27.860  1.00  0.00     0.023 A 
ATOM     40  C   UNL A   1      41.716  24.912  27.717  1.00  0.00     0.031 A 
ATOM     41  C   UNL A   1      42.902  26.828  26.864  1.00  0.00     0.131 A 
ATOM     42  C   UNL A   1      42.211  24.159  26.640  1.00  0.00     0.055 A 
ATOM     43  C   UNL A   1      43.330  26.093  25.756  1.00  0.00     0.041 A 
ATOM     44  F   UNL A   1      43.303  28.105  26.954  1.00  0.00    -0.206 F 
ATOM     45  C   UNL A   1      42.996  24.747  25.645  1.00  0.00     0.022 A 
BRANCH  42  46
ATOM     46  S   UNL A   1      41.916  22.369  26.619  1.00  0.00     0.124 S 
ATOM     47  O   UNL A   1      40.456  22.308  26.648  1.00  0.00    -0.237 OA
ATOM     48  O   UNL A   1      42.545  21.958  25.370  1.00  0.00    -0.237 OA
ATOM     49  O   UNL A   1      42.575  21.896  27.835  1.00  0.00    -0.744 OA
ENDBRANCH  42  46
ENDBRANCH  25  39
BRANCH  26  50
ATOM     50  C   UNL A   1      38.693  31.812  35.525  1.00  0.00     0.023 A 
ATOM     51  C   UNL A   1      38.152  31.194  36.662  1.00  0.00     0.031 A 
ATOM     52  C   UNL A   1      38.712  33.219  35.485  1.00  0.00     0.131 A 
ATOM     53  C   UNL A   1      37.620  31.981  37.697  1.00  0.00     0.055 A 
ATOM     54  C   UNL A   1      38.240  33.995  36.543  1.00  0.00     0.041 A 
ATOM     55  F   UNL A   1      39.220  33.862  34.422  1.00  0.00    -0.206 F 
ATOM     56  C   UNL A   1      37.676  33.376  37.653  1.00  0.00     0.022 A 
BRANCH  53  57
ATOM     57  S   UNL A   1      36.762  31.155  39.065  1.00  0.00     0.124 S 
ATOM     58  O   UNL A   1      35.588  32.002  39.238  1.00  0.00    -0.237 OA
ATOM     59  O   UNL A   1      36.519  29.827  38.510  1.00  0.00    -0.237 OA
ATOM     60  O   UNL A   1      37.734  31.204  40.155  1.00  0.00    -0.744 OA
ENDBRANCH  53  57
ENDBRANCH  26  50
BRANCH  38  61
ATOM     61  C   UNL A   1      44.428  27.994  34.513  1.00  0.00     0.023 A 
ATOM     62  C   UNL A   1      44.350  27.102  35.598  1.00  0.00     0.031 A 
ATOM     63  C   UNL A   1      45.634  28.684  34.305  1.00  0.00     0.131 A 
ATOM     64  C   UNL A   1      45.434  26.979  36.478  1.00  0.00     0.055 A 
ATOM     65  C   UNL A   1      46.731  28.511  35.148  1.00  0.00     0.041 A 
ATOM     66  F   UNL A   1      45.758  29.550  33.286  1.00  0.00    -0.206 F 
ATOM     67  C   UNL A   1      46.630  27.667  36.253  1.00  0.00     0.022 A 
BRANCH  64  68
ATOM     68  S   UNL A   1      45.221  25.996  37.987  1.00  0.00     0.124 S 
ATOM     69  O   UNL A   1      45.167  24.636  37.457  1.00  0.00    -0.237 OA
ATOM     70  O   UNL A   1      46.417  26.335  38.752  1.00  0.00    -0.237 OA
ATOM     71  O   UNL A   1      43.966  26.494  38.546  1.00  0.00    -0.744 OA
ENDBRANCH  64  68
ENDBRANCH  38  61
ENDBRANCH  12  13
ENDBRANCH   5   7
ENDBRANCH   2   3
ENDBRANCH   1   2
BRANCH   1  72
ATOM     72  C   UNL A   1      32.272  26.923  26.657  1.00  0.00     0.117 C 
BRANCH  72  73
ATOM     73  N   UNL A   1      31.349  25.844  26.903  1.00  0.00    -0.356 N 
ATOM     74  C   UNL A   1      31.505  24.524  26.617  1.00  0.00     0.226 C 
ATOM     75  H   UNL A   1      30.499  26.094  27.331  1.00  0.00     0.163 HD
ATOM     76  O   UNL A   1      30.773  23.735  27.229  1.00  0.00    -0.274 OA
BRANCH  74  77
ATOM     77  C   UNL A   1      32.565  23.970  25.644  1.00  0.00     0.103 C 
ATOM     78  C   UNL A   1      33.967  24.189  26.123  1.00  0.00    -0.016 C 
ATOM     79  C   UNL A   1      32.608  24.412  24.172  1.00  0.00     0.042 C 
ATOM     80  C   UNL A   1      34.756  24.692  25.169  1.00  0.00    -0.011 C 
ATOM     81  C   UNL A   1      34.036  24.940  23.894  1.00  0.00     0.093 C 
BRANCH  81  82
ATOM     82  N   UNL A   1      34.016  26.327  23.445  1.00  0.00    -0.204 NA
ATOM     83  H   UNL A   1      34.994  26.614  23.479  1.00  0.00     0.142 HD
BRANCH  82  84
ATOM     84  S   UNL A   1      33.448  26.986  22.020  1.00  0.00     0.241 S 
ATOM     85  O   UNL A   1      34.290  28.126  21.755  1.00  0.00    -0.207 OA
ATOM     86  O   UNL A   1      33.286  25.941  21.027  1.00  0.00    -0.207 OA
BRANCH  84  87
ATOM     87  C   UNL A   1      31.835  27.613  22.386  1.00  0.00     0.082 A 
ATOM     88  C   UNL A   1      31.550  28.960  22.160  1.00  0.00     0.023 A 
ATOM     89  C   UNL A   1      30.848  26.736  22.857  1.00  0.00     0.023 A 
ATOM     90  C   UNL A   1      30.266  29.436  22.429  1.00  0.00     0.022 A 
ATOM     91  C   UNL A   1      29.569  27.217  23.125  1.00  0.00     0.022 A 
ATOM     92  C   UNL A   1      29.283  28.566  22.911  1.00  0.00     0.041 A 
ATOM     93  Cl  UNL A   1      27.702  29.159  23.238  1.00  0.00    -0.084 Cl
ENDBRANCH  84  87
ENDBRANCH  82  84
ENDBRANCH  81  82
ENDBRANCH  74  77
ENDBRANCH  72  73
ENDBRANCH   1  72
TORSDOF 16
ENDMDL
MODEL 3
REMARK VINA RESULT:     -12.2      2.728      3.712
REMARK SMILES O=C(NCCCNC(=O)[C@@H]1C=C[C@H](NS(=O)(=O)c2ccc(Cl)cc2)C1)c1ccc(-c2c3nc(c(-c4cc(S(=O)(=O)[O-])ccc4F)c4ccc([nH]4)c(-c4cc(S(=O)(=O)[O-])ccc4F)c4nc(c(-c5cc(S(=O)(=O)[O-])ccc5F)c5ccc2[nH]5)C=C4)C=C3)cc1
REMARK SMILES IDX 5 1 4 2 3 3 1 4 2 5 26 7 27 8 88 9 28 10 87 11 29 12 30 13
REMARK SMILES IDX 31 14 81 15 32 16 86 17 80 18 82 19 33 20 85 21 79 22 78 23
REMARK SMILES IDX 34 25 66 26 46 27 65 28 47 29 50 30 64 31 83 32 48 33 49 34
REMARK SMILES IDX 63 36 84 37 51 38 35 39 36 40 44 41 37 42 43 43 45 44 42 45
REMARK SMILES IDX 38 46 39 47 40 48 41 49 67 50 68 51 76 52 69 53 75 54 77 55
REMARK SMILES IDX 74 56 70 57 71 58 72 59 73 60 52 61 53 62 61 63 54 64 60 65
REMARK SMILES IDX 62 66 59 67 55 68 56 69 57 70 58 71 6 72 7 73 8 74 9 76
REMARK SMILES IDX 10 77 11 78 25 79 12 80 13 81 14 82 15 84 16 85 17 86 18 87
REMARK SMILES IDX 19 88 24 89 20 90 23 91 21 92 22 93
REMARK H PARENT 3 6 82 24 50 35 7 75 14 83
REMARK Flexibility Score: inf
ROOT
ATOM      1  C   UNL A   1      31.533  29.386  26.114  1.00  0.00     0.042 C 
ENDROOT
BRANCH   1   2
ATOM      2  C   UNL A   1      32.628  30.425  25.968  1.00  0.00     0.118 C 
BRANCH   2   3
ATOM      3  N   UNL A   1      32.275  31.741  26.495  1.00  0.00    -0.352 N 
ATOM      4  O   UNL A   1      32.521  33.640  27.701  1.00  0.00    -0.269 OA
ATOM      5  C   UNL A   1      32.990  32.565  27.341  1.00  0.00     0.251 C 
ATOM      6  H   UNL A   1      31.402  32.092  26.204  1.00  0.00     0.163 HD
BRANCH   5   7
ATOM      7  C   UNL A   1      34.308  32.123  27.852  1.00  0.00     0.039 A 
ATOM      8  C   UNL A   1      34.496  30.808  28.264  1.00  0.00     0.014 A 
ATOM      9  C   UNL A   1      35.350  33.048  27.980  1.00  0.00     0.014 A 
ATOM     10  C   UNL A   1      35.617  30.478  29.007  1.00  0.00     0.010 A 
ATOM     11  C   UNL A   1      36.546  32.671  28.603  1.00  0.00     0.010 A 
ATOM     12  C   UNL A   1      36.673  31.393  29.167  1.00  0.00    -0.014 A 
BRANCH  12  13
ATOM     13  C   UNL A   1      37.893  30.936  29.886  1.00  0.00     0.031 A 
ATOM     14  C   UNL A   1      38.159  31.322  31.317  1.00  0.00     0.074 A 
ATOM     15  C   UNL A   1      38.713  30.072  29.252  1.00  0.00     0.049 A 
ATOM     16  N   UNL A   1      39.141  30.950  32.100  1.00  0.00    -0.248 NA
ATOM     17  C   UNL A   1      37.214  32.255  31.949  1.00  0.00     0.031 C 
ATOM     18  C   UNL A   1      38.553  29.639  27.859  1.00  0.00     0.029 A 
ATOM     19  N   UNL A   1      39.799  29.362  29.692  1.00  0.00    -0.354 N 
ATOM     20  C   UNL A   1      38.946  31.613  33.307  1.00  0.00     0.074 A 
ATOM     21  C   UNL A   1      37.767  32.438  33.141  1.00  0.00     0.031 C 
ATOM     22  C   UNL A   1      39.439  28.670  27.593  1.00  0.00     0.029 A 
ATOM     23  C   UNL A   1      40.299  28.488  28.754  1.00  0.00     0.049 A 
ATOM     24  H   UNL A   1      40.185  29.467  30.591  1.00  0.00     0.167 HD
ATOM     25  C   UNL A   1      39.681  31.536  34.446  1.00  0.00     0.034 A 
ATOM     26  C   UNL A   1      41.349  27.645  28.806  1.00  0.00     0.034 A 
ATOM     27  C   UNL A   1      40.854  30.703  34.588  1.00  0.00     0.049 A 
ATOM     28  C   UNL A   1      42.145  27.584  30.078  1.00  0.00     0.074 A 
ATOM     29  C   UNL A   1      41.687  30.560  35.686  1.00  0.00     0.029 A 
ATOM     30  N   UNL A   1      41.360  29.863  33.601  1.00  0.00    -0.354 N 
ATOM     31  N   UNL A   1      41.959  28.244  31.198  1.00  0.00    -0.248 NA
ATOM     32  C   UNL A   1      43.292  26.671  30.093  1.00  0.00     0.031 C 
ATOM     33  C   UNL A   1      42.721  29.679  35.344  1.00  0.00     0.029 A 
ATOM     34  C   UNL A   1      42.499  29.215  34.059  1.00  0.00     0.049 A 
ATOM     35  H   UNL A   1      40.966  29.746  32.706  1.00  0.00     0.167 HD
ATOM     36  C   UNL A   1      42.972  27.826  32.053  1.00  0.00     0.074 A 
ATOM     37  C   UNL A   1      43.733  26.823  31.332  1.00  0.00     0.031 C 
ATOM     38  C   UNL A   1      43.259  28.240  33.313  1.00  0.00     0.034 A 
BRANCH  25  39
ATOM     39  C   UNL A   1      39.264  32.409  35.608  1.00  0.00     0.023 A 
ATOM     40  C   UNL A   1      39.695  33.742  35.728  1.00  0.00     0.031 A 
ATOM     41  C   UNL A   1      38.432  31.895  36.620  1.00  0.00     0.131 A 
ATOM     42  C   UNL A   1      39.343  34.495  36.860  1.00  0.00     0.055 A 
ATOM     43  C   UNL A   1      38.026  32.673  37.707  1.00  0.00     0.041 A 
ATOM     44  F   UNL A   1      38.004  30.624  36.573  1.00  0.00    -0.206 F 
ATOM     45  C   UNL A   1      38.491  33.978  37.839  1.00  0.00     0.022 A 
BRANCH  42  46
ATOM     46  S   UNL A   1      40.112  36.122  37.098  1.00  0.00     0.124 S 
ATOM     47  O   UNL A   1      41.496  35.756  37.394  1.00  0.00    -0.237 OA
ATOM     48  O   UNL A   1      39.887  36.771  35.812  1.00  0.00    -0.237 OA
ATOM     49  O   UNL A   1      39.373  36.691  38.223  1.00  0.00    -0.744 OA
ENDBRANCH  42  46
ENDBRANCH  25  39
BRANCH  26  50
ATOM     50  C   UNL A   1      41.729  26.845  27.607  1.00  0.00     0.023 A 
ATOM     51  C   UNL A   1      41.466  25.469  27.530  1.00  0.00     0.031 A 
ATOM     52  C   UNL A   1      42.386  27.452  26.519  1.00  0.00     0.131 A 
ATOM     53  C   UNL A   1      41.889  24.739  26.408  1.00  0.00     0.055 A 
ATOM     54  C   UNL A   1      42.747  26.734  25.379  1.00  0.00     0.041 A 
ATOM     55  F   UNL A   1      42.661  28.766  26.538  1.00  0.00    -0.206 F 
ATOM     56  C   UNL A   1      42.512  25.365  25.325  1.00  0.00     0.022 A 
BRANCH  53  57
ATOM     57  S   UNL A   1      41.701  22.935  26.422  1.00  0.00     0.124 S 
ATOM     58  O   UNL A   1      42.392  22.553  25.196  1.00  0.00    -0.237 OA
ATOM     59  O   UNL A   1      42.363  22.573  27.671  1.00  0.00    -0.237 OA
ATOM     60  O   UNL A   1      40.252  22.744  26.408  1.00  0.00    -0.744 OA
ENDBRANCH  53  57
ENDBRANCH  26  50
BRANCH  38  61
ATOM     61  C   UNL A   1      44.443  27.585  33.976  1.00  0.00     0.023 A 
ATOM     62  C   UNL A   1      44.309  26.375  34.681  1.00  0.00     0.031 A 
ATOM     63  C   UNL A   1      45.704  28.204  33.953  1.00  0.00     0.131 A 
ATOM     64  C   UNL A   1      45.399  25.861  35.396  1.00  0.00     0.055 A 
ATOM     65  C   UNL A   1      46.801  27.655  34.617  1.00  0.00     0.041 A 
ATOM     66  F   UNL A   1      45.884  29.363  33.298  1.00  0.00    -0.206 F 
ATOM     67  C   UNL A   1      46.648  26.486  35.358  1.00  0.00     0.022 A 
BRANCH  64  68
ATOM     68  S   UNL A   1      45.131  24.425  36.473  1.00  0.00     0.124 S 
ATOM     69  O   UNL A   1      44.806  25.060  37.747  1.00  0.00    -0.237 OA
ATOM     70  O   UNL A   1      44.033  23.735  35.805  1.00  0.00    -0.237 OA
ATOM     71  O   UNL A   1      46.415  23.727  36.438  1.00  0.00    -0.744 OA
ENDBRANCH  64  68
ENDBRANCH  38  61
ENDBRANCH  12  13
ENDBRANCH   5   7
ENDBRANCH   2   3
ENDBRANCH   1   2
BRANCH   1  72
ATOM     72  C   UNL A   1      31.760  28.448  27.286  1.00  0.00     0.117 C 
BRANCH  72  73
ATOM     73  N   UNL A   1      31.198  27.134  27.100  1.00  0.00    -0.356 N 
ATOM     74  C   UNL A   1      31.773  26.049  26.518  1.00  0.00     0.226 C 
ATOM     75  H   UNL A   1      30.281  27.007  27.436  1.00  0.00     0.163 HD
ATOM     76  O   UNL A   1      31.274  24.948  26.784  1.00  0.00    -0.274 OA
BRANCH  74  77
ATOM     77  C   UNL A   1      33.024  26.113  25.618  1.00  0.00     0.103 C 
ATOM     78  C   UNL A   1      32.691  26.134  24.159  1.00  0.00    -0.016 C 
ATOM     79  C   UNL A   1      34.140  25.060  25.724  1.00  0.00     0.042 C 
ATOM     80  C   UNL A   1      33.421  25.260  23.459  1.00  0.00    -0.011 C 
ATOM     81  C   UNL A   1      34.345  24.467  24.309  1.00  0.00     0.093 C 
BRANCH  81  82
ATOM     82  N   UNL A   1      34.127  23.025  24.296  1.00  0.00    -0.204 NA
ATOM     83  H   UNL A   1      35.014  22.636  24.615  1.00  0.00     0.142 HD
BRANCH  82  84
ATOM     84  S   UNL A   1      32.975  22.105  25.078  1.00  0.00     0.241 S 
ATOM     85  O   UNL A   1      33.295  22.190  26.481  1.00  0.00    -0.207 OA
ATOM     86  O   UNL A   1      31.653  22.464  24.599  1.00  0.00    -0.207 OA
BRANCH  84  87
ATOM     87  C   UNL A   1      33.272  20.433  24.584  1.00  0.00     0.082 A 
ATOM     88  C   UNL A   1      32.318  19.759  23.820  1.00  0.00     0.023 A 
ATOM     89  C   UNL A   1      34.484  19.819  24.931  1.00  0.00     0.023 A 
ATOM     90  C   UNL A   1      32.577  18.448  23.416  1.00  0.00     0.022 A 
ATOM     91  C   UNL A   1      34.734  18.511  24.526  1.00  0.00     0.022 A 
ATOM     92  C   UNL A   1      33.779  17.830  23.771  1.00  0.00     0.041 A 
ATOM     93  Cl  UNL A   1      34.091  16.215  23.267  1.00  0.00    -0.084 Cl
ENDBRANCH  84  87
ENDBRANCH  82  84
ENDBRANCH  81  82
ENDBRANCH  74  77
ENDBRANCH  72  73
ENDBRANCH   1  72
TORSDOF 16
ENDMDL
