MODEL 1
REMARK VINA RESULT:     -12.3      0.000      0.000
REMARK SMILES [NH3+][C@@H](CNc1ccc(C(=O)NCCCNC(=O)c2ccc(-c3c4nc(c(-c5cc(S(=O)(=O)[O-])ccc5F)c5ccc([nH]5)c(-c5cc(S(=O)(=O)[O-])ccc5F)c5nc(c(-c6cc(S(=O)(=O)[O-])ccc6F)c6ccc3[nH]6)C=C5)C=C4)cc2)c(F)c1F)c1ccccc1
REMARK SMILES IDX 12 1 11 2 9 3 10 4 8 6 5 7 6 8 83 9 7 10 81 11 84 12 82 13
REMARK SMILES IDX 4 14 3 16 2 17 1 18 85 22 86 23 90 24 87 25 89 26 88 27
REMARK SMILES IDX 13 28 14 29 15 30 16 31 17 33 18 34 19 35 80 36 20 37 79 38
REMARK SMILES IDX 21 39 22 40 23 41 73 42 24 43 78 44 72 45 74 46 25 47 77 48
REMARK SMILES IDX 71 49 70 50 26 52 58 53 38 54 57 55 39 56 42 57 56 58 75 59
REMARK SMILES IDX 40 60 41 61 55 63 76 64 43 65 27 66 28 67 36 68 29 69 35 70
REMARK SMILES IDX 37 71 34 72 30 73 31 74 32 75 33 76 59 77 60 78 68 79 61 80
REMARK SMILES IDX 67 81 69 82 66 83 62 84 63 85 64 86 65 87 44 88 45 89 53 90
REMARK SMILES IDX 46 91 52 92 54 93 51 94 47 95 48 96 49 97 50 98
REMARK H PARENT 11 5 4 15 1 19 1 20 1 21 15 32 74 51 42 62
REMARK Flexibility Score: inf
ROOT
ATOM      1  C   UNL A   1      31.504  30.590  25.733  1.00  0.00     0.118 C 
ENDROOT
BRANCH   1   2
ATOM      2  N   UNL A   1      30.645  30.533  24.567  1.00  0.00    -0.352 N 
ATOM      3  C   UNL A   1      30.300  29.580  23.652  1.00  0.00     0.254 C 
ATOM      4  O   UNL A   1      29.499  29.966  22.792  1.00  0.00    -0.269 OA
ATOM      5  H   UNL A   1      30.202  31.394  24.390  1.00  0.00     0.163 HD
BRANCH   3   6
ATOM      6  C   UNL A   1      30.740  28.154  23.598  1.00  0.00     0.078 A 
ATOM      7  C   UNL A   1      31.235  25.338  23.636  1.00  0.00     0.074 A 
ATOM      8  C   UNL A   1      29.953  25.830  23.852  1.00  0.00     0.030 A 
ATOM      9  C   UNL A   1      32.251  26.266  23.386  1.00  0.00     0.182 A 
ATOM     10  C   UNL A   1      29.717  27.210  23.854  1.00  0.00     0.019 A 
ATOM     11  C   UNL A   1      32.006  27.644  23.324  1.00  0.00     0.173 A 
ATOM     12  F   UNL A   1      33.499  25.815  23.171  1.00  0.00    -0.201 F 
ATOM     13  F   UNL A   1      33.029  28.408  22.936  1.00  0.00    -0.203 F 
BRANCH   7  14
ATOM     14  N   UNL A   1      31.484  23.965  23.569  1.00  0.00    -0.376 N 
ATOM     15  H   UNL A   1      31.316  23.455  22.744  1.00  0.00     0.160 HD
BRANCH  14  16
ATOM     16  C   UNL A   1      32.010  23.308  24.776  1.00  0.00     0.183 C 
BRANCH  16  17
ATOM     17  C   UNL A   1      32.666  21.918  24.466  1.00  0.00     0.231 C 
BRANCH  17  18
ATOM     18  N   UNL A   1      32.169  20.904  25.426  1.00  0.00    -0.350 N 
ATOM     19  H   UNL A   1      31.206  21.119  25.680  1.00  0.00     0.345 HD
ATOM     20  H   UNL A   1      32.752  20.914  26.262  1.00  0.00     0.345 HD
ATOM     21  H   UNL A   1      32.209  19.980  24.994  1.00  0.00     0.345 HD
ENDBRANCH  17  18
BRANCH  17  22
ATOM     22  C   UNL A   1      34.192  21.951  24.369  1.00  0.00     0.011 A 
ATOM     23  C   UNL A   1      34.872  22.830  23.508  1.00  0.00     0.010 A 
ATOM     24  C   UNL A   1      34.973  21.114  25.188  1.00  0.00     0.010 A 
ATOM     25  C   UNL A   1      36.267  22.833  23.425  1.00  0.00     0.001 A 
ATOM     26  C   UNL A   1      36.369  21.117  25.108  1.00  0.00     0.001 A 
ATOM     27  C   UNL A   1      37.015  21.971  24.220  1.00  0.00     0.000 A 
ENDBRANCH  17  22
ENDBRANCH  16  17
ENDBRANCH  14  16
ENDBRANCH   7  14
ENDBRANCH   3   6
ENDBRANCH   1   2
BRANCH   1  28
ATOM     28  C   UNL A   1      31.362  31.924  26.465  1.00  0.00     0.042 C 
BRANCH  28  29
ATOM     29  C   UNL A   1      32.674  32.390  27.104  1.00  0.00     0.118 C 
BRANCH  29  30
ATOM     30  N   UNL A   1      32.592  33.774  27.561  1.00  0.00    -0.352 N 
ATOM     31  C   UNL A   1      33.212  34.411  28.607  1.00  0.00     0.251 C 
ATOM     32  H   UNL A   1      31.992  34.347  27.030  1.00  0.00     0.163 HD
ATOM     33  O   UNL A   1      32.777  35.495  28.985  1.00  0.00    -0.269 OA
BRANCH  31  34
ATOM     34  C   UNL A   1      34.388  33.808  29.268  1.00  0.00     0.039 A 
ATOM     35  C   UNL A   1      35.667  34.244  28.906  1.00  0.00     0.014 A 
ATOM     36  C   UNL A   1      34.239  32.776  30.196  1.00  0.00     0.014 A 
ATOM     37  C   UNL A   1      36.789  33.681  29.516  1.00  0.00     0.010 A 
ATOM     38  C   UNL A   1      35.353  32.274  30.861  1.00  0.00     0.010 A 
ATOM     39  C   UNL A   1      36.641  32.714  30.522  1.00  0.00    -0.014 A 
BRANCH  39  40
ATOM     40  C   UNL A   1      37.818  32.143  31.226  1.00  0.00     0.031 A 
ATOM     41  C   UNL A   1      38.598  31.018  30.602  1.00  0.00     0.074 A 
ATOM     42  C   UNL A   1      38.126  32.582  32.462  1.00  0.00     0.049 A 
ATOM     43  N   UNL A   1      39.588  30.321  31.096  1.00  0.00    -0.248 NA
ATOM     44  C   UNL A   1      38.177  30.595  29.258  1.00  0.00     0.031 C 
ATOM     45  C   UNL A   1      37.401  33.625  33.191  1.00  0.00     0.029 A 
ATOM     46  N   UNL A   1      39.113  32.193  33.332  1.00  0.00    -0.354 N 
ATOM     47  C   UNL A   1      39.891  29.360  30.137  1.00  0.00     0.074 A 
ATOM     48  C   UNL A   1      38.934  29.527  29.063  1.00  0.00     0.031 C 
ATOM     49  C   UNL A   1      37.976  33.803  34.390  1.00  0.00     0.029 A 
ATOM     50  C   UNL A   1      39.078  32.858  34.536  1.00  0.00     0.049 A 
ATOM     51  H   UNL A   1      39.782  31.504  33.116  1.00  0.00     0.167 HD
ATOM     52  C   UNL A   1      40.886  28.437  30.145  1.00  0.00     0.034 A 
ATOM     53  C   UNL A   1      39.833  32.709  35.642  1.00  0.00     0.034 A 
ATOM     54  C   UNL A   1      41.838  28.305  31.223  1.00  0.00     0.049 A 
ATOM     55  C   UNL A   1      40.941  31.688  35.630  1.00  0.00     0.074 A 
ATOM     56  C   UNL A   1      42.939  27.471  31.304  1.00  0.00     0.029 A 
ATOM     57  N   UNL A   1      41.791  29.016  32.417  1.00  0.00    -0.354 N 
ATOM     58  N   UNL A   1      41.267  30.837  34.683  1.00  0.00    -0.248 NA
ATOM     59  C   UNL A   1      41.789  31.619  36.824  1.00  0.00     0.031 C 
ATOM     60  C   UNL A   1      43.511  27.621  32.574  1.00  0.00     0.029 A 
ATOM     61  C   UNL A   1      42.819  28.611  33.256  1.00  0.00     0.049 A 
ATOM     62  H   UNL A   1      41.125  29.706  32.636  1.00  0.00     0.167 HD
ATOM     63  C   UNL A   1      42.374  30.143  35.163  1.00  0.00     0.074 A 
ATOM     64  C   UNL A   1      42.668  30.691  36.472  1.00  0.00     0.031 C 
ATOM     65  C   UNL A   1      43.087  29.150  34.571  1.00  0.00     0.034 A 
BRANCH  52  66
ATOM     66  C   UNL A   1      40.964  27.485  28.971  1.00  0.00     0.023 A 
ATOM     67  C   UNL A   1      41.934  27.626  27.962  1.00  0.00     0.031 A 
ATOM     68  C   UNL A   1      40.020  26.452  28.829  1.00  0.00     0.131 A 
ATOM     69  C   UNL A   1      41.875  26.823  26.812  1.00  0.00     0.055 A 
ATOM     70  C   UNL A   1      40.027  25.592  27.727  1.00  0.00     0.041 A 
ATOM     71  F   UNL A   1      39.057  26.274  29.746  1.00  0.00    -0.206 F 
ATOM     72  C   UNL A   1      40.945  25.788  26.700  1.00  0.00     0.022 A 
BRANCH  69  73
ATOM     73  S   UNL A   1      42.912  27.270  25.391  1.00  0.00     0.124 S 
ATOM     74  O   UNL A   1      42.977  26.004  24.664  1.00  0.00    -0.237 OA
ATOM     75  O   UNL A   1      42.140  28.332  24.759  1.00  0.00    -0.237 OA
ATOM     76  O   UNL A   1      44.170  27.690  26.005  1.00  0.00    -0.744 OA
ENDBRANCH  69  73
ENDBRANCH  52  66
BRANCH  53  77
ATOM     77  C   UNL A   1      39.553  33.535  36.851  1.00  0.00     0.023 A 
ATOM     78  C   UNL A   1      38.957  32.978  37.993  1.00  0.00     0.031 A 
ATOM     79  C   UNL A   1      39.889  34.900  36.879  1.00  0.00     0.131 A 
ATOM     80  C   UNL A   1      38.688  33.791  39.106  1.00  0.00     0.055 A 
ATOM     81  C   UNL A   1      39.662  35.692  38.006  1.00  0.00     0.041 A 
ATOM     82  F   UNL A   1      40.472  35.478  35.817  1.00  0.00    -0.206 F 
ATOM     83  C   UNL A   1      39.049  35.140  39.125  1.00  0.00     0.022 A 
BRANCH  80  84
ATOM     84  S   UNL A   1      37.805  33.070  40.517  1.00  0.00     0.124 S 
ATOM     85  O   UNL A   1      38.114  34.021  41.579  1.00  0.00    -0.237 OA
ATOM     86  O   UNL A   1      36.426  33.065  40.041  1.00  0.00    -0.237 OA
ATOM     87  O   UNL A   1      38.415  31.750  40.663  1.00  0.00    -0.744 OA
ENDBRANCH  80  84
ENDBRANCH  53  77
BRANCH  65  88
ATOM     88  C   UNL A   1      44.277  28.616  35.330  1.00  0.00     0.023 A 
ATOM     89  C   UNL A   1      44.144  27.617  36.312  1.00  0.00     0.031 A 
ATOM     90  C   UNL A   1      45.564  29.121  35.072  1.00  0.00     0.131 A 
ATOM     91  C   UNL A   1      45.269  27.195  37.037  1.00  0.00     0.055 A 
ATOM     92  C   UNL A   1      46.690  28.651  35.751  1.00  0.00     0.041 A 
ATOM     93  F   UNL A   1      45.751  30.078  34.149  1.00  0.00    -0.206 F 
ATOM     94  C   UNL A   1      46.544  27.692  36.749  1.00  0.00     0.022 A 
BRANCH  91  95
ATOM     95  S   UNL A   1      45.031  26.059  38.430  1.00  0.00     0.124 S 
ATOM     96  O   UNL A   1      44.930  24.769  37.754  1.00  0.00    -0.237 OA
ATOM     97  O   UNL A   1      46.240  26.273  39.218  1.00  0.00    -0.237 OA
ATOM     98  O   UNL A   1      43.795  26.531  39.051  1.00  0.00    -0.744 OA
ENDBRANCH  91  95
ENDBRANCH  65  88
ENDBRANCH  39  40
ENDBRANCH  31  34
ENDBRANCH  29  30
ENDBRANCH  28  29
ENDBRANCH   1  28
TORSDOF 18
ENDMDL
MODEL 2
REMARK VINA RESULT:     -12.2      3.585      8.630
REMARK SMILES [NH3+][C@@H](CNc1ccc(C(=O)NCCCNC(=O)c2ccc(-c3c4nc(c(-c5cc(S(=O)(=O)[O-])ccc5F)c5ccc([nH]5)c(-c5cc(S(=O)(=O)[O-])ccc5F)c5nc(c(-c6cc(S(=O)(=O)[O-])ccc6F)c6ccc3[nH]6)C=C5)C=C4)cc2)c(F)c1F)c1ccccc1
REMARK SMILES IDX 12 1 11 2 9 3 10 4 8 6 5 7 6 8 83 9 7 10 81 11 84 12 82 13
REMARK SMILES IDX 4 14 3 16 2 17 1 18 85 22 86 23 90 24 87 25 89 26 88 27
REMARK SMILES IDX 13 28 14 29 15 30 16 31 17 33 18 34 19 35 80 36 20 37 79 38
REMARK SMILES IDX 21 39 22 40 23 41 73 42 24 43 78 44 72 45 74 46 25 47 77 48
REMARK SMILES IDX 71 49 70 50 26 52 58 53 38 54 57 55 39 56 42 57 56 58 75 59
REMARK SMILES IDX 40 60 41 61 55 63 76 64 43 65 27 66 28 67 36 68 29 69 35 70
REMARK SMILES IDX 37 71 34 72 30 73 31 74 32 75 33 76 59 77 60 78 68 79 61 80
REMARK SMILES IDX 67 81 69 82 66 83 62 84 63 85 64 86 65 87 44 88 45 89 53 90
REMARK SMILES IDX 46 91 52 92 54 93 51 94 47 95 48 96 49 97 50 98
REMARK H PARENT 11 5 4 15 1 19 1 20 1 21 15 32 74 51 42 62
REMARK Flexibility Score: inf
ROOT
ATOM      1  C   UNL A   1      31.706  29.156  25.114  1.00  0.00     0.118 C 
ENDROOT
BRANCH   1   2
ATOM      2  N   UNL A   1      30.955  29.163  23.875  1.00  0.00    -0.352 N 
ATOM      3  C   UNL A   1      30.660  28.249  22.905  1.00  0.00     0.254 C 
ATOM      4  O   UNL A   1      29.955  28.688  21.988  1.00  0.00    -0.269 OA
ATOM      5  H   UNL A   1      30.562  30.045  23.684  1.00  0.00     0.163 HD
BRANCH   3   6
ATOM      6  C   UNL A   1      31.051  26.808  22.848  1.00  0.00     0.078 A 
ATOM      7  C   UNL A   1      31.510  23.989  22.987  1.00  0.00     0.074 A 
ATOM      8  C   UNL A   1      30.359  24.543  23.535  1.00  0.00     0.030 A 
ATOM      9  C   UNL A   1      32.410  24.858  22.359  1.00  0.00     0.182 A 
ATOM     10  C   UNL A   1      30.147  25.926  23.485  1.00  0.00     0.019 A 
ATOM     11  C   UNL A   1      32.169  26.233  22.251  1.00  0.00     0.173 A 
ATOM     12  F   UNL A   1      33.530  24.346  21.818  1.00  0.00    -0.201 F 
ATOM     13  F   UNL A   1      33.032  26.926  21.505  1.00  0.00    -0.203 F 
BRANCH   7  14
ATOM     14  N   UNL A   1      31.716  22.608  22.971  1.00  0.00    -0.376 N 
ATOM     15  H   UNL A   1      31.192  22.020  22.381  1.00  0.00     0.160 HD
BRANCH  14  16
ATOM     16  C   UNL A   1      32.748  22.062  23.867  1.00  0.00     0.183 C 
BRANCH  16  17
ATOM     17  C   UNL A   1      32.261  20.784  24.634  1.00  0.00     0.231 C 
BRANCH  17  18
ATOM     18  N   UNL A   1      32.488  20.955  26.088  1.00  0.00    -0.350 N 
ATOM     19  H   UNL A   1      31.791  21.595  26.469  1.00  0.00     0.345 HD
ATOM     20  H   UNL A   1      33.421  21.335  26.244  1.00  0.00     0.345 HD
ATOM     21  H   UNL A   1      32.408  20.050  26.553  1.00  0.00     0.345 HD
ENDBRANCH  17  18
BRANCH  17  22
ATOM     22  C   UNL A   1      32.830  19.472  24.092  1.00  0.00     0.011 A 
ATOM     23  C   UNL A   1      32.263  18.803  22.992  1.00  0.00     0.010 A 
ATOM     24  C   UNL A   1      33.985  18.908  24.667  1.00  0.00     0.010 A 
ATOM     25  C   UNL A   1      32.791  17.597  22.523  1.00  0.00     0.001 A 
ATOM     26  C   UNL A   1      34.515  17.702  24.197  1.00  0.00     0.001 A 
ATOM     27  C   UNL A   1      33.913  17.043  23.131  1.00  0.00     0.000 A 
ENDBRANCH  17  22
ENDBRANCH  16  17
ENDBRANCH  14  16
ENDBRANCH   7  14
ENDBRANCH   3   6
ENDBRANCH   1   2
BRANCH   1  28
ATOM     28  C   UNL A   1      33.076  28.503  24.933  1.00  0.00     0.042 C 
BRANCH  28  29
ATOM     29  C   UNL A   1      34.034  28.808  26.089  1.00  0.00     0.118 C 
BRANCH  29  30
ATOM     30  N   UNL A   1      33.879  30.176  26.575  1.00  0.00    -0.352 N 
ATOM     31  C   UNL A   1      34.526  30.847  27.582  1.00  0.00     0.251 C 
ATOM     32  H   UNL A   1      33.195  30.704  26.103  1.00  0.00     0.163 HD
ATOM     33  O   UNL A   1      34.037  31.889  28.012  1.00  0.00    -0.269 OA
BRANCH  31  34
ATOM     34  C   UNL A   1      35.794  30.334  28.140  1.00  0.00     0.039 A 
ATOM     35  C   UNL A   1      35.778  29.700  29.387  1.00  0.00     0.014 A 
ATOM     36  C   UNL A   1      37.003  30.529  27.471  1.00  0.00     0.014 A 
ATOM     37  C   UNL A   1      36.968  29.214  29.933  1.00  0.00     0.010 A 
ATOM     38  C   UNL A   1      38.174  29.973  27.978  1.00  0.00     0.010 A 
ATOM     39  C   UNL A   1      38.171  29.319  29.218  1.00  0.00    -0.014 A 
BRANCH  39  40
ATOM     40  C   UNL A   1      39.439  28.758  29.752  1.00  0.00     0.031 A 
ATOM     41  C   UNL A   1      40.140  29.434  30.898  1.00  0.00     0.074 A 
ATOM     42  C   UNL A   1      39.997  27.691  29.147  1.00  0.00     0.049 A 
ATOM     43  N   UNL A   1      41.298  29.162  31.440  1.00  0.00    -0.248 NA
ATOM     44  C   UNL A   1      39.462  30.602  31.484  1.00  0.00     0.031 C 
ATOM     45  C   UNL A   1      39.438  26.991  27.989  1.00  0.00     0.029 A 
ATOM     46  N   UNL A   1      41.167  27.023  29.406  1.00  0.00    -0.354 N 
ATOM     47  C   UNL A   1      41.503  30.139  32.410  1.00  0.00     0.074 A 
ATOM     48  C   UNL A   1      40.376  31.045  32.333  1.00  0.00     0.031 C 
ATOM     49  C   UNL A   1      40.256  25.984  27.646  1.00  0.00     0.029 A 
ATOM     50  C   UNL A   1      41.419  25.995  28.527  1.00  0.00     0.049 A 
ATOM     51  H   UNL A   1      41.769  27.257  30.149  1.00  0.00     0.167 HD
ATOM     52  C   UNL A   1      42.526  30.256  33.294  1.00  0.00     0.034 A 
ATOM     53  C   UNL A   1      42.478  25.168  28.427  1.00  0.00     0.034 A 
ATOM     54  C   UNL A   1      43.630  29.326  33.359  1.00  0.00     0.049 A 
ATOM     55  C   UNL A   1      43.600  25.304  29.423  1.00  0.00     0.074 A 
ATOM     56  C   UNL A   1      44.674  29.290  34.265  1.00  0.00     0.029 A 
ATOM     57  N   UNL A   1      43.839  28.277  32.471  1.00  0.00    -0.354 N 
ATOM     58  N   UNL A   1      43.744  26.184  30.388  1.00  0.00    -0.248 NA
ATOM     59  C   UNL A   1      44.691  24.328  29.327  1.00  0.00     0.031 C 
ATOM     60  C   UNL A   1      45.554  28.271  33.879  1.00  0.00     0.029 A 
ATOM     61  C   UNL A   1      45.017  27.613  32.784  1.00  0.00     0.049 A 
ATOM     62  H   UNL A   1      43.240  28.039  31.728  1.00  0.00     0.167 HD
ATOM     63  C   UNL A   1      44.934  25.855  31.027  1.00  0.00     0.074 A 
ATOM     64  C   UNL A   1      45.456  24.685  30.350  1.00  0.00     0.031 C 
ATOM     65  C   UNL A   1      45.538  26.460  32.083  1.00  0.00     0.034 A 
BRANCH  52  66
ATOM     66  C   UNL A   1      42.510  31.448  34.226  1.00  0.00     0.023 A 
ATOM     67  C   UNL A   1      41.748  31.456  35.409  1.00  0.00     0.031 A 
ATOM     68  C   UNL A   1      43.222  32.616  33.900  1.00  0.00     0.131 A 
ATOM     69  C   UNL A   1      41.634  32.634  36.164  1.00  0.00     0.055 A 
ATOM     70  C   UNL A   1      43.181  33.755  34.709  1.00  0.00     0.041 A 
ATOM     71  F   UNL A   1      43.953  32.682  32.776  1.00  0.00    -0.206 F 
ATOM     72  C   UNL A   1      42.367  33.776  35.837  1.00  0.00     0.022 A 
BRANCH  69  73
ATOM     73  S   UNL A   1      40.375  32.705  37.469  1.00  0.00     0.124 S 
ATOM     74  O   UNL A   1      39.967  34.107  37.408  1.00  0.00    -0.237 OA
ATOM     75  O   UNL A   1      39.391  31.733  37.010  1.00  0.00    -0.237 OA
ATOM     76  O   UNL A   1      41.110  32.331  38.675  1.00  0.00    -0.744 OA
ENDBRANCH  69  73
ENDBRANCH  52  66
BRANCH  53  77
ATOM     77  C   UNL A   1      42.529  24.153  27.336  1.00  0.00     0.023 A 
ATOM     78  C   UNL A   1      41.749  22.988  27.386  1.00  0.00     0.031 A 
ATOM     79  C   UNL A   1      43.361  24.344  26.218  1.00  0.00     0.131 A 
ATOM     80  C   UNL A   1      41.838  22.043  26.351  1.00  0.00     0.055 A 
ATOM     81  C   UNL A   1      43.410  23.425  25.170  1.00  0.00     0.041 A 
ATOM     82  F   UNL A   1      44.118  25.448  26.117  1.00  0.00    -0.206 F 
ATOM     83  C   UNL A   1      42.653  22.260  25.237  1.00  0.00     0.022 A 
BRANCH  80  84
ATOM     84  S   UNL A   1      40.910  20.492  26.506  1.00  0.00     0.124 S 
ATOM     85  O   UNL A   1      39.595  20.880  26.009  1.00  0.00    -0.237 OA
ATOM     86  O   UNL A   1      41.679  19.593  25.652  1.00  0.00    -0.237 OA
ATOM     87  O   UNL A   1      40.976  20.196  27.935  1.00  0.00    -0.744 OA
ENDBRANCH  80  84
ENDBRANCH  53  77
BRANCH  65  88
ATOM     88  C   UNL A   1      46.818  25.840  32.588  1.00  0.00     0.023 A 
ATOM     89  C   UNL A   1      48.065  26.137  32.009  1.00  0.00     0.031 A 
ATOM     90  C   UNL A   1      46.788  24.930  33.660  1.00  0.00     0.131 A 
ATOM     91  C   UNL A   1      49.222  25.490  32.469  1.00  0.00     0.055 A 
ATOM     92  C   UNL A   1      47.950  24.339  34.157  1.00  0.00     0.041 A 
ATOM     93  F   UNL A   1      45.626  24.606  34.249  1.00  0.00    -0.206 F 
ATOM     94  C   UNL A   1      49.175  24.607  33.552  1.00  0.00     0.022 A 
BRANCH  91  95
ATOM     95  S   UNL A   1      50.777  25.741  31.570  1.00  0.00     0.124 S 
ATOM     96  O   UNL A   1      50.535  25.001  30.336  1.00  0.00    -0.237 OA
ATOM     97  O   UNL A   1      50.833  27.194  31.443  1.00  0.00    -0.237 OA
ATOM     98  O   UNL A   1      51.783  25.157  32.456  1.00  0.00    -0.744 OA
ENDBRANCH  91  95
ENDBRANCH  65  88
ENDBRANCH  39  40
ENDBRANCH  31  34
ENDBRANCH  29  30
ENDBRANCH  28  29
ENDBRANCH   1  28
TORSDOF 18
ENDMDL
MODEL 3
REMARK VINA RESULT:     -12.2      3.235      8.498
REMARK SMILES [NH3+][C@@H](CNc1ccc(C(=O)NCCCNC(=O)c2ccc(-c3c4nc(c(-c5cc(S(=O)(=O)[O-])ccc5F)c5ccc([nH]5)c(-c5cc(S(=O)(=O)[O-])ccc5F)c5nc(c(-c6cc(S(=O)(=O)[O-])ccc6F)c6ccc3[nH]6)C=C5)C=C4)cc2)c(F)c1F)c1ccccc1
REMARK SMILES IDX 12 1 11 2 9 3 10 4 8 6 5 7 6 8 83 9 7 10 81 11 84 12 82 13
REMARK SMILES IDX 4 14 3 16 2 17 1 18 85 22 86 23 90 24 87 25 89 26 88 27
REMARK SMILES IDX 13 28 14 29 15 30 16 31 17 33 18 34 19 35 80 36 20 37 79 38
REMARK SMILES IDX 21 39 22 40 23 41 73 42 24 43 78 44 72 45 74 46 25 47 77 48
REMARK SMILES IDX 71 49 70 50 26 52 58 53 38 54 57 55 39 56 42 57 56 58 75 59
REMARK SMILES IDX 40 60 41 61 55 63 76 64 43 65 27 66 28 67 36 68 29 69 35 70
REMARK SMILES IDX 37 71 34 72 30 73 31 74 32 75 33 76 59 77 60 78 68 79 61 80
REMARK SMILES IDX 67 81 69 82 66 83 62 84 63 85 64 86 65 87 44 88 45 89 53 90
REMARK SMILES IDX 46 91 52 92 54 93 51 94 47 95 48 96 49 97 50 98
REMARK H PARENT 11 5 4 15 1 19 1 20 1 21 15 32 74 51 42 62
REMARK Flexibility Score: inf
ROOT
ATOM      1  C   UNL A   1      31.513  28.527  26.099  1.00  0.00     0.118 C 
ENDROOT
BRANCH   1   2
ATOM      2  N   UNL A   1      31.063  28.190  24.763  1.00  0.00    -0.352 N 
ATOM      3  C   UNL A   1      30.817  27.037  24.076  1.00  0.00     0.254 C 
ATOM      4  O   UNL A   1      30.422  27.208  22.916  1.00  0.00    -0.269 OA
ATOM      5  H   UNL A   1      30.892  28.991  24.216  1.00  0.00     0.163 HD
BRANCH   3   6
ATOM      6  C   UNL A   1      30.934  25.630  24.566  1.00  0.00     0.078 A 
ATOM      7  C   UNL A   1      31.321  22.861  25.164  1.00  0.00     0.074 A 
ATOM      8  C   UNL A   1      31.919  23.430  24.047  1.00  0.00     0.030 A 
ATOM      9  C   UNL A   1      30.548  23.696  25.979  1.00  0.00     0.182 A 
ATOM     10  C   UNL A   1      31.711  24.780  23.744  1.00  0.00     0.019 A 
ATOM     11  C   UNL A   1      30.390  25.061  25.714  1.00  0.00     0.173 A 
ATOM     12  F   UNL A   1      29.960  23.170  27.069  1.00  0.00    -0.201 F 
ATOM     13  F   UNL A   1      29.749  25.773  26.644  1.00  0.00    -0.203 F 
BRANCH   7  14
ATOM     14  N   UNL A   1      31.561  21.532  25.522  1.00  0.00    -0.376 N 
ATOM     15  H   UNL A   1      31.052  21.097  26.243  1.00  0.00     0.160 HD
BRANCH  14  16
ATOM     16  C   UNL A   1      32.603  20.805  24.780  1.00  0.00     0.183 C 
BRANCH  16  17
ATOM     17  C   UNL A   1      33.902  20.582  25.631  1.00  0.00     0.231 C 
BRANCH  17  18
ATOM     18  N   UNL A   1      33.540  20.386  27.054  1.00  0.00    -0.350 N 
ATOM     19  H   UNL A   1      33.124  19.463  27.175  1.00  0.00     0.345 HD
ATOM     20  H   UNL A   1      32.870  21.101  27.336  1.00  0.00     0.345 HD
ATOM     21  H   UNL A   1      34.379  20.460  27.631  1.00  0.00     0.345 HD
ENDBRANCH  17  18
BRANCH  17  22
ATOM     22  C   UNL A   1      34.975  21.653  25.430  1.00  0.00     0.011 A 
ATOM     23  C   UNL A   1      34.895  22.921  26.033  1.00  0.00     0.010 A 
ATOM     24  C   UNL A   1      36.116  21.377  24.653  1.00  0.00     0.010 A 
ATOM     25  C   UNL A   1      35.881  23.890  25.824  1.00  0.00     0.001 A 
ATOM     26  C   UNL A   1      37.103  22.345  24.444  1.00  0.00     0.001 A 
ATOM     27  C   UNL A   1      36.981  23.603  25.022  1.00  0.00     0.000 A 
ENDBRANCH  17  22
ENDBRANCH  16  17
ENDBRANCH  14  16
ENDBRANCH   7  14
ENDBRANCH   3   6
ENDBRANCH   1   2
BRANCH   1  28
ATOM     28  C   UNL A   1      32.864  27.883  26.410  1.00  0.00     0.042 C 
BRANCH  28  29
ATOM     29  C   UNL A   1      34.048  28.748  25.965  1.00  0.00     0.118 C 
BRANCH  29  30
ATOM     30  N   UNL A   1      33.910  30.129  26.416  1.00  0.00    -0.352 N 
ATOM     31  C   UNL A   1      34.554  30.813  27.417  1.00  0.00     0.251 C 
ATOM     32  H   UNL A   1      33.244  30.658  25.921  1.00  0.00     0.163 HD
ATOM     33  O   UNL A   1      34.077  31.873  27.815  1.00  0.00    -0.269 OA
BRANCH  31  34
ATOM     34  C   UNL A   1      35.803  30.290  28.008  1.00  0.00     0.039 A 
ATOM     35  C   UNL A   1      35.759  29.701  29.275  1.00  0.00     0.014 A 
ATOM     36  C   UNL A   1      37.024  30.434  27.346  1.00  0.00     0.014 A 
ATOM     37  C   UNL A   1      36.931  29.208  29.852  1.00  0.00     0.010 A 
ATOM     38  C   UNL A   1      38.176  29.870  27.886  1.00  0.00     0.010 A 
ATOM     39  C   UNL A   1      38.145  29.259  29.148  1.00  0.00    -0.014 A 
BRANCH  39  40
ATOM     40  C   UNL A   1      39.393  28.688  29.716  1.00  0.00     0.031 A 
ATOM     41  C   UNL A   1      40.057  29.348  30.893  1.00  0.00     0.074 A 
ATOM     42  C   UNL A   1      39.969  27.629  29.114  1.00  0.00     0.049 A 
ATOM     43  N   UNL A   1      41.196  29.066  31.469  1.00  0.00    -0.248 NA
ATOM     44  C   UNL A   1      39.363  30.509  31.472  1.00  0.00     0.031 C 
ATOM     45  C   UNL A   1      39.447  26.946  27.929  1.00  0.00     0.029 A 
ATOM     46  N   UNL A   1      41.129  26.955  29.402  1.00  0.00    -0.354 N 
ATOM     47  C   UNL A   1      41.370  30.029  32.458  1.00  0.00     0.074 A 
ATOM     48  C   UNL A   1      40.248  30.938  32.357  1.00  0.00     0.031 C 
ATOM     49  C   UNL A   1      40.275  25.942  27.600  1.00  0.00     0.029 A 
ATOM     50  C   UNL A   1      41.408  25.939  28.519  1.00  0.00     0.049 A 
ATOM     51  H   UNL A   1      41.706  27.177  30.168  1.00  0.00     0.167 HD
ATOM     52  C   UNL A   1      42.365  30.132  33.377  1.00  0.00     0.034 A 
ATOM     53  C   UNL A   1      42.468  25.110  28.442  1.00  0.00     0.034 A 
ATOM     54  C   UNL A   1      43.464  29.199  33.465  1.00  0.00     0.049 A 
ATOM     55  C   UNL A   1      43.557  25.230  29.476  1.00  0.00     0.074 A 
ATOM     56  C   UNL A   1      44.478  29.148  34.405  1.00  0.00     0.029 A 
ATOM     57  N   UNL A   1      43.700  28.161  32.571  1.00  0.00    -0.354 N 
ATOM     58  N   UNL A   1      43.670  26.098  30.457  1.00  0.00    -0.248 NA
ATOM     59  C   UNL A   1      44.649  24.254  29.403  1.00  0.00     0.031 C 
ATOM     60  C   UNL A   1      45.369  28.133  34.035  1.00  0.00     0.029 A 
ATOM     61  C   UNL A   1      44.866  27.491  32.913  1.00  0.00     0.049 A 
ATOM     62  H   UNL A   1      43.125  27.935  31.805  1.00  0.00     0.167 HD
ATOM     63  C   UNL A   1      44.839  25.757  31.131  1.00  0.00     0.074 A 
ATOM     64  C   UNL A   1      45.380  24.595  30.455  1.00  0.00     0.031 C 
ATOM     65  C   UNL A   1      45.408  26.346  32.214  1.00  0.00     0.034 A 
BRANCH  52  66
ATOM     66  C   UNL A   1      42.319  31.311  34.324  1.00  0.00     0.023 A 
ATOM     67  C   UNL A   1      41.441  31.350  35.422  1.00  0.00     0.031 A 
ATOM     68  C   UNL A   1      43.127  32.440  34.095  1.00  0.00     0.131 A 
ATOM     69  C   UNL A   1      41.316  32.523  36.182  1.00  0.00     0.055 A 
ATOM     70  C   UNL A   1      43.067  33.569  34.916  1.00  0.00     0.041 A 
ATOM     71  F   UNL A   1      43.973  32.476  33.054  1.00  0.00    -0.206 F 
ATOM     72  C   UNL A   1      42.143  33.624  35.954  1.00  0.00     0.022 A 
BRANCH  69  73
ATOM     73  S   UNL A   1      39.934  32.652  37.352  1.00  0.00     0.124 S 
ATOM     74  O   UNL A   1      40.627  32.574  38.636  1.00  0.00    -0.237 OA
ATOM     75  O   UNL A   1      39.356  33.947  37.015  1.00  0.00    -0.237 OA
ATOM     76  O   UNL A   1      39.104  31.492  37.030  1.00  0.00    -0.744 OA
ENDBRANCH  69  73
ENDBRANCH  52  66
BRANCH  53  77
ATOM     77  C   UNL A   1      42.553  24.111  27.340  1.00  0.00     0.023 A 
ATOM     78  C   UNL A   1      41.977  22.837  27.464  1.00  0.00     0.031 A 
ATOM     79  C   UNL A   1      43.211  24.425  26.137  1.00  0.00     0.131 A 
ATOM     80  C   UNL A   1      42.095  21.912  26.414  1.00  0.00     0.055 A 
ATOM     81  C   UNL A   1      43.284  23.518  25.078  1.00  0.00     0.041 A 
ATOM     82  F   UNL A   1      43.768  25.634  25.964  1.00  0.00    -0.206 F 
ATOM     83  C   UNL A   1      42.733  22.249  25.217  1.00  0.00     0.022 A 
BRANCH  80  84
ATOM     84  S   UNL A   1      41.448  20.235  26.653  1.00  0.00     0.124 S 
ATOM     85  O   UNL A   1      41.805  19.595  25.392  1.00  0.00    -0.237 OA
ATOM     86  O   UNL A   1      42.187  19.791  27.830  1.00  0.00    -0.237 OA
ATOM     87  O   UNL A   1      40.018  20.448  26.863  1.00  0.00    -0.744 OA
ENDBRANCH  80  84
ENDBRANCH  53  77
BRANCH  65  88
ATOM     88  C   UNL A   1      46.670  25.717  32.752  1.00  0.00     0.023 A 
ATOM     89  C   UNL A   1      46.637  24.705  33.728  1.00  0.00     0.031 A 
ATOM     90  C   UNL A   1      47.926  26.144  32.285  1.00  0.00     0.131 A 
ATOM     91  C   UNL A   1      47.837  24.192  34.244  1.00  0.00     0.055 A 
ATOM     92  C   UNL A   1      49.115  25.584  32.754  1.00  0.00     0.041 A 
ATOM     93  F   UNL A   1      48.019  27.109  31.357  1.00  0.00    -0.206 F 
ATOM     94  C   UNL A   1      49.076  24.612  33.750  1.00  0.00     0.022 A 
BRANCH  91  95
ATOM     95  S   UNL A   1      47.762  23.039  35.642  1.00  0.00     0.124 S 
ATOM     96  O   UNL A   1      48.858  23.510  36.482  1.00  0.00    -0.237 OA
ATOM     97  O   UNL A   1      46.417  23.264  36.161  1.00  0.00    -0.237 OA
ATOM     98  O   UNL A   1      47.975  21.732  35.020  1.00  0.00    -0.744 OA
ENDBRANCH  91  95
ENDBRANCH  65  88
ENDBRANCH  39  40
ENDBRANCH  31  34
ENDBRANCH  29  30
ENDBRANCH  28  29
ENDBRANCH   1  28
TORSDOF 18
ENDMDL
