MODEL 1
REMARK VINA RESULT:     -10.7      0.000      0.000
REMARK SMILES CCCCCCNC(=O)Oc1cccc(-c2ccc([C@@H](C)C(=O)NCCCNC(=O)c3ccc(-c4c5nc(c(-c6cc(S(=O)(=O)[O-])ccc6F)c6ccc([nH]6)c(-c6cc(S(=O)(=O)[O-])ccc6F)c6nc(c(-c7cc(S(=O)(=O)[O-])ccc7F)c7ccc4[nH]7)C=C6)C=C5)cc3)cc2F)c1
REMARK SMILES IDX 20 1 21 2 19 3 16 4 17 5 95 6 18 7 94 8 96 9 15 10 11 11
REMARK SMILES IDX 12 12 97 13 13 14 14 15 10 16 8 17 7 18 9 20 6 21 5 22 4 23
REMARK SMILES IDX 3 24 2 25 1 26 22 27 23 28 24 29 25 31 26 32 27 33 28 34
REMARK SMILES IDX 29 35 30 37 31 38 32 39 93 40 33 41 92 42 34 43 35 44 36 45
REMARK SMILES IDX 86 46 37 47 91 48 85 49 87 50 38 51 90 52 84 53 83 54 39 56
REMARK SMILES IDX 71 57 51 58 70 59 52 60 55 61 69 62 88 63 53 64 54 65 68 67
REMARK SMILES IDX 89 68 56 69 40 70 41 71 49 72 42 73 48 74 50 75 47 76 43 77
REMARK SMILES IDX 44 78 45 79 46 80 72 81 73 82 81 83 74 84 80 85 82 86 79 87
REMARK SMILES IDX 75 88 76 89 77 90 78 91 57 92 58 93 66 94 59 95 65 96 67 97
REMARK SMILES IDX 64 98 60 99 61 100 62 101 63 102
REMARK H PARENT 7 19 24 30 28 36 87 55 55 66
REMARK Flexibility Score: inf
ROOT
ATOM      1  C   UNL A   1      33.107  24.417  23.263  1.00  0.00     0.105 C 
ATOM      2  C   UNL A   1      32.741  23.402  22.181  1.00  0.00     0.023 C 
ENDROOT
BRANCH   1   3
ATOM      3  C   UNL A   1      34.371  24.102  24.046  1.00  0.00    -0.033 A 
ATOM      4  C   UNL A   1      36.835  23.588  25.415  1.00  0.00     0.018 A 
ATOM      5  C   UNL A   1      35.802  24.335  26.003  1.00  0.00     0.012 A 
ATOM      6  C   UNL A   1      36.584  23.082  24.131  1.00  0.00     0.131 A 
ATOM      7  C   UNL A   1      34.582  24.547  25.351  1.00  0.00     0.005 A 
ATOM      8  C   UNL A   1      35.392  23.349  23.448  1.00  0.00     0.044 A 
ATOM      9  F   UNL A   1      37.485  22.303  23.512  1.00  0.00    -0.206 F 
BRANCH   4  10
ATOM     10  C   UNL A   1      38.110  23.372  26.139  1.00  0.00    -0.012 A 
ATOM     11  C   UNL A   1      39.905  21.927  26.916  1.00  0.00     0.133 A 
ATOM     12  C   UNL A   1      40.581  23.004  27.482  1.00  0.00     0.047 A 
ATOM     13  C   UNL A   1      38.687  22.097  26.255  1.00  0.00     0.056 A 
ATOM     14  C   UNL A   1      40.031  24.274  27.378  1.00  0.00     0.004 A 
ATOM     15  C   UNL A   1      38.807  24.451  26.725  1.00  0.00     0.009 A 
BRANCH  11  16
ATOM     16  O   UNL A   1      40.435  20.652  27.162  1.00  0.00    -0.410 OA
BRANCH  16  17
ATOM     17  C   UNL A   1      40.837  19.876  26.086  1.00  0.00     0.412 C 
ATOM     18  N   UNL A   1      42.115  20.157  25.686  1.00  0.00    -0.321 N 
ATOM     19  H   UNL A   1      42.443  19.684  24.888  1.00  0.00     0.167 HD
ATOM     20  O   UNL A   1      40.172  19.018  25.523  1.00  0.00    -0.224 OA
BRANCH  18  21
ATOM     21  C   UNL A   1      43.031  21.084  26.318  1.00  0.00     0.119 C 
BRANCH  21  22
ATOM     22  C   UNL A   1      43.887  21.818  25.286  1.00  0.00     0.021 C 
BRANCH  22  23
ATOM     23  C   UNL A   1      45.386  21.840  25.603  1.00  0.00     0.002 C 
BRANCH  23  24
ATOM     24  C   UNL A   1      46.286  21.158  24.565  1.00  0.00    -0.000 C 
BRANCH  24  25
ATOM     25  C   UNL A   1      46.257  19.628  24.581  1.00  0.00    -0.003 C 
ATOM     26  C   UNL A   1      45.239  19.039  23.615  1.00  0.00     0.004 C 
ENDBRANCH  24  25
ENDBRANCH  23  24
ENDBRANCH  22  23
ENDBRANCH  21  22
ENDBRANCH  18  21
ENDBRANCH  16  17
ENDBRANCH  11  16
ENDBRANCH   4  10
ENDBRANCH   1   3
BRANCH   1  27
ATOM     27  C   UNL A   1      31.927  24.868  24.137  1.00  0.00     0.227 C 
ATOM     28  O   UNL A   1      30.984  24.091  24.337  1.00  0.00    -0.274 OA
ATOM     29  N   UNL A   1      31.842  26.082  24.743  1.00  0.00    -0.356 N 
ATOM     30  H   UNL A   1      31.042  26.192  25.307  1.00  0.00     0.163 HD
BRANCH  29  31
ATOM     31  C   UNL A   1      32.706  27.246  24.716  1.00  0.00     0.117 C 
BRANCH  31  32
ATOM     32  C   UNL A   1      33.133  27.687  26.114  1.00  0.00     0.042 C 
BRANCH  32  33
ATOM     33  C   UNL A   1      34.291  28.674  26.124  1.00  0.00     0.118 C 
BRANCH  33  34
ATOM     34  N   UNL A   1      33.842  30.039  26.363  1.00  0.00    -0.352 N 
ATOM     35  C   UNL A   1      34.223  30.950  27.320  1.00  0.00     0.251 C 
ATOM     36  H   UNL A   1      33.154  30.363  25.739  1.00  0.00     0.163 HD
ATOM     37  O   UNL A   1      33.533  31.954  27.484  1.00  0.00    -0.269 OA
BRANCH  35  38
ATOM     38  C   UNL A   1      35.429  30.732  28.153  1.00  0.00     0.039 A 
ATOM     39  C   UNL A   1      36.461  31.675  28.105  1.00  0.00     0.014 A 
ATOM     40  C   UNL A   1      35.577  29.587  28.940  1.00  0.00     0.014 A 
ATOM     41  C   UNL A   1      37.608  31.496  28.884  1.00  0.00     0.010 A 
ATOM     42  C   UNL A   1      36.678  29.455  29.783  1.00  0.00     0.010 A 
ATOM     43  C   UNL A   1      37.713  30.402  29.756  1.00  0.00    -0.014 A 
BRANCH  43  44
ATOM     44  C   UNL A   1      38.902  30.216  30.630  1.00  0.00     0.031 A 
ATOM     45  C   UNL A   1      40.052  29.361  30.167  1.00  0.00     0.074 A 
ATOM     46  C   UNL A   1      38.922  30.768  31.859  1.00  0.00     0.049 A 
ATOM     47  N   UNL A   1      41.137  29.009  30.810  1.00  0.00    -0.248 NA
ATOM     48  C   UNL A   1      39.954  28.805  28.808  1.00  0.00     0.031 C 
ATOM     49  C   UNL A   1      37.852  31.589  32.433  1.00  0.00     0.029 A 
ATOM     50  N   UNL A   1      39.868  30.719  32.852  1.00  0.00    -0.354 N 
ATOM     51  C   UNL A   1      41.841  28.179  29.943  1.00  0.00     0.074 A 
ATOM     52  C   UNL A   1      41.027  28.031  28.755  1.00  0.00     0.031 C 
ATOM     53  C   UNL A   1      38.214  31.987  33.662  1.00  0.00     0.029 A 
ATOM     54  C   UNL A   1      39.514  31.409  33.989  1.00  0.00     0.049 A 
ATOM     55  H   UNL A   1      40.720  30.234  32.760  1.00  0.00     0.167 HD
ATOM     56  C   UNL A   1      43.063  27.615  30.110  1.00  0.00     0.034 A 
ATOM     57  C   UNL A   1      40.155  31.547  35.166  1.00  0.00     0.034 A 
ATOM     58  C   UNL A   1      43.863  27.781  31.301  1.00  0.00     0.049 A 
ATOM     59  C   UNL A   1      41.494  30.878  35.347  1.00  0.00     0.074 A 
ATOM     60  C   UNL A   1      45.132  27.295  31.562  1.00  0.00     0.029 A 
ATOM     61  N   UNL A   1      43.467  28.479  32.435  1.00  0.00    -0.354 N 
ATOM     62  N   UNL A   1      42.167  30.133  34.499  1.00  0.00    -0.248 NA
ATOM     63  C   UNL A   1      42.163  31.074  36.639  1.00  0.00     0.031 C 
ATOM     64  C   UNL A   1      45.473  27.637  32.874  1.00  0.00     0.029 A 
ATOM     65  C   UNL A   1      44.453  28.410  33.407  1.00  0.00     0.049 A 
ATOM     66  H   UNL A   1      42.610  28.956  32.533  1.00  0.00     0.167 HD
ATOM     67  C   UNL A   1      43.355  29.802  35.146  1.00  0.00     0.074 A 
ATOM     68  C   UNL A   1      43.311  30.440  36.445  1.00  0.00     0.031 C 
ATOM     69  C   UNL A   1      44.391  29.044  34.704  1.00  0.00     0.034 A 
BRANCH  56  70
ATOM     70  C   UNL A   1      43.588  26.746  28.990  1.00  0.00     0.023 A 
ATOM     71  C   UNL A   1      44.357  27.281  27.940  1.00  0.00     0.031 A 
ATOM     72  C   UNL A   1      43.294  25.372  28.952  1.00  0.00     0.131 A 
ATOM     73  C   UNL A   1      44.730  26.468  26.858  1.00  0.00     0.055 A 
ATOM     74  C   UNL A   1      43.745  24.549  27.917  1.00  0.00     0.041 A 
ATOM     75  F   UNL A   1      42.549  24.805  29.914  1.00  0.00    -0.206 F 
ATOM     76  C   UNL A   1      44.453  25.100  26.853  1.00  0.00     0.022 A 
BRANCH  73  77
ATOM     77  S   UNL A   1      45.445  27.258  25.390  1.00  0.00     0.124 S 
ATOM     78  O   UNL A   1      44.281  27.936  24.823  1.00  0.00    -0.237 OA
ATOM     79  O   UNL A   1      46.471  28.120  25.963  1.00  0.00    -0.237 OA
ATOM     80  O   UNL A   1      45.943  26.131  24.604  1.00  0.00    -0.744 OA
ENDBRANCH  73  77
ENDBRANCH  56  70
BRANCH  57  81
ATOM     81  C   UNL A   1      39.544  32.339  36.273  1.00  0.00     0.023 A 
ATOM     82  C   UNL A   1      38.658  31.741  37.185  1.00  0.00     0.031 A 
ATOM     83  C   UNL A   1      39.802  33.714  36.412  1.00  0.00     0.131 A 
ATOM     84  C   UNL A   1      38.028  32.524  38.164  1.00  0.00     0.055 A 
ATOM     85  C   UNL A   1      39.216  34.477  37.424  1.00  0.00     0.041 A 
ATOM     86  F   UNL A   1      40.642  34.336  35.570  1.00  0.00    -0.206 F 
ATOM     87  C   UNL A   1      38.312  33.885  38.300  1.00  0.00     0.022 A 
BRANCH  84  88
ATOM     88  S   UNL A   1      36.758  31.755  39.206  1.00  0.00     0.124 S 
ATOM     89  O   UNL A   1      35.594  32.586  38.917  1.00  0.00    -0.237 OA
ATOM     90  O   UNL A   1      36.721  30.394  38.683  1.00  0.00    -0.237 OA
ATOM     91  O   UNL A   1      37.300  31.887  40.556  1.00  0.00    -0.744 OA
ENDBRANCH  84  88
ENDBRANCH  57  81
BRANCH  69  92
ATOM     92  C   UNL A   1      45.584  28.909  35.621  1.00  0.00     0.023 A 
ATOM     93  C   UNL A   1      45.620  27.962  36.658  1.00  0.00     0.031 A 
ATOM     94  C   UNL A   1      46.697  29.753  35.456  1.00  0.00     0.131 A 
ATOM     95  C   UNL A   1      46.722  27.919  37.527  1.00  0.00     0.055 A 
ATOM     96  C   UNL A   1      47.818  29.661  36.282  1.00  0.00     0.041 A 
ATOM     97  F   UNL A   1      46.717  30.679  34.484  1.00  0.00    -0.206 F 
ATOM     98  C   UNL A   1      47.829  28.748  37.332  1.00  0.00     0.022 A 
BRANCH  95  99
ATOM     99  S   UNL A   1      46.650  26.826  38.973  1.00  0.00     0.124 S 
ATOM    100  O   UNL A   1      46.968  25.527  38.388  1.00  0.00    -0.237 OA
ATOM    101  O   UNL A   1      47.668  27.398  39.848  1.00  0.00    -0.237 OA
ATOM    102  O   UNL A   1      45.275  26.972  39.446  1.00  0.00    -0.744 OA
ENDBRANCH  95  99
ENDBRANCH  69  92
ENDBRANCH  43  44
ENDBRANCH  35  38
ENDBRANCH  33  34
ENDBRANCH  32  33
ENDBRANCH  31  32
ENDBRANCH  29  31
ENDBRANCH   1  27
TORSDOF 22
ENDMDL
MODEL 2
REMARK VINA RESULT:     -10.6      2.076      2.503
REMARK SMILES CCCCCCNC(=O)Oc1cccc(-c2ccc([C@@H](C)C(=O)NCCCNC(=O)c3ccc(-c4c5nc(c(-c6cc(S(=O)(=O)[O-])ccc6F)c6ccc([nH]6)c(-c6cc(S(=O)(=O)[O-])ccc6F)c6nc(c(-c7cc(S(=O)(=O)[O-])ccc7F)c7ccc4[nH]7)C=C6)C=C5)cc3)cc2F)c1
REMARK SMILES IDX 20 1 21 2 19 3 16 4 17 5 95 6 18 7 94 8 96 9 15 10 11 11
REMARK SMILES IDX 12 12 97 13 13 14 14 15 10 16 8 17 7 18 9 20 6 21 5 22 4 23
REMARK SMILES IDX 3 24 2 25 1 26 22 27 23 28 24 29 25 31 26 32 27 33 28 34
REMARK SMILES IDX 29 35 30 37 31 38 32 39 93 40 33 41 92 42 34 43 35 44 36 45
REMARK SMILES IDX 86 46 37 47 91 48 85 49 87 50 38 51 90 52 84 53 83 54 39 56
REMARK SMILES IDX 71 57 51 58 70 59 52 60 55 61 69 62 88 63 53 64 54 65 68 67
REMARK SMILES IDX 89 68 56 69 40 70 41 71 49 72 42 73 48 74 50 75 47 76 43 77
REMARK SMILES IDX 44 78 45 79 46 80 72 81 73 82 81 83 74 84 80 85 82 86 79 87
REMARK SMILES IDX 75 88 76 89 77 90 78 91 57 92 58 93 66 94 59 95 65 96 67 97
REMARK SMILES IDX 64 98 60 99 61 100 62 101 63 102
REMARK H PARENT 7 19 24 30 28 36 87 55 55 66
REMARK Flexibility Score: inf
ROOT
ATOM      1  C   UNL A   1      32.906  24.191  23.178  1.00  0.00     0.105 C 
ATOM      2  C   UNL A   1      32.545  23.169  22.101  1.00  0.00     0.023 C 
ENDROOT
BRANCH   1   3
ATOM      3  C   UNL A   1      34.187  23.901  23.942  1.00  0.00    -0.033 A 
ATOM      4  C   UNL A   1      36.680  23.444  25.280  1.00  0.00     0.018 A 
ATOM      5  C   UNL A   1      35.612  24.107  25.907  1.00  0.00     0.012 A 
ATOM      6  C   UNL A   1      36.450  22.993  23.972  1.00  0.00     0.131 A 
ATOM      7  C   UNL A   1      34.381  24.289  25.268  1.00  0.00     0.005 A 
ATOM      8  C   UNL A   1      35.243  23.233  23.305  1.00  0.00     0.044 A 
ATOM      9  F   UNL A   1      37.387  22.294  23.312  1.00  0.00    -0.206 F 
BRANCH   4  10
ATOM     10  C   UNL A   1      37.967  23.257  25.990  1.00  0.00    -0.012 A 
ATOM     11  C   UNL A   1      39.798  21.852  26.757  1.00  0.00     0.133 A 
ATOM     12  C   UNL A   1      40.461  22.945  27.305  1.00  0.00     0.047 A 
ATOM     13  C   UNL A   1      38.568  21.995  26.109  1.00  0.00     0.056 A 
ATOM     14  C   UNL A   1      39.887  24.204  27.198  1.00  0.00     0.004 A 
ATOM     15  C   UNL A   1      38.652  24.354  26.558  1.00  0.00     0.009 A 
BRANCH  11  16
ATOM     16  O   UNL A   1      40.353  20.588  27.007  1.00  0.00    -0.410 OA
BRANCH  16  17
ATOM     17  C   UNL A   1      40.217  19.597  26.048  1.00  0.00     0.412 C 
ATOM     18  N   UNL A   1      41.408  18.996  25.742  1.00  0.00    -0.321 N 
ATOM     19  H   UNL A   1      41.393  18.323  25.024  1.00  0.00     0.167 HD
ATOM     20  O   UNL A   1      39.176  19.249  25.507  1.00  0.00    -0.224 OA
BRANCH  18  21
ATOM     21  C   UNL A   1      42.689  19.255  26.367  1.00  0.00     0.119 C 
BRANCH  21  22
ATOM     22  C   UNL A   1      43.643  18.073  26.201  1.00  0.00     0.021 C 
BRANCH  22  23
ATOM     23  C   UNL A   1      45.059  18.456  25.758  1.00  0.00     0.002 C 
BRANCH  23  24
ATOM     24  C   UNL A   1      45.144  19.254  24.451  1.00  0.00    -0.000 C 
BRANCH  24  25
ATOM     25  C   UNL A   1      46.474  19.969  24.207  1.00  0.00    -0.003 C 
ATOM     26  C   UNL A   1      46.410  21.463  24.482  1.00  0.00     0.004 C 
ENDBRANCH  24  25
ENDBRANCH  23  24
ENDBRANCH  22  23
ENDBRANCH  21  22
ENDBRANCH  18  21
ENDBRANCH  16  17
ENDBRANCH  11  16
ENDBRANCH   4  10
ENDBRANCH   1   3
BRANCH   1  27
ATOM     27  C   UNL A   1      31.729  24.616  24.070  1.00  0.00     0.227 C 
ATOM     28  O   UNL A   1      30.889  23.775  24.415  1.00  0.00    -0.274 OA
ATOM     29  N   UNL A   1      31.543  25.878  24.541  1.00  0.00    -0.356 N 
ATOM     30  H   UNL A   1      30.765  25.970  25.140  1.00  0.00     0.163 HD
BRANCH  29  31
ATOM     31  C   UNL A   1      32.271  27.114  24.331  1.00  0.00     0.117 C 
BRANCH  31  32
ATOM     32  C   UNL A   1      33.028  27.563  25.578  1.00  0.00     0.042 C 
BRANCH  32  33
ATOM     33  C   UNL A   1      33.879  28.809  25.368  1.00  0.00     0.118 C 
BRANCH  33  34
ATOM     34  N   UNL A   1      33.188  30.019  25.793  1.00  0.00    -0.352 N 
ATOM     35  C   UNL A   1      33.423  30.855  26.859  1.00  0.00     0.251 C 
ATOM     36  H   UNL A   1      32.428  30.280  25.225  1.00  0.00     0.163 HD
ATOM     37  O   UNL A   1      32.561  31.676  27.163  1.00  0.00    -0.269 OA
BRANCH  35  38
ATOM     38  C   UNL A   1      34.677  30.768  27.642  1.00  0.00     0.039 A 
ATOM     39  C   UNL A   1      34.941  29.600  28.366  1.00  0.00     0.014 A 
ATOM     40  C   UNL A   1      35.570  31.840  27.716  1.00  0.00     0.014 A 
ATOM     41  C   UNL A   1      36.119  29.490  29.111  1.00  0.00     0.010 A 
ATOM     42  C   UNL A   1      36.784  31.696  28.383  1.00  0.00     0.010 A 
ATOM     43  C   UNL A   1      37.068  30.523  29.099  1.00  0.00    -0.014 A 
BRANCH  43  44
ATOM     44  C   UNL A   1      38.350  30.409  29.845  1.00  0.00     0.031 A 
ATOM     45  C   UNL A   1      39.493  29.620  29.265  1.00  0.00     0.074 A 
ATOM     46  C   UNL A   1      38.464  30.968  31.066  1.00  0.00     0.049 A 
ATOM     47  N   UNL A   1      40.656  29.332  29.792  1.00  0.00    -0.248 NA
ATOM     48  C   UNL A   1      39.288  29.053  27.923  1.00  0.00     0.031 C 
ATOM     49  C   UNL A   1      37.414  31.729  31.748  1.00  0.00     0.029 A 
ATOM     50  N   UNL A   1      39.509  30.977  31.956  1.00  0.00    -0.354 N 
ATOM     51  C   UNL A   1      41.314  28.540  28.856  1.00  0.00     0.074 A 
ATOM     52  C   UNL A   1      40.392  28.341  27.758  1.00  0.00     0.031 C 
ATOM     53  C   UNL A   1      37.877  32.152  32.934  1.00  0.00     0.029 A 
ATOM     54  C   UNL A   1      39.235  31.651  33.125  1.00  0.00     0.049 A 
ATOM     55  H   UNL A   1      40.373  30.542  31.776  1.00  0.00     0.167 HD
ATOM     56  C   UNL A   1      42.577  28.047  28.896  1.00  0.00     0.034 A 
ATOM     57  C   UNL A   1      39.985  31.831  34.230  1.00  0.00     0.034 A 
ATOM     58  C   UNL A   1      43.485  28.264  29.997  1.00  0.00     0.049 A 
ATOM     59  C   UNL A   1      41.372  31.240  34.270  1.00  0.00     0.074 A 
ATOM     60  C   UNL A   1      44.800  27.853  30.126  1.00  0.00     0.029 A 
ATOM     61  N   UNL A   1      43.168  28.945  31.167  1.00  0.00    -0.354 N 
ATOM     62  N   UNL A   1      41.996  30.531  33.356  1.00  0.00    -0.248 NA
ATOM     63  C   UNL A   1      42.158  31.481  35.486  1.00  0.00     0.031 C 
ATOM     64  C   UNL A   1      45.253  28.220  31.396  1.00  0.00     0.029 A 
ATOM     65  C   UNL A   1      44.251  28.936  32.033  1.00  0.00     0.049 A 
ATOM     66  H   UNL A   1      42.300  29.372  31.354  1.00  0.00     0.167 HD
ATOM     67  C   UNL A   1      43.261  30.271  33.877  1.00  0.00     0.074 A 
ATOM     68  C   UNL A   1      43.314  30.912  35.175  1.00  0.00     0.031 C 
ATOM     69  C   UNL A   1      44.288  29.571  33.330  1.00  0.00     0.034 A 
BRANCH  56  70
ATOM     70  C   UNL A   1      43.033  27.205  27.726  1.00  0.00     0.023 A 
ATOM     71  C   UNL A   1      43.187  25.811  27.836  1.00  0.00     0.031 A 
ATOM     72  C   UNL A   1      43.346  27.803  26.493  1.00  0.00     0.131 A 
ATOM     73  C   UNL A   1      43.721  25.077  26.766  1.00  0.00     0.055 A 
ATOM     74  C   UNL A   1      43.793  27.055  25.402  1.00  0.00     0.041 A 
ATOM     75  F   UNL A   1      43.239  29.131  26.330  1.00  0.00    -0.206 F 
ATOM     76  C   UNL A   1      44.000  25.685  25.540  1.00  0.00     0.022 A 
BRANCH  73  77
ATOM     77  S   UNL A   1      44.192  23.349  27.052  1.00  0.00     0.124 S 
ATOM     78  O   UNL A   1      43.600  23.095  28.364  1.00  0.00    -0.237 OA
ATOM     79  O   UNL A   1      43.570  22.662  25.926  1.00  0.00    -0.237 OA
ATOM     80  O   UNL A   1      45.652  23.383  27.033  1.00  0.00    -0.744 OA
ENDBRANCH  73  77
ENDBRANCH  56  70
BRANCH  57  81
ATOM     81  C   UNL A   1      39.447  32.592  35.394  1.00  0.00     0.023 A 
ATOM     82  C   UNL A   1      38.807  31.930  36.456  1.00  0.00     0.031 A 
ATOM     83  C   UNL A   1      39.526  33.995  35.446  1.00  0.00     0.131 A 
ATOM     84  C   UNL A   1      38.232  32.673  37.498  1.00  0.00     0.055 A 
ATOM     85  C   UNL A   1      39.002  34.726  36.514  1.00  0.00     0.041 A 
ATOM     86  F   UNL A   1      40.128  34.678  34.460  1.00  0.00    -0.206 F 
ATOM     87  C   UNL A   1      38.337  34.065  37.542  1.00  0.00     0.022 A 
BRANCH  84  88
ATOM     88  S   UNL A   1      37.261  31.797  38.755  1.00  0.00     0.124 S 
ATOM     89  O   UNL A   1      37.163  30.461  38.177  1.00  0.00    -0.237 OA
ATOM     90  O   UNL A   1      38.107  31.926  39.936  1.00  0.00    -0.237 OA
ATOM     91  O   UNL A   1      36.009  32.550  38.803  1.00  0.00    -0.744 OA
ENDBRANCH  84  88
ENDBRANCH  57  81
BRANCH  69  92
ATOM     92  C   UNL A   1      45.574  29.509  34.118  1.00  0.00     0.023 A 
ATOM     93  C   UNL A   1      46.600  30.454  33.941  1.00  0.00     0.031 A 
ATOM     94  C   UNL A   1      45.777  28.480  35.055  1.00  0.00     0.131 A 
ATOM     95  C   UNL A   1      47.805  30.317  34.647  1.00  0.00     0.055 A 
ATOM     96  C   UNL A   1      46.952  28.388  35.803  1.00  0.00     0.041 A 
ATOM     97  F   UNL A   1      44.834  27.548  35.264  1.00  0.00    -0.206 F 
ATOM     98  C   UNL A   1      47.979  29.302  35.591  1.00  0.00     0.022 A 
BRANCH  95  99
ATOM     99  S   UNL A   1      49.180  31.431  34.249  1.00  0.00     0.124 S 
ATOM    100  O   UNL A   1      50.233  30.941  35.132  1.00  0.00    -0.237 OA
ATOM    101  O   UNL A   1      49.378  31.187  32.824  1.00  0.00    -0.237 OA
ATOM    102  O   UNL A   1      48.658  32.755  34.582  1.00  0.00    -0.744 OA
ENDBRANCH  95  99
ENDBRANCH  69  92
ENDBRANCH  43  44
ENDBRANCH  35  38
ENDBRANCH  33  34
ENDBRANCH  32  33
ENDBRANCH  31  32
ENDBRANCH  29  31
ENDBRANCH   1  27
TORSDOF 22
ENDMDL
MODEL 3
REMARK VINA RESULT:     -10.4      4.550      8.915
REMARK SMILES CCCCCCNC(=O)Oc1cccc(-c2ccc([C@@H](C)C(=O)NCCCNC(=O)c3ccc(-c4c5nc(c(-c6cc(S(=O)(=O)[O-])ccc6F)c6ccc([nH]6)c(-c6cc(S(=O)(=O)[O-])ccc6F)c6nc(c(-c7cc(S(=O)(=O)[O-])ccc7F)c7ccc4[nH]7)C=C6)C=C5)cc3)cc2F)c1
REMARK SMILES IDX 20 1 21 2 19 3 16 4 17 5 95 6 18 7 94 8 96 9 15 10 11 11
REMARK SMILES IDX 12 12 97 13 13 14 14 15 10 16 8 17 7 18 9 20 6 21 5 22 4 23
REMARK SMILES IDX 3 24 2 25 1 26 22 27 23 28 24 29 25 31 26 32 27 33 28 34
REMARK SMILES IDX 29 35 30 37 31 38 32 39 93 40 33 41 92 42 34 43 35 44 36 45
REMARK SMILES IDX 86 46 37 47 91 48 85 49 87 50 38 51 90 52 84 53 83 54 39 56
REMARK SMILES IDX 71 57 51 58 70 59 52 60 55 61 69 62 88 63 53 64 54 65 68 67
REMARK SMILES IDX 89 68 56 69 40 70 41 71 49 72 42 73 48 74 50 75 47 76 43 77
REMARK SMILES IDX 44 78 45 79 46 80 72 81 73 82 81 83 74 84 80 85 82 86 79 87
REMARK SMILES IDX 75 88 76 89 77 90 78 91 57 92 58 93 66 94 59 95 65 96 67 97
REMARK SMILES IDX 64 98 60 99 61 100 62 101 63 102
REMARK H PARENT 7 19 24 30 28 36 87 55 55 66
REMARK Flexibility Score: inf
ROOT
ATOM      1  C   UNL A   1      35.857  33.399  29.215  1.00  0.00     0.105 C 
ATOM      2  C   UNL A   1      35.725  34.239  27.946  1.00  0.00     0.023 C 
ENDROOT
BRANCH   1   3
ATOM      3  C   UNL A   1      36.825  32.231  29.121  1.00  0.00    -0.033 A 
ATOM      4  C   UNL A   1      38.653  30.050  28.787  1.00  0.00     0.018 A 
ATOM      5  C   UNL A   1      39.002  31.208  29.500  1.00  0.00     0.012 A 
ATOM      6  C   UNL A   1      37.348  30.007  28.272  1.00  0.00     0.131 A 
ATOM      7  C   UNL A   1      38.094  32.253  29.700  1.00  0.00     0.005 A 
ATOM      8  C   UNL A   1      36.460  31.078  28.411  1.00  0.00     0.044 A 
ATOM      9  F   UNL A   1      36.899  28.916  27.630  1.00  0.00    -0.206 F 
BRANCH   4  10
ATOM     10  C   UNL A   1      39.636  28.956  28.605  1.00  0.00    -0.012 A 
ATOM     11  C   UNL A   1      40.955  27.487  27.185  1.00  0.00     0.133 A 
ATOM     12  C   UNL A   1      41.564  26.900  28.290  1.00  0.00     0.047 A 
ATOM     13  C   UNL A   1      40.003  28.498  27.329  1.00  0.00     0.056 A 
ATOM     14  C   UNL A   1      41.219  27.338  29.561  1.00  0.00     0.004 A 
ATOM     15  C   UNL A   1      40.259  28.344  29.714  1.00  0.00     0.009 A 
BRANCH  11  16
ATOM     16  O   UNL A   1      41.241  26.921  25.934  1.00  0.00    -0.410 OA
BRANCH  16  17
ATOM     17  C   UNL A   1      42.273  27.455  25.178  1.00  0.00     0.412 C 
ATOM     18  N   UNL A   1      43.343  26.608  25.079  1.00  0.00    -0.321 N 
ATOM     19  H   UNL A   1      44.135  26.949  24.605  1.00  0.00     0.167 HD
ATOM     20  O   UNL A   1      42.280  28.550  24.632  1.00  0.00    -0.224 OA
BRANCH  18  21
ATOM     21  C   UNL A   1      43.426  25.260  25.604  1.00  0.00     0.119 C 
BRANCH  21  22
ATOM     22  C   UNL A   1      44.406  25.174  26.774  1.00  0.00     0.021 C 
BRANCH  22  23
ATOM     23  C   UNL A   1      44.025  24.151  27.849  1.00  0.00     0.002 C 
BRANCH  23  24
ATOM     24  C   UNL A   1      43.123  23.006  27.374  1.00  0.00    -0.000 C 
BRANCH  24  25
ATOM     25  C   UNL A   1      41.947  22.674  28.295  1.00  0.00    -0.003 C 
ATOM     26  C   UNL A   1      40.595  23.006  27.682  1.00  0.00     0.004 C 
ENDBRANCH  24  25
ENDBRANCH  23  24
ENDBRANCH  22  23
ENDBRANCH  21  22
ENDBRANCH  18  21
ENDBRANCH  16  17
ENDBRANCH  11  16
ENDBRANCH   4  10
ENDBRANCH   1   3
BRANCH   1  27
ATOM     27  C   UNL A   1      34.520  33.050  29.888  1.00  0.00     0.227 C 
ATOM     28  O   UNL A   1      33.654  32.443  29.246  1.00  0.00    -0.274 OA
ATOM     29  N   UNL A   1      34.212  33.348  31.179  1.00  0.00    -0.356 N 
ATOM     30  H   UNL A   1      33.333  33.010  31.467  1.00  0.00     0.163 HD
BRANCH  29  31
ATOM     31  C   UNL A   1      34.932  34.067  32.211  1.00  0.00     0.117 C 
BRANCH  31  32
ATOM     32  C   UNL A   1      35.933  33.182  32.949  1.00  0.00     0.042 C 
BRANCH  32  33
ATOM     33  C   UNL A   1      36.871  33.946  33.872  1.00  0.00     0.118 C 
BRANCH  33  34
ATOM     34  N   UNL A   1      37.032  33.282  35.158  1.00  0.00    -0.352 N 
ATOM     35  C   UNL A   1      37.840  32.232  35.527  1.00  0.00     0.251 C 
ATOM     36  H   UNL A   1      36.471  33.642  35.882  1.00  0.00     0.163 HD
ATOM     37  O   UNL A   1      37.630  31.678  36.603  1.00  0.00    -0.269 OA
BRANCH  35  38
ATOM     38  C   UNL A   1      38.935  31.759  34.648  1.00  0.00     0.039 A 
ATOM     39  C   UNL A   1      40.238  32.206  34.894  1.00  0.00     0.014 A 
ATOM     40  C   UNL A   1      38.688  30.924  33.555  1.00  0.00     0.014 A 
ATOM     41  C   UNL A   1      41.290  31.773  34.082  1.00  0.00     0.010 A 
ATOM     42  C   UNL A   1      39.748  30.422  32.804  1.00  0.00     0.010 A 
ATOM     43  C   UNL A   1      41.061  30.849  33.051  1.00  0.00    -0.014 A 
BRANCH  43  44
ATOM     44  C   UNL A   1      42.172  30.337  32.205  1.00  0.00     0.031 A 
ATOM     45  C   UNL A   1      42.675  31.153  31.044  1.00  0.00     0.074 A 
ATOM     46  C   UNL A   1      42.688  29.116  32.448  1.00  0.00     0.049 A 
ATOM     47  N   UNL A   1      43.572  30.848  30.142  1.00  0.00    -0.248 NA
ATOM     48  C   UNL A   1      42.064  32.478  30.857  1.00  0.00     0.031 C 
ATOM     49  C   UNL A   1      42.261  28.217  33.524  1.00  0.00     0.029 A 
ATOM     50  N   UNL A   1      43.677  28.413  31.805  1.00  0.00    -0.354 N 
ATOM     51  C   UNL A   1      43.622  31.933  29.272  1.00  0.00     0.074 A 
ATOM     52  C   UNL A   1      42.618  32.873  29.722  1.00  0.00     0.031 C 
ATOM     53  C   UNL A   1      43.001  27.098  33.482  1.00  0.00     0.029 A 
ATOM     54  C   UNL A   1      43.917  27.171  32.348  1.00  0.00     0.049 A 
ATOM     55  H   UNL A   1      44.168  28.765  31.028  1.00  0.00     0.167 HD
ATOM     56  C   UNL A   1      44.446  32.138  28.215  1.00  0.00     0.034 A 
ATOM     57  C   UNL A   1      44.766  26.197  31.967  1.00  0.00     0.034 A 
ATOM     58  C   UNL A   1      45.449  31.191  27.787  1.00  0.00     0.049 A 
ATOM     59  C   UNL A   1      45.645  26.429  30.764  1.00  0.00     0.074 A 
ATOM     60  C   UNL A   1      46.368  31.313  26.760  1.00  0.00     0.029 A 
ATOM     61  N   UNL A   1      45.656  29.940  28.356  1.00  0.00    -0.354 N 
ATOM     62  N   UNL A   1      45.712  27.481  29.979  1.00  0.00    -0.248 NA
ATOM     63  C   UNL A   1      46.568  25.347  30.400  1.00  0.00     0.031 C 
ATOM     64  C   UNL A   1      47.080  30.113  26.662  1.00  0.00     0.029 A 
ATOM     65  C   UNL A   1      46.665  29.270  27.682  1.00  0.00     0.049 A 
ATOM     66  H   UNL A   1      45.158  29.582  29.127  1.00  0.00     0.167 HD
ATOM     67  C   UNL A   1      46.709  27.198  29.050  1.00  0.00     0.074 A 
ATOM     68  C   UNL A   1      47.224  25.886  29.382  1.00  0.00     0.031 C 
ATOM     69  C   UNL A   1      47.163  27.956  28.018  1.00  0.00     0.034 A 
BRANCH  56  70
ATOM     70  C   UNL A   1      44.274  33.423  27.438  1.00  0.00     0.023 A 
ATOM     71  C   UNL A   1      44.604  34.673  27.994  1.00  0.00     0.031 A 
ATOM     72  C   UNL A   1      43.747  33.406  26.134  1.00  0.00     0.131 A 
ATOM     73  C   UNL A   1      44.324  35.853  27.287  1.00  0.00     0.055 A 
ATOM     74  C   UNL A   1      43.554  34.579  25.401  1.00  0.00     0.041 A 
ATOM     75  F   UNL A   1      43.395  32.248  25.554  1.00  0.00    -0.206 F 
ATOM     76  C   UNL A   1      43.826  35.813  25.984  1.00  0.00     0.022 A 
BRANCH  73  77
ATOM     77  S   UNL A   1      44.474  37.437  28.157  1.00  0.00     0.124 S 
ATOM     78  O   UNL A   1      45.418  37.103  29.220  1.00  0.00    -0.237 OA
ATOM     79  O   UNL A   1      44.973  38.324  27.113  1.00  0.00    -0.237 OA
ATOM     80  O   UNL A   1      43.111  37.710  28.609  1.00  0.00    -0.744 OA
ENDBRANCH  73  77
ENDBRANCH  56  70
BRANCH  57  81
ATOM     81  C   UNL A   1      44.826  24.909  32.717  1.00  0.00     0.023 A 
ATOM     82  C   UNL A   1      45.583  24.793  33.895  1.00  0.00     0.031 A 
ATOM     83  C   UNL A   1      44.161  23.763  32.248  1.00  0.00     0.131 A 
ATOM     84  C   UNL A   1      45.695  23.550  34.535  1.00  0.00     0.055 A 
ATOM     85  C   UNL A   1      44.229  22.541  32.921  1.00  0.00     0.041 A 
ATOM     86  F   UNL A   1      43.421  23.817  31.129  1.00  0.00    -0.206 F 
ATOM     87  C   UNL A   1      45.012  22.426  34.065  1.00  0.00     0.022 A 
BRANCH  84  88
ATOM     88  S   UNL A   1      46.824  23.399  35.947  1.00  0.00     0.124 S 
ATOM     89  O   UNL A   1      47.950  24.219  35.515  1.00  0.00    -0.237 OA
ATOM     90  O   UNL A   1      46.018  23.936  37.038  1.00  0.00    -0.237 OA
ATOM     91  O   UNL A   1      47.088  21.964  36.019  1.00  0.00    -0.744 OA
ENDBRANCH  84  88
ENDBRANCH  57  81
BRANCH  69  92
ATOM     92  C   UNL A   1      48.309  27.399  27.209  1.00  0.00     0.023 A 
ATOM     93  C   UNL A   1      49.641  27.484  27.651  1.00  0.00     0.031 A 
ATOM     94  C   UNL A   1      48.062  26.782  25.969  1.00  0.00     0.131 A 
ATOM     95  C   UNL A   1      50.680  27.013  26.834  1.00  0.00     0.055 A 
ATOM     96  C   UNL A   1      49.093  26.256  25.191  1.00  0.00     0.041 A 
ATOM     97  F   UNL A   1      46.810  26.676  25.495  1.00  0.00    -0.206 F 
ATOM     98  C   UNL A   1      50.413  26.381  25.616  1.00  0.00     0.022 A 
BRANCH  95  99
ATOM     99  S   UNL A   1      52.394  27.318  27.340  1.00  0.00     0.124 S 
ATOM    100  O   UNL A   1      53.140  26.890  26.160  1.00  0.00    -0.237 OA
ATOM    101  O   UNL A   1      52.392  28.753  27.606  1.00  0.00    -0.237 OA
ATOM    102  O   UNL A   1      52.561  26.471  28.519  1.00  0.00    -0.744 OA
ENDBRANCH  95  99
ENDBRANCH  69  92
ENDBRANCH  43  44
ENDBRANCH  35  38
ENDBRANCH  33  34
ENDBRANCH  32  33
ENDBRANCH  31  32
ENDBRANCH  29  31
ENDBRANCH   1  27
TORSDOF 22
ENDMDL
