MODEL 1
REMARK VINA RESULT:     -12.1      0.000      0.000
REMARK SMILES Cc1ccc(S(=O)(=O)n2cc(C(=O)C(=O)N[C@H](Cc3c[nH]c4ccccc34)C(=O)NCC(=O)NCCCNC(=O)c3ccc(-c4c5nc(c(-c6cc(S(=O)(=O)[O-])ccc6F)c6ccc([nH]6)c(-c6cc(S(=O)(=O)[O-])ccc6F)c6nc(c(-c7cc(S(=O)(=O)[O-])ccc7F)c7ccc4[nH]7)C=C6)C=C5)cc3)c3ccccc32)cc1
REMARK SMILES IDX 32 1 33 2 34 3 31 5 30 6 28 7 29 8 17 10 16 11 14 12 15 13
REMARK SMILES IDX 12 15 13 16 11 17 9 18 10 19 109 20 104 21 108 22 105 23
REMARK SMILES IDX 107 24 106 25 6 26 7 27 8 28 5 29 1 30 2 31 3 32 111 33 4 34
REMARK SMILES IDX 110 35 18 36 19 37 20 38 27 39 21 40 22 41 26 42 23 44 25 45
REMARK SMILES IDX 24 46 35 47 36 48 37 49 38 50 39 51 40 53 41 54 42 55 103 56
REMARK SMILES IDX 43 57 102 58 44 59 45 60 46 61 96 62 47 63 101 64 95 65
REMARK SMILES IDX 97 66 48 67 100 68 94 69 93 70 49 72 81 73 61 74 80 75 62 76
REMARK SMILES IDX 65 77 79 78 98 79 63 80 64 81 78 83 99 84 66 85 50 86 51 87
REMARK SMILES IDX 59 88 52 89 58 90 60 91 57 92 53 93 54 94 55 95 56 96 82 97
REMARK SMILES IDX 83 98 91 99 84 100 90 101 92 102 89 103 85 104 86 105 87 106
REMARK SMILES IDX 88 107 67 108 68 109 76 110 69 111 75 112 77 113 74 114
REMARK SMILES IDX 70 115 71 116 72 117 73 118
REMARK H PARENT 34 4 30 9 16 14 21 43 38 52 97 71 65 82
REMARK Flexibility Score: inf
ROOT
ATOM      1  C   UNL A   1      37.514  30.741  30.490  1.00  0.00     0.239 C 
ATOM      2  O   UNL A   1      38.121  31.318  29.582  1.00  0.00    -0.273 OA
ATOM      3  N   UNL A   1      37.759  31.124  31.774  1.00  0.00    -0.355 N 
ATOM      4  H   UNL A   1      38.498  31.766  31.883  1.00  0.00     0.163 HD
ENDROOT
BRANCH   1   5
ATOM      5  C   UNL A   1      36.417  29.727  30.143  1.00  0.00     0.216 C 
BRANCH   5   6
ATOM      6  N   UNL A   1      36.247  29.455  28.737  1.00  0.00    -0.345 N 
ATOM      7  C   UNL A   1      35.626  30.098  27.728  1.00  0.00     0.243 C 
ATOM      8  O   UNL A   1      35.874  29.612  26.615  1.00  0.00    -0.273 OA
ATOM      9  H   UNL A   1      36.677  28.616  28.452  1.00  0.00     0.164 HD
BRANCH   7  10
ATOM     10  C   UNL A   1      34.677  31.336  27.836  1.00  0.00     0.176 C 
BRANCH  10  11
ATOM     11  N   UNL A   1      33.330  31.356  27.150  1.00  0.00    -0.337 N 
ATOM     12  C   UNL A   1      32.459  30.395  26.635  1.00  0.00     0.293 C 
ATOM     13  O   UNL A   1      31.462  30.768  26.020  1.00  0.00    -0.265 OA
ATOM     14  H   UNL A   1      32.982  32.269  27.041  1.00  0.00     0.164 HD
BRANCH  12  15
ATOM     15  C   UNL A   1      32.696  28.903  26.871  1.00  0.00     0.252 C 
ATOM     16  O   UNL A   1      32.694  28.590  28.060  1.00  0.00    -0.283 OA
BRANCH  15  17
ATOM     17  C   UNL A   1      32.888  27.858  25.847  1.00  0.00     0.054 A 
ATOM     18  N   UNL A   1      33.438  26.480  24.143  1.00  0.00    -0.240 N 
ATOM     19  C   UNL A   1      33.763  27.700  24.769  1.00  0.00     0.117 A 
ATOM     20  C   UNL A   1      32.733  25.729  25.071  1.00  0.00     0.065 A 
ATOM     21  C   UNL A   1      32.035  26.708  25.768  1.00  0.00     0.012 A 
ATOM     22  C   UNL A   1      32.370  24.379  25.093  1.00  0.00     0.028 A 
ATOM     23  C   UNL A   1      30.754  26.391  26.236  1.00  0.00     0.011 A 
ATOM     24  C   UNL A   1      31.085  24.101  25.569  1.00  0.00     0.002 A 
ATOM     25  C   UNL A   1      30.262  25.103  26.073  1.00  0.00     0.001 A 
BRANCH  18  26
ATOM     26  S   UNL A   1      32.682  26.484  22.523  1.00  0.00     0.268 S 
ATOM     27  O   UNL A   1      32.201  25.129  22.322  1.00  0.00    -0.201 OA
ATOM     28  O   UNL A   1      33.652  27.089  21.626  1.00  0.00    -0.201 OA
BRANCH  26  29
ATOM     29  C   UNL A   1      31.268  27.549  22.446  1.00  0.00     0.088 A 
ATOM     30  C   UNL A   1      27.858  30.035  23.320  1.00  0.00     0.044 C 
ATOM     31  C   UNL A   1      29.048  29.184  22.984  1.00  0.00    -0.051 A 
ATOM     32  C   UNL A   1      28.944  27.801  23.126  1.00  0.00     0.005 A 
ATOM     33  C   UNL A   1      30.259  29.735  22.526  1.00  0.00     0.005 A 
ATOM     34  C   UNL A   1      30.044  26.991  22.863  1.00  0.00     0.022 A 
ATOM     35  C   UNL A   1      31.377  28.923  22.266  1.00  0.00     0.022 A 
ENDBRANCH  26  29
ENDBRANCH  18  26
ENDBRANCH  15  17
ENDBRANCH  12  15
ENDBRANCH  10  11
BRANCH  10  36
ATOM     36  C   UNL A   1      35.309  32.741  28.073  1.00  0.00     0.072 C 
BRANCH  36  37
ATOM     37  C   UNL A   1      34.609  33.814  28.876  1.00  0.00    -0.020 A 
ATOM     38  C   UNL A   1      33.920  34.860  28.285  1.00  0.00     0.087 A 
ATOM     39  C   UNL A   1      34.375  33.954  30.294  1.00  0.00     0.003 A 
ATOM     40  N   UNL A   1      33.319  35.613  29.254  1.00  0.00    -0.361 N 
ATOM     41  C   UNL A   1      33.656  35.137  30.493  1.00  0.00     0.046 A 
ATOM     42  C   UNL A   1      34.709  33.212  31.449  1.00  0.00     0.010 A 
ATOM     43  H   UNL A   1      32.731  36.385  29.086  1.00  0.00     0.166 HD
ATOM     44  C   UNL A   1      33.354  35.667  31.756  1.00  0.00     0.026 A 
ATOM     45  C   UNL A   1      34.404  33.716  32.724  1.00  0.00     0.001 A 
ATOM     46  C   UNL A   1      33.754  34.938  32.874  1.00  0.00     0.002 A 
ENDBRANCH  36  37
ENDBRANCH  10  36
ENDBRANCH   7  10
ENDBRANCH   5   6
ENDBRANCH   1   5
BRANCH   3  47
ATOM     47  C   UNL A   1      37.096  30.729  33.013  1.00  0.00     0.117 C 
BRANCH  47  48
ATOM     48  C   UNL A   1      37.093  31.855  34.023  1.00  0.00     0.042 C 
BRANCH  48  49
ATOM     49  C   UNL A   1      38.083  32.949  33.639  1.00  0.00     0.118 C 
BRANCH  49  50
ATOM     50  N   UNL A   1      38.535  33.710  34.800  1.00  0.00    -0.352 N 
ATOM     51  C   UNL A   1      39.676  33.590  35.580  1.00  0.00     0.251 C 
ATOM     52  H   UNL A   1      37.926  34.433  35.077  1.00  0.00     0.163 HD
ATOM     53  O   UNL A   1      39.751  34.062  36.699  1.00  0.00    -0.269 OA
BRANCH  51  54
ATOM     54  C   UNL A   1      40.891  33.083  34.901  1.00  0.00     0.039 A 
ATOM     55  C   UNL A   1      42.067  33.338  35.616  1.00  0.00     0.014 A 
ATOM     56  C   UNL A   1      40.893  32.993  33.517  1.00  0.00     0.014 A 
ATOM     57  C   UNL A   1      43.152  33.870  34.938  1.00  0.00     0.010 A 
ATOM     58  C   UNL A   1      41.923  33.639  32.857  1.00  0.00     0.010 A 
ATOM     59  C   UNL A   1      42.999  34.170  33.585  1.00  0.00    -0.014 A 
BRANCH  59  60
ATOM     60  C   UNL A   1      43.814  35.194  32.933  1.00  0.00     0.031 A 
ATOM     61  C   UNL A   1      43.558  36.625  33.208  1.00  0.00     0.074 A 
ATOM     62  C   UNL A   1      44.776  34.857  32.041  1.00  0.00     0.049 A 
ATOM     63  N   UNL A   1      43.816  37.589  32.388  1.00  0.00    -0.248 NA
ATOM     64  C   UNL A   1      42.916  37.078  34.436  1.00  0.00     0.031 C 
ATOM     65  C   UNL A   1      45.775  35.743  31.440  1.00  0.00     0.029 A 
ATOM     66  N   UNL A   1      44.960  33.681  31.334  1.00  0.00    -0.354 N 
ATOM     67  C   UNL A   1      43.644  38.775  33.064  1.00  0.00     0.074 A 
ATOM     68  C   UNL A   1      43.028  38.401  34.314  1.00  0.00     0.031 C 
ATOM     69  C   UNL A   1      46.207  35.193  30.293  1.00  0.00     0.029 A 
ATOM     70  C   UNL A   1      45.408  34.004  30.055  1.00  0.00     0.049 A 
ATOM     71  H   UNL A   1      44.802  32.771  31.676  1.00  0.00     0.167 HD
ATOM     72  C   UNL A   1      44.159  39.929  32.549  1.00  0.00     0.034 A 
ATOM     73  C   UNL A   1      44.710  33.741  28.911  1.00  0.00     0.034 A 
ATOM     74  C   UNL A   1      44.723  39.721  31.213  1.00  0.00     0.049 A 
ATOM     75  C   UNL A   1      44.398  34.991  28.104  1.00  0.00     0.074 A 
ATOM     76  C   UNL A   1      46.019  39.574  30.744  1.00  0.00     0.029 A 
ATOM     77  N   UNL A   1      43.886  39.351  30.163  1.00  0.00    -0.354 N 
ATOM     78  N   UNL A   1      44.480  36.209  28.569  1.00  0.00    -0.248 NA
ATOM     79  C   UNL A   1      43.933  34.958  26.721  1.00  0.00     0.031 C 
ATOM     80  C   UNL A   1      45.953  39.045  29.428  1.00  0.00     0.029 A 
ATOM     81  C   UNL A   1      44.620  38.900  29.081  1.00  0.00     0.049 A 
ATOM     82  H   UNL A   1      42.902  39.402  30.188  1.00  0.00     0.167 HD
ATOM     83  C   UNL A   1      44.055  37.100  27.614  1.00  0.00     0.074 A 
ATOM     84  C   UNL A   1      43.761  36.266  26.462  1.00  0.00     0.031 C 
ATOM     85  C   UNL A   1      43.958  38.444  27.862  1.00  0.00     0.034 A 
BRANCH  72  86
ATOM     86  C   UNL A   1      44.435  41.150  33.405  1.00  0.00     0.023 A 
ATOM     87  C   UNL A   1      43.824  42.380  33.083  1.00  0.00     0.031 A 
ATOM     88  C   UNL A   1      45.334  41.196  34.488  1.00  0.00     0.131 A 
ATOM     89  C   UNL A   1      44.205  43.578  33.718  1.00  0.00     0.055 A 
ATOM     90  C   UNL A   1      45.776  42.394  35.065  1.00  0.00     0.041 A 
ATOM     91  F   UNL A   1      45.777  40.079  35.080  1.00  0.00    -0.206 F 
ATOM     92  C   UNL A   1      45.223  43.600  34.667  1.00  0.00     0.022 A 
BRANCH  89  93
ATOM     93  S   UNL A   1      43.335  45.117  33.308  1.00  0.00     0.124 S 
ATOM     94  O   UNL A   1      44.134  46.121  34.001  1.00  0.00    -0.237 OA
ATOM     95  O   UNL A   1      43.404  45.128  31.850  1.00  0.00    -0.237 OA
ATOM     96  O   UNL A   1      41.996  44.905  33.856  1.00  0.00    -0.744 OA
ENDBRANCH  89  93
ENDBRANCH  72  86
BRANCH  73  97
ATOM     97  C   UNL A   1      43.849  32.525  28.967  1.00  0.00     0.023 A 
ATOM     98  C   UNL A   1      44.475  31.273  28.816  1.00  0.00     0.031 A 
ATOM     99  C   UNL A   1      42.553  32.533  29.494  1.00  0.00     0.131 A 
ATOM    100  C   UNL A   1      43.900  30.110  29.341  1.00  0.00     0.055 A 
ATOM    101  C   UNL A   1      41.941  31.353  29.944  1.00  0.00     0.041 A 
ATOM    102  F   UNL A   1      41.907  33.689  29.699  1.00  0.00    -0.206 F 
ATOM    103  C   UNL A   1      42.629  30.139  29.902  1.00  0.00     0.022 A 
BRANCH 100 104
ATOM    104  S   UNL A   1      44.935  28.624  29.475  1.00  0.00     0.124 S 
ATOM    105  O   UNL A   1      45.947  29.028  30.444  1.00  0.00    -0.237 OA
ATOM    106  O   UNL A   1      43.955  27.632  29.918  1.00  0.00    -0.237 OA
ATOM    107  O   UNL A   1      45.427  28.426  28.115  1.00  0.00    -0.744 OA
ENDBRANCH 100 104
ENDBRANCH  73  97
BRANCH  85 108
ATOM    108  C   UNL A   1      43.308  39.465  26.945  1.00  0.00     0.023 A 
ATOM    109  C   UNL A   1      44.028  40.406  26.194  1.00  0.00     0.031 A 
ATOM    110  C   UNL A   1      41.904  39.476  26.744  1.00  0.00     0.131 A 
ATOM    111  C   UNL A   1      43.376  41.355  25.383  1.00  0.00     0.055 A 
ATOM    112  C   UNL A   1      41.263  40.365  25.873  1.00  0.00     0.041 A 
ATOM    113  F   UNL A   1      41.092  38.617  27.377  1.00  0.00    -0.206 F 
ATOM    114  C   UNL A   1      41.997  41.328  25.201  1.00  0.00     0.022 A 
BRANCH 111 115
ATOM    115  S   UNL A   1      44.369  42.670  24.627  1.00  0.00     0.124 S 
ATOM    116  O   UNL A   1      44.873  43.377  25.801  1.00  0.00    -0.237 OA
ATOM    117  O   UNL A   1      45.363  41.916  23.868  1.00  0.00    -0.237 OA
ATOM    118  O   UNL A   1      43.404  43.413  23.821  1.00  0.00    -0.744 OA
ENDBRANCH 111 115
ENDBRANCH  85 108
ENDBRANCH  59  60
ENDBRANCH  51  54
ENDBRANCH  49  50
ENDBRANCH  48  49
ENDBRANCH  47  48
ENDBRANCH   3  47
TORSDOF 22
ENDMDL
MODEL 2
REMARK VINA RESULT:     -12.0      7.406     13.798
REMARK SMILES Cc1ccc(S(=O)(=O)n2cc(C(=O)C(=O)N[C@H](Cc3c[nH]c4ccccc34)C(=O)NCC(=O)NCCCNC(=O)c3ccc(-c4c5nc(c(-c6cc(S(=O)(=O)[O-])ccc6F)c6ccc([nH]6)c(-c6cc(S(=O)(=O)[O-])ccc6F)c6nc(c(-c7cc(S(=O)(=O)[O-])ccc7F)c7ccc4[nH]7)C=C6)C=C5)cc3)c3ccccc32)cc1
REMARK SMILES IDX 32 1 33 2 34 3 31 5 30 6 28 7 29 8 17 10 16 11 14 12 15 13
REMARK SMILES IDX 12 15 13 16 11 17 9 18 10 19 109 20 104 21 108 22 105 23
REMARK SMILES IDX 107 24 106 25 6 26 7 27 8 28 5 29 1 30 2 31 3 32 111 33 4 34
REMARK SMILES IDX 110 35 18 36 19 37 20 38 27 39 21 40 22 41 26 42 23 44 25 45
REMARK SMILES IDX 24 46 35 47 36 48 37 49 38 50 39 51 40 53 41 54 42 55 103 56
REMARK SMILES IDX 43 57 102 58 44 59 45 60 46 61 96 62 47 63 101 64 95 65
REMARK SMILES IDX 97 66 48 67 100 68 94 69 93 70 49 72 81 73 61 74 80 75 62 76
REMARK SMILES IDX 65 77 79 78 98 79 63 80 64 81 78 83 99 84 66 85 50 86 51 87
REMARK SMILES IDX 59 88 52 89 58 90 60 91 57 92 53 93 54 94 55 95 56 96 82 97
REMARK SMILES IDX 83 98 91 99 84 100 90 101 92 102 89 103 85 104 86 105 87 106
REMARK SMILES IDX 88 107 67 108 68 109 76 110 69 111 75 112 77 113 74 114
REMARK SMILES IDX 70 115 71 116 72 117 73 118
REMARK H PARENT 34 4 30 9 16 14 21 43 38 52 97 71 65 82
REMARK Flexibility Score: inf
ROOT
ATOM      1  C   UNL A   1      40.344  26.705  27.036  1.00  0.00     0.239 C 
ATOM      2  O   UNL A   1      40.968  27.440  26.263  1.00  0.00    -0.273 OA
ATOM      3  N   UNL A   1      39.994  25.463  26.602  1.00  0.00    -0.355 N 
ATOM      4  H   UNL A   1      40.172  25.288  25.649  1.00  0.00     0.163 HD
ENDROOT
BRANCH   1   5
ATOM      5  C   UNL A   1      40.111  27.152  28.484  1.00  0.00     0.216 C 
BRANCH   5   6
ATOM      6  N   UNL A   1      39.832  28.556  28.662  1.00  0.00    -0.345 N 
ATOM      7  C   UNL A   1      40.262  29.493  29.531  1.00  0.00     0.243 C 
ATOM      8  O   UNL A   1      39.910  30.642  29.222  1.00  0.00    -0.273 OA
ATOM      9  H   UNL A   1      39.186  28.907  28.007  1.00  0.00     0.164 HD
BRANCH   7  10
ATOM     10  C   UNL A   1      41.121  29.268  30.817  1.00  0.00     0.176 C 
BRANCH  10  11
ATOM     11  N   UNL A   1      41.059  30.230  31.982  1.00  0.00    -0.337 N 
ATOM     12  C   UNL A   1      40.066  30.679  32.852  1.00  0.00     0.293 C 
ATOM     13  O   UNL A   1      40.335  31.582  33.643  1.00  0.00    -0.265 OA
ATOM     14  H   UNL A   1      41.933  30.640  32.172  1.00  0.00     0.164 HD
BRANCH  12  15
ATOM     15  C   UNL A   1      38.680  30.034  32.874  1.00  0.00     0.252 C 
ATOM     16  O   UNL A   1      38.494  29.310  33.849  1.00  0.00    -0.283 OA
BRANCH  15  17
ATOM     17  C   UNL A   1      37.595  30.220  31.891  1.00  0.00     0.054 A 
ATOM     18  N   UNL A   1      35.937  30.140  30.358  1.00  0.00    -0.240 N 
ATOM     19  C   UNL A   1      36.798  29.348  31.145  1.00  0.00     0.117 A 
ATOM     20  C   UNL A   1      35.893  31.392  30.950  1.00  0.00     0.065 A 
ATOM     21  C   UNL A   1      37.182  31.522  31.455  1.00  0.00     0.012 A 
ATOM     22  C   UNL A   1      35.044  32.486  30.752  1.00  0.00     0.028 A 
ATOM     23  C   UNL A   1      37.758  32.797  31.460  1.00  0.00     0.011 A 
ATOM     24  C   UNL A   1      35.655  33.743  30.765  1.00  0.00     0.002 A 
ATOM     25  C   UNL A   1      37.009  33.892  31.050  1.00  0.00     0.001 A 
BRANCH  18  26
ATOM     26  S   UNL A   1      36.162  30.207  28.585  1.00  0.00     0.268 S 
ATOM     27  O   UNL A   1      37.096  29.140  28.277  1.00  0.00    -0.201 OA
ATOM     28  O   UNL A   1      36.457  31.594  28.268  1.00  0.00    -0.201 OA
BRANCH  26  29
ATOM     29  C   UNL A   1      34.665  29.850  27.706  1.00  0.00     0.088 A 
ATOM     30  C   UNL A   1      31.376  29.751  24.923  1.00  0.00     0.044 C 
ATOM     31  C   UNL A   1      32.512  29.754  25.904  1.00  0.00    -0.051 A 
ATOM     32  C   UNL A   1      32.630  30.824  26.790  1.00  0.00     0.005 A 
ATOM     33  C   UNL A   1      33.456  28.711  25.962  1.00  0.00     0.005 A 
ATOM     34  C   UNL A   1      33.698  30.874  27.681  1.00  0.00     0.022 A 
ATOM     35  C   UNL A   1      34.542  28.759  26.854  1.00  0.00     0.022 A 
ENDBRANCH  26  29
ENDBRANCH  18  26
ENDBRANCH  15  17
ENDBRANCH  12  15
ENDBRANCH  10  11
BRANCH  10  36
ATOM     36  C   UNL A   1      42.461  28.482  30.691  1.00  0.00     0.072 C 
BRANCH  36  37
ATOM     37  C   UNL A   1      43.782  29.174  30.444  1.00  0.00    -0.020 A 
ATOM     38  C   UNL A   1      44.321  29.326  29.178  1.00  0.00     0.087 A 
ATOM     39  C   UNL A   1      44.666  29.900  31.327  1.00  0.00     0.003 A 
ATOM     40  N   UNL A   1      45.467  30.067  29.258  1.00  0.00    -0.361 N 
ATOM     41  C   UNL A   1      45.750  30.352  30.568  1.00  0.00     0.046 A 
ATOM     42  C   UNL A   1      44.680  30.213  32.704  1.00  0.00     0.010 A 
ATOM     43  H   UNL A   1      46.010  30.354  28.488  1.00  0.00     0.166 HD
ATOM     44  C   UNL A   1      46.875  30.988  31.111  1.00  0.00     0.026 A 
ATOM     45  C   UNL A   1      45.789  30.865  33.268  1.00  0.00     0.001 A 
ATOM     46  C   UNL A   1      46.881  31.227  32.484  1.00  0.00     0.002 A 
ENDBRANCH  36  37
ENDBRANCH  10  36
ENDBRANCH   7  10
ENDBRANCH   5   6
ENDBRANCH   1   5
BRANCH   3  47
ATOM     47  C   UNL A   1      39.394  24.350  27.332  1.00  0.00     0.117 C 
BRANCH  47  48
ATOM     48  C   UNL A   1      39.712  23.023  26.677  1.00  0.00     0.042 C 
BRANCH  48  49
ATOM     49  C   UNL A   1      40.406  22.075  27.649  1.00  0.00     0.118 C 
BRANCH  49  50
ATOM     50  N   UNL A   1      41.803  21.850  27.290  1.00  0.00    -0.352 N 
ATOM     51  C   UNL A   1      42.941  22.599  27.546  1.00  0.00     0.251 C 
ATOM     52  H   UNL A   1      41.965  21.023  26.780  1.00  0.00     0.163 HD
ATOM     53  O   UNL A   1      43.966  22.465  26.904  1.00  0.00    -0.269 OA
BRANCH  51  54
ATOM     54  C   UNL A   1      42.944  23.394  28.796  1.00  0.00     0.039 A 
ATOM     55  C   UNL A   1      42.867  24.774  28.571  1.00  0.00     0.014 A 
ATOM     56  C   UNL A   1      43.586  22.879  29.913  1.00  0.00     0.014 A 
ATOM     57  C   UNL A   1      43.746  25.604  29.248  1.00  0.00     0.010 A 
ATOM     58  C   UNL A   1      44.549  23.683  30.497  1.00  0.00     0.010 A 
ATOM     59  C   UNL A   1      44.694  25.016  30.084  1.00  0.00    -0.014 A 
BRANCH  59  60
ATOM     60  C   UNL A   1      45.960  25.683  30.389  1.00  0.00     0.031 A 
ATOM     61  C   UNL A   1      47.129  25.486  29.504  1.00  0.00     0.074 A 
ATOM     62  C   UNL A   1      46.096  26.445  31.500  1.00  0.00     0.049 A 
ATOM     63  N   UNL A   1      48.360  25.573  29.883  1.00  0.00    -0.248 NA
ATOM     64  C   UNL A   1      46.987  25.105  28.104  1.00  0.00     0.031 C 
ATOM     65  C   UNL A   1      47.231  27.302  31.851  1.00  0.00     0.029 A 
ATOM     66  N   UNL A   1      45.328  26.485  32.652  1.00  0.00    -0.354 N 
ATOM     67  C   UNL A   1      49.150  25.539  28.757  1.00  0.00     0.074 A 
ATOM     68  C   UNL A   1      48.251  25.188  27.685  1.00  0.00     0.031 C 
ATOM     69  C   UNL A   1      47.233  27.495  33.181  1.00  0.00     0.029 A 
ATOM     70  C   UNL A   1      46.179  26.665  33.740  1.00  0.00     0.049 A 
ATOM     71  H   UNL A   1      44.349  26.399  32.696  1.00  0.00     0.167 HD
ATOM     72  C   UNL A   1      50.453  25.939  28.832  1.00  0.00     0.034 A 
ATOM     73  C   UNL A   1      46.346  25.751  34.741  1.00  0.00     0.034 A 
ATOM     74  C   UNL A   1      50.854  26.222  30.212  1.00  0.00     0.049 A 
ATOM     75  C   UNL A   1      47.784  25.282  34.885  1.00  0.00     0.074 A 
ATOM     76  C   UNL A   1      51.020  27.397  30.928  1.00  0.00     0.029 A 
ATOM     77  N   UNL A   1      50.873  25.191  31.148  1.00  0.00    -0.354 N 
ATOM     78  N   UNL A   1      48.711  25.455  33.980  1.00  0.00    -0.248 NA
ATOM     79  C   UNL A   1      48.278  24.548  36.047  1.00  0.00     0.031 C 
ATOM     80  C   UNL A   1      51.068  27.068  32.309  1.00  0.00     0.029 A 
ATOM     81  C   UNL A   1      50.964  25.692  32.434  1.00  0.00     0.049 A 
ATOM     82  H   UNL A   1      50.826  24.233  30.925  1.00  0.00     0.167 HD
ATOM     83  C   UNL A   1      49.874  24.846  34.385  1.00  0.00     0.074 A 
ATOM     84  C   UNL A   1      49.558  24.326  35.704  1.00  0.00     0.031 C 
ATOM     85  C   UNL A   1      50.988  24.800  33.588  1.00  0.00     0.034 A 
BRANCH  72  86
ATOM     86  C   UNL A   1      51.240  26.380  27.612  1.00  0.00     0.023 A 
ATOM     87  C   UNL A   1      52.255  25.546  27.098  1.00  0.00     0.031 A 
ATOM     88  C   UNL A   1      51.102  27.622  26.963  1.00  0.00     0.131 A 
ATOM     89  C   UNL A   1      53.143  25.999  26.103  1.00  0.00     0.055 A 
ATOM     90  C   UNL A   1      52.032  28.107  26.033  1.00  0.00     0.041 A 
ATOM     91  F   UNL A   1      50.026  28.397  27.151  1.00  0.00    -0.206 F 
ATOM     92  C   UNL A   1      53.074  27.298  25.610  1.00  0.00     0.022 A 
BRANCH  89  93
ATOM     93  S   UNL A   1      54.384  24.856  25.434  1.00  0.00     0.124 S 
ATOM     94  O   UNL A   1      55.201  25.734  24.604  1.00  0.00    -0.237 OA
ATOM     95  O   UNL A   1      55.013  24.343  26.647  1.00  0.00    -0.237 OA
ATOM     96  O   UNL A   1      53.583  23.878  24.698  1.00  0.00    -0.744 OA
ENDBRANCH  89  93
ENDBRANCH  72  86
BRANCH  73  97
ATOM     97  C   UNL A   1      45.144  24.920  35.038  1.00  0.00     0.023 A 
ATOM     98  C   UNL A   1      44.131  25.495  35.829  1.00  0.00     0.031 A 
ATOM     99  C   UNL A   1      44.814  23.772  34.311  1.00  0.00     0.131 A 
ATOM    100  C   UNL A   1      42.809  25.046  35.747  1.00  0.00     0.055 A 
ATOM    101  C   UNL A   1      43.504  23.270  34.295  1.00  0.00     0.041 A 
ATOM    102  F   UNL A   1      45.716  23.189  33.509  1.00  0.00    -0.206 F 
ATOM    103  C   UNL A   1      42.485  23.929  34.986  1.00  0.00     0.022 A 
BRANCH 100 104
ATOM    104  S   UNL A   1      41.502  26.081  36.467  1.00  0.00     0.124 S 
ATOM    105  O   UNL A   1      40.340  25.202  36.425  1.00  0.00    -0.237 OA
ATOM    106  O   UNL A   1      42.062  26.372  37.788  1.00  0.00    -0.237 OA
ATOM    107  O   UNL A   1      41.440  27.229  35.568  1.00  0.00    -0.744 OA
ENDBRANCH 100 104
ENDBRANCH  73  97
BRANCH  85 108
ATOM    108  C   UNL A   1      52.234  23.976  33.863  1.00  0.00     0.023 A 
ATOM    109  C   UNL A   1      52.275  22.576  33.780  1.00  0.00     0.031 A 
ATOM    110  C   UNL A   1      53.472  24.602  34.159  1.00  0.00     0.131 A 
ATOM    111  C   UNL A   1      53.448  21.856  34.078  1.00  0.00     0.055 A 
ATOM    112  C   UNL A   1      54.658  23.889  34.371  1.00  0.00     0.041 A 
ATOM    113  F   UNL A   1      53.588  25.935  34.245  1.00  0.00    -0.206 F 
ATOM    114  C   UNL A   1      54.648  22.504  34.353  1.00  0.00     0.022 A 
BRANCH 111 115
ATOM    115  S   UNL A   1      53.350  20.047  34.163  1.00  0.00     0.124 S 
ATOM    116  O   UNL A   1      54.348  19.741  35.184  1.00  0.00    -0.237 OA
ATOM    117  O   UNL A   1      51.960  19.826  34.551  1.00  0.00    -0.237 OA
ATOM    118  O   UNL A   1      53.694  19.618  32.809  1.00  0.00    -0.744 OA
ENDBRANCH 111 115
ENDBRANCH  85 108
ENDBRANCH  59  60
ENDBRANCH  51  54
ENDBRANCH  49  50
ENDBRANCH  48  49
ENDBRANCH  47  48
ENDBRANCH   3  47
TORSDOF 22
ENDMDL
MODEL 3
REMARK VINA RESULT:     -12.0      1.650      2.670
REMARK SMILES Cc1ccc(S(=O)(=O)n2cc(C(=O)C(=O)N[C@H](Cc3c[nH]c4ccccc34)C(=O)NCC(=O)NCCCNC(=O)c3ccc(-c4c5nc(c(-c6cc(S(=O)(=O)[O-])ccc6F)c6ccc([nH]6)c(-c6cc(S(=O)(=O)[O-])ccc6F)c6nc(c(-c7cc(S(=O)(=O)[O-])ccc7F)c7ccc4[nH]7)C=C6)C=C5)cc3)c3ccccc32)cc1
REMARK SMILES IDX 32 1 33 2 34 3 31 5 30 6 28 7 29 8 17 10 16 11 14 12 15 13
REMARK SMILES IDX 12 15 13 16 11 17 9 18 10 19 109 20 104 21 108 22 105 23
REMARK SMILES IDX 107 24 106 25 6 26 7 27 8 28 5 29 1 30 2 31 3 32 111 33 4 34
REMARK SMILES IDX 110 35 18 36 19 37 20 38 27 39 21 40 22 41 26 42 23 44 25 45
REMARK SMILES IDX 24 46 35 47 36 48 37 49 38 50 39 51 40 53 41 54 42 55 103 56
REMARK SMILES IDX 43 57 102 58 44 59 45 60 46 61 96 62 47 63 101 64 95 65
REMARK SMILES IDX 97 66 48 67 100 68 94 69 93 70 49 72 81 73 61 74 80 75 62 76
REMARK SMILES IDX 65 77 79 78 98 79 63 80 64 81 78 83 99 84 66 85 50 86 51 87
REMARK SMILES IDX 59 88 52 89 58 90 60 91 57 92 53 93 54 94 55 95 56 96 82 97
REMARK SMILES IDX 83 98 91 99 84 100 90 101 92 102 89 103 85 104 86 105 87 106
REMARK SMILES IDX 88 107 67 108 68 109 76 110 69 111 75 112 77 113 74 114
REMARK SMILES IDX 70 115 71 116 72 117 73 118
REMARK H PARENT 34 4 30 9 16 14 21 43 38 52 97 71 65 82
REMARK Flexibility Score: inf
ROOT
ATOM      1  C   UNL A   1      37.488  30.930  30.760  1.00  0.00     0.239 C 
ATOM      2  O   UNL A   1      37.625  32.019  30.193  1.00  0.00    -0.273 OA
ATOM      3  N   UNL A   1      38.415  30.567  31.689  1.00  0.00    -0.355 N 
ATOM      4  H   UNL A   1      39.195  31.164  31.755  1.00  0.00     0.163 HD
ENDROOT
BRANCH   1   5
ATOM      5  C   UNL A   1      36.225  30.098  30.508  1.00  0.00     0.216 C 
BRANCH   5   6
ATOM      6  N   UNL A   1      36.180  29.406  29.243  1.00  0.00    -0.345 N 
ATOM      7  C   UNL A   1      35.686  29.712  28.027  1.00  0.00     0.243 C 
ATOM      8  O   UNL A   1      36.021  28.903  27.148  1.00  0.00    -0.273 OA
ATOM      9  H   UNL A   1      36.602  28.517  29.275  1.00  0.00     0.164 HD
BRANCH   7  10
ATOM     10  C   UNL A   1      34.782  30.930  27.651  1.00  0.00     0.176 C 
BRANCH  10  11
ATOM     11  N   UNL A   1      33.780  30.847  26.522  1.00  0.00    -0.337 N 
ATOM     12  C   UNL A   1      32.920  29.868  26.023  1.00  0.00     0.293 C 
ATOM     13  O   UNL A   1      32.300  30.097  24.986  1.00  0.00    -0.265 OA
ATOM     14  H   UNL A   1      33.718  31.688  26.017  1.00  0.00     0.164 HD
BRANCH  12  15
ATOM     15  C   UNL A   1      32.700  28.552  26.769  1.00  0.00     0.252 C 
ATOM     16  O   UNL A   1      33.115  28.570  27.925  1.00  0.00    -0.283 OA
BRANCH  15  17
ATOM     17  C   UNL A   1      32.039  27.336  26.256  1.00  0.00     0.054 A 
ATOM     18  N   UNL A   1      30.850  25.472  25.790  1.00  0.00    -0.240 N 
ATOM     19  C   UNL A   1      31.049  26.484  26.751  1.00  0.00     0.117 A 
ATOM     20  C   UNL A   1      31.346  25.957  24.590  1.00  0.00     0.065 A 
ATOM     21  C   UNL A   1      32.418  26.735  25.010  1.00  0.00     0.012 A 
ATOM     22  C   UNL A   1      31.212  25.500  23.274  1.00  0.00     0.028 A 
ATOM     23  C   UNL A   1      33.549  26.791  24.188  1.00  0.00     0.011 A 
ATOM     24  C   UNL A   1      32.361  25.573  22.483  1.00  0.00     0.002 A 
ATOM     25  C   UNL A   1      33.535  26.151  22.955  1.00  0.00     0.001 A 
BRANCH  18  26
ATOM     26  S   UNL A   1      31.372  23.798  26.140  1.00  0.00     0.268 S 
ATOM     27  O   UNL A   1      30.505  22.952  25.340  1.00  0.00    -0.201 OA
ATOM     28  O   UNL A   1      31.422  23.684  27.588  1.00  0.00    -0.201 OA
BRANCH  26  29
ATOM     29  C   UNL A   1      33.032  23.487  25.604  1.00  0.00     0.088 A 
ATOM     30  C   UNL A   1      36.780  23.350  23.480  1.00  0.00     0.044 C 
ATOM     31  C   UNL A   1      35.491  23.387  24.249  1.00  0.00    -0.051 A 
ATOM     32  C   UNL A   1      34.394  22.685  23.751  1.00  0.00     0.005 A 
ATOM     33  C   UNL A   1      35.357  24.101  25.454  1.00  0.00     0.005 A 
ATOM     34  C   UNL A   1      33.175  22.737  24.420  1.00  0.00     0.022 A 
ATOM     35  C   UNL A   1      34.126  24.164  26.132  1.00  0.00     0.022 A 
ENDBRANCH  26  29
ENDBRANCH  18  26
ENDBRANCH  15  17
ENDBRANCH  12  15
ENDBRANCH  10  11
BRANCH  10  36
ATOM     36  C   UNL A   1      35.304  32.367  27.955  1.00  0.00     0.072 C 
BRANCH  36  37
ATOM     37  C   UNL A   1      34.402  33.457  28.487  1.00  0.00    -0.020 A 
ATOM     38  C   UNL A   1      33.456  34.095  27.702  1.00  0.00     0.087 A 
ATOM     39  C   UNL A   1      34.201  33.971  29.823  1.00  0.00     0.003 A 
ATOM     40  N   UNL A   1      32.734  34.961  28.474  1.00  0.00    -0.361 N 
ATOM     41  C   UNL A   1      33.228  34.973  29.752  1.00  0.00     0.046 A 
ATOM     42  C   UNL A   1      34.753  33.711  31.096  1.00  0.00     0.010 A 
ATOM     43  H   UNL A   1      31.970  35.497  28.159  1.00  0.00     0.166 HD
ATOM     44  C   UNL A   1      32.862  35.786  30.834  1.00  0.00     0.026 A 
ATOM     45  C   UNL A   1      34.390  34.502  32.198  1.00  0.00     0.001 A 
ATOM     46  C   UNL A   1      33.472  35.541  32.062  1.00  0.00     0.002 A 
ENDBRANCH  36  37
ENDBRANCH  10  36
ENDBRANCH   7  10
ENDBRANCH   5   6
ENDBRANCH   1   5
BRANCH   3  47
ATOM     47  C   UNL A   1      38.429  29.429  32.604  1.00  0.00     0.117 C 
BRANCH  47  48
ATOM     48  C   UNL A   1      38.133  29.857  34.025  1.00  0.00     0.042 C 
BRANCH  48  49
ATOM     49  C   UNL A   1      39.093  30.946  34.489  1.00  0.00     0.118 C 
BRANCH  49  50
ATOM     50  N   UNL A   1      40.485  30.509  34.432  1.00  0.00    -0.352 N 
ATOM     51  C   UNL A   1      41.652  31.216  34.186  1.00  0.00     0.251 C 
ATOM     52  H   UNL A   1      40.618  29.548  34.598  1.00  0.00     0.163 HD
ATOM     53  O   UNL A   1      42.683  30.670  33.839  1.00  0.00    -0.269 OA
BRANCH  51  54
ATOM     54  C   UNL A   1      41.667  32.637  34.606  1.00  0.00     0.039 A 
ATOM     55  C   UNL A   1      40.956  33.474  33.738  1.00  0.00     0.014 A 
ATOM     56  C   UNL A   1      42.749  33.106  35.336  1.00  0.00     0.014 A 
ATOM     57  C   UNL A   1      41.552  34.654  33.322  1.00  0.00     0.010 A 
ATOM     58  C   UNL A   1      43.403  34.215  34.830  1.00  0.00     0.010 A 
ATOM     59  C   UNL A   1      42.851  34.922  33.751  1.00  0.00    -0.014 A 
BRANCH  59  60
ATOM     60  C   UNL A   1      43.747  35.784  32.981  1.00  0.00     0.031 A 
ATOM     61  C   UNL A   1      43.691  37.252  33.158  1.00  0.00     0.074 A 
ATOM     62  C   UNL A   1      44.600  35.264  32.067  1.00  0.00     0.049 A 
ATOM     63  N   UNL A   1      44.016  38.115  32.255  1.00  0.00    -0.248 NA
ATOM     64  C   UNL A   1      43.189  37.868  34.381  1.00  0.00     0.031 C 
ATOM     65  C   UNL A   1      45.663  35.970  31.348  1.00  0.00     0.029 A 
ATOM     66  N   UNL A   1      44.591  34.028  31.443  1.00  0.00    -0.354 N 
ATOM     67  C   UNL A   1      44.037  39.357  32.845  1.00  0.00     0.074 A 
ATOM     68  C   UNL A   1      43.459  39.154  34.152  1.00  0.00     0.031 C 
ATOM     69  C   UNL A   1      45.950  35.290  30.224  1.00  0.00     0.029 A 
ATOM     70  C   UNL A   1      44.994  34.201  30.121  1.00  0.00     0.049 A 
ATOM     71  H   UNL A   1      44.341  33.173  31.861  1.00  0.00     0.167 HD
ATOM     72  C   UNL A   1      44.660  40.396  32.217  1.00  0.00     0.034 A 
ATOM     73  C   UNL A   1      44.198  33.953  29.040  1.00  0.00     0.034 A 
ATOM     74  C   UNL A   1      45.108  40.025  30.873  1.00  0.00     0.049 A 
ATOM     75  C   UNL A   1      43.996  35.174  28.157  1.00  0.00     0.074 A 
ATOM     76  C   UNL A   1      46.343  39.678  30.348  1.00  0.00     0.029 A 
ATOM     77  N   UNL A   1      44.167  39.695  29.901  1.00  0.00    -0.354 N 
ATOM     78  N   UNL A   1      44.259  36.400  28.522  1.00  0.00    -0.248 NA
ATOM     79  C   UNL A   1      43.445  35.107  26.807  1.00  0.00     0.031 C 
ATOM     80  C   UNL A   1      46.129  39.073  29.081  1.00  0.00     0.029 A 
ATOM     81  C   UNL A   1      44.769  39.079  28.818  1.00  0.00     0.049 A 
ATOM     82  H   UNL A   1      43.201  39.875  29.974  1.00  0.00     0.167 HD
ATOM     83  C   UNL A   1      43.891  37.271  27.526  1.00  0.00     0.074 A 
ATOM     84  C   UNL A   1      43.423  36.405  26.458  1.00  0.00     0.031 C 
ATOM     85  C   UNL A   1      43.980  38.630  27.675  1.00  0.00     0.034 A 
BRANCH  72  86
ATOM     86  C   UNL A   1      45.140  41.627  32.961  1.00  0.00     0.023 A 
ATOM     87  C   UNL A   1      44.325  42.778  33.005  1.00  0.00     0.031 A 
ATOM     88  C   UNL A   1      46.401  41.765  33.575  1.00  0.00     0.131 A 
ATOM     89  C   UNL A   1      44.811  44.003  33.502  1.00  0.00     0.055 A 
ATOM     90  C   UNL A   1      46.916  42.999  33.995  1.00  0.00     0.041 A 
ATOM     91  F   UNL A   1      47.166  40.702  33.853  1.00  0.00    -0.206 F 
ATOM     92  C   UNL A   1      46.124  44.134  33.943  1.00  0.00     0.022 A 
BRANCH  89  93
ATOM     93  S   UNL A   1      43.693  45.430  33.594  1.00  0.00     0.124 S 
ATOM     94  O   UNL A   1      44.496  46.409  34.317  1.00  0.00    -0.237 OA
ATOM     95  O   UNL A   1      43.442  45.713  32.184  1.00  0.00    -0.237 OA
ATOM     96  O   UNL A   1      42.540  44.911  34.329  1.00  0.00    -0.744 OA
ENDBRANCH  89  93
ENDBRANCH  72  86
BRANCH  73  97
ATOM     97  C   UNL A   1      43.196  32.866  29.234  1.00  0.00     0.023 A 
ATOM     98  C   UNL A   1      43.633  31.538  29.071  1.00  0.00     0.031 A 
ATOM     99  C   UNL A   1      41.978  33.063  29.892  1.00  0.00     0.131 A 
ATOM    100  C   UNL A   1      42.970  30.478  29.699  1.00  0.00     0.055 A 
ATOM    101  C   UNL A   1      41.268  31.989  30.451  1.00  0.00     0.041 A 
ATOM    102  F   UNL A   1      41.514  34.300  30.116  1.00  0.00    -0.206 F 
ATOM    103  C   UNL A   1      41.782  30.692  30.387  1.00  0.00     0.022 A 
BRANCH 100 104
ATOM    104  S   UNL A   1      43.809  28.869  29.785  1.00  0.00     0.124 S 
ATOM    105  O   UNL A   1      42.722  27.930  29.537  1.00  0.00    -0.237 OA
ATOM    106  O   UNL A   1      44.812  29.012  28.729  1.00  0.00    -0.237 OA
ATOM    107  O   UNL A   1      44.353  28.840  31.140  1.00  0.00    -0.744 OA
ENDBRANCH 100 104
ENDBRANCH  73  97
BRANCH  85 108
ATOM    108  C   UNL A   1      43.407  39.661  26.719  1.00  0.00     0.023 A 
ATOM    109  C   UNL A   1      44.195  40.517  25.934  1.00  0.00     0.031 A 
ATOM    110  C   UNL A   1      42.008  39.769  26.514  1.00  0.00     0.131 A 
ATOM    111  C   UNL A   1      43.615  41.481  25.087  1.00  0.00     0.055 A 
ATOM    112  C   UNL A   1      41.435  40.669  25.608  1.00  0.00     0.041 A 
ATOM    113  F   UNL A   1      41.135  38.996  27.176  1.00  0.00    -0.206 F 
ATOM    114  C   UNL A   1      42.238  41.549  24.903  1.00  0.00     0.022 A 
BRANCH 111 115
ATOM    115  S   UNL A   1      44.703  42.689  24.285  1.00  0.00     0.124 S 
ATOM    116  O   UNL A   1      44.438  42.437  22.871  1.00  0.00    -0.237 OA
ATOM    117  O   UNL A   1      44.203  43.957  24.806  1.00  0.00    -0.237 OA
ATOM    118  O   UNL A   1      46.038  42.310  24.743  1.00  0.00    -0.744 OA
ENDBRANCH 111 115
ENDBRANCH  85 108
ENDBRANCH  59  60
ENDBRANCH  51  54
ENDBRANCH  49  50
ENDBRANCH  48  49
ENDBRANCH  47  48
ENDBRANCH   3  47
TORSDOF 22
ENDMDL
