MODEL 1
REMARK VINA RESULT:     -12.2      0.000      0.000
REMARK SMILES C[C@@H]1CCCN(C(=O)NC2(CC(=O)NCCCNC(=O)c3ccc(-c4c5nc(c(-c6cc(S(=O)(=O)[O-])ccc6F)c6ccc([nH]6)c(-c6cc(S(=O)(=O)[O-])ccc6F)c6nc(c(-c7cc(S(=O)(=O)[O-])ccc7F)c7ccc4[nH]7)C=C6)C=C5)cc3)CCC2)[C@@H]1C
REMARK SMILES IDX 16 1 15 2 14 3 12 4 13 5 11 7 10 8 84 9 86 10 85 11 9 12
REMARK SMILES IDX 7 13 8 14 6 16 1 17 2 18 3 19 87 20 4 21 88 22 5 23 17 24
REMARK SMILES IDX 18 25 19 26 20 28 21 29 22 30 83 31 23 32 82 33 24 34 25 35
REMARK SMILES IDX 26 36 76 37 27 38 81 39 75 40 77 41 28 42 80 43 74 44 73 45
REMARK SMILES IDX 29 47 61 48 41 49 60 50 42 51 45 52 59 53 78 54 43 55 44 56
REMARK SMILES IDX 58 58 79 59 46 60 30 61 31 62 39 63 32 64 38 65 40 66 37 67
REMARK SMILES IDX 33 68 34 69 35 70 36 71 62 72 63 73 71 74 64 75 70 76 72 77
REMARK SMILES IDX 69 78 65 79 66 80 67 81 68 82 47 83 48 84 56 85 49 86 55 87
REMARK SMILES IDX 57 88 54 89 50 90 51 91 52 92 53 93
REMARK H PARENT 14 6 9 15 18 27 77 46 45 57
REMARK Flexibility Score: inf
ROOT
ATOM      1  C   UNL A   1      31.481  32.083  26.596  1.00  0.00     0.042 C 
ENDROOT
BRANCH   1   2
ATOM      2  C   UNL A   1      31.509  30.577  26.334  1.00  0.00     0.117 C 
BRANCH   2   3
ATOM      3  N   UNL A   1      32.349  30.277  25.192  1.00  0.00    -0.356 N 
ATOM      4  C   UNL A   1      32.532  29.092  24.551  1.00  0.00     0.222 C 
ATOM      5  O   UNL A   1      33.488  28.985  23.781  1.00  0.00    -0.275 OA
ATOM      6  H   UNL A   1      32.859  31.037  24.830  1.00  0.00     0.163 HD
BRANCH   4   7
ATOM      7  C   UNL A   1      31.576  27.936  24.743  1.00  0.00     0.128 C 
BRANCH   7   8
ATOM      8  C   UNL A   1      30.959  27.296  23.470  1.00  0.00     0.051 C 
ATOM      9  C   UNL A   1      29.983  28.315  22.842  1.00  0.00     0.029 C 
ATOM     10  C   UNL A   1      29.765  26.371  23.785  1.00  0.00     0.029 C 
ATOM     11  C   UNL A   1      28.795  27.487  23.357  1.00  0.00     0.005 C 
BRANCH   8  12
ATOM     12  N   UNL A   1      32.035  26.798  22.582  1.00  0.00    -0.332 N 
ATOM     13  C   UNL A   1      33.017  25.880  22.460  1.00  0.00     0.318 C 
ATOM     14  O   UNL A   1      33.422  25.813  21.293  1.00  0.00    -0.249 OA
ATOM     15  H   UNL A   1      32.034  27.348  21.765  1.00  0.00     0.165 HD
BRANCH  13  16
ATOM     16  N   UNL A   1      33.544  25.096  23.445  1.00  0.00    -0.322 N 
ATOM     17  C   UNL A   1      31.103  23.581  24.508  1.00  0.00     0.010 C 
ATOM     18  C   UNL A   1      32.564  23.125  24.605  1.00  0.00     0.008 C 
ATOM     19  C   UNL A   1      33.208  23.598  25.923  1.00  0.00     0.007 C 
ATOM     20  C   UNL A   1      33.426  23.609  23.409  1.00  0.00     0.086 C 
ATOM     21  C   UNL A   1      33.517  25.092  25.914  1.00  0.00     0.022 C 
ATOM     22  C   UNL A   1      33.041  22.903  22.104  1.00  0.00     0.031 C 
ATOM     23  C   UNL A   1      34.256  25.508  24.643  1.00  0.00     0.121 C 
ENDBRANCH  13  16
ENDBRANCH   8  12
ENDBRANCH   7   8
ENDBRANCH   4   7
ENDBRANCH   2   3
ENDBRANCH   1   2
BRANCH   1  24
ATOM     24  C   UNL A   1      32.741  32.603  27.275  1.00  0.00     0.118 C 
BRANCH  24  25
ATOM     25  N   UNL A   1      32.612  34.010  27.610  1.00  0.00    -0.352 N 
ATOM     26  C   UNL A   1      33.145  34.724  28.653  1.00  0.00     0.251 C 
ATOM     27  H   UNL A   1      32.054  34.534  26.992  1.00  0.00     0.163 HD
ATOM     28  O   UNL A   1      32.666  35.826  28.909  1.00  0.00    -0.269 OA
BRANCH  26  29
ATOM     29  C   UNL A   1      34.273  34.195  29.462  1.00  0.00     0.039 A 
ATOM     30  C   UNL A   1      35.555  34.216  28.905  1.00  0.00     0.014 A 
ATOM     31  C   UNL A   1      34.075  33.601  30.712  1.00  0.00     0.014 A 
ATOM     32  C   UNL A   1      36.630  33.652  29.598  1.00  0.00     0.010 A 
ATOM     33  C   UNL A   1      35.162  33.117  31.441  1.00  0.00     0.010 A 
ATOM     34  C   UNL A   1      36.444  33.105  30.877  1.00  0.00    -0.014 A 
BRANCH  34  35
ATOM     35  C   UNL A   1      37.570  32.454  31.597  1.00  0.00     0.031 A 
ATOM     36  C   UNL A   1      38.332  31.329  30.943  1.00  0.00     0.074 A 
ATOM     37  C   UNL A   1      37.891  32.856  32.842  1.00  0.00     0.049 A 
ATOM     38  N   UNL A   1      39.324  30.615  31.411  1.00  0.00    -0.248 NA
ATOM     39  C   UNL A   1      37.896  30.932  29.596  1.00  0.00     0.031 C 
ATOM     40  C   UNL A   1      37.196  33.902  33.597  1.00  0.00     0.029 A 
ATOM     41  N   UNL A   1      38.880  32.435  33.694  1.00  0.00    -0.354 N 
ATOM     42  C   UNL A   1      39.616  29.675  30.427  1.00  0.00     0.074 A 
ATOM     43  C   UNL A   1      38.654  29.871  29.364  1.00  0.00     0.031 C 
ATOM     44  C   UNL A   1      37.798  34.059  34.786  1.00  0.00     0.029 A 
ATOM     45  C   UNL A   1      38.898  33.106  34.895  1.00  0.00     0.049 A 
ATOM     46  H   UNL A   1      39.518  31.721  33.467  1.00  0.00     0.167 HD
ATOM     47  C   UNL A   1      40.609  28.751  30.400  1.00  0.00     0.034 A 
ATOM     48  C   UNL A   1      39.709  32.967  35.962  1.00  0.00     0.034 A 
ATOM     49  C   UNL A   1      41.576  28.586  31.458  1.00  0.00     0.049 A 
ATOM     50  C   UNL A   1      40.826  31.956  35.895  1.00  0.00     0.074 A 
ATOM     51  C   UNL A   1      42.654  27.720  31.518  1.00  0.00     0.029 A 
ATOM     52  N   UNL A   1      41.584  29.308  32.646  1.00  0.00    -0.354 N 
ATOM     53  N   UNL A   1      41.121  31.111  34.934  1.00  0.00    -0.248 NA
ATOM     54  C   UNL A   1      41.733  31.901  37.048  1.00  0.00     0.031 C 
ATOM     55  C   UNL A   1      43.278  27.878  32.761  1.00  0.00     0.029 A 
ATOM     56  C   UNL A   1      42.634  28.894  33.450  1.00  0.00     0.049 A 
ATOM     57  H   UNL A   1      40.937  30.011  32.882  1.00  0.00     0.167 HD
ATOM     58  C   UNL A   1      42.267  30.443  35.357  1.00  0.00     0.074 A 
ATOM     59  C   UNL A   1      42.620  31.004  36.645  1.00  0.00     0.031 C 
ATOM     60  C   UNL A   1      42.966  29.456  34.738  1.00  0.00     0.034 A 
BRANCH  47  61
ATOM     61  C   UNL A   1      40.675  27.836  29.198  1.00  0.00     0.023 A 
ATOM     62  C   UNL A   1      41.611  28.034  28.166  1.00  0.00     0.031 A 
ATOM     63  C   UNL A   1      39.770  26.769  29.063  1.00  0.00     0.131 A 
ATOM     64  C   UNL A   1      41.568  27.233  27.015  1.00  0.00     0.055 A 
ATOM     65  C   UNL A   1      39.786  25.923  27.952  1.00  0.00     0.041 A 
ATOM     66  F   UNL A   1      38.840  26.539  30.004  1.00  0.00    -0.206 F 
ATOM     67  C   UNL A   1      40.678  26.162  26.911  1.00  0.00     0.022 A 
BRANCH  64  68
ATOM     68  S   UNL A   1      42.595  27.701  25.594  1.00  0.00     0.124 S 
ATOM     69  O   UNL A   1      41.868  28.858  25.074  1.00  0.00    -0.237 OA
ATOM     70  O   UNL A   1      43.884  27.982  26.213  1.00  0.00    -0.237 OA
ATOM     71  O   UNL A   1      42.558  26.516  24.739  1.00  0.00    -0.744 OA
ENDBRANCH  64  68
ENDBRANCH  47  61
BRANCH  48  72
ATOM     72  C   UNL A   1      39.509  33.805  37.178  1.00  0.00     0.023 A 
ATOM     73  C   UNL A   1      38.838  33.301  38.303  1.00  0.00     0.031 A 
ATOM     74  C   UNL A   1      39.952  35.139  37.217  1.00  0.00     0.131 A 
ATOM     75  C   UNL A   1      38.582  34.139  39.399  1.00  0.00     0.055 A 
ATOM     76  C   UNL A   1      39.740  35.955  38.330  1.00  0.00     0.041 A 
ATOM     77  F   UNL A   1      40.609  35.667  36.172  1.00  0.00    -0.206 F 
ATOM     78  C   UNL A   1      39.038  35.459  39.425  1.00  0.00     0.022 A 
BRANCH  75  79
ATOM     79  S   UNL A   1      37.568  33.502  40.762  1.00  0.00     0.124 S 
ATOM     80  O   UNL A   1      38.440  32.480  41.331  1.00  0.00    -0.237 OA
ATOM     81  O   UNL A   1      37.367  34.699  41.573  1.00  0.00    -0.237 OA
ATOM     82  O   UNL A   1      36.372  33.000  40.089  1.00  0.00    -0.744 OA
ENDBRANCH  75  79
ENDBRANCH  48  72
BRANCH  60  83
ATOM     83  C   UNL A   1      44.208  28.963  35.440  1.00  0.00     0.023 A 
ATOM     84  C   UNL A   1      44.165  27.900  36.359  1.00  0.00     0.031 A 
ATOM     85  C   UNL A   1      45.445  29.593  35.215  1.00  0.00     0.131 A 
ATOM     86  C   UNL A   1      45.318  27.550  37.077  1.00  0.00     0.055 A 
ATOM     87  C   UNL A   1      46.603  29.195  35.882  1.00  0.00     0.041 A 
ATOM     88  F   UNL A   1      45.545  30.614  34.348  1.00  0.00    -0.206 F 
ATOM     89  C   UNL A   1      46.540  28.180  36.834  1.00  0.00     0.022 A 
BRANCH  86  90
ATOM     90  S   UNL A   1      45.171  26.343  38.423  1.00  0.00     0.124 S 
ATOM     91  O   UNL A   1      45.015  25.089  37.691  1.00  0.00    -0.237 OA
ATOM     92  O   UNL A   1      46.433  26.513  39.133  1.00  0.00    -0.237 OA
ATOM     93  O   UNL A   1      43.983  26.785  39.152  1.00  0.00    -0.744 OA
ENDBRANCH  86  90
ENDBRANCH  60  83
ENDBRANCH  34  35
ENDBRANCH  26  29
ENDBRANCH  24  25
ENDBRANCH   1  24
TORSDOF 16
ENDMDL
MODEL 2
REMARK VINA RESULT:     -12.2      3.156      8.591
REMARK SMILES C[C@@H]1CCCN(C(=O)NC2(CC(=O)NCCCNC(=O)c3ccc(-c4c5nc(c(-c6cc(S(=O)(=O)[O-])ccc6F)c6ccc([nH]6)c(-c6cc(S(=O)(=O)[O-])ccc6F)c6nc(c(-c7cc(S(=O)(=O)[O-])ccc7F)c7ccc4[nH]7)C=C6)C=C5)cc3)CCC2)[C@@H]1C
REMARK SMILES IDX 16 1 15 2 14 3 12 4 13 5 11 7 10 8 84 9 86 10 85 11 9 12
REMARK SMILES IDX 7 13 8 14 6 16 1 17 2 18 3 19 87 20 4 21 88 22 5 23 17 24
REMARK SMILES IDX 18 25 19 26 20 28 21 29 22 30 83 31 23 32 82 33 24 34 25 35
REMARK SMILES IDX 26 36 76 37 27 38 81 39 75 40 77 41 28 42 80 43 74 44 73 45
REMARK SMILES IDX 29 47 61 48 41 49 60 50 42 51 45 52 59 53 78 54 43 55 44 56
REMARK SMILES IDX 58 58 79 59 46 60 30 61 31 62 39 63 32 64 38 65 40 66 37 67
REMARK SMILES IDX 33 68 34 69 35 70 36 71 62 72 63 73 71 74 64 75 70 76 72 77
REMARK SMILES IDX 69 78 65 79 66 80 67 81 68 82 47 83 48 84 56 85 49 86 55 87
REMARK SMILES IDX 57 88 54 89 50 90 51 91 52 92 53 93
REMARK H PARENT 14 6 9 15 18 27 77 46 45 57
REMARK Flexibility Score: inf
ROOT
ATOM      1  C   UNL A   1      32.158  29.042  27.312  1.00  0.00     0.042 C 
ENDROOT
BRANCH   1   2
ATOM      2  C   UNL A   1      31.359  28.220  26.301  1.00  0.00     0.117 C 
BRANCH   2   3
ATOM      3  N   UNL A   1      31.377  26.816  26.661  1.00  0.00    -0.356 N 
ATOM      4  C   UNL A   1      32.158  25.817  26.172  1.00  0.00     0.222 C 
ATOM      5  O   UNL A   1      31.834  24.652  26.409  1.00  0.00    -0.275 OA
ATOM      6  H   UNL A   1      30.734  26.549  27.357  1.00  0.00     0.163 HD
BRANCH   4   7
ATOM      7  C   UNL A   1      33.413  26.112  25.381  1.00  0.00     0.128 C 
BRANCH   7   8
ATOM      8  C   UNL A   1      33.361  25.895  23.844  1.00  0.00     0.051 C 
ATOM      9  C   UNL A   1      33.642  27.250  23.157  1.00  0.00     0.029 C 
ATOM     10  C   UNL A   1      31.923  25.929  23.285  1.00  0.00     0.029 C 
ATOM     11  C   UNL A   1      32.153  27.370  22.795  1.00  0.00     0.005 C 
BRANCH   8  12
ATOM     12  N   UNL A   1      34.252  24.777  23.460  1.00  0.00    -0.332 N 
ATOM     13  C   UNL A   1      34.395  23.435  23.478  1.00  0.00     0.318 C 
ATOM     14  O   UNL A   1      35.303  23.074  22.720  1.00  0.00    -0.249 OA
ATOM     15  H   UNL A   1      35.048  25.159  23.023  1.00  0.00     0.165 HD
BRANCH  13  16
ATOM     16  N   UNL A   1      33.674  22.535  24.209  1.00  0.00    -0.322 N 
ATOM     17  C   UNL A   1      35.754  20.410  24.942  1.00  0.00     0.010 C 
ATOM     18  C   UNL A   1      34.458  20.709  25.705  1.00  0.00     0.008 C 
ATOM     19  C   UNL A   1      33.301  19.821  25.205  1.00  0.00     0.007 C 
ATOM     20  C   UNL A   1      34.038  22.200  25.616  1.00  0.00     0.086 C 
ATOM     21  C   UNL A   1      32.779  20.264  23.842  1.00  0.00     0.022 C 
ATOM     22  C   UNL A   1      34.991  23.111  26.398  1.00  0.00     0.031 C 
ATOM     23  C   UNL A   1      32.510  21.768  23.800  1.00  0.00     0.121 C 
ENDBRANCH  13  16
ENDBRANCH   8  12
ENDBRANCH   7   8
ENDBRANCH   4   7
ENDBRANCH   2   3
ENDBRANCH   1   2
BRANCH   1  24
ATOM     24  C   UNL A   1      33.366  29.742  26.703  1.00  0.00     0.118 C 
BRANCH  24  25
ATOM     25  N   UNL A   1      33.452  31.120  27.152  1.00  0.00    -0.352 N 
ATOM     26  C   UNL A   1      34.328  31.713  28.025  1.00  0.00     0.251 C 
ATOM     27  H   UNL A   1      32.776  31.724  26.769  1.00  0.00     0.163 HD
ATOM     28  O   UNL A   1      34.034  32.813  28.486  1.00  0.00    -0.269 OA
BRANCH  26  29
ATOM     29  C   UNL A   1      35.602  31.058  28.416  1.00  0.00     0.039 A 
ATOM     30  C   UNL A   1      35.543  29.938  29.252  1.00  0.00     0.014 A 
ATOM     31  C   UNL A   1      36.847  31.578  28.051  1.00  0.00     0.014 A 
ATOM     32  C   UNL A   1      36.720  29.343  29.711  1.00  0.00     0.010 A 
ATOM     33  C   UNL A   1      38.022  30.932  28.438  1.00  0.00     0.010 A 
ATOM     34  C   UNL A   1      37.971  29.829  29.301  1.00  0.00    -0.014 A 
BRANCH  34  35
ATOM     35  C   UNL A   1      39.229  29.237  29.828  1.00  0.00     0.031 A 
ATOM     36  C   UNL A   1      39.866  29.806  31.071  1.00  0.00     0.074 A 
ATOM     37  C   UNL A   1      39.809  28.208  29.179  1.00  0.00     0.049 A 
ATOM     38  N   UNL A   1      40.971  29.451  31.674  1.00  0.00    -0.248 NA
ATOM     39  C   UNL A   1      39.184  30.948  31.699  1.00  0.00     0.031 C 
ATOM     40  C   UNL A   1      39.312  27.604  27.940  1.00  0.00     0.029 A 
ATOM     41  N   UNL A   1      40.940  27.489  29.467  1.00  0.00    -0.354 N 
ATOM     42  C   UNL A   1      41.127  30.336  32.737  1.00  0.00     0.074 A 
ATOM     43  C   UNL A   1      40.036  31.282  32.656  1.00  0.00     0.031 C 
ATOM     44  C   UNL A   1      40.119  26.590  27.592  1.00  0.00     0.029 A 
ATOM     45  C   UNL A   1      41.207  26.491  28.559  1.00  0.00     0.049 A 
ATOM     46  H   UNL A   1      41.508  27.670  30.251  1.00  0.00     0.167 HD
ATOM     47  C   UNL A   1      42.078  30.346  33.705  1.00  0.00     0.034 A 
ATOM     48  C   UNL A   1      42.214  25.597  28.513  1.00  0.00     0.034 A 
ATOM     49  C   UNL A   1      43.146  29.379  33.785  1.00  0.00     0.049 A 
ATOM     50  C   UNL A   1      43.241  25.606  29.618  1.00  0.00     0.074 A 
ATOM     51  C   UNL A   1      44.135  29.260  34.747  1.00  0.00     0.029 A 
ATOM     52  N   UNL A   1      43.365  28.360  32.866  1.00  0.00    -0.354 N 
ATOM     53  N   UNL A   1      43.344  26.418  30.645  1.00  0.00    -0.248 NA
ATOM     54  C   UNL A   1      44.271  24.561  29.568  1.00  0.00     0.031 C 
ATOM     55  C   UNL A   1      44.981  28.206  34.380  1.00  0.00     0.029 A 
ATOM     56  C   UNL A   1      44.481  27.621  33.228  1.00  0.00     0.049 A 
ATOM     57  H   UNL A   1      42.808  28.188  32.073  1.00  0.00     0.167 HD
ATOM     58  C   UNL A   1      44.435  25.962  31.380  1.00  0.00     0.074 A 
ATOM     59  C   UNL A   1      44.937  24.790  30.690  1.00  0.00     0.031 C 
ATOM     60  C   UNL A   1      44.974  26.462  32.522  1.00  0.00     0.034 A 
BRANCH  47  61
ATOM     61  C   UNL A   1      42.013  31.452  34.733  1.00  0.00     0.023 A 
ATOM     62  C   UNL A   1      41.027  31.475  35.736  1.00  0.00     0.031 A 
ATOM     63  C   UNL A   1      42.930  32.518  34.693  1.00  0.00     0.131 A 
ATOM     64  C   UNL A   1      40.930  32.575  36.602  1.00  0.00     0.055 A 
ATOM     65  C   UNL A   1      42.879  33.570  35.611  1.00  0.00     0.041 A 
ATOM     66  F   UNL A   1      43.883  32.564  33.749  1.00  0.00    -0.206 F 
ATOM     67  C   UNL A   1      41.865  33.611  36.563  1.00  0.00     0.022 A 
BRANCH  64  68
ATOM     68  S   UNL A   1      39.478  32.702  37.684  1.00  0.00     0.124 S 
ATOM     69  O   UNL A   1      38.974  34.031  37.345  1.00  0.00    -0.237 OA
ATOM     70  O   UNL A   1      38.660  31.577  37.249  1.00  0.00    -0.237 OA
ATOM     71  O   UNL A   1      40.041  32.582  39.028  1.00  0.00    -0.744 OA
ENDBRANCH  64  68
ENDBRANCH  47  61
BRANCH  48  72
ATOM     72  C   UNL A   1      42.304  24.616  27.396  1.00  0.00     0.023 A 
ATOM     73  C   UNL A   1      41.537  23.441  27.399  1.00  0.00     0.031 A 
ATOM     74  C   UNL A   1      43.192  24.820  26.325  1.00  0.00     0.131 A 
ATOM     75  C   UNL A   1      41.708  22.489  26.381  1.00  0.00     0.055 A 
ATOM     76  C   UNL A   1      43.323  23.895  25.287  1.00  0.00     0.041 A 
ATOM     77  F   UNL A   1      43.942  25.933  26.267  1.00  0.00    -0.206 F 
ATOM     78  C   UNL A   1      42.588  22.714  25.320  1.00  0.00     0.022 A 
BRANCH  75  79
ATOM     79  S   UNL A   1      40.823  20.911  26.509  1.00  0.00     0.124 S 
ATOM     80  O   UNL A   1      41.684  20.022  25.737  1.00  0.00    -0.237 OA
ATOM     81  O   UNL A   1      40.802  20.693  27.951  1.00  0.00    -0.237 OA
ATOM     82  O   UNL A   1      39.524  21.201  25.906  1.00  0.00    -0.744 OA
ENDBRANCH  75  79
ENDBRANCH  48  72
BRANCH  60  83
ATOM     83  C   UNL A   1      46.142  25.705  33.108  1.00  0.00     0.023 A 
ATOM     84  C   UNL A   1      45.956  24.650  34.019  1.00  0.00     0.031 A 
ATOM     85  C   UNL A   1      47.458  26.073  32.782  1.00  0.00     0.131 A 
ATOM     86  C   UNL A   1      47.067  24.051  34.630  1.00  0.00     0.055 A 
ATOM     87  C   UNL A   1      48.561  25.427  33.342  1.00  0.00     0.041 A 
ATOM     88  F   UNL A   1      47.695  27.073  31.918  1.00  0.00    -0.206 F 
ATOM     89  C   UNL A   1      48.369  24.422  34.286  1.00  0.00     0.022 A 
BRANCH  86  90
ATOM     90  S   UNL A   1      46.785  22.865  35.973  1.00  0.00     0.124 S 
ATOM     91  O   UNL A   1      48.092  22.824  36.623  1.00  0.00    -0.237 OA
ATOM     92  O   UNL A   1      45.715  23.503  36.732  1.00  0.00    -0.237 OA
ATOM     93  O   UNL A   1      46.404  21.639  35.273  1.00  0.00    -0.744 OA
ENDBRANCH  86  90
ENDBRANCH  60  83
ENDBRANCH  34  35
ENDBRANCH  26  29
ENDBRANCH  24  25
ENDBRANCH   1  24
TORSDOF 16
ENDMDL
MODEL 3
REMARK VINA RESULT:     -12.2      6.107     11.650
REMARK SMILES C[C@@H]1CCCN(C(=O)NC2(CC(=O)NCCCNC(=O)c3ccc(-c4c5nc(c(-c6cc(S(=O)(=O)[O-])ccc6F)c6ccc([nH]6)c(-c6cc(S(=O)(=O)[O-])ccc6F)c6nc(c(-c7cc(S(=O)(=O)[O-])ccc7F)c7ccc4[nH]7)C=C6)C=C5)cc3)CCC2)[C@@H]1C
REMARK SMILES IDX 16 1 15 2 14 3 12 4 13 5 11 7 10 8 84 9 86 10 85 11 9 12
REMARK SMILES IDX 7 13 8 14 6 16 1 17 2 18 3 19 87 20 4 21 88 22 5 23 17 24
REMARK SMILES IDX 18 25 19 26 20 28 21 29 22 30 83 31 23 32 82 33 24 34 25 35
REMARK SMILES IDX 26 36 76 37 27 38 81 39 75 40 77 41 28 42 80 43 74 44 73 45
REMARK SMILES IDX 29 47 61 48 41 49 60 50 42 51 45 52 59 53 78 54 43 55 44 56
REMARK SMILES IDX 58 58 79 59 46 60 30 61 31 62 39 63 32 64 38 65 40 66 37 67
REMARK SMILES IDX 33 68 34 69 35 70 36 71 62 72 63 73 71 74 64 75 70 76 72 77
REMARK SMILES IDX 69 78 65 79 66 80 67 81 68 82 47 83 48 84 56 85 49 86 55 87
REMARK SMILES IDX 57 88 54 89 50 90 51 91 52 92 53 93
REMARK H PARENT 14 6 9 15 18 27 77 46 45 57
REMARK Flexibility Score: inf
ROOT
ATOM      1  C   UNL A   1      38.256  19.841  25.095  1.00  0.00     0.042 C 
ENDROOT
BRANCH   1   2
ATOM      2  C   UNL A   1      37.337  20.981  24.656  1.00  0.00     0.117 C 
BRANCH   2   3
ATOM      3  N   UNL A   1      36.659  21.555  25.801  1.00  0.00    -0.356 N 
ATOM      4  C   UNL A   1      35.495  22.256  25.845  1.00  0.00     0.222 C 
ATOM      5  O   UNL A   1      35.231  22.888  26.869  1.00  0.00    -0.275 OA
ATOM      6  H   UNL A   1      37.103  21.419  26.669  1.00  0.00     0.163 HD
BRANCH   4   7
ATOM      7  C   UNL A   1      34.523  22.243  24.686  1.00  0.00     0.128 C 
BRANCH   7   8
ATOM      8  C   UNL A   1      33.050  21.856  24.988  1.00  0.00     0.051 C 
ATOM      9  C   UNL A   1      33.016  20.363  25.386  1.00  0.00     0.029 C 
ATOM     10  C   UNL A   1      32.248  21.517  23.714  1.00  0.00     0.029 C 
ATOM     11  C   UNL A   1      32.414  20.017  24.016  1.00  0.00     0.005 C 
BRANCH   8  12
ATOM     12  N   UNL A   1      32.469  22.801  25.970  1.00  0.00    -0.332 N 
ATOM     13  C   UNL A   1      31.797  23.964  26.104  1.00  0.00     0.318 C 
ATOM     14  O   UNL A   1      31.356  24.092  27.253  1.00  0.00    -0.249 OA
ATOM     15  H   UNL A   1      32.638  22.444  26.872  1.00  0.00     0.165 HD
BRANCH  13  16
ATOM     16  N   UNL A   1      31.592  24.916  25.150  1.00  0.00    -0.322 N 
ATOM     17  C   UNL A   1      31.453  27.509  26.774  1.00  0.00     0.010 C 
ATOM     18  C   UNL A   1      31.829  27.388  25.292  1.00  0.00     0.008 C 
ATOM     19  C   UNL A   1      30.590  27.546  24.390  1.00  0.00     0.007 C 
ATOM     20  C   UNL A   1      32.542  26.051  24.959  1.00  0.00     0.086 C 
ATOM     21  C   UNL A   1      29.692  26.314  24.417  1.00  0.00     0.022 C 
ATOM     22  C   UNL A   1      33.946  25.983  25.569  1.00  0.00     0.031 C 
ATOM     23  C   UNL A   1      30.491  25.027  24.208  1.00  0.00     0.121 C 
ENDBRANCH  13  16
ENDBRANCH   8  12
ENDBRANCH   7   8
ENDBRANCH   4   7
ENDBRANCH   2   3
ENDBRANCH   1   2
BRANCH   1  24
ATOM     24  C   UNL A   1      39.334  20.277  26.078  1.00  0.00     0.118 C 
BRANCH  24  25
ATOM     25  N   UNL A   1      40.420  19.314  26.123  1.00  0.00    -0.352 N 
ATOM     26  C   UNL A   1      41.776  19.507  26.054  1.00  0.00     0.251 C 
ATOM     27  H   UNL A   1      40.140  18.376  26.217  1.00  0.00     0.163 HD
ATOM     28  O   UNL A   1      42.491  18.538  25.811  1.00  0.00    -0.269 OA
BRANCH  26  29
ATOM     29  C   UNL A   1      42.384  20.845  26.266  1.00  0.00     0.039 A 
ATOM     30  C   UNL A   1      42.613  21.270  27.578  1.00  0.00     0.014 A 
ATOM     31  C   UNL A   1      42.645  21.719  25.206  1.00  0.00     0.014 A 
ATOM     32  C   UNL A   1      43.104  22.554  27.825  1.00  0.00     0.010 A 
ATOM     33  C   UNL A   1      43.217  22.969  25.447  1.00  0.00     0.010 A 
ATOM     34  C   UNL A   1      43.419  23.413  26.760  1.00  0.00    -0.014 A 
BRANCH  34  35
ATOM     35  C   UNL A   1      43.890  24.800  27.015  1.00  0.00     0.031 A 
ATOM     36  C   UNL A   1      42.949  25.817  27.609  1.00  0.00     0.074 A 
ATOM     37  C   UNL A   1      45.150  25.150  26.690  1.00  0.00     0.049 A 
ATOM     38  N   UNL A   1      43.156  27.080  27.882  1.00  0.00    -0.248 NA
ATOM     39  C   UNL A   1      41.582  25.359  27.904  1.00  0.00     0.031 C 
ATOM     40  C   UNL A   1      46.137  24.266  26.065  1.00  0.00     0.029 A 
ATOM     41  N   UNL A   1      45.817  26.339  26.838  1.00  0.00    -0.354 N 
ATOM     42  C   UNL A   1      41.944  27.571  28.361  1.00  0.00     0.074 A 
ATOM     43  C   UNL A   1      40.993  26.484  28.280  1.00  0.00     0.031 C 
ATOM     44  C   UNL A   1      47.290  24.936  25.910  1.00  0.00     0.029 A 
ATOM     45  C   UNL A   1      47.117  26.303  26.391  1.00  0.00     0.049 A 
ATOM     46  H   UNL A   1      45.404  27.143  27.229  1.00  0.00     0.167 HD
ATOM     47  C   UNL A   1      41.657  28.805  28.845  1.00  0.00     0.034 A 
ATOM     48  C   UNL A   1      48.062  27.263  26.372  1.00  0.00     0.034 A 
ATOM     49  C   UNL A   1      42.625  29.871  28.942  1.00  0.00     0.049 A 
ATOM     50  C   UNL A   1      47.729  28.618  26.946  1.00  0.00     0.074 A 
ATOM     51  C   UNL A   1      42.462  31.144  29.461  1.00  0.00     0.029 A 
ATOM     52  N   UNL A   1      43.944  29.787  28.510  1.00  0.00    -0.354 N 
ATOM     53  N   UNL A   1      46.593  29.049  27.443  1.00  0.00    -0.248 NA
ATOM     54  C   UNL A   1      48.816  29.604  26.978  1.00  0.00     0.031 C 
ATOM     55  C   UNL A   1      43.662  31.845  29.292  1.00  0.00     0.029 A 
ATOM     56  C   UNL A   1      44.598  30.988  28.734  1.00  0.00     0.049 A 
ATOM     57  H   UNL A   1      44.353  28.989  28.104  1.00  0.00     0.167 HD
ATOM     58  C   UNL A   1      46.839  30.350  27.874  1.00  0.00     0.074 A 
ATOM     59  C   UNL A   1      48.236  30.619  27.600  1.00  0.00     0.031 C 
ATOM     60  C   UNL A   1      45.989  31.243  28.445  1.00  0.00     0.034 A 
BRANCH  47  61
ATOM     61  C   UNL A   1      40.233  29.068  29.280  1.00  0.00     0.023 A 
ATOM     62  C   UNL A   1      39.847  29.006  30.631  1.00  0.00     0.031 A 
ATOM     63  C   UNL A   1      39.238  29.352  28.329  1.00  0.00     0.131 A 
ATOM     64  C   UNL A   1      38.496  29.145  30.984  1.00  0.00     0.055 A 
ATOM     65  C   UNL A   1      37.908  29.572  28.694  1.00  0.00     0.041 A 
ATOM     66  F   UNL A   1      39.538  29.406  27.021  1.00  0.00    -0.206 F 
ATOM     67  C   UNL A   1      37.527  29.453  30.027  1.00  0.00     0.022 A 
BRANCH  64  68
ATOM     68  S   UNL A   1      38.003  28.775  32.691  1.00  0.00     0.124 S 
ATOM     69  O   UNL A   1      36.642  29.306  32.725  1.00  0.00    -0.237 OA
ATOM     70  O   UNL A   1      38.125  27.324  32.748  1.00  0.00    -0.237 OA
ATOM     71  O   UNL A   1      38.972  29.515  33.496  1.00  0.00    -0.744 OA
ENDBRANCH  64  68
ENDBRANCH  47  61
BRANCH  48  72
ATOM     72  C   UNL A   1      49.411  26.986  25.802  1.00  0.00     0.023 A 
ATOM     73  C   UNL A   1      49.771  27.458  24.530  1.00  0.00     0.031 A 
ATOM     74  C   UNL A   1      50.347  26.208  26.506  1.00  0.00     0.131 A 
ATOM     75  C   UNL A   1      51.013  27.105  23.979  1.00  0.00     0.055 A 
ATOM     76  C   UNL A   1      51.601  25.901  25.975  1.00  0.00     0.041 A 
ATOM     77  F   UNL A   1      50.057  25.741  27.731  1.00  0.00    -0.206 F 
ATOM     78  C   UNL A   1      51.934  26.340  24.697  1.00  0.00     0.022 A 
BRANCH  75  79
ATOM     79  S   UNL A   1      51.375  27.593  22.269  1.00  0.00     0.124 S 
ATOM     80  O   UNL A   1      50.491  26.713  21.514  1.00  0.00    -0.237 OA
ATOM     81  O   UNL A   1      51.018  29.008  22.279  1.00  0.00    -0.237 OA
ATOM     82  O   UNL A   1      52.803  27.314  22.132  1.00  0.00    -0.744 OA
ENDBRANCH  75  79
ENDBRANCH  48  72
BRANCH  60  83
ATOM     83  C   UNL A   1      46.576  32.574  28.848  1.00  0.00     0.023 A 
ATOM     84  C   UNL A   1      47.103  32.791  30.133  1.00  0.00     0.031 A 
ATOM     85  C   UNL A   1      46.570  33.652  27.945  1.00  0.00     0.131 A 
ATOM     86  C   UNL A   1      47.531  34.074  30.506  1.00  0.00     0.055 A 
ATOM     87  C   UNL A   1      47.059  34.909  28.300  1.00  0.00     0.041 A 
ATOM     88  F   UNL A   1      46.078  33.502  26.705  1.00  0.00    -0.206 F 
ATOM     89  C   UNL A   1      47.526  35.131  29.593  1.00  0.00     0.022 A 
BRANCH  86  90
ATOM     90  S   UNL A   1      47.976  34.371  32.239  1.00  0.00     0.124 S 
ATOM     91  O   UNL A   1      49.318  34.934  32.115  1.00  0.00    -0.237 OA
ATOM     92  O   UNL A   1      46.935  35.296  32.674  1.00  0.00    -0.237 OA
ATOM     93  O   UNL A   1      47.917  33.041  32.842  1.00  0.00    -0.744 OA
ENDBRANCH  86  90
ENDBRANCH  60  83
ENDBRANCH  34  35
ENDBRANCH  26  29
ENDBRANCH  24  25
ENDBRANCH   1  24
TORSDOF 16
ENDMDL
