MODEL 1
REMARK VINA RESULT:     -11.8      0.000      0.000
REMARK SMILES CC[NH+](CC)[C@](C)(C(=O)NCCCNC(=O)c1ccc(-c2c3nc(c(-c4cc(S(=O)(=O)[O-])ccc4F)c4ccc([nH]4)c(-c4cc(S(=O)(=O)[O-])ccc4F)c4nc(c(-c5cc(S(=O)(=O)[O-])ccc5F)c5ccc2[nH]5)C=C4)C=C3)cc1)c1cc(F)c(C)cc1F
REMARK SMILES IDX 12 1 11 2 10 3 8 4 9 5 6 7 7 8 3 9 2 11 1 12 4 13 5 14 80 15
REMARK SMILES IDX 81 16 87 17 82 18 86 19 88 20 83 21 84 22 85 23 13 24 14 25
REMARK SMILES IDX 15 26 16 28 17 29 18 30 79 31 19 32 78 33 20 34 21 35 22 36
REMARK SMILES IDX 72 37 23 38 77 39 71 40 73 41 24 42 76 43 70 44 69 45 25 47
REMARK SMILES IDX 57 48 37 49 56 50 38 51 41 52 55 53 74 54 39 55 40 56 54 58
REMARK SMILES IDX 75 59 42 60 26 61 27 62 35 63 28 64 34 65 36 66 33 67 29 68
REMARK SMILES IDX 30 69 31 70 32 71 58 72 59 73 67 74 60 75 66 76 68 77 65 78
REMARK SMILES IDX 61 79 62 80 63 81 64 82 43 83 44 84 52 85 45 86 51 87 53 88
REMARK SMILES IDX 50 89 46 90 47 91 48 92 49 93
REMARK H PARENT 10 6 3 10 14 27 73 46 41 57
REMARK Flexibility Score: inf
ROOT
ATOM      1  C   UNL A   1      31.725  28.930  27.025  1.00  0.00     0.042 C 
ENDROOT
BRANCH   1   2
ATOM      2  C   UNL A   1      32.194  27.501  26.842  1.00  0.00     0.118 C 
BRANCH   2   3
ATOM      3  N   UNL A   1      31.097  26.552  26.723  1.00  0.00    -0.350 N 
ATOM      4  C   UNL A   1      30.927  25.469  25.904  1.00  0.00     0.286 C 
ATOM      5  O   UNL A   1      30.407  24.520  26.509  1.00  0.00    -0.267 OA
ATOM      6  H   UNL A   1      30.347  26.718  27.339  1.00  0.00     0.163 HD
BRANCH   4   7
ATOM      7  C   UNL A   1      31.388  25.399  24.363  1.00  0.00     0.202 C 
ATOM      8  C   UNL A   1      30.391  24.428  23.660  1.00  0.00     0.096 C 
BRANCH   7   9
ATOM      9  N   UNL A   1      31.478  26.828  23.785  1.00  0.00    -0.319 N 
ATOM     10  H   UNL A   1      31.656  27.364  24.634  1.00  0.00     0.349 HD
BRANCH   9  11
ATOM     11  C   UNL A   1      30.249  27.454  23.267  1.00  0.00     0.259 C 
ATOM     12  C   UNL A   1      30.093  28.960  23.474  1.00  0.00     0.071 C 
ENDBRANCH   9  11
BRANCH   9  13
ATOM     13  C   UNL A   1      32.609  26.996  22.840  1.00  0.00     0.259 C 
ATOM     14  C   UNL A   1      33.669  28.073  23.103  1.00  0.00     0.071 C 
ENDBRANCH   9  13
ENDBRANCH   7   9
BRANCH   7  15
ATOM     15  C   UNL A   1      32.811  24.672  24.227  1.00  0.00     0.060 A 
ATOM     16  C   UNL A   1      33.795  24.662  25.237  1.00  0.00     0.053 A 
ATOM     17  C   UNL A   1      33.172  23.950  23.065  1.00  0.00     0.133 A 
ATOM     18  C   UNL A   1      35.044  24.047  25.065  1.00  0.00     0.126 A 
ATOM     19  C   UNL A   1      34.429  23.357  22.879  1.00  0.00     0.046 A 
ATOM     20  F   UNL A   1      32.310  23.769  22.055  1.00  0.00    -0.206 F 
ATOM     21  F   UNL A   1      35.917  24.065  26.083  1.00  0.00    -0.207 F 
ATOM     22  C   UNL A   1      35.394  23.424  23.875  1.00  0.00    -0.012 A 
ATOM     23  C   UNL A   1      36.739  22.794  23.700  1.00  0.00     0.047 C 
ENDBRANCH   7  15
ENDBRANCH   4   7
ENDBRANCH   2   3
ENDBRANCH   1   2
BRANCH   1  24
ATOM     24  C   UNL A   1      32.412  29.906  26.080  1.00  0.00     0.118 C 
BRANCH  24  25
ATOM     25  N   UNL A   1      32.172  31.305  26.427  1.00  0.00    -0.352 N 
ATOM     26  C   UNL A   1      32.882  32.158  27.246  1.00  0.00     0.251 C 
ATOM     27  H   UNL A   1      31.375  31.703  26.008  1.00  0.00     0.163 HD
ATOM     28  O   UNL A   1      32.406  33.238  27.558  1.00  0.00    -0.269 OA
BRANCH  26  29
ATOM     29  C   UNL A   1      34.200  31.735  27.767  1.00  0.00     0.039 A 
ATOM     30  C   UNL A   1      35.189  32.693  27.999  1.00  0.00     0.014 A 
ATOM     31  C   UNL A   1      34.440  30.396  28.068  1.00  0.00     0.014 A 
ATOM     32  C   UNL A   1      36.375  32.317  28.638  1.00  0.00     0.010 A 
ATOM     33  C   UNL A   1      35.555  30.049  28.816  1.00  0.00     0.010 A 
ATOM     34  C   UNL A   1      36.539  31.004  29.109  1.00  0.00    -0.014 A 
BRANCH  34  35
ATOM     35  C   UNL A   1      37.728  30.589  29.901  1.00  0.00     0.031 A 
ATOM     36  C   UNL A   1      38.740  29.654  29.289  1.00  0.00     0.074 A 
ATOM     37  C   UNL A   1      37.841  30.961  31.191  1.00  0.00     0.049 A 
ATOM     38  N   UNL A   1      39.750  29.041  29.850  1.00  0.00    -0.248 NA
ATOM     39  C   UNL A   1      38.552  29.324  27.868  1.00  0.00     0.031 C 
ATOM     40  C   UNL A   1      36.894  31.812  31.918  1.00  0.00     0.029 A 
ATOM     41  N   UNL A   1      38.796  30.659  32.130  1.00  0.00    -0.354 N 
ATOM     42  C   UNL A   1      40.292  28.226  28.862  1.00  0.00     0.074 A 
ATOM     43  C   UNL A   1      39.449  28.367  27.694  1.00  0.00     0.031 C 
ATOM     44  C   UNL A   1      37.335  31.993  33.173  1.00  0.00     0.029 A 
ATOM     45  C   UNL A   1      38.564  31.231  33.361  1.00  0.00     0.049 A 
ATOM     46  H   UNL A   1      39.575  30.087  31.941  1.00  0.00     0.167 HD
ATOM     47  C   UNL A   1      41.408  27.456  28.911  1.00  0.00     0.034 A 
ATOM     48  C   UNL A   1      39.259  31.141  34.512  1.00  0.00     0.034 A 
ATOM     49  C   UNL A   1      42.260  27.364  30.071  1.00  0.00     0.049 A 
ATOM     50  C   UNL A   1      40.508  30.298  34.540  1.00  0.00     0.074 A 
ATOM     51  C   UNL A   1      43.450  26.674  30.217  1.00  0.00     0.029 A 
ATOM     52  N   UNL A   1      42.012  27.990  31.287  1.00  0.00    -0.354 N 
ATOM     53  N   UNL A   1      41.034  29.568  33.583  1.00  0.00    -0.248 NA
ATOM     54  C   UNL A   1      41.262  30.275  35.800  1.00  0.00     0.031 C 
ATOM     55  C   UNL A   1      43.894  26.838  31.533  1.00  0.00     0.029 A 
ATOM     56  C   UNL A   1      43.017  27.687  32.191  1.00  0.00     0.049 A 
ATOM     57  H   UNL A   1      41.236  28.565  31.478  1.00  0.00     0.167 HD
ATOM     58  C   UNL A   1      42.197  29.023  34.118  1.00  0.00     0.074 A 
ATOM     59  C   UNL A   1      42.302  29.521  35.475  1.00  0.00     0.031 C 
ATOM     60  C   UNL A   1      43.100  28.190  33.542  1.00  0.00     0.034 A 
BRANCH  47  61
ATOM     61  C   UNL A   1      41.751  26.655  27.677  1.00  0.00     0.023 A 
ATOM     62  C   UNL A   1      41.386  25.302  27.551  1.00  0.00     0.031 A 
ATOM     63  C   UNL A   1      42.497  27.232  26.634  1.00  0.00     0.131 A 
ATOM     64  C   UNL A   1      41.850  24.548  26.464  1.00  0.00     0.055 A 
ATOM     65  C   UNL A   1      42.877  26.499  25.507  1.00  0.00     0.041 A 
ATOM     66  F   UNL A   1      42.891  28.513  26.703  1.00  0.00    -0.206 F 
ATOM     67  C   UNL A   1      42.571  25.143  25.426  1.00  0.00     0.022 A 
BRANCH  64  68
ATOM     68  S   UNL A   1      41.640  22.747  26.512  1.00  0.00     0.124 S 
ATOM     69  O   UNL A   1      42.435  22.329  25.359  1.00  0.00    -0.237 OA
ATOM     70  O   UNL A   1      42.182  22.401  27.821  1.00  0.00    -0.237 OA
ATOM     71  O   UNL A   1      40.198  22.566  26.364  1.00  0.00    -0.744 OA
ENDBRANCH  64  68
ENDBRANCH  47  61
BRANCH  48  72
ATOM     72  C   UNL A   1      38.803  31.869  35.732  1.00  0.00     0.023 A 
ATOM     73  C   UNL A   1      38.152  31.187  36.772  1.00  0.00     0.031 A 
ATOM     74  C   UNL A   1      38.979  33.258  35.861  1.00  0.00     0.131 A 
ATOM     75  C   UNL A   1      37.656  31.902  37.874  1.00  0.00     0.055 A 
ATOM     76  C   UNL A   1      38.528  33.956  36.982  1.00  0.00     0.041 A 
ATOM     77  F   UNL A   1      39.605  33.955  34.899  1.00  0.00    -0.206 F 
ATOM     78  C   UNL A   1      37.850  33.280  37.991  1.00  0.00     0.022 A 
BRANCH  75  79
ATOM     79  S   UNL A   1      36.683  31.011  39.118  1.00  0.00     0.124 S 
ATOM     80  O   UNL A   1      37.590  31.010  40.260  1.00  0.00    -0.237 OA
ATOM     81  O   UNL A   1      35.500  31.856  39.238  1.00  0.00    -0.237 OA
ATOM     82  O   UNL A   1      36.454  29.706  38.500  1.00  0.00    -0.744 OA
ENDBRANCH  75  79
ENDBRANCH  48  72
BRANCH  60  83
ATOM     83  C   UNL A   1      44.301  27.811  34.370  1.00  0.00     0.023 A 
ATOM     84  C   UNL A   1      44.307  26.664  35.183  1.00  0.00     0.031 A 
ATOM     85  C   UNL A   1      45.453  28.617  34.349  1.00  0.00     0.131 A 
ATOM     86  C   UNL A   1      45.423  26.384  35.984  1.00  0.00     0.055 A 
ATOM     87  C   UNL A   1      46.583  28.302  35.105  1.00  0.00     0.041 A 
ATOM     88  F   UNL A   1      45.499  29.723  33.590  1.00  0.00    -0.206 F 
ATOM     89  C   UNL A   1      46.567  27.187  35.938  1.00  0.00     0.022 A 
BRANCH  86  90
ATOM     90  S   UNL A   1      45.329  25.002  37.154  1.00  0.00     0.124 S 
ATOM     91  O   UNL A   1      46.627  25.077  37.816  1.00  0.00    -0.237 OA
ATOM     92  O   UNL A   1      44.175  25.363  37.971  1.00  0.00    -0.237 OA
ATOM     93  O   UNL A   1      45.138  23.836  36.294  1.00  0.00    -0.744 OA
ENDBRANCH  86  90
ENDBRANCH  60  83
ENDBRANCH  34  35
ENDBRANCH  26  29
ENDBRANCH  24  25
ENDBRANCH   1  24
TORSDOF 17
ENDMDL
MODEL 2
REMARK VINA RESULT:     -11.7      1.291      7.611
REMARK SMILES CC[NH+](CC)[C@](C)(C(=O)NCCCNC(=O)c1ccc(-c2c3nc(c(-c4cc(S(=O)(=O)[O-])ccc4F)c4ccc([nH]4)c(-c4cc(S(=O)(=O)[O-])ccc4F)c4nc(c(-c5cc(S(=O)(=O)[O-])ccc5F)c5ccc2[nH]5)C=C4)C=C3)cc1)c1cc(F)c(C)cc1F
REMARK SMILES IDX 12 1 11 2 10 3 8 4 9 5 6 7 7 8 3 9 2 11 1 12 4 13 5 14 80 15
REMARK SMILES IDX 81 16 87 17 82 18 86 19 88 20 83 21 84 22 85 23 13 24 14 25
REMARK SMILES IDX 15 26 16 28 17 29 18 30 79 31 19 32 78 33 20 34 21 35 22 36
REMARK SMILES IDX 72 37 23 38 77 39 71 40 73 41 24 42 76 43 70 44 69 45 25 47
REMARK SMILES IDX 57 48 37 49 56 50 38 51 41 52 55 53 74 54 39 55 40 56 54 58
REMARK SMILES IDX 75 59 42 60 26 61 27 62 35 63 28 64 34 65 36 66 33 67 29 68
REMARK SMILES IDX 30 69 31 70 32 71 58 72 59 73 67 74 60 75 66 76 68 77 65 78
REMARK SMILES IDX 61 79 62 80 63 81 64 82 43 83 44 84 52 85 45 86 51 87 53 88
REMARK SMILES IDX 50 89 46 90 47 91 48 92 49 93
REMARK H PARENT 10 6 3 10 14 27 73 46 41 57
REMARK Flexibility Score: inf
ROOT
ATOM      1  C   UNL A   1      31.858  29.180  26.808  1.00  0.00     0.042 C 
ENDROOT
BRANCH   1   2
ATOM      2  C   UNL A   1      32.208  27.715  26.963  1.00  0.00     0.118 C 
BRANCH   2   3
ATOM      3  N   UNL A   1      31.068  26.833  26.764  1.00  0.00    -0.350 N 
ATOM      4  C   UNL A   1      30.878  25.784  25.904  1.00  0.00     0.286 C 
ATOM      5  O   UNL A   1      30.279  24.850  26.454  1.00  0.00    -0.267 OA
ATOM      6  H   UNL A   1      30.299  27.023  27.350  1.00  0.00     0.163 HD
BRANCH   4   7
ATOM      7  C   UNL A   1      31.409  25.733  24.384  1.00  0.00     0.202 C 
ATOM      8  C   UNL A   1      30.404  24.828  23.609  1.00  0.00     0.096 C 
BRANCH   7   9
ATOM      9  N   UNL A   1      31.588  27.172  23.852  1.00  0.00    -0.319 N 
ATOM     10  H   UNL A   1      31.692  27.685  24.726  1.00  0.00     0.349 HD
BRANCH   9  11
ATOM     11  C   UNL A   1      30.433  27.838  23.227  1.00  0.00     0.259 C 
ATOM     12  C   UNL A   1      30.209  29.311  23.568  1.00  0.00     0.071 C 
ENDBRANCH   9  11
BRANCH   9  13
ATOM     13  C   UNL A   1      32.813  27.331  23.029  1.00  0.00     0.259 C 
ATOM     14  C   UNL A   1      33.759  28.509  23.291  1.00  0.00     0.071 C 
ENDBRANCH   9  13
ENDBRANCH   7   9
BRANCH   7  15
ATOM     15  C   UNL A   1      32.803  24.947  24.295  1.00  0.00     0.060 A 
ATOM     16  C   UNL A   1      33.697  24.793  25.374  1.00  0.00     0.053 A 
ATOM     17  C   UNL A   1      33.226  24.314  23.101  1.00  0.00     0.133 A 
ATOM     18  C   UNL A   1      34.926  24.130  25.244  1.00  0.00     0.126 A 
ATOM     19  C   UNL A   1      34.466  23.674  22.961  1.00  0.00     0.046 A 
ATOM     20  F   UNL A   1      32.445  24.272  22.013  1.00  0.00    -0.206 F 
ATOM     21  F   UNL A   1      35.711  24.009  26.325  1.00  0.00    -0.207 F 
ATOM     22  C   UNL A   1      35.346  23.599  24.033  1.00  0.00    -0.012 A 
ATOM     23  C   UNL A   1      36.670  22.916  23.907  1.00  0.00     0.047 C 
ENDBRANCH   7  15
ENDBRANCH   4   7
ENDBRANCH   2   3
ENDBRANCH   1   2
BRANCH   1  24
ATOM     24  C   UNL A   1      33.045  30.032  26.378  1.00  0.00     0.118 C 
BRANCH  24  25
ATOM     25  N   UNL A   1      33.002  31.389  26.917  1.00  0.00    -0.352 N 
ATOM     26  C   UNL A   1      33.859  32.036  27.782  1.00  0.00     0.251 C 
ATOM     27  H   UNL A   1      32.237  31.929  26.612  1.00  0.00     0.163 HD
ATOM     28  O   UNL A   1      33.540  33.112  28.263  1.00  0.00    -0.269 OA
BRANCH  26  29
ATOM     29  C   UNL A   1      35.142  31.397  28.147  1.00  0.00     0.039 A 
ATOM     30  C   UNL A   1      36.312  32.159  28.162  1.00  0.00     0.014 A 
ATOM     31  C   UNL A   1      35.178  30.054  28.516  1.00  0.00     0.014 A 
ATOM     32  C   UNL A   1      37.493  31.598  28.656  1.00  0.00     0.010 A 
ATOM     33  C   UNL A   1      36.313  29.541  29.127  1.00  0.00     0.010 A 
ATOM     34  C   UNL A   1      37.486  30.304  29.203  1.00  0.00    -0.014 A 
BRANCH  34  35
ATOM     35  C   UNL A   1      38.686  29.712  29.853  1.00  0.00     0.031 A 
ATOM     36  C   UNL A   1      39.114  30.201  31.213  1.00  0.00     0.074 A 
ATOM     37  C   UNL A   1      39.444  28.821  29.183  1.00  0.00     0.049 A 
ATOM     38  N   UNL A   1      40.209  29.945  31.881  1.00  0.00    -0.248 NA
ATOM     39  C   UNL A   1      38.212  31.151  31.881  1.00  0.00     0.031 C 
ATOM     40  C   UNL A   1      39.170  28.315  27.834  1.00  0.00     0.029 A 
ATOM     41  N   UNL A   1      40.611  28.191  29.537  1.00  0.00    -0.354 N 
ATOM     42  C   UNL A   1      40.143  30.730  33.028  1.00  0.00     0.074 A 
ATOM     43  C   UNL A   1      38.940  31.526  32.921  1.00  0.00     0.031 C 
ATOM     44  C   UNL A   1      40.120  27.429  27.494  1.00  0.00     0.029 A 
ATOM     45  C   UNL A   1      41.097  27.340  28.571  1.00  0.00     0.049 A 
ATOM     46  H   UNL A   1      41.058  28.335  30.403  1.00  0.00     0.167 HD
ATOM     47  C   UNL A   1      40.989  30.761  34.088  1.00  0.00     0.034 A 
ATOM     48  C   UNL A   1      42.212  26.582  28.554  1.00  0.00     0.034 A 
ATOM     49  C   UNL A   1      42.160  29.926  34.195  1.00  0.00     0.049 A 
ATOM     50  C   UNL A   1      43.128  26.615  29.750  1.00  0.00     0.074 A 
ATOM     51  C   UNL A   1      43.052  29.818  35.247  1.00  0.00     0.029 A 
ATOM     52  N   UNL A   1      42.598  29.046  33.212  1.00  0.00    -0.354 N 
ATOM     53  N   UNL A   1      43.029  27.329  30.848  1.00  0.00    -0.248 NA
ATOM     54  C   UNL A   1      44.300  25.731  29.710  1.00  0.00     0.031 C 
ATOM     55  C   UNL A   1      44.057  28.916  34.880  1.00  0.00     0.029 A 
ATOM     56  C   UNL A   1      43.756  28.408  33.626  1.00  0.00     0.049 A 
ATOM     57  H   UNL A   1      42.151  28.898  32.347  1.00  0.00     0.167 HD
ATOM     58  C   UNL A   1      44.110  26.957  31.640  1.00  0.00     0.074 A 
ATOM     59  C   UNL A   1      44.839  25.946  30.900  1.00  0.00     0.031 C 
ATOM     60  C   UNL A   1      44.470  27.407  32.870  1.00  0.00     0.034 A 
BRANCH  47  61
ATOM     61  C   UNL A   1      40.673  31.736  35.197  1.00  0.00     0.023 A 
ATOM     62  C   UNL A   1      39.633  31.497  36.114  1.00  0.00     0.031 A 
ATOM     63  C   UNL A   1      41.381  32.945  35.311  1.00  0.00     0.131 A 
ATOM     64  C   UNL A   1      39.267  32.490  37.034  1.00  0.00     0.055 A 
ATOM     65  C   UNL A   1      41.073  33.890  36.292  1.00  0.00     0.041 A 
ATOM     66  F   UNL A   1      42.373  33.239  34.456  1.00  0.00    -0.206 F 
ATOM     67  C   UNL A   1      39.997  33.674  37.149  1.00  0.00     0.022 A 
BRANCH  64  68
ATOM     68  S   UNL A   1      37.722  32.277  37.961  1.00  0.00     0.124 S 
ATOM     69  O   UNL A   1      37.457  30.854  37.763  1.00  0.00    -0.237 OA
ATOM     70  O   UNL A   1      38.106  32.674  39.311  1.00  0.00    -0.237 OA
ATOM     71  O   UNL A   1      36.790  33.177  37.285  1.00  0.00    -0.744 OA
ENDBRANCH  64  68
ENDBRANCH  47  61
BRANCH  48  72
ATOM     72  C   UNL A   1      42.527  25.724  27.376  1.00  0.00     0.023 A 
ATOM     73  C   UNL A   1      42.140  24.376  27.346  1.00  0.00     0.031 A 
ATOM     74  C   UNL A   1      43.250  26.228  26.279  1.00  0.00     0.131 A 
ATOM     75  C   UNL A   1      42.518  23.562  26.266  1.00  0.00     0.055 A 
ATOM     76  C   UNL A   1      43.580  25.428  25.185  1.00  0.00     0.041 A 
ATOM     77  F   UNL A   1      43.635  27.514  26.253  1.00  0.00    -0.206 F 
ATOM     78  C   UNL A   1      43.225  24.083  25.180  1.00  0.00     0.022 A 
BRANCH  75  79
ATOM     79  S   UNL A   1      42.137  21.791  26.339  1.00  0.00     0.124 S 
ATOM     80  O   UNL A   1      42.400  21.488  27.741  1.00  0.00    -0.237 OA
ATOM     81  O   UNL A   1      40.737  21.766  25.929  1.00  0.00    -0.237 OA
ATOM     82  O   UNL A   1      43.074  21.202  25.385  1.00  0.00    -0.744 OA
ENDBRANCH  75  79
ENDBRANCH  48  72
BRANCH  60  83
ATOM     83  C   UNL A   1      45.678  26.765  33.503  1.00  0.00     0.023 A 
ATOM     84  C   UNL A   1      45.582  25.566  34.231  1.00  0.00     0.031 A 
ATOM     85  C   UNL A   1      46.942  27.370  33.381  1.00  0.00     0.131 A 
ATOM     86  C   UNL A   1      46.721  25.038  34.856  1.00  0.00     0.055 A 
ATOM     87  C   UNL A   1      48.082  26.809  33.958  1.00  0.00     0.041 A 
ATOM     88  F   UNL A   1      47.088  28.515  32.697  1.00  0.00    -0.206 F 
ATOM     89  C   UNL A   1      47.973  25.643  34.711  1.00  0.00     0.022 A 
BRANCH  86  90
ATOM     90  S   UNL A   1      46.529  23.594  35.935  1.00  0.00     0.124 S 
ATOM     91  O   UNL A   1      47.334  23.971  37.092  1.00  0.00    -0.237 OA
ATOM     92  O   UNL A   1      45.086  23.553  36.149  1.00  0.00    -0.237 OA
ATOM     93  O   UNL A   1      47.068  22.495  35.137  1.00  0.00    -0.744 OA
ENDBRANCH  86  90
ENDBRANCH  60  83
ENDBRANCH  34  35
ENDBRANCH  26  29
ENDBRANCH  24  25
ENDBRANCH   1  24
TORSDOF 17
ENDMDL
MODEL 3
REMARK VINA RESULT:     -11.5      5.294      9.967
REMARK SMILES CC[NH+](CC)[C@](C)(C(=O)NCCCNC(=O)c1ccc(-c2c3nc(c(-c4cc(S(=O)(=O)[O-])ccc4F)c4ccc([nH]4)c(-c4cc(S(=O)(=O)[O-])ccc4F)c4nc(c(-c5cc(S(=O)(=O)[O-])ccc5F)c5ccc2[nH]5)C=C4)C=C3)cc1)c1cc(F)c(C)cc1F
REMARK SMILES IDX 12 1 11 2 10 3 8 4 9 5 6 7 7 8 3 9 2 11 1 12 4 13 5 14 80 15
REMARK SMILES IDX 81 16 87 17 82 18 86 19 88 20 83 21 84 22 85 23 13 24 14 25
REMARK SMILES IDX 15 26 16 28 17 29 18 30 79 31 19 32 78 33 20 34 21 35 22 36
REMARK SMILES IDX 72 37 23 38 77 39 71 40 73 41 24 42 76 43 70 44 69 45 25 47
REMARK SMILES IDX 57 48 37 49 56 50 38 51 41 52 55 53 74 54 39 55 40 56 54 58
REMARK SMILES IDX 75 59 42 60 26 61 27 62 35 63 28 64 34 65 36 66 33 67 29 68
REMARK SMILES IDX 30 69 31 70 32 71 58 72 59 73 67 74 60 75 66 76 68 77 65 78
REMARK SMILES IDX 61 79 62 80 63 81 64 82 43 83 44 84 52 85 45 86 51 87 53 88
REMARK SMILES IDX 50 89 46 90 47 91 48 92 49 93
REMARK H PARENT 10 6 3 10 14 27 73 46 41 57
REMARK Flexibility Score: inf
ROOT
ATOM      1  C   UNL A   1      36.598  22.693  23.697  1.00  0.00     0.042 C 
ENDROOT
BRANCH   1   2
ATOM      2  C   UNL A   1      35.284  23.317  23.274  1.00  0.00     0.118 C 
BRANCH   2   3
ATOM      3  N   UNL A   1      34.806  24.325  24.208  1.00  0.00    -0.350 N 
ATOM      4  C   UNL A   1      33.702  24.353  25.017  1.00  0.00     0.286 C 
ATOM      5  O   UNL A   1      33.966  24.837  26.127  1.00  0.00    -0.267 OA
ATOM      6  H   UNL A   1      35.375  25.127  24.268  1.00  0.00     0.163 HD
BRANCH   4   7
ATOM      7  C   UNL A   1      32.251  23.782  24.615  1.00  0.00     0.202 C 
ATOM      8  C   UNL A   1      31.449  23.671  25.947  1.00  0.00     0.096 C 
BRANCH   7   9
ATOM      9  N   UNL A   1      31.634  24.671  23.514  1.00  0.00    -0.319 N 
ATOM     10  H   UNL A   1      31.569  24.005  22.746  1.00  0.00     0.349 HD
BRANCH   9  11
ATOM     11  C   UNL A   1      32.459  25.745  22.935  1.00  0.00     0.259 C 
ATOM     12  C   UNL A   1      32.774  25.653  21.442  1.00  0.00     0.071 C 
ENDBRANCH   9  11
BRANCH   9  13
ATOM     13  C   UNL A   1      30.278  25.163  23.866  1.00  0.00     0.259 C 
ATOM     14  C   UNL A   1      30.068  26.644  24.202  1.00  0.00     0.071 C 
ENDBRANCH   9  13
ENDBRANCH   7   9
BRANCH   7  15
ATOM     15  C   UNL A   1      32.360  22.271  24.090  1.00  0.00     0.060 A 
ATOM     16  C   UNL A   1      32.069  21.867  22.770  1.00  0.00     0.053 A 
ATOM     17  C   UNL A   1      32.795  21.219  24.931  1.00  0.00     0.133 A 
ATOM     18  C   UNL A   1      32.140  20.528  22.360  1.00  0.00     0.126 A 
ATOM     19  C   UNL A   1      32.841  19.876  24.531  1.00  0.00     0.046 A 
ATOM     20  F   UNL A   1      33.214  21.448  26.183  1.00  0.00    -0.206 F 
ATOM     21  F   UNL A   1      31.866  20.230  21.081  1.00  0.00    -0.207 F 
ATOM     22  C   UNL A   1      32.485  19.511  23.239  1.00  0.00    -0.012 A 
ATOM     23  C   UNL A   1      32.533  18.086  22.791  1.00  0.00     0.047 C 
ENDBRANCH   7  15
ENDBRANCH   4   7
ENDBRANCH   2   3
ENDBRANCH   1   2
BRANCH   1  24
ATOM     24  C   UNL A   1      36.582  22.191  25.134  1.00  0.00     0.118 C 
BRANCH  24  25
ATOM     25  N   UNL A   1      37.477  21.058  25.356  1.00  0.00    -0.352 N 
ATOM     26  C   UNL A   1      38.757  21.016  25.870  1.00  0.00     0.251 C 
ATOM     27  H   UNL A   1      37.108  20.183  25.096  1.00  0.00     0.163 HD
ATOM     28  O   UNL A   1      39.409  19.988  25.793  1.00  0.00    -0.269 OA
BRANCH  26  29
ATOM     29  C   UNL A   1      39.336  22.234  26.476  1.00  0.00     0.039 A 
ATOM     30  C   UNL A   1      40.407  22.120  27.365  1.00  0.00     0.014 A 
ATOM     31  C   UNL A   1      38.848  23.492  26.129  1.00  0.00     0.014 A 
ATOM     32  C   UNL A   1      41.056  23.274  27.813  1.00  0.00     0.010 A 
ATOM     33  C   UNL A   1      39.570  24.627  26.469  1.00  0.00     0.010 A 
ATOM     34  C   UNL A   1      40.682  24.534  27.317  1.00  0.00    -0.014 A 
BRANCH  34  35
ATOM     35  C   UNL A   1      41.421  25.776  27.670  1.00  0.00     0.031 A 
ATOM     36  C   UNL A   1      40.711  26.876  28.418  1.00  0.00     0.074 A 
ATOM     37  C   UNL A   1      42.681  25.958  27.230  1.00  0.00     0.049 A 
ATOM     38  N   UNL A   1      41.110  28.094  28.678  1.00  0.00    -0.248 NA
ATOM     39  C   UNL A   1      39.348  26.579  28.883  1.00  0.00     0.031 C 
ATOM     40  C   UNL A   1      43.455  24.994  26.443  1.00  0.00     0.029 A 
ATOM     41  N   UNL A   1      43.533  27.025  27.369  1.00  0.00    -0.354 N 
ATOM     42  C   UNL A   1      40.035  28.718  29.302  1.00  0.00     0.074 A 
ATOM     43  C   UNL A   1      38.945  27.766  29.308  1.00  0.00     0.031 C 
ATOM     44  C   UNL A   1      44.676  25.498  26.202  1.00  0.00     0.029 A 
ATOM     45  C   UNL A   1      44.758  26.839  26.768  1.00  0.00     0.049 A 
ATOM     46  H   UNL A   1      43.291  27.847  27.854  1.00  0.00     0.167 HD
ATOM     47  C   UNL A   1      39.970  29.957  29.850  1.00  0.00     0.034 A 
ATOM     48  C   UNL A   1      45.821  27.662  26.676  1.00  0.00     0.034 A 
ATOM     49  C   UNL A   1      41.082  30.874  29.874  1.00  0.00     0.049 A 
ATOM     50  C   UNL A   1      45.737  29.027  27.310  1.00  0.00     0.074 A 
ATOM     51  C   UNL A   1      41.159  32.126  30.459  1.00  0.00     0.029 A 
ATOM     52  N   UNL A   1      42.320  30.634  29.289  1.00  0.00    -0.354 N 
ATOM     53  N   UNL A   1      44.728  29.587  27.937  1.00  0.00    -0.248 NA
ATOM     54  C   UNL A   1      46.939  29.867  27.233  1.00  0.00     0.031 C 
ATOM     55  C   UNL A   1      42.421  32.664  30.183  1.00  0.00     0.029 A 
ATOM     56  C   UNL A   1      43.158  31.720  29.484  1.00  0.00     0.049 A 
ATOM     57  H   UNL A   1      42.566  29.812  28.807  1.00  0.00     0.167 HD
ATOM     58  C   UNL A   1      45.185  30.832  28.354  1.00  0.00     0.074 A 
ATOM     59  C   UNL A   1      46.564  30.935  27.920  1.00  0.00     0.031 C 
ATOM     60  C   UNL A   1      44.528  31.804  29.037  1.00  0.00     0.034 A 
BRANCH  47  61
ATOM     61  C   UNL A   1      38.651  30.380  30.453  1.00  0.00     0.023 A 
ATOM     62  C   UNL A   1      37.694  31.092  29.707  1.00  0.00     0.031 A 
ATOM     63  C   UNL A   1      38.365  30.116  31.804  1.00  0.00     0.131 A 
ATOM     64  C   UNL A   1      36.549  31.599  30.338  1.00  0.00     0.055 A 
ATOM     65  C   UNL A   1      37.178  30.544  32.403  1.00  0.00     0.041 A 
ATOM     66  F   UNL A   1      39.245  29.456  32.574  1.00  0.00    -0.206 F 
ATOM     67  C   UNL A   1      36.270  31.308  31.675  1.00  0.00     0.022 A 
BRANCH  64  68
ATOM     68  S   UNL A   1      35.520  32.784  29.429  1.00  0.00     0.124 S 
ATOM     69  O   UNL A   1      34.440  31.924  28.948  1.00  0.00    -0.237 OA
ATOM     70  O   UNL A   1      35.157  33.747  30.462  1.00  0.00    -0.237 OA
ATOM     71  O   UNL A   1      36.414  33.289  28.389  1.00  0.00    -0.744 OA
ENDBRANCH  64  68
ENDBRANCH  47  61
BRANCH  48  72
ATOM     72  C   UNL A   1      47.058  27.227  25.966  1.00  0.00     0.023 A 
ATOM     73  C   UNL A   1      48.094  26.582  26.660  1.00  0.00     0.031 A 
ATOM     74  C   UNL A   1      47.239  27.479  24.595  1.00  0.00     0.131 A 
ATOM     75  C   UNL A   1      49.285  26.254  25.993  1.00  0.00     0.055 A 
ATOM     76  C   UNL A   1      48.405  27.106  23.925  1.00  0.00     0.041 A 
ATOM     77  F   UNL A   1      46.274  28.083  23.883  1.00  0.00    -0.206 F 
ATOM     78  C   UNL A   1      49.442  26.501  24.627  1.00  0.00     0.022 A 
BRANCH  75  79
ATOM     79  S   UNL A   1      50.658  25.567  26.958  1.00  0.00     0.124 S 
ATOM     80  O   UNL A   1      50.013  24.453  27.642  1.00  0.00    -0.237 OA
ATOM     81  O   UNL A   1      51.614  25.213  25.914  1.00  0.00    -0.237 OA
ATOM     82  O   UNL A   1      51.060  26.680  27.816  1.00  0.00    -0.744 OA
ENDBRANCH  75  79
ENDBRANCH  48  72
BRANCH  60  83
ATOM     83  C   UNL A   1      45.318  33.038  29.395  1.00  0.00     0.023 A 
ATOM     84  C   UNL A   1      45.375  34.153  28.541  1.00  0.00     0.031 A 
ATOM     85  C   UNL A   1      46.031  33.090  30.605  1.00  0.00     0.131 A 
ATOM     86  C   UNL A   1      46.173  35.253  28.885  1.00  0.00     0.055 A 
ATOM     87  C   UNL A   1      46.778  34.212  30.969  1.00  0.00     0.041 A 
ATOM     88  F   UNL A   1      46.011  32.052  31.456  1.00  0.00    -0.206 F 
ATOM     89  C   UNL A   1      46.862  35.296  30.100  1.00  0.00     0.022 A 
BRANCH  86  90
ATOM     90  S   UNL A   1      46.368  36.596  27.682  1.00  0.00     0.124 S 
ATOM     91  O   UNL A   1      47.426  36.079  26.820  1.00  0.00    -0.237 OA
ATOM     92  O   UNL A   1      45.039  36.674  27.082  1.00  0.00    -0.237 OA
ATOM     93  O   UNL A   1      46.743  37.743  28.505  1.00  0.00    -0.744 OA
ENDBRANCH  86  90
ENDBRANCH  60  83
ENDBRANCH  34  35
ENDBRANCH  26  29
ENDBRANCH  24  25
ENDBRANCH   1  24
TORSDOF 17
ENDMDL
