MODEL 1
REMARK VINA RESULT:     -13.2      0.000      0.000
REMARK SMILES Cc1ccc(NS(=O)(=O)c2cc(C(=O)Nc3ccccc3C(=O)NCCCNC(=O)c3ccc(-c4c5nc(c(-c6cc(S(=O)(=O)[O-])ccc6F)c6ccc([nH]6)c(-c6cc(S(=O)(=O)[O-])ccc6F)c6nc(c(-c7cc(S(=O)(=O)[O-])ccc7F)c7ccc4[nH]7)C=C6)C=C5)cc3)ccc2Br)cc1
REMARK SMILES IDX 25 1 24 2 22 3 23 4 21 6 16 7 17 8 18 9 20 10 19 11 15 12
REMARK SMILES IDX 13 13 14 14 12 16 10 17 11 18 96 19 95 20 97 21 94 22 7 23
REMARK SMILES IDX 8 24 9 25 6 26 5 28 1 29 2 30 3 31 99 32 4 33 98 34 26 35
REMARK SMILES IDX 27 36 28 37 29 38 30 40 31 41 32 42 93 43 33 44 92 45 34 46
REMARK SMILES IDX 35 47 36 48 86 49 37 50 91 51 85 52 87 53 38 54 90 55 84 56
REMARK SMILES IDX 83 57 39 59 71 60 51 61 70 62 52 63 55 64 69 65 88 66 53 67
REMARK SMILES IDX 54 68 68 70 89 71 56 72 40 73 41 74 49 75 42 76 48 77 50 78
REMARK SMILES IDX 47 79 43 80 44 81 45 82 46 83 72 84 73 85 81 86 74 87 80 88
REMARK SMILES IDX 82 89 79 90 75 91 76 92 77 93 78 94 57 95 58 96 66 97 59 98
REMARK SMILES IDX 65 99 67 100 64 101 60 102 61 103 62 104 63 105
REMARK H PARENT 24 5 15 15 6 27 28 39 87 58 55 69
REMARK Flexibility Score: inf
ROOT
ATOM      1  C   UNL A   1      33.182  29.498  26.160  1.00  0.00     0.118 C 
ENDROOT
BRANCH   1   2
ATOM      2  N   UNL A   1      33.702  28.194  25.865  1.00  0.00    -0.352 N 
ATOM      3  C   UNL A   1      33.333  27.459  24.753  1.00  0.00     0.253 C 
ATOM      4  O   UNL A   1      33.940  26.452  24.409  1.00  0.00    -0.269 OA
ATOM      5  H   UNL A   1      34.355  27.801  26.488  1.00  0.00     0.163 HD
BRANCH   3   6
ATOM      6  C   UNL A   1      32.044  27.805  24.086  1.00  0.00     0.063 A 
ATOM      7  C   UNL A   1      30.515  27.044  24.696  1.00  0.00     0.054 A 
ATOM      8  C   UNL A   1      28.791  27.613  23.789  1.00  0.00     0.027 A 
ATOM      9  C   UNL A   1      28.842  28.924  22.545  1.00  0.00     0.002 A 
ATOM     10  C   UNL A   1      31.927  29.035  22.807  1.00  0.00     0.016 A 
ATOM     11  C   UNL A   1      30.398  29.595  22.106  1.00  0.00     0.001 A 
BRANCH   7  12
ATOM     12  N   UNL A   1      30.838  26.176  25.898  1.00  0.00    -0.321 N 
ATOM     13  C   UNL A   1      31.187  24.818  26.104  1.00  0.00     0.255 C 
ATOM     14  O   UNL A   1      31.426  24.457  27.262  1.00  0.00    -0.269 OA
ATOM     15  H   UNL A   1      30.794  26.680  26.742  1.00  0.00     0.170 HD
BRANCH  13  16
ATOM     16  C   UNL A   1      31.474  23.817  25.019  1.00  0.00     0.041 A 
ATOM     17  C   UNL A   1      32.521  21.645  24.623  1.00  0.00     0.102 A 
ATOM     18  C   UNL A   1      32.411  22.855  25.256  1.00  0.00     0.037 A 
ATOM     19  C   UNL A   1      31.924  21.535  23.386  1.00  0.00     0.038 A 
ATOM     20  C   UNL A   1      31.098  22.597  22.951  1.00  0.00     0.018 A 
ATOM     21  Br  UNL A   1      32.263  20.098  22.209  1.00  0.00    -0.049 Br
ATOM     22  C   UNL A   1      30.811  23.698  23.802  1.00  0.00     0.015 A 
BRANCH  17  23
ATOM     23  S   UNL A   1      33.226  20.357  25.643  1.00  0.00     0.263 S 
ATOM     24  O   UNL A   1      32.427  19.164  25.454  1.00  0.00    -0.201 OA
ATOM     25  O   UNL A   1      33.403  20.919  26.966  1.00  0.00    -0.201 OA
BRANCH  23  26
ATOM     26  N   UNL A   1      34.792  19.951  25.010  1.00  0.00    -0.280 N 
ATOM     27  H   UNL A   1      34.827  19.157  24.429  1.00  0.00     0.180 HD
BRANCH  26  28
ATOM     28  C   UNL A   1      36.133  20.671  25.239  1.00  0.00     0.049 A 
ATOM     29  C   UNL A   1      40.914  21.906  26.560  1.00  0.00     0.044 C 
ATOM     30  C   UNL A   1      39.568  21.607  25.972  1.00  0.00    -0.051 A 
ATOM     31  C   UNL A   1      39.150  19.961  25.439  1.00  0.00     0.005 A 
ATOM     32  C   UNL A   1      38.410  22.891  26.145  1.00  0.00     0.005 A 
ATOM     33  C   UNL A   1      37.489  19.463  25.059  1.00  0.00     0.027 A 
ATOM     34  C   UNL A   1      36.701  22.537  25.791  1.00  0.00     0.027 A 
ENDBRANCH  26  28
ENDBRANCH  23  26
ENDBRANCH  17  23
ENDBRANCH  13  16
ENDBRANCH   7  12
ENDBRANCH   3   6
ENDBRANCH   1   2
BRANCH   1  35
ATOM     35  C   UNL A   1      33.815  30.355  27.187  1.00  0.00     0.042 C 
BRANCH  35  36
ATOM     36  C   UNL A   1      35.003  29.767  27.839  1.00  0.00     0.118 C 
BRANCH  36  37
ATOM     37  N   UNL A   1      35.979  30.732  28.319  1.00  0.00    -0.352 N 
ATOM     38  C   UNL A   1      37.334  30.540  28.563  1.00  0.00     0.251 C 
ATOM     39  H   UNL A   1      35.636  31.638  28.496  1.00  0.00     0.163 HD
ATOM     40  O   UNL A   1      38.050  31.465  28.933  1.00  0.00    -0.269 OA
BRANCH  38  41
ATOM     41  C   UNL A   1      37.968  29.233  28.201  1.00  0.00     0.039 A 
ATOM     42  C   UNL A   1      38.088  28.349  29.277  1.00  0.00     0.014 A 
ATOM     43  C   UNL A   1      38.925  29.220  27.204  1.00  0.00     0.014 A 
ATOM     44  C   UNL A   1      39.347  27.873  29.603  1.00  0.00     0.010 A 
ATOM     45  C   UNL A   1      40.208  28.977  27.631  1.00  0.00     0.010 A 
ATOM     46  C   UNL A   1      40.414  28.361  28.863  1.00  0.00    -0.014 A 
BRANCH  46  47
ATOM     47  C   UNL A   1      41.807  28.059  29.106  1.00  0.00     0.031 A 
ATOM     48  C   UNL A   1      42.168  26.776  28.459  1.00  0.00     0.074 A 
ATOM     49  C   UNL A   1      42.563  29.003  29.722  1.00  0.00     0.049 A 
ATOM     50  N   UNL A   1      42.894  25.851  28.962  1.00  0.00    -0.248 NA
ATOM     51  C   UNL A   1      41.535  26.317  27.200  1.00  0.00     0.031 C 
ATOM     52  C   UNL A   1      44.004  29.106  29.935  1.00  0.00     0.029 A 
ATOM     53  N   UNL A   1      42.063  30.068  30.495  1.00  0.00    -0.354 N 
ATOM     54  C   UNL A   1      43.227  25.028  27.900  1.00  0.00     0.074 A 
ATOM     55  C   UNL A   1      42.171  25.172  26.951  1.00  0.00     0.031 C 
ATOM     56  C   UNL A   1      44.236  29.868  31.027  1.00  0.00     0.029 A 
ATOM     57  C   UNL A   1      42.945  30.241  31.587  1.00  0.00     0.049 A 
ATOM     58  H   UNL A   1      41.251  30.594  30.311  1.00  0.00     0.167 HD
ATOM     59  C   UNL A   1      44.510  24.586  27.811  1.00  0.00     0.034 A 
ATOM     60  C   UNL A   1      42.506  29.932  32.845  1.00  0.00     0.034 A 
ATOM     61  C   UNL A   1      45.257  25.144  28.940  1.00  0.00     0.049 A 
ATOM     62  C   UNL A   1      43.114  28.601  33.270  1.00  0.00     0.074 A 
ATOM     63  C   UNL A   1      46.084  26.248  29.051  1.00  0.00     0.029 A 
ATOM     64  N   UNL A   1      44.832  24.835  30.221  1.00  0.00    -0.354 N 
ATOM     65  N   UNL A   1      43.535  27.685  32.431  1.00  0.00    -0.248 NA
ATOM     66  C   UNL A   1      43.420  28.271  34.659  1.00  0.00     0.031 C 
ATOM     67  C   UNL A   1      46.076  26.646  30.422  1.00  0.00     0.029 A 
ATOM     68  C   UNL A   1      45.238  25.796  31.123  1.00  0.00     0.049 A 
ATOM     69  H   UNL A   1      44.310  24.035  30.457  1.00  0.00     0.167 HD
ATOM     70  C   UNL A   1      44.219  26.713  33.114  1.00  0.00     0.074 A 
ATOM     71  C   UNL A   1      44.114  27.131  34.507  1.00  0.00     0.031 C 
ATOM     72  C   UNL A   1      44.854  25.655  32.517  1.00  0.00     0.034 A 
BRANCH  59  73
ATOM     73  C   UNL A   1      45.198  23.951  26.627  1.00  0.00     0.023 A 
ATOM     74  C   UNL A   1      44.848  22.619  26.331  1.00  0.00     0.031 A 
ATOM     75  C   UNL A   1      46.151  24.524  25.762  1.00  0.00     0.131 A 
ATOM     76  C   UNL A   1      45.430  21.909  25.270  1.00  0.00     0.055 A 
ATOM     77  C   UNL A   1      46.742  23.815  24.702  1.00  0.00     0.041 A 
ATOM     78  F   UNL A   1      46.544  25.798  25.869  1.00  0.00    -0.206 F 
ATOM     79  C   UNL A   1      46.382  22.499  24.450  1.00  0.00     0.022 A 
BRANCH  76  80
ATOM     80  S   UNL A   1      44.899  20.201  24.995  1.00  0.00     0.124 S 
ATOM     81  O   UNL A   1      43.739  20.099  25.875  1.00  0.00    -0.237 OA
ATOM     82  O   UNL A   1      44.628  20.189  23.563  1.00  0.00    -0.237 OA
ATOM     83  O   UNL A   1      46.060  19.416  25.411  1.00  0.00    -0.744 OA
ENDBRANCH  76  80
ENDBRANCH  59  73
BRANCH  60  84
ATOM     84  C   UNL A   1      41.085  30.392  33.029  1.00  0.00     0.023 A 
ATOM     85  C   UNL A   1      40.830  31.791  32.985  1.00  0.00     0.031 A 
ATOM     86  C   UNL A   1      40.025  29.535  32.709  1.00  0.00     0.131 A 
ATOM     87  C   UNL A   1      39.624  32.278  32.442  1.00  0.00     0.055 A 
ATOM     88  C   UNL A   1      38.825  30.033  32.189  1.00  0.00     0.041 A 
ATOM     89  F   UNL A   1      40.192  28.205  32.732  1.00  0.00    -0.206 F 
ATOM     90  C   UNL A   1      38.644  31.398  31.993  1.00  0.00     0.022 A 
BRANCH  87  91
ATOM     91  S   UNL A   1      39.432  34.045  32.076  1.00  0.00     0.124 S 
ATOM     92  O   UNL A   1      40.566  34.646  32.766  1.00  0.00    -0.237 OA
ATOM     93  O   UNL A   1      39.477  34.066  30.620  1.00  0.00    -0.237 OA
ATOM     94  O   UNL A   1      38.120  34.372  32.640  1.00  0.00    -0.744 OA
ENDBRANCH  87  91
ENDBRANCH  60  84
BRANCH  72  95
ATOM     95  C   UNL A   1      45.244  24.382  33.238  1.00  0.00     0.023 A 
ATOM     96  C   UNL A   1      46.403  24.306  34.006  1.00  0.00     0.031 A 
ATOM     97  C   UNL A   1      44.426  23.222  33.259  1.00  0.00     0.131 A 
ATOM     98  C   UNL A   1      46.814  23.098  34.579  1.00  0.00     0.055 A 
ATOM     99  C   UNL A   1      44.759  22.068  33.966  1.00  0.00     0.041 A 
ATOM    100  F   UNL A   1      43.258  23.148  32.604  1.00  0.00    -0.206 F 
ATOM    101  C   UNL A   1      45.988  21.982  34.596  1.00  0.00     0.022 A 
BRANCH  98 102
ATOM    102  S   UNL A   1      48.520  23.016  35.159  1.00  0.00     0.124 S 
ATOM    103  O   UNL A   1      49.260  23.335  33.939  1.00  0.00    -0.237 OA
ATOM    104  O   UNL A   1      48.549  24.039  36.198  1.00  0.00    -0.237 OA
ATOM    105  O   UNL A   1      48.655  21.640  35.628  1.00  0.00    -0.744 OA
ENDBRANCH  98 102
ENDBRANCH  72  95
ENDBRANCH  46  47
ENDBRANCH  38  41
ENDBRANCH  36  37
ENDBRANCH  35  36
ENDBRANCH   1  35
TORSDOF 18
ENDMDL
MODEL 2
REMARK VINA RESULT:     -12.7      2.146      2.490
REMARK SMILES Cc1ccc(NS(=O)(=O)c2cc(C(=O)Nc3ccccc3C(=O)NCCCNC(=O)c3ccc(-c4c5nc(c(-c6cc(S(=O)(=O)[O-])ccc6F)c6ccc([nH]6)c(-c6cc(S(=O)(=O)[O-])ccc6F)c6nc(c(-c7cc(S(=O)(=O)[O-])ccc7F)c7ccc4[nH]7)C=C6)C=C5)cc3)ccc2Br)cc1
REMARK SMILES IDX 25 1 24 2 22 3 23 4 21 6 16 7 17 8 18 9 20 10 19 11 15 12
REMARK SMILES IDX 13 13 14 14 12 16 10 17 11 18 96 19 95 20 97 21 94 22 7 23
REMARK SMILES IDX 8 24 9 25 6 26 5 28 1 29 2 30 3 31 99 32 4 33 98 34 26 35
REMARK SMILES IDX 27 36 28 37 29 38 30 40 31 41 32 42 93 43 33 44 92 45 34 46
REMARK SMILES IDX 35 47 36 48 86 49 37 50 91 51 85 52 87 53 38 54 90 55 84 56
REMARK SMILES IDX 83 57 39 59 71 60 51 61 70 62 52 63 55 64 69 65 88 66 53 67
REMARK SMILES IDX 54 68 68 70 89 71 56 72 40 73 41 74 49 75 42 76 48 77 50 78
REMARK SMILES IDX 47 79 43 80 44 81 45 82 46 83 72 84 73 85 81 86 74 87 80 88
REMARK SMILES IDX 82 89 79 90 75 91 76 92 77 93 78 94 57 95 58 96 66 97 59 98
REMARK SMILES IDX 65 99 67 100 64 101 60 102 61 103 62 104 63 105
REMARK H PARENT 24 5 15 15 6 27 28 39 87 58 55 69
REMARK Flexibility Score: inf
ROOT
ATOM      1  C   UNL A   1      32.935  29.901  25.846  1.00  0.00     0.118 C 
ENDROOT
BRANCH   1   2
ATOM      2  N   UNL A   1      33.459  28.580  25.645  1.00  0.00    -0.352 N 
ATOM      3  C   UNL A   1      33.082  27.762  24.596  1.00  0.00     0.253 C 
ATOM      4  O   UNL A   1      33.690  26.734  24.323  1.00  0.00    -0.269 OA
ATOM      5  H   UNL A   1      34.120  28.239  26.289  1.00  0.00     0.163 HD
BRANCH   3   6
ATOM      6  C   UNL A   1      31.784  28.051  23.919  1.00  0.00     0.063 A 
ATOM      7  C   UNL A   1      30.276  27.270  24.556  1.00  0.00     0.054 A 
ATOM      8  C   UNL A   1      28.537  27.762  23.632  1.00  0.00     0.027 A 
ATOM      9  C   UNL A   1      28.553  29.030  22.344  1.00  0.00     0.002 A 
ATOM     10  C   UNL A   1      31.634  29.232  22.599  1.00  0.00     0.016 A 
ATOM     11  C   UNL A   1      30.090  29.727  21.881  1.00  0.00     0.001 A 
BRANCH   7  12
ATOM     12  N   UNL A   1      30.622  26.452  25.787  1.00  0.00    -0.321 N 
ATOM     13  C   UNL A   1      31.018  25.115  26.037  1.00  0.00     0.255 C 
ATOM     14  O   UNL A   1      31.261  24.799  27.207  1.00  0.00    -0.269 OA
ATOM     15  H   UNL A   1      30.554  26.981  26.614  1.00  0.00     0.170 HD
BRANCH  13  16
ATOM     16  C   UNL A   1      31.347  24.091  24.986  1.00  0.00     0.041 A 
ATOM     17  C   UNL A   1      32.496  21.961  24.659  1.00  0.00     0.102 A 
ATOM     18  C   UNL A   1      32.331  23.185  25.249  1.00  0.00     0.037 A 
ATOM     19  C   UNL A   1      31.899  21.777  23.430  1.00  0.00     0.038 A 
ATOM     20  C   UNL A   1      31.019  22.782  22.965  1.00  0.00     0.018 A 
ATOM     21  Br  UNL A   1      32.300  20.318  22.302  1.00  0.00    -0.049 Br
ATOM     22  C   UNL A   1      30.683  23.897  23.779  1.00  0.00     0.015 A 
BRANCH  17  23
ATOM     23  S   UNL A   1      33.270  20.745  25.717  1.00  0.00     0.263 S 
ATOM     24  O   UNL A   1      32.629  19.471  25.462  1.00  0.00    -0.201 OA
ATOM     25  O   UNL A   1      33.286  21.302  27.054  1.00  0.00    -0.201 OA
BRANCH  23  26
ATOM     26  N   UNL A   1      34.914  20.531  25.198  1.00  0.00    -0.280 N 
ATOM     27  H   UNL A   1      35.091  19.728  24.656  1.00  0.00     0.180 HD
BRANCH  26  28
ATOM     28  C   UNL A   1      36.130  21.431  25.474  1.00  0.00     0.049 A 
ATOM     29  C   UNL A   1      40.653  23.315  26.933  1.00  0.00     0.044 C 
ATOM     30  C   UNL A   1      39.376  22.839  26.307  1.00  0.00    -0.051 A 
ATOM     31  C   UNL A   1      39.214  21.164  25.729  1.00  0.00     0.005 A 
ATOM     32  C   UNL A   1      38.040  23.936  26.482  1.00  0.00     0.005 A 
ATOM     33  C   UNL A   1      37.651  20.438  25.299  1.00  0.00     0.027 A 
ATOM     34  C   UNL A   1      36.409  23.346  26.080  1.00  0.00     0.027 A 
ENDBRANCH  26  28
ENDBRANCH  23  26
ENDBRANCH  17  23
ENDBRANCH  13  16
ENDBRANCH   7  12
ENDBRANCH   3   6
ENDBRANCH   1   2
BRANCH   1  35
ATOM     35  C   UNL A   1      33.190  30.637  27.104  1.00  0.00     0.042 C 
BRANCH  35  36
ATOM     36  C   UNL A   1      34.296  30.102  27.923  1.00  0.00     0.118 C 
BRANCH  36  37
ATOM     37  N   UNL A   1      35.037  31.098  28.679  1.00  0.00    -0.352 N 
ATOM     38  C   UNL A   1      36.340  31.025  29.157  1.00  0.00     0.251 C 
ATOM     39  H   UNL A   1      34.553  31.932  28.879  1.00  0.00     0.163 HD
ATOM     40  O   UNL A   1      36.852  31.968  29.752  1.00  0.00    -0.269 OA
BRANCH  38  41
ATOM     41  C   UNL A   1      37.193  29.850  28.790  1.00  0.00     0.039 A 
ATOM     42  C   UNL A   1      37.289  28.889  29.800  1.00  0.00     0.014 A 
ATOM     43  C   UNL A   1      38.268  30.056  27.947  1.00  0.00     0.014 A 
ATOM     44  C   UNL A   1      38.547  28.546  30.269  1.00  0.00     0.010 A 
ATOM     45  C   UNL A   1      39.503  29.937  28.535  1.00  0.00     0.010 A 
ATOM     46  C   UNL A   1      39.625  29.236  29.732  1.00  0.00    -0.014 A 
BRANCH  46  47
ATOM     47  C   UNL A   1      41.001  29.090  30.152  1.00  0.00     0.031 A 
ATOM     48  C   UNL A   1      41.630  27.951  29.444  1.00  0.00     0.074 A 
ATOM     49  C   UNL A   1      41.521  30.045  30.965  1.00  0.00     0.049 A 
ATOM     50  N   UNL A   1      42.407  27.075  29.957  1.00  0.00    -0.248 NA
ATOM     51  C   UNL A   1      41.247  27.566  28.065  1.00  0.00     0.031 C 
ATOM     52  C   UNL A   1      42.890  30.308  31.402  1.00  0.00     0.029 A 
ATOM     53  N   UNL A   1      40.771  30.937  31.755  1.00  0.00    -0.354 N 
ATOM     54  C   UNL A   1      42.999  26.434  28.882  1.00  0.00     0.074 A 
ATOM     55  C   UNL A   1      42.071  26.551  27.803  1.00  0.00     0.031 C 
ATOM     56  C   UNL A   1      42.858  30.960  32.586  1.00  0.00     0.029 A 
ATOM     57  C   UNL A   1      41.462  31.093  32.979  1.00  0.00     0.049 A 
ATOM     58  H   UNL A   1      39.924  31.372  31.503  1.00  0.00     0.167 HD
ATOM     59  C   UNL A   1      44.332  26.176  28.944  1.00  0.00     0.034 A 
ATOM     60  C   UNL A   1      40.906  30.583  34.120  1.00  0.00     0.034 A 
ATOM     61  C   UNL A   1      44.829  26.689  30.223  1.00  0.00     0.049 A 
ATOM     62  C   UNL A   1      41.638  29.301  34.499  1.00  0.00     0.074 A 
ATOM     63  C   UNL A   1      45.464  27.870  30.565  1.00  0.00     0.029 A 
ATOM     64  N   UNL A   1      44.284  26.178  31.388  1.00  0.00    -0.354 N 
ATOM     65  N   UNL A   1      42.298  28.553  33.647  1.00  0.00    -0.248 NA
ATOM     66  C   UNL A   1      41.797  28.851  35.878  1.00  0.00     0.031 C 
ATOM     67  C   UNL A   1      45.212  28.099  31.951  1.00  0.00     0.029 A 
ATOM     68  C   UNL A   1      44.420  27.069  32.431  1.00  0.00     0.049 A 
ATOM     69  H   UNL A   1      43.857  25.295  31.462  1.00  0.00     0.167 HD
ATOM     70  C   UNL A   1      43.017  27.605  34.326  1.00  0.00     0.074 A 
ATOM     71  C   UNL A   1      42.665  27.837  35.721  1.00  0.00     0.031 C 
ATOM     72  C   UNL A   1      43.875  26.716  33.730  1.00  0.00     0.034 A 
BRANCH  59  73
ATOM     73  C   UNL A   1      45.260  25.781  27.821  1.00  0.00     0.023 A 
ATOM     74  C   UNL A   1      45.712  26.816  26.980  1.00  0.00     0.031 A 
ATOM     75  C   UNL A   1      45.747  24.497  27.504  1.00  0.00     0.131 A 
ATOM     76  C   UNL A   1      46.560  26.579  25.888  1.00  0.00     0.055 A 
ATOM     77  C   UNL A   1      46.593  24.253  26.408  1.00  0.00     0.041 A 
ATOM     78  F   UNL A   1      45.464  23.418  28.241  1.00  0.00    -0.206 F 
ATOM     79  C   UNL A   1      47.005  25.297  25.592  1.00  0.00     0.022 A 
BRANCH  76  80
ATOM     80  S   UNL A   1      47.066  27.993  24.879  1.00  0.00     0.124 S 
ATOM     81  O   UNL A   1      46.771  27.523  23.529  1.00  0.00    -0.237 OA
ATOM     82  O   UNL A   1      46.215  29.059  25.393  1.00  0.00    -0.237 OA
ATOM     83  O   UNL A   1      48.488  28.135  25.186  1.00  0.00    -0.744 OA
ENDBRANCH  76  80
ENDBRANCH  59  73
BRANCH  60  84
ATOM     84  C   UNL A   1      39.421  30.829  34.132  1.00  0.00     0.023 A 
ATOM     85  C   UNL A   1      38.974  32.176  34.227  1.00  0.00     0.031 A 
ATOM     86  C   UNL A   1      38.554  29.904  33.539  1.00  0.00     0.131 A 
ATOM     87  C   UNL A   1      37.798  32.584  33.566  1.00  0.00     0.055 A 
ATOM     88  C   UNL A   1      37.380  30.320  32.902  1.00  0.00     0.041 A 
ATOM     89  F   UNL A   1      38.908  28.616  33.417  1.00  0.00    -0.206 F 
ATOM     90  C   UNL A   1      37.031  31.665  32.856  1.00  0.00     0.022 A 
BRANCH  87  91
ATOM     91  S   UNL A   1      37.403  34.348  33.403  1.00  0.00     0.124 S 
ATOM     92  O   UNL A   1      37.878  34.666  32.063  1.00  0.00    -0.237 OA
ATOM     93  O   UNL A   1      35.958  34.360  33.596  1.00  0.00    -0.237 OA
ATOM     94  O   UNL A   1      38.158  34.971  34.493  1.00  0.00    -0.744 OA
ENDBRANCH  87  91
ENDBRANCH  60  84
BRANCH  72  95
ATOM     95  C   UNL A   1      44.344  25.428  34.373  1.00  0.00     0.023 A 
ATOM     96  C   UNL A   1      45.692  25.192  34.631  1.00  0.00     0.031 A 
ATOM     97  C   UNL A   1      43.454  24.424  34.835  1.00  0.00     0.131 A 
ATOM     98  C   UNL A   1      46.130  23.959  35.123  1.00  0.00     0.055 A 
ATOM     99  C   UNL A   1      43.883  23.262  35.475  1.00  0.00     0.041 A 
ATOM    100  F   UNL A   1      42.124  24.518  34.700  1.00  0.00    -0.206 F 
ATOM    101  C   UNL A   1      45.237  22.999  35.580  1.00  0.00     0.022 A 
BRANCH  98 102
ATOM    102  S   UNL A   1      47.897  23.617  34.996  1.00  0.00     0.124 S 
ATOM    103  O   UNL A   1      48.389  24.139  36.270  1.00  0.00    -0.237 OA
ATOM    104  O   UNL A   1      47.927  22.165  34.858  1.00  0.00    -0.237 OA
ATOM    105  O   UNL A   1      48.307  24.369  33.813  1.00  0.00    -0.744 OA
ENDBRANCH  98 102
ENDBRANCH  72  95
ENDBRANCH  46  47
ENDBRANCH  38  41
ENDBRANCH  36  37
ENDBRANCH  35  36
ENDBRANCH   1  35
TORSDOF 18
ENDMDL
MODEL 3
REMARK VINA RESULT:     -12.7      3.573      6.595
REMARK SMILES Cc1ccc(NS(=O)(=O)c2cc(C(=O)Nc3ccccc3C(=O)NCCCNC(=O)c3ccc(-c4c5nc(c(-c6cc(S(=O)(=O)[O-])ccc6F)c6ccc([nH]6)c(-c6cc(S(=O)(=O)[O-])ccc6F)c6nc(c(-c7cc(S(=O)(=O)[O-])ccc7F)c7ccc4[nH]7)C=C6)C=C5)cc3)ccc2Br)cc1
REMARK SMILES IDX 25 1 24 2 22 3 23 4 21 6 16 7 17 8 18 9 20 10 19 11 15 12
REMARK SMILES IDX 13 13 14 14 12 16 10 17 11 18 96 19 95 20 97 21 94 22 7 23
REMARK SMILES IDX 8 24 9 25 6 26 5 28 1 29 2 30 3 31 99 32 4 33 98 34 26 35
REMARK SMILES IDX 27 36 28 37 29 38 30 40 31 41 32 42 93 43 33 44 92 45 34 46
REMARK SMILES IDX 35 47 36 48 86 49 37 50 91 51 85 52 87 53 38 54 90 55 84 56
REMARK SMILES IDX 83 57 39 59 71 60 51 61 70 62 52 63 55 64 69 65 88 66 53 67
REMARK SMILES IDX 54 68 68 70 89 71 56 72 40 73 41 74 49 75 42 76 48 77 50 78
REMARK SMILES IDX 47 79 43 80 44 81 45 82 46 83 72 84 73 85 81 86 74 87 80 88
REMARK SMILES IDX 82 89 79 90 75 91 76 92 77 93 78 94 57 95 58 96 66 97 59 98
REMARK SMILES IDX 65 99 67 100 64 101 60 102 61 103 62 104 63 105
REMARK H PARENT 24 5 15 15 6 27 28 39 87 58 55 69
REMARK Flexibility Score: inf
ROOT
ATOM      1  C   UNL A   1      33.646  34.824  30.225  1.00  0.00     0.118 C 
ENDROOT
BRANCH   1   2
ATOM      2  N   UNL A   1      32.891  34.867  29.006  1.00  0.00    -0.352 N 
ATOM      3  C   UNL A   1      32.958  33.887  28.033  1.00  0.00     0.253 C 
ATOM      4  O   UNL A   1      32.156  33.833  27.108  1.00  0.00    -0.269 OA
ATOM      5  H   UNL A   1      32.295  35.635  28.854  1.00  0.00     0.163 HD
BRANCH   3   6
ATOM      6  C   UNL A   1      34.160  33.003  28.017  1.00  0.00     0.063 A 
ATOM      7  C   UNL A   1      33.988  31.308  27.395  1.00  0.00     0.054 A 
ATOM      8  C   UNL A   1      35.677  30.185  27.336  1.00  0.00     0.027 A 
ATOM      9  C   UNL A   1      37.259  30.950  27.761  1.00  0.00     0.002 A 
ATOM     10  C   UNL A   1      35.782  33.584  28.458  1.00  0.00     0.016 A 
ATOM     11  C   UNL A   1      37.260  32.617  28.294  1.00  0.00     0.001 A 
BRANCH   7  12
ATOM     12  N   UNL A   1      32.564  31.099  26.912  1.00  0.00    -0.321 N 
ATOM     13  C   UNL A   1      31.900  30.151  26.094  1.00  0.00     0.255 C 
ATOM     14  O   UNL A   1      30.680  30.278  25.945  1.00  0.00    -0.269 OA
ATOM     15  H   UNL A   1      31.952  31.792  27.249  1.00  0.00     0.170 HD
BRANCH  13  16
ATOM     16  C   UNL A   1      32.515  28.895  25.540  1.00  0.00     0.041 A 
ATOM     17  C   UNL A   1      32.057  26.525  25.164  1.00  0.00     0.102 A 
ATOM     18  C   UNL A   1      31.946  27.699  25.861  1.00  0.00     0.037 A 
ATOM     19  C   UNL A   1      33.136  26.407  24.315  1.00  0.00     0.038 A 
ATOM     20  C   UNL A   1      33.929  27.555  24.088  1.00  0.00     0.018 A 
ATOM     21  Br  UNL A   1      33.666  24.763  23.553  1.00  0.00    -0.049 Br
ATOM     22  C   UNL A   1      33.570  28.815  24.637  1.00  0.00     0.015 A 
BRANCH  17  23
ATOM     23  S   UNL A   1      30.634  25.454  25.318  1.00  0.00     0.263 S 
ATOM     24  O   UNL A   1      29.905  25.862  26.501  1.00  0.00    -0.201 OA
ATOM     25  O   UNL A   1      31.116  24.095  25.187  1.00  0.00    -0.201 OA
BRANCH  23  26
ATOM     26  N   UNL A   1      29.556  25.778  23.995  1.00  0.00    -0.280 N 
ATOM     27  H   UNL A   1      29.221  24.988  23.512  1.00  0.00     0.180 HD
BRANCH  26  28
ATOM     28  C   UNL A   1      29.057  27.138  23.477  1.00  0.00     0.049 A 
ATOM     29  C   UNL A   1      28.639  32.028  22.044  1.00  0.00     0.044 C 
ATOM     30  C   UNL A   1      28.686  30.545  22.266  1.00  0.00    -0.051 A 
ATOM     31  C   UNL A   1      30.196  29.635  22.022  1.00  0.00     0.005 A 
ATOM     32  C   UNL A   1      27.278  29.893  23.047  1.00  0.00     0.005 A 
ATOM     33  C   UNL A   1      30.418  27.966  22.586  1.00  0.00     0.027 A 
ATOM     34  C   UNL A   1      27.354  28.223  23.659  1.00  0.00     0.027 A 
ENDBRANCH  26  28
ENDBRANCH  23  26
ENDBRANCH  17  23
ENDBRANCH  13  16
ENDBRANCH   7  12
ENDBRANCH   3   6
ENDBRANCH   1   2
BRANCH   1  35
ATOM     35  C   UNL A   1      33.265  35.660  31.386  1.00  0.00     0.042 C 
BRANCH  35  36
ATOM     36  C   UNL A   1      33.271  34.957  32.686  1.00  0.00     0.118 C 
BRANCH  36  37
ATOM     37  N   UNL A   1      34.413  35.252  33.536  1.00  0.00    -0.352 N 
ATOM     38  C   UNL A   1      35.618  34.566  33.630  1.00  0.00     0.251 C 
ATOM     39  H   UNL A   1      34.320  36.038  34.122  1.00  0.00     0.163 HD
ATOM     40  O   UNL A   1      36.515  34.956  34.371  1.00  0.00    -0.269 OA
BRANCH  38  41
ATOM     41  C   UNL A   1      35.898  33.439  32.685  1.00  0.00     0.039 A 
ATOM     42  C   UNL A   1      35.990  32.192  33.311  1.00  0.00     0.014 A 
ATOM     43  C   UNL A   1      36.668  33.693  31.567  1.00  0.00     0.014 A 
ATOM     44  C   UNL A   1      37.154  31.457  33.152  1.00  0.00     0.010 A 
ATOM     45  C   UNL A   1      37.919  33.127  31.579  1.00  0.00     0.010 A 
ATOM     46  C   UNL A   1      38.175  32.050  32.423  1.00  0.00    -0.014 A 
BRANCH  46  47
ATOM     47  C   UNL A   1      39.492  31.488  32.223  1.00  0.00     0.031 A 
ATOM     48  C   UNL A   1      39.395  30.230  31.447  1.00  0.00     0.074 A 
ATOM     49  C   UNL A   1      40.562  32.224  32.620  1.00  0.00     0.049 A 
ATOM     50  N   UNL A   1      40.041  29.149  31.671  1.00  0.00    -0.248 NA
ATOM     51  C   UNL A   1      38.350  30.010  30.421  1.00  0.00     0.031 C 
ATOM     52  C   UNL A   1      41.995  32.053  32.393  1.00  0.00     0.029 A 
ATOM     53  N   UNL A   1      40.524  33.280  33.549  1.00  0.00    -0.354 N 
ATOM     54  C   UNL A   1      39.888  28.386  30.527  1.00  0.00     0.074 A 
ATOM     55  C   UNL A   1      38.651  28.802  29.946  1.00  0.00     0.031 C 
ATOM     56  C   UNL A   1      42.676  32.656  33.394  1.00  0.00     0.029 A 
ATOM     57  C   UNL A   1      41.699  33.192  34.330  1.00  0.00     0.049 A 
ATOM     58  H   UNL A   1      39.811  33.955  33.639  1.00  0.00     0.167 HD
ATOM     59  C   UNL A   1      40.978  27.738  30.038  1.00  0.00     0.034 A 
ATOM     60  C   UNL A   1      41.590  32.845  35.650  1.00  0.00     0.034 A 
ATOM     61  C   UNL A   1      42.113  28.048  30.911  1.00  0.00     0.049 A 
ATOM     62  C   UNL A   1      42.024  31.395  35.818  1.00  0.00     0.074 A 
ATOM     63  C   UNL A   1      43.135  28.976  30.811  1.00  0.00     0.029 A 
ATOM     64  N   UNL A   1      42.024  27.697  32.247  1.00  0.00    -0.354 N 
ATOM     65  N   UNL A   1      41.999  30.504  34.856  1.00  0.00    -0.248 NA
ATOM     66  C   UNL A   1      42.647  30.885  37.036  1.00  0.00     0.031 C 
ATOM     67  C   UNL A   1      43.600  29.236  32.135  1.00  0.00     0.029 A 
ATOM     68  C   UNL A   1      42.851  28.481  33.022  1.00  0.00     0.049 A 
ATOM     69  H   UNL A   1      41.447  26.981  32.597  1.00  0.00     0.167 HD
ATOM     70  C   UNL A   1      42.648  29.367  35.262  1.00  0.00     0.074 A 
ATOM     71  C   UNL A   1      43.032  29.661  36.637  1.00  0.00     0.031 C 
ATOM     72  C   UNL A   1      42.866  28.276  34.460  1.00  0.00     0.034 A 
BRANCH  59  73
ATOM     73  C   UNL A   1      41.159  27.110  28.678  1.00  0.00     0.023 A 
ATOM     74  C   UNL A   1      41.651  25.790  28.651  1.00  0.00     0.031 A 
ATOM     75  C   UNL A   1      40.889  27.672  27.414  1.00  0.00     0.131 A 
ATOM     76  C   UNL A   1      41.883  25.101  27.451  1.00  0.00     0.055 A 
ATOM     77  C   UNL A   1      41.126  26.988  26.209  1.00  0.00     0.041 A 
ATOM     78  F   UNL A   1      40.360  28.892  27.269  1.00  0.00    -0.206 F 
ATOM     79  C   UNL A   1      41.626  25.694  26.222  1.00  0.00     0.022 A 
BRANCH  76  80
ATOM     80  S   UNL A   1      42.523  23.411  27.549  1.00  0.00     0.124 S 
ATOM     81  O   UNL A   1      43.964  23.635  27.606  1.00  0.00    -0.237 OA
ATOM     82  O   UNL A   1      41.897  22.914  28.769  1.00  0.00    -0.237 OA
ATOM     83  O   UNL A   1      42.042  22.796  26.314  1.00  0.00    -0.744 OA
ENDBRANCH  76  80
ENDBRANCH  59  73
BRANCH  60  84
ATOM     84  C   UNL A   1      40.400  33.526  36.271  1.00  0.00     0.023 A 
ATOM     85  C   UNL A   1      39.310  32.709  36.682  1.00  0.00     0.031 A 
ATOM     86  C   UNL A   1      40.555  34.761  36.910  1.00  0.00     0.131 A 
ATOM     87  C   UNL A   1      38.556  33.051  37.822  1.00  0.00     0.055 A 
ATOM     88  C   UNL A   1      39.787  35.096  38.031  1.00  0.00     0.041 A 
ATOM     89  F   UNL A   1      41.559  35.584  36.572  1.00  0.00    -0.206 F 
ATOM     90  C   UNL A   1      38.831  34.218  38.529  1.00  0.00     0.022 A 
BRANCH  87  91
ATOM     91  S   UNL A   1      37.393  31.858  38.543  1.00  0.00     0.124 S 
ATOM     92  O   UNL A   1      37.977  31.584  39.850  1.00  0.00    -0.237 OA
ATOM     93  O   UNL A   1      36.141  32.606  38.539  1.00  0.00    -0.237 OA
ATOM     94  O   UNL A   1      37.424  30.737  37.602  1.00  0.00    -0.744 OA
ENDBRANCH  87  91
ENDBRANCH  60  84
BRANCH  72  95
ATOM     95  C   UNL A   1      43.191  26.892  34.979  1.00  0.00     0.023 A 
ATOM     96  C   UNL A   1      44.300  26.185  34.521  1.00  0.00     0.031 A 
ATOM     97  C   UNL A   1      42.457  26.262  36.017  1.00  0.00     0.131 A 
ATOM     98  C   UNL A   1      44.535  24.866  34.922  1.00  0.00     0.055 A 
ATOM     99  C   UNL A   1      42.789  25.009  36.532  1.00  0.00     0.041 A 
ATOM    100  F   UNL A   1      41.387  26.827  36.594  1.00  0.00    -0.206 F 
ATOM    101  C   UNL A   1      43.809  24.278  35.950  1.00  0.00     0.022 A 
BRANCH  98 102
ATOM    102  S   UNL A   1      45.718  23.919  33.943  1.00  0.00     0.124 S 
ATOM    103  O   UNL A   1      46.680  24.953  33.565  1.00  0.00    -0.237 OA
ATOM    104  O   UNL A   1      46.200  22.932  34.902  1.00  0.00    -0.237 OA
ATOM    105  O   UNL A   1      44.909  23.390  32.849  1.00  0.00    -0.744 OA
ENDBRANCH  98 102
ENDBRANCH  72  95
ENDBRANCH  46  47
ENDBRANCH  38  41
ENDBRANCH  36  37
ENDBRANCH  35  36
ENDBRANCH   1  35
TORSDOF 18
ENDMDL
