MODEL 1
REMARK VINA RESULT:     -12.5      0.000      0.000
REMARK SMILES CC[C@@]1(C(=O)NCCCNC(=O)c2ccc(-c3c4nc(c(-c5cc(S(=O)(=O)[O-])ccc5F)c5ccc([nH]5)c(-c5cc(S(=O)(=O)[O-])ccc5F)c5nc(c(-c6cc(S(=O)(=O)[O-])ccc6F)c6ccc3[nH]6)C=C5)C=C4)cc2)CCC[N@@H+](Cc2ccc(C3CC3)cc2)C1
REMARK SMILES IDX 8 1 7 2 6 3 4 4 5 5 3 7 76 8 90 9 77 10 79 11 78 12 2 14
REMARK SMILES IDX 1 15 80 16 81 17 82 18 89 19 83 20 88 21 84 22 85 23 86 24
REMARK SMILES IDX 87 25 9 26 10 27 11 28 12 30 13 31 14 32 75 33 15 34 74 35
REMARK SMILES IDX 16 36 17 37 18 38 68 39 19 40 73 41 67 42 69 43 20 44 72 45
REMARK SMILES IDX 66 46 65 47 21 49 53 50 33 51 52 52 34 53 37 54 51 55 70 56
REMARK SMILES IDX 35 57 36 58 50 60 71 61 38 62 22 63 23 64 31 65 24 66 30 67
REMARK SMILES IDX 32 68 29 69 25 70 26 71 27 72 28 73 54 74 55 75 63 76 56 77
REMARK SMILES IDX 62 78 64 79 61 80 57 81 58 82 59 83 60 84 39 85 40 86 48 87
REMARK SMILES IDX 41 88 47 89 49 90 46 91 42 92 43 93 44 94 45 95
REMARK H PARENT 6 6 79 13 10 29 69 48 37 59
REMARK Flexibility Score: inf
ROOT
ATOM      1  C   UNL A   1      31.748  28.153  26.183  1.00  0.00     0.042 C 
ENDROOT
BRANCH   1   2
ATOM      2  C   UNL A   1      32.418  26.828  26.511  1.00  0.00     0.117 C 
BRANCH   2   3
ATOM      3  N   UNL A   1      31.471  25.809  26.875  1.00  0.00    -0.355 N 
ATOM      4  C   UNL A   1      31.351  24.506  26.542  1.00  0.00     0.231 C 
ATOM      5  O   UNL A   1      30.357  23.950  27.035  1.00  0.00    -0.274 OA
ATOM      6  H   UNL A   1      30.770  26.124  27.490  1.00  0.00     0.163 HD
BRANCH   4   7
ATOM      7  C   UNL A   1      32.273  23.716  25.575  1.00  0.00     0.098 C 
ATOM      8  C   UNL A   1      33.814  23.866  25.624  1.00  0.00     0.028 C 
ATOM      9  C   UNL A   1      31.775  24.044  24.156  1.00  0.00     0.279 C 
ATOM     10  C   UNL A   1      34.467  24.915  24.699  1.00  0.00     0.063 C 
ATOM     11  N   UNL A   1      32.190  25.384  23.744  1.00  0.00    -0.330 N 
ATOM     12  C   UNL A   1      33.637  25.425  23.521  1.00  0.00     0.262 C 
ATOM     13  H   UNL A   1      31.983  26.028  24.508  1.00  0.00     0.348 HD
BRANCH   7  14
ATOM     14  C   UNL A   1      31.948  22.196  25.833  1.00  0.00     0.019 C 
ATOM     15  C   UNL A   1      33.174  21.289  25.938  1.00  0.00     0.005 C 
ENDBRANCH   7  14
BRANCH  11  16
ATOM     16  C   UNL A   1      31.406  25.895  22.592  1.00  0.00     0.299 C 
BRANCH  16  17
ATOM     17  C   UNL A   1      30.555  27.110  22.897  1.00  0.00     0.006 A 
ATOM     18  C   UNL A   1      30.919  28.359  22.389  1.00  0.00     0.010 A 
ATOM     19  C   UNL A   1      29.317  26.981  23.533  1.00  0.00     0.010 A 
ATOM     20  C   UNL A   1      29.997  29.407  22.375  1.00  0.00     0.004 A 
ATOM     21  C   UNL A   1      28.393  28.026  23.491  1.00  0.00     0.004 A 
ATOM     22  C   UNL A   1      28.687  29.244  22.859  1.00  0.00    -0.045 A 
BRANCH  22  23
ATOM     23  C   UNL A   1      27.667  30.341  22.634  1.00  0.00     0.019 C 
ATOM     24  C   UNL A   1      27.628  31.575  23.506  1.00  0.00     0.009 C 
ATOM     25  C   UNL A   1      28.071  31.678  22.074  1.00  0.00     0.009 C 
ENDBRANCH  22  23
ENDBRANCH  16  17
ENDBRANCH  11  16
ENDBRANCH   4   7
ENDBRANCH   2   3
ENDBRANCH   1   2
BRANCH   1  26
ATOM     26  C   UNL A   1      32.742  29.169  25.644  1.00  0.00     0.118 C 
BRANCH  26  27
ATOM     27  N   UNL A   1      32.348  30.538  25.968  1.00  0.00    -0.352 N 
ATOM     28  C   UNL A   1      32.811  31.394  26.933  1.00  0.00     0.251 C 
ATOM     29  H   UNL A   1      31.631  30.904  25.401  1.00  0.00     0.163 HD
ATOM     30  O   UNL A   1      32.174  32.410  27.188  1.00  0.00    -0.269 OA
BRANCH  28  31
ATOM     31  C   UNL A   1      34.057  31.081  27.660  1.00  0.00     0.039 A 
ATOM     32  C   UNL A   1      34.930  32.120  27.989  1.00  0.00     0.014 A 
ATOM     33  C   UNL A   1      34.373  29.765  28.001  1.00  0.00     0.014 A 
ATOM     34  C   UNL A   1      36.093  31.840  28.705  1.00  0.00     0.010 A 
ATOM     35  C   UNL A   1      35.463  29.505  28.818  1.00  0.00     0.010 A 
ATOM     36  C   UNL A   1      36.352  30.535  29.153  1.00  0.00    -0.014 A 
BRANCH  36  37
ATOM     37  C   UNL A   1      37.575  30.204  29.924  1.00  0.00     0.031 A 
ATOM     38  C   UNL A   1      38.613  29.301  29.313  1.00  0.00     0.074 A 
ATOM     39  C   UNL A   1      37.717  30.664  31.183  1.00  0.00     0.049 A 
ATOM     40  N   UNL A   1      39.701  28.811  29.846  1.00  0.00    -0.248 NA
ATOM     41  C   UNL A   1      38.372  28.856  27.930  1.00  0.00     0.031 C 
ATOM     42  C   UNL A   1      36.753  31.511  31.889  1.00  0.00     0.029 A 
ATOM     43  N   UNL A   1      38.726  30.482  32.093  1.00  0.00    -0.354 N 
ATOM     44  C   UNL A   1      40.259  27.986  28.874  1.00  0.00     0.074 A 
ATOM     45  C   UNL A   1      39.347  27.980  27.752  1.00  0.00     0.031 C 
ATOM     46  C   UNL A   1      37.235  31.806  33.106  1.00  0.00     0.029 A 
ATOM     47  C   UNL A   1      38.512  31.123  33.291  1.00  0.00     0.049 A 
ATOM     48  H   UNL A   1      39.528  29.942  31.907  1.00  0.00     0.167 HD
ATOM     49  C   UNL A   1      41.441  27.324  28.901  1.00  0.00     0.034 A 
ATOM     50  C   UNL A   1      39.258  31.148  34.413  1.00  0.00     0.034 A 
ATOM     51  C   UNL A   1      42.346  27.365  30.022  1.00  0.00     0.049 A 
ATOM     52  C   UNL A   1      40.559  30.384  34.429  1.00  0.00     0.074 A 
ATOM     53  C   UNL A   1      43.592  26.779  30.145  1.00  0.00     0.029 A 
ATOM     54  N   UNL A   1      42.098  28.029  31.217  1.00  0.00    -0.354 N 
ATOM     55  N   UNL A   1      41.097  29.646  33.483  1.00  0.00    -0.248 NA
ATOM     56  C   UNL A   1      41.357  30.463  35.658  1.00  0.00     0.031 C 
ATOM     57  C   UNL A   1      44.063  27.023  31.439  1.00  0.00     0.029 A 
ATOM     58  C   UNL A   1      43.154  27.840  32.094  1.00  0.00     0.049 A 
ATOM     59  H   UNL A   1      41.290  28.556  31.413  1.00  0.00     0.167 HD
ATOM     60  C   UNL A   1      42.317  29.207  33.993  1.00  0.00     0.074 A 
ATOM     61  C   UNL A   1      42.437  29.774  35.320  1.00  0.00     0.031 C 
ATOM     62  C   UNL A   1      43.253  28.412  33.416  1.00  0.00     0.034 A 
BRANCH  49  63
ATOM     63  C   UNL A   1      41.801  26.488  27.694  1.00  0.00     0.023 A 
ATOM     64  C   UNL A   1      41.444  25.130  27.601  1.00  0.00     0.031 A 
ATOM     65  C   UNL A   1      42.540  27.045  26.636  1.00  0.00     0.131 A 
ATOM     66  C   UNL A   1      41.895  24.358  26.520  1.00  0.00     0.055 A 
ATOM     67  C   UNL A   1      42.907  26.293  25.518  1.00  0.00     0.041 A 
ATOM     68  F   UNL A   1      42.933  28.328  26.677  1.00  0.00    -0.206 F 
ATOM     69  C   UNL A   1      42.599  24.937  25.463  1.00  0.00     0.022 A 
BRANCH  66  70
ATOM     70  S   UNL A   1      41.683  22.559  26.594  1.00  0.00     0.124 S 
ATOM     71  O   UNL A   1      40.227  22.434  26.593  1.00  0.00    -0.237 OA
ATOM     72  O   UNL A   1      42.364  22.108  25.386  1.00  0.00    -0.237 OA
ATOM     73  O   UNL A   1      42.330  22.189  27.852  1.00  0.00    -0.744 OA
ENDBRANCH  66  70
ENDBRANCH  49  63
BRANCH  50  74
ATOM     74  C   UNL A   1      38.802  31.910  35.612  1.00  0.00     0.023 A 
ATOM     75  C   UNL A   1      38.242  31.251  36.718  1.00  0.00     0.031 A 
ATOM     76  C   UNL A   1      38.877  33.314  35.652  1.00  0.00     0.131 A 
ATOM     77  C   UNL A   1      37.727  31.996  37.790  1.00  0.00     0.055 A 
ATOM     78  C   UNL A   1      38.420  34.047  36.748  1.00  0.00     0.041 A 
ATOM     79  F   UNL A   1      39.408  33.996  34.625  1.00  0.00    -0.206 F 
ATOM     80  C   UNL A   1      37.825  33.389  37.819  1.00  0.00     0.022 A 
BRANCH  77  81
ATOM     81  S   UNL A   1      36.829  31.122  39.101  1.00  0.00     0.124 S 
ATOM     82  O   UNL A   1      36.654  29.800  38.509  1.00  0.00    -0.237 OA
ATOM     83  O   UNL A   1      37.764  31.207  40.218  1.00  0.00    -0.237 OA
ATOM     84  O   UNL A   1      35.604  31.904  39.254  1.00  0.00    -0.744 OA
ENDBRANCH  77  81
ENDBRANCH  50  74
BRANCH  62  85
ATOM     85  C   UNL A   1      44.517  28.159  34.203  1.00  0.00     0.023 A 
ATOM     86  C   UNL A   1      44.647  27.061  35.069  1.00  0.00     0.031 A 
ATOM     87  C   UNL A   1      45.609  29.039  34.081  1.00  0.00     0.131 A 
ATOM     88  C   UNL A   1      45.817  26.904  35.826  1.00  0.00     0.055 A 
ATOM     89  C   UNL A   1      46.796  28.838  34.784  1.00  0.00     0.041 A 
ATOM     90  F   UNL A   1      45.540  30.107  33.270  1.00  0.00    -0.206 F 
ATOM     91  C   UNL A   1      46.900  27.773  35.674  1.00  0.00     0.022 A 
BRANCH  88  92
ATOM     92  S   UNL A   1      45.864  25.608  37.094  1.00  0.00     0.124 S 
ATOM     93  O   UNL A   1      47.201  25.777  37.652  1.00  0.00    -0.237 OA
ATOM     94  O   UNL A   1      44.757  25.984  37.966  1.00  0.00    -0.237 OA
ATOM     95  O   UNL A   1      45.661  24.376  36.332  1.00  0.00    -0.744 OA
ENDBRANCH  88  92
ENDBRANCH  62  85
ENDBRANCH  36  37
ENDBRANCH  28  31
ENDBRANCH  26  27
ENDBRANCH   1  26
TORSDOF 17
ENDMDL
MODEL 2
REMARK VINA RESULT:     -12.4      2.570      3.427
REMARK SMILES CC[C@@]1(C(=O)NCCCNC(=O)c2ccc(-c3c4nc(c(-c5cc(S(=O)(=O)[O-])ccc5F)c5ccc([nH]5)c(-c5cc(S(=O)(=O)[O-])ccc5F)c5nc(c(-c6cc(S(=O)(=O)[O-])ccc6F)c6ccc3[nH]6)C=C5)C=C4)cc2)CCC[N@@H+](Cc2ccc(C3CC3)cc2)C1
REMARK SMILES IDX 8 1 7 2 6 3 4 4 5 5 3 7 76 8 90 9 77 10 79 11 78 12 2 14
REMARK SMILES IDX 1 15 80 16 81 17 82 18 89 19 83 20 88 21 84 22 85 23 86 24
REMARK SMILES IDX 87 25 9 26 10 27 11 28 12 30 13 31 14 32 75 33 15 34 74 35
REMARK SMILES IDX 16 36 17 37 18 38 68 39 19 40 73 41 67 42 69 43 20 44 72 45
REMARK SMILES IDX 66 46 65 47 21 49 53 50 33 51 52 52 34 53 37 54 51 55 70 56
REMARK SMILES IDX 35 57 36 58 50 60 71 61 38 62 22 63 23 64 31 65 24 66 30 67
REMARK SMILES IDX 32 68 29 69 25 70 26 71 27 72 28 73 54 74 55 75 63 76 56 77
REMARK SMILES IDX 62 78 64 79 61 80 57 81 58 82 59 83 60 84 39 85 40 86 48 87
REMARK SMILES IDX 41 88 47 89 49 90 46 91 42 92 43 93 44 94 45 95
REMARK H PARENT 6 6 79 13 10 29 69 48 37 59
REMARK Flexibility Score: inf
ROOT
ATOM      1  C   UNL A   1      31.435  32.007  26.330  1.00  0.00     0.042 C 
ENDROOT
BRANCH   1   2
ATOM      2  C   UNL A   1      31.392  30.512  26.054  1.00  0.00     0.117 C 
BRANCH   2   3
ATOM      3  N   UNL A   1      32.352  30.107  25.064  1.00  0.00    -0.355 N 
ATOM      4  C   UNL A   1      33.045  28.965  24.869  1.00  0.00     0.231 C 
ATOM      5  O   UNL A   1      33.828  29.008  23.908  1.00  0.00    -0.274 OA
ATOM      6  H   UNL A   1      32.543  30.802  24.393  1.00  0.00     0.163 HD
BRANCH   4   7
ATOM      7  C   UNL A   1      32.992  27.695  25.761  1.00  0.00     0.098 C 
ATOM      8  C   UNL A   1      33.954  26.503  25.529  1.00  0.00     0.028 C 
ATOM      9  C   UNL A   1      31.537  27.195  25.695  1.00  0.00     0.279 C 
ATOM     10  C   UNL A   1      33.474  25.355  24.615  1.00  0.00     0.063 C 
ATOM     11  N   UNL A   1      31.261  26.531  24.422  1.00  0.00    -0.330 N 
ATOM     12  C   UNL A   1      31.972  25.253  24.347  1.00  0.00     0.262 C 
ATOM     13  H   UNL A   1      31.621  27.122  23.672  1.00  0.00     0.348 HD
BRANCH   7  14
ATOM     14  C   UNL A   1      33.233  28.205  27.233  1.00  0.00     0.019 C 
ATOM     15  C   UNL A   1      34.504  29.033  27.421  1.00  0.00     0.005 C 
ENDBRANCH   7  14
BRANCH  11  16
ATOM     16  C   UNL A   1      29.808  26.409  24.147  1.00  0.00     0.299 C 
BRANCH  16  17
ATOM     17  C   UNL A   1      29.217  27.557  23.355  1.00  0.00     0.006 A 
ATOM     18  C   UNL A   1      27.854  27.844  23.459  1.00  0.00     0.010 A 
ATOM     19  C   UNL A   1      30.037  28.447  22.657  1.00  0.00     0.010 A 
ATOM     20  C   UNL A   1      27.359  29.071  23.013  1.00  0.00     0.004 A 
ATOM     21  C   UNL A   1      29.539  29.682  22.238  1.00  0.00     0.004 A 
ATOM     22  C   UNL A   1      28.202  30.050  22.459  1.00  0.00    -0.045 A 
BRANCH  22  23
ATOM     23  C   UNL A   1      27.657  31.436  22.183  1.00  0.00     0.019 C 
ATOM     24  C   UNL A   1      28.527  32.666  22.308  1.00  0.00     0.009 C 
ATOM     25  C   UNL A   1      28.067  32.203  20.955  1.00  0.00     0.009 C 
ENDBRANCH  22  23
ENDBRANCH  16  17
ENDBRANCH  11  16
ENDBRANCH   4   7
ENDBRANCH   2   3
ENDBRANCH   1   2
BRANCH   1  26
ATOM     26  C   UNL A   1      32.585  32.378  27.251  1.00  0.00     0.118 C 
BRANCH  26  27
ATOM     27  N   UNL A   1      32.553  33.792  27.617  1.00  0.00    -0.352 N 
ATOM     28  C   UNL A   1      33.243  34.480  28.581  1.00  0.00     0.251 C 
ATOM     29  H   UNL A   1      31.932  34.340  27.084  1.00  0.00     0.163 HD
ATOM     30  O   UNL A   1      32.885  35.613  28.880  1.00  0.00    -0.269 OA
BRANCH  28  31
ATOM     31  C   UNL A   1      34.394  33.848  29.256  1.00  0.00     0.039 A 
ATOM     32  C   UNL A   1      35.679  34.329  28.997  1.00  0.00     0.014 A 
ATOM     33  C   UNL A   1      34.208  32.775  30.129  1.00  0.00     0.014 A 
ATOM     34  C   UNL A   1      36.770  33.762  29.655  1.00  0.00     0.010 A 
ATOM     35  C   UNL A   1      35.276  32.297  30.873  1.00  0.00     0.010 A 
ATOM     36  C   UNL A   1      36.573  32.764  30.623  1.00  0.00    -0.014 A 
BRANCH  36  37
ATOM     37  C   UNL A   1      37.710  32.146  31.347  1.00  0.00     0.031 A 
ATOM     38  C   UNL A   1      38.491  31.039  30.691  1.00  0.00     0.074 A 
ATOM     39  C   UNL A   1      37.996  32.538  32.604  1.00  0.00     0.049 A 
ATOM     40  N   UNL A   1      39.453  30.301  31.180  1.00  0.00    -0.248 NA
ATOM     41  C   UNL A   1      38.110  30.686  29.313  1.00  0.00     0.031 C 
ATOM     42  C   UNL A   1      37.277  33.573  33.352  1.00  0.00     0.029 A 
ATOM     43  N   UNL A   1      38.964  32.113  33.476  1.00  0.00    -0.354 N 
ATOM     44  C   UNL A   1      39.773  29.387  30.181  1.00  0.00     0.074 A 
ATOM     45  C   UNL A   1      38.849  29.611  29.092  1.00  0.00     0.031 C 
ATOM     46  C   UNL A   1      37.853  33.727  34.554  1.00  0.00     0.029 A 
ATOM     47  C   UNL A   1      38.943  32.765  34.687  1.00  0.00     0.049 A 
ATOM     48  H   UNL A   1      39.612  31.405  33.257  1.00  0.00     0.167 HD
ATOM     49  C   UNL A   1      40.770  28.469  30.160  1.00  0.00     0.034 A 
ATOM     50  C   UNL A   1      39.709  32.597  35.783  1.00  0.00     0.034 A 
ATOM     51  C   UNL A   1      41.695  28.280  31.249  1.00  0.00     0.049 A 
ATOM     52  C   UNL A   1      40.798  31.553  35.745  1.00  0.00     0.074 A 
ATOM     53  C   UNL A   1      42.775  27.420  31.322  1.00  0.00     0.029 A 
ATOM     54  N   UNL A   1      41.646  28.963  32.458  1.00  0.00    -0.354 N 
ATOM     55  N   UNL A   1      41.120  30.728  34.773  1.00  0.00    -0.248 NA
ATOM     56  C   UNL A   1      41.632  31.424  36.945  1.00  0.00     0.031 C 
ATOM     57  C   UNL A   1      43.331  27.526  32.601  1.00  0.00     0.029 A 
ATOM     58  C   UNL A   1      42.657  28.519  33.296  1.00  0.00     0.049 A 
ATOM     59  H   UNL A   1      40.989  29.659  32.688  1.00  0.00     0.167 HD
ATOM     60  C   UNL A   1      42.221  30.010  35.236  1.00  0.00     0.074 A 
ATOM     61  C   UNL A   1      42.512  30.510  36.563  1.00  0.00     0.031 C 
ATOM     62  C   UNL A   1      42.929  29.030  34.619  1.00  0.00     0.034 A 
BRANCH  49  63
ATOM     63  C   UNL A   1      40.888  27.594  28.933  1.00  0.00     0.023 A 
ATOM     64  C   UNL A   1      41.827  27.861  27.921  1.00  0.00     0.031 A 
ATOM     65  C   UNL A   1      40.028  26.497  28.755  1.00  0.00     0.131 A 
ATOM     66  C   UNL A   1      41.829  27.097  26.745  1.00  0.00     0.055 A 
ATOM     67  C   UNL A   1      40.097  25.682  27.622  1.00  0.00     0.041 A 
ATOM     68  F   UNL A   1      39.092  26.204  29.673  1.00  0.00    -0.206 F 
ATOM     69  C   UNL A   1      40.990  25.990  26.601  1.00  0.00     0.022 A 
BRANCH  66  70
ATOM     70  S   UNL A   1      42.833  27.665  25.345  1.00  0.00     0.124 S 
ATOM     71  O   UNL A   1      43.013  26.426  24.591  1.00  0.00    -0.237 OA
ATOM     72  O   UNL A   1      41.977  28.670  24.728  1.00  0.00    -0.237 OA
ATOM     73  O   UNL A   1      44.045  28.180  25.980  1.00  0.00    -0.744 OA
ENDBRANCH  66  70
ENDBRANCH  49  63
BRANCH  50  74
ATOM     74  C   UNL A   1      39.482  33.422  37.004  1.00  0.00     0.023 A 
ATOM     75  C   UNL A   1      40.345  34.480  37.332  1.00  0.00     0.031 A 
ATOM     76  C   UNL A   1      38.424  33.138  37.887  1.00  0.00     0.131 A 
ATOM     77  C   UNL A   1      40.171  35.177  38.538  1.00  0.00     0.055 A 
ATOM     78  C   UNL A   1      38.219  33.875  39.055  1.00  0.00     0.041 A 
ATOM     79  F   UNL A   1      37.565  32.142  37.620  1.00  0.00    -0.206 F 
ATOM     80  C   UNL A   1      39.106  34.891  39.395  1.00  0.00     0.022 A 
BRANCH  77  81
ATOM     81  S   UNL A   1      41.424  36.396  39.024  1.00  0.00     0.124 S 
ATOM     82  O   UNL A   1      40.761  37.651  38.690  1.00  0.00    -0.237 OA
ATOM     83  O   UNL A   1      41.587  36.113  40.446  1.00  0.00    -0.237 OA
ATOM     84  O   UNL A   1      42.572  36.054  38.186  1.00  0.00    -0.744 OA
ENDBRANCH  77  81
ENDBRANCH  50  74
BRANCH  62  85
ATOM     85  C   UNL A   1      44.124  28.478  35.358  1.00  0.00     0.023 A 
ATOM     86  C   UNL A   1      43.994  27.506  36.363  1.00  0.00     0.031 A 
ATOM     87  C   UNL A   1      45.418  28.939  35.047  1.00  0.00     0.131 A 
ATOM     88  C   UNL A   1      45.127  27.071  37.065  1.00  0.00     0.055 A 
ATOM     89  C   UNL A   1      46.548  28.451  35.700  1.00  0.00     0.041 A 
ATOM     90  F   UNL A   1      45.602  29.870  34.097  1.00  0.00    -0.206 F 
ATOM     91  C   UNL A   1      46.406  27.521  36.726  1.00  0.00     0.022 A 
BRANCH  88  92
ATOM     92  S   UNL A   1      44.897  25.987  38.501  1.00  0.00     0.124 S 
ATOM     93  O   UNL A   1      46.013  26.377  39.357  1.00  0.00    -0.237 OA
ATOM     94  O   UNL A   1      43.570  26.368  38.970  1.00  0.00    -0.237 OA
ATOM     95  O   UNL A   1      44.992  24.643  37.934  1.00  0.00    -0.744 OA
ENDBRANCH  88  92
ENDBRANCH  62  85
ENDBRANCH  36  37
ENDBRANCH  28  31
ENDBRANCH  26  27
ENDBRANCH   1  26
TORSDOF 17
ENDMDL
MODEL 3
REMARK VINA RESULT:     -12.3      1.803      7.755
REMARK SMILES CC[C@@]1(C(=O)NCCCNC(=O)c2ccc(-c3c4nc(c(-c5cc(S(=O)(=O)[O-])ccc5F)c5ccc([nH]5)c(-c5cc(S(=O)(=O)[O-])ccc5F)c5nc(c(-c6cc(S(=O)(=O)[O-])ccc6F)c6ccc3[nH]6)C=C5)C=C4)cc2)CCC[N@@H+](Cc2ccc(C3CC3)cc2)C1
REMARK SMILES IDX 8 1 7 2 6 3 4 4 5 5 3 7 76 8 90 9 77 10 79 11 78 12 2 14
REMARK SMILES IDX 1 15 80 16 81 17 82 18 89 19 83 20 88 21 84 22 85 23 86 24
REMARK SMILES IDX 87 25 9 26 10 27 11 28 12 30 13 31 14 32 75 33 15 34 74 35
REMARK SMILES IDX 16 36 17 37 18 38 68 39 19 40 73 41 67 42 69 43 20 44 72 45
REMARK SMILES IDX 66 46 65 47 21 49 53 50 33 51 52 52 34 53 37 54 51 55 70 56
REMARK SMILES IDX 35 57 36 58 50 60 71 61 38 62 22 63 23 64 31 65 24 66 30 67
REMARK SMILES IDX 32 68 29 69 25 70 26 71 27 72 28 73 54 74 55 75 63 76 56 77
REMARK SMILES IDX 62 78 64 79 61 80 57 81 58 82 59 83 60 84 39 85 40 86 48 87
REMARK SMILES IDX 41 88 47 89 49 90 46 91 42 92 43 93 44 94 45 95
REMARK H PARENT 6 6 79 13 10 29 69 48 37 59
REMARK Flexibility Score: inf
ROOT
ATOM      1  C   UNL A   1      32.998  29.354  24.903  1.00  0.00     0.042 C 
ENDROOT
BRANCH   1   2
ATOM      2  C   UNL A   1      33.621  27.968  24.964  1.00  0.00     0.117 C 
BRANCH   2   3
ATOM      3  N   UNL A   1      33.799  27.387  23.661  1.00  0.00    -0.355 N 
ATOM      4  C   UNL A   1      33.789  26.113  23.214  1.00  0.00     0.231 C 
ATOM      5  O   UNL A   1      34.028  26.003  22.001  1.00  0.00    -0.274 OA
ATOM      6  H   UNL A   1      33.963  28.051  22.952  1.00  0.00     0.163 HD
BRANCH   4   7
ATOM      7  C   UNL A   1      33.587  24.839  24.077  1.00  0.00     0.098 C 
ATOM      8  C   UNL A   1      33.545  23.428  23.439  1.00  0.00     0.028 C 
ATOM      9  C   UNL A   1      32.292  25.073  24.877  1.00  0.00     0.279 C 
ATOM     10  C   UNL A   1      32.168  22.854  23.043  1.00  0.00     0.063 C 
ATOM     11  N   UNL A   1      31.109  24.908  24.034  1.00  0.00    -0.330 N 
ATOM     12  C   UNL A   1      30.933  23.500  23.671  1.00  0.00     0.262 C 
ATOM     13  H   UNL A   1      31.263  25.426  23.168  1.00  0.00     0.348 HD
BRANCH   7  14
ATOM     14  C   UNL A   1      34.772  24.843  25.116  1.00  0.00     0.019 C 
ATOM     15  C   UNL A   1      35.540  23.525  25.213  1.00  0.00     0.005 C 
ENDBRANCH   7  14
BRANCH  11  16
ATOM     16  C   UNL A   1      29.894  25.515  24.631  1.00  0.00     0.299 C 
BRANCH  16  17
ATOM     17  C   UNL A   1      29.298  26.653  23.828  1.00  0.00     0.006 A 
ATOM     18  C   UNL A   1      27.923  26.892  23.876  1.00  0.00     0.010 A 
ATOM     19  C   UNL A   1      30.116  27.579  23.174  1.00  0.00     0.010 A 
ATOM     20  C   UNL A   1      27.406  28.108  23.424  1.00  0.00     0.004 A 
ATOM     21  C   UNL A   1      29.595  28.801  22.748  1.00  0.00     0.004 A 
ATOM     22  C   UNL A   1      28.238  29.121  22.917  1.00  0.00    -0.045 A 
BRANCH  22  23
ATOM     23  C   UNL A   1      27.658  30.492  22.633  1.00  0.00     0.019 C 
ATOM     24  C   UNL A   1      27.653  31.580  23.682  1.00  0.00     0.009 C 
ATOM     25  C   UNL A   1      28.547  31.696  22.480  1.00  0.00     0.009 C 
ENDBRANCH  22  23
ENDBRANCH  16  17
ENDBRANCH  11  16
ENDBRANCH   4   7
ENDBRANCH   2   3
ENDBRANCH   1   2
BRANCH   1  26
ATOM     26  C   UNL A   1      32.373  29.751  26.230  1.00  0.00     0.118 C 
BRANCH  26  27
ATOM     27  N   UNL A   1      32.302  31.202  26.383  1.00  0.00    -0.352 N 
ATOM     28  C   UNL A   1      33.033  32.053  27.171  1.00  0.00     0.251 C 
ATOM     29  H   UNL A   1      31.615  31.640  25.830  1.00  0.00     0.163 HD
ATOM     30  O   UNL A   1      32.646  33.205  27.327  1.00  0.00    -0.269 OA
BRANCH  28  31
ATOM     31  C   UNL A   1      34.264  31.573  27.829  1.00  0.00     0.039 A 
ATOM     32  C   UNL A   1      35.316  32.468  28.037  1.00  0.00     0.014 A 
ATOM     33  C   UNL A   1      34.387  30.241  28.226  1.00  0.00     0.014 A 
ATOM     34  C   UNL A   1      36.469  32.034  28.688  1.00  0.00     0.010 A 
ATOM     35  C   UNL A   1      35.480  29.843  28.982  1.00  0.00     0.010 A 
ATOM     36  C   UNL A   1      36.547  30.726  29.195  1.00  0.00    -0.014 A 
BRANCH  36  37
ATOM     37  C   UNL A   1      37.755  30.235  29.900  1.00  0.00     0.031 A 
ATOM     38  C   UNL A   1      38.028  30.693  31.308  1.00  0.00     0.074 A 
ATOM     39  C   UNL A   1      38.627  29.435  29.256  1.00  0.00     0.049 A 
ATOM     40  N   UNL A   1      39.067  30.464  32.067  1.00  0.00    -0.248 NA
ATOM     41  C   UNL A   1      37.013  31.560  31.930  1.00  0.00     0.031 C 
ATOM     42  C   UNL A   1      38.484  28.963  27.876  1.00  0.00     0.029 A 
ATOM     43  N   UNL A   1      39.807  28.877  29.674  1.00  0.00    -0.354 N 
ATOM     44  C   UNL A   1      38.840  31.175  33.242  1.00  0.00     0.074 A 
ATOM     45  C   UNL A   1      37.605  31.906  33.061  1.00  0.00     0.031 C 
ATOM     46  C   UNL A   1      39.515  28.159  27.577  1.00  0.00     0.029 A 
ATOM     47  C   UNL A   1      40.422  28.102  28.719  1.00  0.00     0.049 A 
ATOM     48  H   UNL A   1      40.181  29.019  30.574  1.00  0.00     0.167 HD
ATOM     49  C   UNL A   1      39.576  31.188  34.380  1.00  0.00     0.034 A 
ATOM     50  C   UNL A   1      41.591  27.432  28.757  1.00  0.00     0.034 A 
ATOM     51  C   UNL A   1      40.792  30.431  34.545  1.00  0.00     0.049 A 
ATOM     52  C   UNL A   1      42.405  27.480  30.026  1.00  0.00     0.074 A 
ATOM     53  C   UNL A   1      41.594  30.324  35.666  1.00  0.00     0.029 A 
ATOM     54  N   UNL A   1      41.382  29.654  33.556  1.00  0.00    -0.354 N 
ATOM     55  N   UNL A   1      42.153  28.119  31.148  1.00  0.00    -0.248 NA
ATOM     56  C   UNL A   1      43.654  26.710  30.040  1.00  0.00     0.031 C 
ATOM     57  C   UNL A   1      42.708  29.546  35.333  1.00  0.00     0.029 A 
ATOM     58  C   UNL A   1      42.556  29.090  34.032  1.00  0.00     0.049 A 
ATOM     59  H   UNL A   1      41.021  29.523  32.650  1.00  0.00     0.167 HD
ATOM     60  C   UNL A   1      43.196  27.793  32.012  1.00  0.00     0.074 A 
ATOM     61  C   UNL A   1      44.068  26.893  31.285  1.00  0.00     0.031 C 
ATOM     62  C   UNL A   1      43.413  28.196  33.289  1.00  0.00     0.034 A 
BRANCH  49  63
ATOM     63  C   UNL A   1      39.094  32.063  35.514  1.00  0.00     0.023 A 
ATOM     64  C   UNL A   1      39.517  33.397  35.651  1.00  0.00     0.031 A 
ATOM     65  C   UNL A   1      38.224  31.548  36.490  1.00  0.00     0.131 A 
ATOM     66  C   UNL A   1      39.139  34.141  36.779  1.00  0.00     0.055 A 
ATOM     67  C   UNL A   1      37.778  32.325  37.563  1.00  0.00     0.041 A 
ATOM     68  F   UNL A   1      37.804  30.274  36.430  1.00  0.00    -0.206 F 
ATOM     69  C   UNL A   1      38.248  33.624  37.720  1.00  0.00     0.022 A 
BRANCH  66  70
ATOM     70  S   UNL A   1      39.953  35.735  37.075  1.00  0.00     0.124 S 
ATOM     71  O   UNL A   1      39.652  36.453  35.839  1.00  0.00    -0.237 OA
ATOM     72  O   UNL A   1      39.279  36.217  38.275  1.00  0.00    -0.237 OA
ATOM     73  O   UNL A   1      41.359  35.375  37.250  1.00  0.00    -0.744 OA
ENDBRANCH  66  70
ENDBRANCH  49  63
BRANCH  50  74
ATOM     74  C   UNL A   1      42.067  26.665  27.570  1.00  0.00     0.023 A 
ATOM     75  C   UNL A   1      41.795  25.294  27.438  1.00  0.00     0.031 A 
ATOM     76  C   UNL A   1      42.842  27.280  26.570  1.00  0.00     0.131 A 
ATOM     77  C   UNL A   1      42.340  24.572  26.365  1.00  0.00     0.055 A 
ATOM     78  C   UNL A   1      43.330  26.570  25.472  1.00  0.00     0.041 A 
ATOM     79  F   UNL A   1      43.129  28.589  26.642  1.00  0.00    -0.206 F 
ATOM     80  C   UNL A   1      43.093  25.203  25.374  1.00  0.00     0.022 A 
BRANCH  77  81
ATOM     81  S   UNL A   1      42.136  22.769  26.342  1.00  0.00     0.124 S 
ATOM     82  O   UNL A   1      42.957  22.364  27.478  1.00  0.00    -0.237 OA
ATOM     83  O   UNL A   1      40.694  22.625  26.508  1.00  0.00    -0.237 OA
ATOM     84  O   UNL A   1      42.653  22.386  25.030  1.00  0.00    -0.744 OA
ENDBRANCH  77  81
ENDBRANCH  50  74
BRANCH  62  85
ATOM     85  C   UNL A   1      44.613  27.616  33.998  1.00  0.00     0.023 A 
ATOM     86  C   UNL A   1      44.548  26.399  34.696  1.00  0.00     0.031 A 
ATOM     87  C   UNL A   1      45.843  28.300  33.974  1.00  0.00     0.131 A 
ATOM     88  C   UNL A   1      45.673  25.933  35.393  1.00  0.00     0.055 A 
ATOM     89  C   UNL A   1      46.977  27.796  34.609  1.00  0.00     0.041 A 
ATOM     90  F   UNL A   1      45.962  29.470  33.324  1.00  0.00    -0.206 F 
ATOM     91  C   UNL A   1      46.892  26.613  35.336  1.00  0.00     0.022 A 
BRANCH  88  92
ATOM     92  S   UNL A   1      45.492  24.480  36.463  1.00  0.00     0.124 S 
ATOM     93  O   UNL A   1      44.483  23.703  35.750  1.00  0.00    -0.237 OA
ATOM     94  O   UNL A   1      46.840  23.924  36.465  1.00  0.00    -0.237 OA
ATOM     95  O   UNL A   1      45.052  25.045  37.737  1.00  0.00    -0.744 OA
ENDBRANCH  88  92
ENDBRANCH  62  85
ENDBRANCH  36  37
ENDBRANCH  28  31
ENDBRANCH  26  27
ENDBRANCH   1  26
TORSDOF 17
ENDMDL
