MODEL 1
REMARK VINA RESULT:     -11.4      0.000      0.000
REMARK SMILES Cc1ncsc1CCC(=O)N[C@@H](Cc1cnc[nH]1)C(=O)NCCCNC(=O)c1ccc(-c2c3nc(c(-c4cc(S(=O)(=O)[O-])ccc4F)c4ccc([nH]4)c(-c4cc(S(=O)(=O)[O-])ccc4F)c4nc(c(-c5cc(S(=O)(=O)[O-])ccc5F)c5ccc2[nH]5)C=C4)C=C3)cc1
REMARK SMILES IDX 22 1 21 2 19 3 20 4 12 6 11 7 9 8 10 9 8 11 7 12 6 13 1 14
REMARK SMILES IDX 2 15 3 16 4 17 5 18 13 19 14 20 15 21 18 22 16 23 17 24
REMARK SMILES IDX 23 26 24 27 25 28 26 29 27 31 28 32 29 33 90 34 30 35 89 36
REMARK SMILES IDX 31 37 32 38 33 39 83 40 34 41 88 42 82 43 84 44 35 45 87 46
REMARK SMILES IDX 81 47 80 48 36 50 68 51 48 52 67 53 49 54 52 55 66 56 85 57
REMARK SMILES IDX 50 58 51 59 65 61 86 62 53 63 37 64 38 65 46 66 39 67 45 68
REMARK SMILES IDX 47 69 44 70 40 71 41 72 42 73 43 74 69 75 70 76 78 77 71 78
REMARK SMILES IDX 77 79 79 80 76 81 72 82 73 83 74 84 75 85 54 86 55 87 63 88
REMARK SMILES IDX 56 89 62 90 64 91 61 92 57 93 58 94 59 95 60 96
REMARK H PARENT 21 5 11 10 18 25 25 30 84 49 52 60
REMARK Flexibility Score: inf
ROOT
ATOM      1  C   UNL A   1      34.238  21.390  26.996  1.00  0.00     0.117 C 
ENDROOT
BRANCH   1   2
ATOM      2  N   UNL A   1      32.852  21.782  27.118  1.00  0.00    -0.354 N 
ATOM      3  C   UNL A   1      32.041  22.321  26.167  1.00  0.00     0.242 C 
ATOM      4  O   UNL A   1      30.835  22.404  26.428  1.00  0.00    -0.273 OA
ATOM      5  H   UNL A   1      32.442  21.639  28.001  1.00  0.00     0.163 HD
BRANCH   3   6
ATOM      6  C   UNL A   1      32.577  22.838  24.813  1.00  0.00     0.177 C 
BRANCH   6   7
ATOM      7  N   UNL A   1      32.123  22.032  23.676  1.00  0.00    -0.344 N 
ATOM      8  C   UNL A   1      32.358  20.722  23.394  1.00  0.00     0.221 C 
ATOM      9  O   UNL A   1      31.852  20.255  22.372  1.00  0.00    -0.275 OA
ATOM     10  H   UNL A   1      31.565  22.509  23.019  1.00  0.00     0.164 HD
BRANCH   8  11
ATOM     11  C   UNL A   1      33.231  19.860  24.284  1.00  0.00     0.105 C 
BRANCH  11  12
ATOM     12  C   UNL A   1      32.539  18.557  24.694  1.00  0.00     0.058 C 
BRANCH  12  13
ATOM     13  C   UNL A   1      33.492  17.413  24.876  1.00  0.00     0.028 A 
ATOM     14  C   UNL A   1      31.940  15.467  25.565  1.00  0.00     0.068 C 
ATOM     15  C   UNL A   1      33.254  16.109  25.291  1.00  0.00     0.051 A 
ATOM     16  N   UNL A   1      34.395  15.349  25.496  1.00  0.00    -0.250 NA
ATOM     17  C   UNL A   1      35.455  16.029  25.128  1.00  0.00     0.176 A 
ATOM     18  S   UNL A   1      35.155  17.584  24.473  1.00  0.00    -0.127 S 
ENDBRANCH  12  13
ENDBRANCH  11  12
ENDBRANCH   8  11
ENDBRANCH   6   7
BRANCH   6  19
ATOM     19  C   UNL A   1      32.541  24.359  24.577  1.00  0.00     0.090 C 
BRANCH  19  20
ATOM     20  C   UNL A   1      32.595  24.927  23.203  1.00  0.00     0.037 A 
ATOM     21  C   UNL A   1      33.646  24.997  22.308  1.00  0.00     0.134 A 
ATOM     22  N   UNL A   1      31.515  25.409  22.497  1.00  0.00    -0.348 N 
ATOM     23  N   UNL A   1      33.257  25.602  21.146  1.00  0.00    -0.245 NA
ATOM     24  C   UNL A   1      31.979  25.858  21.292  1.00  0.00     0.196 A 
ATOM     25  H   UNL A   1      30.580  25.426  22.804  1.00  0.00     0.167 HD
ENDBRANCH  19  20
ENDBRANCH   6  19
ENDBRANCH   3   6
ENDBRANCH   1   2
BRANCH   1  26
ATOM     26  C   UNL A   1      35.218  22.540  26.940  1.00  0.00     0.042 C 
BRANCH  26  27
ATOM     27  C   UNL A   1      36.008  22.577  25.644  1.00  0.00     0.118 C 
BRANCH  27  28
ATOM     28  N   UNL A   1      37.011  21.520  25.543  1.00  0.00    -0.352 N 
ATOM     29  C   UNL A   1      38.355  21.504  25.855  1.00  0.00     0.251 C 
ATOM     30  H   UNL A   1      36.667  20.668  25.190  1.00  0.00     0.163 HD
ATOM     31  O   UNL A   1      39.033  20.527  25.574  1.00  0.00    -0.269 OA
BRANCH  29  32
ATOM     32  C   UNL A   1      38.980  22.686  26.485  1.00  0.00     0.039 A 
ATOM     33  C   UNL A   1      40.081  22.514  27.327  1.00  0.00     0.014 A 
ATOM     34  C   UNL A   1      38.512  23.966  26.205  1.00  0.00     0.014 A 
ATOM     35  C   UNL A   1      40.780  23.635  27.784  1.00  0.00     0.010 A 
ATOM     36  C   UNL A   1      39.289  25.066  26.533  1.00  0.00     0.010 A 
ATOM     37  C   UNL A   1      40.432  24.916  27.330  1.00  0.00    -0.014 A 
BRANCH  37  38
ATOM     38  C   UNL A   1      41.231  26.124  27.674  1.00  0.00     0.031 A 
ATOM     39  C   UNL A   1      40.601  27.225  28.488  1.00  0.00     0.074 A 
ATOM     40  C   UNL A   1      42.471  26.274  27.167  1.00  0.00     0.049 A 
ATOM     41  N   UNL A   1      41.059  28.418  28.763  1.00  0.00    -0.248 NA
ATOM     42  C   UNL A   1      39.251  26.967  29.013  1.00  0.00     0.031 C 
ATOM     43  C   UNL A   1      43.162  25.306  26.308  1.00  0.00     0.029 A 
ATOM     44  N   UNL A   1      43.370  27.304  27.286  1.00  0.00    -0.354 N 
ATOM     45  C   UNL A   1      40.040  29.062  29.458  1.00  0.00     0.074 A 
ATOM     46  C   UNL A   1      38.916  28.154  29.491  1.00  0.00     0.031 C 
ATOM     47  C   UNL A   1      44.387  25.771  26.015  1.00  0.00     0.029 A 
ATOM     48  C   UNL A   1      44.552  27.091  26.611  1.00  0.00     0.049 A 
ATOM     49  H   UNL A   1      43.187  28.120  27.804  1.00  0.00     0.167 HD
ATOM     50  C   UNL A   1      40.053  30.284  30.043  1.00  0.00     0.034 A 
ATOM     51  C   UNL A   1      45.638  27.876  26.480  1.00  0.00     0.034 A 
ATOM     52  C   UNL A   1      41.203  31.152  30.042  1.00  0.00     0.049 A 
ATOM     53  C   UNL A   1      45.637  29.226  27.152  1.00  0.00     0.074 A 
ATOM     54  C   UNL A   1      41.367  32.370  30.677  1.00  0.00     0.029 A 
ATOM     55  N   UNL A   1      42.391  30.891  29.369  1.00  0.00    -0.354 N 
ATOM     56  N   UNL A   1      44.686  29.795  27.858  1.00  0.00    -0.248 NA
ATOM     57  C   UNL A   1      46.854  30.036  27.014  1.00  0.00     0.031 C 
ATOM     58  C   UNL A   1      42.629  32.873  30.339  1.00  0.00     0.029 A 
ATOM     59  C   UNL A   1      43.280  31.938  29.549  1.00  0.00     0.049 A 
ATOM     60  H   UNL A   1      42.575  30.080  28.842  1.00  0.00     0.167 HD
ATOM     61  C   UNL A   1      45.202  31.021  28.267  1.00  0.00     0.074 A 
ATOM     62  C   UNL A   1      46.551  31.097  27.746  1.00  0.00     0.031 C 
ATOM     63  C   UNL A   1      44.616  31.998  29.005  1.00  0.00     0.034 A 
BRANCH  50  64
ATOM     64  C   UNL A   1      38.783  30.746  30.720  1.00  0.00     0.023 A 
ATOM     65  C   UNL A   1      37.724  31.318  29.991  1.00  0.00     0.031 A 
ATOM     66  C   UNL A   1      38.643  30.653  32.114  1.00  0.00     0.131 A 
ATOM     67  C   UNL A   1      36.617  31.855  30.665  1.00  0.00     0.055 A 
ATOM     68  C   UNL A   1      37.498  31.109  32.773  1.00  0.00     0.041 A 
ATOM     69  F   UNL A   1      39.627  30.135  32.867  1.00  0.00    -0.206 F 
ATOM     70  C   UNL A   1      36.484  31.730  32.050  1.00  0.00     0.022 A 
BRANCH  67  71
ATOM     71  S   UNL A   1      35.432  32.852  29.723  1.00  0.00     0.124 S 
ATOM     72  O   UNL A   1      36.239  34.023  29.382  1.00  0.00    -0.237 OA
ATOM     73  O   UNL A   1      35.087  31.970  28.614  1.00  0.00    -0.237 OA
ATOM     74  O   UNL A   1      34.356  33.102  30.680  1.00  0.00    -0.744 OA
ENDBRANCH  67  71
ENDBRANCH  50  64
BRANCH  51  75
ATOM     75  C   UNL A   1      46.814  27.421  25.683  1.00  0.00     0.023 A 
ATOM     76  C   UNL A   1      46.990  27.843  24.355  1.00  0.00     0.031 A 
ATOM     77  C   UNL A   1      47.758  26.530  26.222  1.00  0.00     0.131 A 
ATOM     78  C   UNL A   1      48.060  27.339  23.596  1.00  0.00     0.055 A 
ATOM     79  C   UNL A   1      48.848  26.071  25.479  1.00  0.00     0.041 A 
ATOM     80  F   UNL A   1      47.642  26.101  27.489  1.00  0.00    -0.206 F 
ATOM     81  C   UNL A   1      48.996  26.466  24.153  1.00  0.00     0.022 A 
BRANCH  78  82
ATOM     82  S   UNL A   1      48.162  27.782  21.840  1.00  0.00     0.124 S 
ATOM     83  O   UNL A   1      49.310  28.681  21.826  1.00  0.00    -0.237 OA
ATOM     84  O   UNL A   1      48.358  26.480  21.211  1.00  0.00    -0.237 OA
ATOM     85  O   UNL A   1      46.871  28.413  21.574  1.00  0.00    -0.744 OA
ENDBRANCH  78  82
ENDBRANCH  51  75
BRANCH  63  86
ATOM     86  C   UNL A   1      45.453  33.213  29.312  1.00  0.00     0.023 A 
ATOM     87  C   UNL A   1      45.385  34.370  28.518  1.00  0.00     0.031 A 
ATOM     88  C   UNL A   1      46.333  33.209  30.408  1.00  0.00     0.131 A 
ATOM     89  C   UNL A   1      46.223  35.459  28.799  1.00  0.00     0.055 A 
ATOM     90  C   UNL A   1      47.121  34.318  30.719  1.00  0.00     0.041 A 
ATOM     91  F   UNL A   1      46.437  32.129  31.197  1.00  0.00    -0.206 F 
ATOM     92  C   UNL A   1      47.078  35.446  29.904  1.00  0.00     0.022 A 
BRANCH  89  93
ATOM     93  S   UNL A   1      46.242  36.861  27.649  1.00  0.00     0.124 S 
ATOM     94  O   UNL A   1      46.391  36.193  26.360  1.00  0.00    -0.237 OA
ATOM     95  O   UNL A   1      44.948  37.486  27.898  1.00  0.00    -0.237 OA
ATOM     96  O   UNL A   1      47.400  37.641  28.080  1.00  0.00    -0.744 OA
ENDBRANCH  89  93
ENDBRANCH  63  86
ENDBRANCH  37  38
ENDBRANCH  29  32
ENDBRANCH  27  28
ENDBRANCH  26  27
ENDBRANCH   1  26
TORSDOF 19
ENDMDL
MODEL 2
REMARK VINA RESULT:     -11.4      2.142      3.393
REMARK SMILES Cc1ncsc1CCC(=O)N[C@@H](Cc1cnc[nH]1)C(=O)NCCCNC(=O)c1ccc(-c2c3nc(c(-c4cc(S(=O)(=O)[O-])ccc4F)c4ccc([nH]4)c(-c4cc(S(=O)(=O)[O-])ccc4F)c4nc(c(-c5cc(S(=O)(=O)[O-])ccc5F)c5ccc2[nH]5)C=C4)C=C3)cc1
REMARK SMILES IDX 22 1 21 2 19 3 20 4 12 6 11 7 9 8 10 9 8 11 7 12 6 13 1 14
REMARK SMILES IDX 2 15 3 16 4 17 5 18 13 19 14 20 15 21 18 22 16 23 17 24
REMARK SMILES IDX 23 26 24 27 25 28 26 29 27 31 28 32 29 33 90 34 30 35 89 36
REMARK SMILES IDX 31 37 32 38 33 39 83 40 34 41 88 42 82 43 84 44 35 45 87 46
REMARK SMILES IDX 81 47 80 48 36 50 68 51 48 52 67 53 49 54 52 55 66 56 85 57
REMARK SMILES IDX 50 58 51 59 65 61 86 62 53 63 37 64 38 65 46 66 39 67 45 68
REMARK SMILES IDX 47 69 44 70 40 71 41 72 42 73 43 74 69 75 70 76 78 77 71 78
REMARK SMILES IDX 77 79 79 80 76 81 72 82 73 83 74 84 75 85 54 86 55 87 63 88
REMARK SMILES IDX 56 89 62 90 64 91 61 92 57 93 58 94 59 95 60 96
REMARK H PARENT 21 5 11 10 18 25 25 30 84 49 52 60
REMARK Flexibility Score: inf
ROOT
ATOM      1  C   UNL A   1      35.879  21.223  24.730  1.00  0.00     0.117 C 
ENDROOT
BRANCH   1   2
ATOM      2  N   UNL A   1      35.466  21.352  26.108  1.00  0.00    -0.354 N 
ATOM      3  C   UNL A   1      34.213  21.556  26.599  1.00  0.00     0.242 C 
ATOM      4  O   UNL A   1      34.054  21.446  27.820  1.00  0.00    -0.273 OA
ATOM      5  H   UNL A   1      36.183  21.284  26.780  1.00  0.00     0.163 HD
BRANCH   3   6
ATOM      6  C   UNL A   1      33.018  21.933  25.694  1.00  0.00     0.177 C 
BRANCH   6   7
ATOM      7  N   UNL A   1      32.695  20.891  24.715  1.00  0.00    -0.344 N 
ATOM      8  C   UNL A   1      32.362  21.011  23.401  1.00  0.00     0.221 C 
ATOM      9  O   UNL A   1      32.144  19.976  22.768  1.00  0.00    -0.275 OA
ATOM     10  H   UNL A   1      32.723  19.969  25.058  1.00  0.00     0.164 HD
BRANCH   8  11
ATOM     11  C   UNL A   1      32.235  22.365  22.731  1.00  0.00     0.105 C 
BRANCH  11  12
ATOM     12  C   UNL A   1      33.587  23.063  22.567  1.00  0.00     0.058 C 
BRANCH  12  13
ATOM     13  C   UNL A   1      33.519  24.545  22.792  1.00  0.00     0.028 A 
ATOM     14  C   UNL A   1      34.836  24.861  24.991  1.00  0.00     0.068 C 
ATOM     15  C   UNL A   1      34.006  25.313  23.842  1.00  0.00     0.051 A 
ATOM     16  N   UNL A   1      33.631  26.648  23.805  1.00  0.00    -0.250 NA
ATOM     17  C   UNL A   1      32.982  26.898  22.693  1.00  0.00     0.176 A 
ATOM     18  S   UNL A   1      32.823  25.581  21.608  1.00  0.00    -0.127 S 
ENDBRANCH  12  13
ENDBRANCH  11  12
ENDBRANCH   8  11
ENDBRANCH   6   7
BRANCH   6  19
ATOM     19  C   UNL A   1      31.795  22.575  26.375  1.00  0.00     0.090 C 
BRANCH  19  20
ATOM     20  C   UNL A   1      31.359  23.956  26.035  1.00  0.00     0.037 A 
ATOM     21  C   UNL A   1      30.601  24.416  24.975  1.00  0.00     0.134 A 
ATOM     22  N   UNL A   1      31.549  25.068  26.824  1.00  0.00    -0.348 N 
ATOM     23  N   UNL A   1      30.432  25.770  25.048  1.00  0.00    -0.245 NA
ATOM     24  C   UNL A   1      31.028  26.141  26.156  1.00  0.00     0.196 A 
ATOM     25  H   UNL A   1      31.982  25.088  27.709  1.00  0.00     0.167 HD
ENDBRANCH  19  20
ENDBRANCH   6  19
ENDBRANCH   3   6
ENDBRANCH   1   2
BRANCH   1  26
ATOM     26  C   UNL A   1      37.366  21.361  24.498  1.00  0.00     0.042 C 
BRANCH  26  27
ATOM     27  C   UNL A   1      38.173  21.278  25.781  1.00  0.00     0.118 C 
BRANCH  27  28
ATOM     28  N   UNL A   1      39.051  20.112  25.843  1.00  0.00    -0.352 N 
ATOM     29  C   UNL A   1      40.400  19.998  26.106  1.00  0.00     0.251 C 
ATOM     30  H   UNL A   1      38.599  19.255  25.666  1.00  0.00     0.163 HD
ATOM     31  O   UNL A   1      40.954  18.915  25.987  1.00  0.00    -0.269 OA
BRANCH  29  32
ATOM     32  C   UNL A   1      41.181  21.195  26.483  1.00  0.00     0.039 A 
ATOM     33  C   UNL A   1      41.871  21.903  25.497  1.00  0.00     0.014 A 
ATOM     34  C   UNL A   1      41.194  21.645  27.800  1.00  0.00     0.014 A 
ATOM     35  C   UNL A   1      42.465  23.127  25.817  1.00  0.00     0.010 A 
ATOM     36  C   UNL A   1      41.650  22.923  28.082  1.00  0.00     0.010 A 
ATOM     37  C   UNL A   1      42.296  23.680  27.095  1.00  0.00    -0.014 A 
BRANCH  37  38
ATOM     38  C   UNL A   1      42.787  25.041  27.442  1.00  0.00     0.031 A 
ATOM     39  C   UNL A   1      41.854  26.022  28.106  1.00  0.00     0.074 A 
ATOM     40  C   UNL A   1      44.023  25.425  27.066  1.00  0.00     0.049 A 
ATOM     41  N   UNL A   1      42.025  27.295  28.349  1.00  0.00    -0.248 NA
ATOM     42  C   UNL A   1      40.530  25.512  28.496  1.00  0.00     0.031 C 
ATOM     43  C   UNL A   1      44.995  24.586  26.357  1.00  0.00     0.029 A 
ATOM     44  N   UNL A   1      44.675  26.623  27.214  1.00  0.00    -0.354 N 
ATOM     45  C   UNL A   1      40.820  27.743  28.882  1.00  0.00     0.074 A 
ATOM     46  C   UNL A   1      39.907  26.623  28.853  1.00  0.00     0.031 C 
ATOM     47  C   UNL A   1      46.127  25.282  26.169  1.00  0.00     0.029 A 
ATOM     48  C   UNL A   1      45.949  26.632  26.690  1.00  0.00     0.049 A 
ATOM     49  H   UNL A   1      44.270  27.405  27.653  1.00  0.00     0.167 HD
ATOM     50  C   UNL A   1      40.515  28.964  29.382  1.00  0.00     0.034 A 
ATOM     51  C   UNL A   1      46.862  27.620  26.625  1.00  0.00     0.034 A 
ATOM     52  C   UNL A   1      41.458  30.052  29.448  1.00  0.00     0.049 A 
ATOM     53  C   UNL A   1      46.507  28.967  27.201  1.00  0.00     0.074 A 
ATOM     54  C   UNL A   1      41.295  31.304  30.014  1.00  0.00     0.029 A 
ATOM     55  N   UNL A   1      42.747  30.015  28.929  1.00  0.00    -0.354 N 
ATOM     56  N   UNL A   1      45.382  29.356  27.758  1.00  0.00    -0.248 NA
ATOM     57  C   UNL A   1      47.543  30.006  27.143  1.00  0.00     0.031 C 
ATOM     58  C   UNL A   1      42.460  32.043  29.784  1.00  0.00     0.029 A 
ATOM     59  C   UNL A   1      43.378  31.231  29.136  1.00  0.00     0.049 A 
ATOM     60  H   UNL A   1      43.154  29.238  28.482  1.00  0.00     0.167 HD
ATOM     61  C   UNL A   1      45.586  30.680  28.137  1.00  0.00     0.074 A 
ATOM     62  C   UNL A   1      46.946  31.012  27.764  1.00  0.00     0.031 C 
ATOM     63  C   UNL A   1      44.731  31.544  28.739  1.00  0.00     0.034 A 
BRANCH  50  64
ATOM     64  C   UNL A   1      39.105  29.181  29.881  1.00  0.00     0.023 A 
ATOM     65  C   UNL A   1      38.130  29.813  29.089  1.00  0.00     0.031 A 
ATOM     66  C   UNL A   1      38.741  28.790  31.181  1.00  0.00     0.131 A 
ATOM     67  C   UNL A   1      36.872  30.114  29.632  1.00  0.00     0.055 A 
ATOM     68  C   UNL A   1      37.457  29.013  31.685  1.00  0.00     0.041 A 
ATOM     69  F   UNL A   1      39.633  28.200  31.992  1.00  0.00    -0.206 F 
ATOM     70  C   UNL A   1      36.519  29.695  30.916  1.00  0.00     0.022 A 
BRANCH  67  71
ATOM     71  S   UNL A   1      35.762  31.196  28.691  1.00  0.00     0.124 S 
ATOM     72  O   UNL A   1      35.091  30.238  27.814  1.00  0.00    -0.237 OA
ATOM     73  O   UNL A   1      34.938  31.790  29.737  1.00  0.00    -0.237 OA
ATOM     74  O   UNL A   1      36.673  32.118  28.015  1.00  0.00    -0.744 OA
ENDBRANCH  67  71
ENDBRANCH  50  64
BRANCH  51  75
ATOM     75  C   UNL A   1      48.194  27.385  25.996  1.00  0.00     0.023 A 
ATOM     76  C   UNL A   1      48.370  27.534  24.610  1.00  0.00     0.031 A 
ATOM     77  C   UNL A   1      49.299  26.974  26.760  1.00  0.00     0.131 A 
ATOM     78  C   UNL A   1      49.611  27.230  24.026  1.00  0.00     0.055 A 
ATOM     79  C   UNL A   1      50.545  26.721  26.181  1.00  0.00     0.041 A 
ATOM     80  F   UNL A   1      49.188  26.824  28.090  1.00  0.00    -0.206 F 
ATOM     81  C   UNL A   1      50.702  26.836  24.803  1.00  0.00     0.022 A 
BRANCH  78  82
ATOM     82  S   UNL A   1      49.754  27.279  22.218  1.00  0.00     0.124 S 
ATOM     83  O   UNL A   1      48.688  26.371  21.810  1.00  0.00    -0.237 OA
ATOM     84  O   UNL A   1      49.534  28.694  21.936  1.00  0.00    -0.237 OA
ATOM     85  O   UNL A   1      51.112  26.800  21.972  1.00  0.00    -0.744 OA
ENDBRANCH  78  82
ENDBRANCH  51  75
BRANCH  63  86
ATOM     86  C   UNL A   1      45.261  32.919  29.054  1.00  0.00     0.023 A 
ATOM     87  C   UNL A   1      45.132  33.981  28.142  1.00  0.00     0.031 A 
ATOM     88  C   UNL A   1      45.910  33.166  30.276  1.00  0.00     0.131 A 
ATOM     89  C   UNL A   1      45.693  35.231  28.445  1.00  0.00     0.055 A 
ATOM     90  C   UNL A   1      46.412  34.428  30.597  1.00  0.00     0.041 A 
ATOM     91  F   UNL A   1      46.060  32.186  31.180  1.00  0.00    -0.206 F 
ATOM     92  C   UNL A   1      46.316  35.465  29.674  1.00  0.00     0.022 A 
BRANCH  89  93
ATOM     93  S   UNL A   1      45.669  36.524  27.175  1.00  0.00     0.124 S 
ATOM     94  O   UNL A   1      44.242  36.800  27.049  1.00  0.00    -0.237 OA
ATOM     95  O   UNL A   1      46.470  37.579  27.787  1.00  0.00    -0.237 OA
ATOM     96  O   UNL A   1      46.280  35.876  26.016  1.00  0.00    -0.744 OA
ENDBRANCH  89  93
ENDBRANCH  63  86
ENDBRANCH  37  38
ENDBRANCH  29  32
ENDBRANCH  27  28
ENDBRANCH  26  27
ENDBRANCH   1  26
TORSDOF 19
ENDMDL
MODEL 3
REMARK VINA RESULT:     -11.4      2.275      4.284
REMARK SMILES Cc1ncsc1CCC(=O)N[C@@H](Cc1cnc[nH]1)C(=O)NCCCNC(=O)c1ccc(-c2c3nc(c(-c4cc(S(=O)(=O)[O-])ccc4F)c4ccc([nH]4)c(-c4cc(S(=O)(=O)[O-])ccc4F)c4nc(c(-c5cc(S(=O)(=O)[O-])ccc5F)c5ccc2[nH]5)C=C4)C=C3)cc1
REMARK SMILES IDX 22 1 21 2 19 3 20 4 12 6 11 7 9 8 10 9 8 11 7 12 6 13 1 14
REMARK SMILES IDX 2 15 3 16 4 17 5 18 13 19 14 20 15 21 18 22 16 23 17 24
REMARK SMILES IDX 23 26 24 27 25 28 26 29 27 31 28 32 29 33 90 34 30 35 89 36
REMARK SMILES IDX 31 37 32 38 33 39 83 40 34 41 88 42 82 43 84 44 35 45 87 46
REMARK SMILES IDX 81 47 80 48 36 50 68 51 48 52 67 53 49 54 52 55 66 56 85 57
REMARK SMILES IDX 50 58 51 59 65 61 86 62 53 63 37 64 38 65 46 66 39 67 45 68
REMARK SMILES IDX 47 69 44 70 40 71 41 72 42 73 43 74 69 75 70 76 78 77 71 78
REMARK SMILES IDX 77 79 79 80 76 81 72 82 73 83 74 84 75 85 54 86 55 87 63 88
REMARK SMILES IDX 56 89 62 90 64 91 61 92 57 93 58 94 59 95 60 96
REMARK H PARENT 21 5 11 10 18 25 25 30 84 49 52 60
REMARK Flexibility Score: inf
ROOT
ATOM      1  C   UNL A   1      33.432  21.871  26.243  1.00  0.00     0.117 C 
ENDROOT
BRANCH   1   2
ATOM      2  N   UNL A   1      32.296  22.110  27.103  1.00  0.00    -0.354 N 
ATOM      3  C   UNL A   1      31.273  22.991  26.926  1.00  0.00     0.242 C 
ATOM      4  O   UNL A   1      30.304  22.900  27.689  1.00  0.00    -0.273 OA
ATOM      5  H   UNL A   1      32.255  21.565  27.923  1.00  0.00     0.163 HD
BRANCH   3   6
ATOM      6  C   UNL A   1      31.302  24.088  25.838  1.00  0.00     0.177 C 
BRANCH   6   7
ATOM      7  N   UNL A   1      32.393  25.049  26.027  1.00  0.00    -0.344 N 
ATOM      8  C   UNL A   1      32.389  26.402  25.884  1.00  0.00     0.221 C 
ATOM      9  O   UNL A   1      33.439  27.005  26.114  1.00  0.00    -0.275 OA
ATOM     10  H   UNL A   1      33.255  24.657  26.297  1.00  0.00     0.164 HD
BRANCH   8  11
ATOM     11  C   UNL A   1      31.152  27.153  25.434  1.00  0.00     0.105 C 
BRANCH  11  12
ATOM     12  C   UNL A   1      31.340  27.822  24.070  1.00  0.00     0.058 C 
BRANCH  12  13
ATOM     13  C   UNL A   1      30.600  29.121  23.941  1.00  0.00     0.028 A 
ATOM     14  C   UNL A   1      31.659  30.580  25.789  1.00  0.00     0.068 C 
ATOM     15  C   UNL A   1      30.696  30.282  24.695  1.00  0.00     0.051 A 
ATOM     16  N   UNL A   1      29.748  31.248  24.394  1.00  0.00    -0.250 NA
ATOM     17  C   UNL A   1      29.038  30.868  23.358  1.00  0.00     0.176 A 
ATOM     18  S   UNL A   1      29.486  29.370  22.655  1.00  0.00    -0.127 S 
ENDBRANCH  12  13
ENDBRANCH  11  12
ENDBRANCH   8  11
ENDBRANCH   6   7
BRANCH   6  19
ATOM     19  C   UNL A   1      31.087  23.639  24.381  1.00  0.00     0.090 C 
BRANCH  19  20
ATOM     20  C   UNL A   1      32.005  24.077  23.296  1.00  0.00     0.037 A 
ATOM     21  C   UNL A   1      33.321  23.738  23.051  1.00  0.00     0.134 A 
ATOM     22  N   UNL A   1      31.648  24.854  22.216  1.00  0.00    -0.348 N 
ATOM     23  N   UNL A   1      33.789  24.372  21.934  1.00  0.00    -0.245 NA
ATOM     24  C   UNL A   1      32.771  25.051  21.462  1.00  0.00     0.196 A 
ATOM     25  H   UNL A   1      30.748  25.204  22.022  1.00  0.00     0.167 HD
ENDBRANCH  19  20
ENDBRANCH   6  19
ENDBRANCH   3   6
ENDBRANCH   1   2
BRANCH   1  26
ATOM     26  C   UNL A   1      34.774  22.183  26.865  1.00  0.00     0.042 C 
BRANCH  26  27
ATOM     27  C   UNL A   1      35.815  22.597  25.840  1.00  0.00     0.118 C 
BRANCH  27  28
ATOM     28  N   UNL A   1      36.818  21.568  25.580  1.00  0.00    -0.352 N 
ATOM     29  C   UNL A   1      38.185  21.558  25.764  1.00  0.00     0.251 C 
ATOM     30  H   UNL A   1      36.453  20.732  25.208  1.00  0.00     0.163 HD
ATOM     31  O   UNL A   1      38.847  20.612  25.360  1.00  0.00    -0.269 OA
BRANCH  29  32
ATOM     32  C   UNL A   1      38.852  22.711  26.404  1.00  0.00     0.039 A 
ATOM     33  C   UNL A   1      39.969  22.496  27.214  1.00  0.00     0.014 A 
ATOM     34  C   UNL A   1      38.404  24.008  26.167  1.00  0.00     0.014 A 
ATOM     35  C   UNL A   1      40.703  23.591  27.678  1.00  0.00     0.010 A 
ATOM     36  C   UNL A   1      39.213  25.083  26.499  1.00  0.00     0.010 A 
ATOM     37  C   UNL A   1      40.372  24.890  27.263  1.00  0.00    -0.014 A 
BRANCH  37  38
ATOM     38  C   UNL A   1      41.205  26.072  27.614  1.00  0.00     0.031 A 
ATOM     39  C   UNL A   1      40.619  27.167  28.469  1.00  0.00     0.074 A 
ATOM     40  C   UNL A   1      42.435  26.208  27.080  1.00  0.00     0.049 A 
ATOM     41  N   UNL A   1      41.110  28.343  28.759  1.00  0.00    -0.248 NA
ATOM     42  C   UNL A   1      39.278  26.926  29.022  1.00  0.00     0.031 C 
ATOM     43  C   UNL A   1      43.084  25.245  26.183  1.00  0.00     0.029 A 
ATOM     44  N   UNL A   1      43.359  27.215  27.200  1.00  0.00    -0.354 N 
ATOM     45  C   UNL A   1      40.122  28.993  29.494  1.00  0.00     0.074 A 
ATOM     46  C   UNL A   1      38.980  28.108  29.535  1.00  0.00     0.031 C 
ATOM     47  C   UNL A   1      44.311  25.691  25.870  1.00  0.00     0.029 A 
ATOM     48  C   UNL A   1      44.519  26.993  26.492  1.00  0.00     0.049 A 
ATOM     49  H   UNL A   1      43.207  28.023  27.742  1.00  0.00     0.167 HD
ATOM     50  C   UNL A   1      40.176  30.200  30.107  1.00  0.00     0.034 A 
ATOM     51  C   UNL A   1      45.619  27.758  26.351  1.00  0.00     0.034 A 
ATOM     52  C   UNL A   1      41.345  31.043  30.096  1.00  0.00     0.049 A 
ATOM     53  C   UNL A   1      45.663  29.091  27.054  1.00  0.00     0.074 A 
ATOM     54  C   UNL A   1      41.550  32.242  30.754  1.00  0.00     0.029 A 
ATOM     55  N   UNL A   1      42.510  30.773  29.388  1.00  0.00    -0.354 N 
ATOM     56  N   UNL A   1      44.743  29.664  27.796  1.00  0.00    -0.248 NA
ATOM     57  C   UNL A   1      46.893  29.878  26.904  1.00  0.00     0.031 C 
ATOM     58  C   UNL A   1      42.814  32.726  30.397  1.00  0.00     0.029 A 
ATOM     59  C   UNL A   1      43.425  31.797  29.570  1.00  0.00     0.049 A 
ATOM     60  H   UNL A   1      42.663  29.970  28.839  1.00  0.00     0.167 HD
ATOM     61  C   UNL A   1      45.295  30.869  28.219  1.00  0.00     0.074 A 
ATOM     62  C   UNL A   1      46.632  30.929  27.667  1.00  0.00     0.031 C 
ATOM     63  C   UNL A   1      44.749  31.840  28.994  1.00  0.00     0.034 A 
BRANCH  50  64
ATOM     64  C   UNL A   1      38.933  30.673  30.825  1.00  0.00     0.023 A 
ATOM     65  C   UNL A   1      37.941  31.423  30.168  1.00  0.00     0.031 A 
ATOM     66  C   UNL A   1      38.755  30.408  32.193  1.00  0.00     0.131 A 
ATOM     67  C   UNL A   1      36.867  31.957  30.896  1.00  0.00     0.055 A 
ATOM     68  C   UNL A   1      37.637  30.867  32.894  1.00  0.00     0.041 A 
ATOM     69  F   UNL A   1      39.677  29.714  32.880  1.00  0.00    -0.206 F 
ATOM     70  C   UNL A   1      36.693  31.661  32.249  1.00  0.00     0.022 A 
BRANCH  67  71
ATOM     71  S   UNL A   1      35.788  33.166  30.083  1.00  0.00     0.124 S 
ATOM     72  O   UNL A   1      34.515  32.448  30.049  1.00  0.00    -0.237 OA
ATOM     73  O   UNL A   1      35.854  34.307  30.988  1.00  0.00    -0.237 OA
ATOM     74  O   UNL A   1      36.418  33.365  28.779  1.00  0.00    -0.744 OA
ENDBRANCH  67  71
ENDBRANCH  50  64
BRANCH  51  75
ATOM     75  C   UNL A   1      46.764  27.297  25.515  1.00  0.00     0.023 A 
ATOM     76  C   UNL A   1      46.959  27.802  24.219  1.00  0.00     0.031 A 
ATOM     77  C   UNL A   1      47.660  26.319  25.982  1.00  0.00     0.131 A 
ATOM     78  C   UNL A   1      47.996  27.295  23.418  1.00  0.00     0.055 A 
ATOM     79  C   UNL A   1      48.720  25.855  25.200  1.00  0.00     0.041 A 
ATOM     80  F   UNL A   1      47.525  25.808  27.217  1.00  0.00    -0.206 F 
ATOM     81  C   UNL A   1      48.885  26.334  23.904  1.00  0.00     0.022 A 
BRANCH  78  82
ATOM     82  S   UNL A   1      48.116  27.856  21.697  1.00  0.00     0.124 S 
ATOM     83  O   UNL A   1      48.351  26.602  20.991  1.00  0.00    -0.237 OA
ATOM     84  O   UNL A   1      46.810  28.474  21.489  1.00  0.00    -0.237 OA
ATOM     85  O   UNL A   1      49.245  28.782  21.720  1.00  0.00    -0.744 OA
ENDBRANCH  78  82
ENDBRANCH  51  75
BRANCH  63  86
ATOM     86  C   UNL A   1      45.619  33.031  29.308  1.00  0.00     0.023 A 
ATOM     87  C   UNL A   1      45.686  34.137  28.445  1.00  0.00     0.031 A 
ATOM     88  C   UNL A   1      46.395  33.052  30.480  1.00  0.00     0.131 A 
ATOM     89  C   UNL A   1      46.554  35.200  28.741  1.00  0.00     0.055 A 
ATOM     90  C   UNL A   1      47.210  34.138  30.799  1.00  0.00     0.041 A 
ATOM     91  F   UNL A   1      46.367  32.020  31.336  1.00  0.00    -0.206 F 
ATOM     92  C   UNL A   1      47.302  35.214  29.920  1.00  0.00     0.022 A 
BRANCH  89  93
ATOM     93  S   UNL A   1      46.753  36.524  27.518  1.00  0.00     0.124 S 
ATOM     94  O   UNL A   1      46.330  37.699  28.273  1.00  0.00    -0.237 OA
ATOM     95  O   UNL A   1      48.175  36.447  27.203  1.00  0.00    -0.237 OA
ATOM     96  O   UNL A   1      45.855  36.127  26.435  1.00  0.00    -0.744 OA
ENDBRANCH  89  93
ENDBRANCH  63  86
ENDBRANCH  37  38
ENDBRANCH  29  32
ENDBRANCH  27  28
ENDBRANCH  26  27
ENDBRANCH   1  26
TORSDOF 19
ENDMDL
