MODEL 1
REMARK VINA RESULT:     -12.8      0.000      0.000
REMARK SMILES COc1ccc(-c2cc(F)cc(C(=O)NCCCNC(=O)c3ccc(-c4c5nc(c(-c6cc(S(=O)(=O)[O-])ccc6F)c6ccc([nH]6)c(-c6cc(S(=O)(=O)[O-])ccc6F)c6nc(c(-c7cc(S(=O)(=O)[O-])ccc7F)c7ccc4[nH]7)C=C6)C=C5)cc3)c2)cc1C
REMARK SMILES IDX 17 1 16 2 15 3 13 4 14 5 12 7 7 8 8 9 85 10 9 11 10 12 11 13
REMARK SMILES IDX 6 14 3 15 4 16 87 17 5 18 86 19 88 20 2 21 1 22 18 23 19 24
REMARK SMILES IDX 20 25 21 27 22 28 23 29 84 30 24 31 83 32 25 33 26 34 27 35
REMARK SMILES IDX 77 36 28 37 82 38 76 39 78 40 29 41 81 42 75 43 74 44 30 46
REMARK SMILES IDX 62 47 42 48 61 49 43 50 46 51 60 52 79 53 44 54 45 55 59 57
REMARK SMILES IDX 80 58 47 59 31 60 32 61 40 62 33 63 39 64 41 65 38 66 34 67
REMARK SMILES IDX 35 68 36 69 37 70 63 71 64 72 72 73 65 74 71 75 73 76 70 77
REMARK SMILES IDX 66 78 67 79 68 80 69 81 48 82 49 83 57 84 50 85 56 86 58 87
REMARK SMILES IDX 55 88 51 89 52 90 53 91 54 92
REMARK H PARENT 15 6 19 26 78 45 46 56
REMARK Flexibility Score: inf
ROOT
ATOM      1  C   UNL A   1      33.052  31.049  27.088  1.00  0.00     0.042 C 
ENDROOT
BRANCH   1   2
ATOM      2  C   UNL A   1      32.132  29.975  26.503  1.00  0.00     0.118 C 
BRANCH   2   3
ATOM      3  N   UNL A   1      32.417  29.730  25.093  1.00  0.00    -0.352 N 
ATOM      4  C   UNL A   1      32.432  28.602  24.313  1.00  0.00     0.251 C 
ATOM      5  O   UNL A   1      32.661  28.746  23.110  1.00  0.00    -0.269 OA
ATOM      6  H   UNL A   1      32.649  30.549  24.597  1.00  0.00     0.163 HD
BRANCH   4   7
ATOM      7  C   UNL A   1      32.190  27.211  24.813  1.00  0.00     0.043 A 
ATOM      8  C   UNL A   1      33.191  24.996  25.246  1.00  0.00    -0.015 A 
ATOM      9  C   UNL A   1      31.972  24.578  25.790  1.00  0.00     0.048 A 
ATOM     10  C   UNL A   1      33.284  26.317  24.768  1.00  0.00     0.022 A 
ATOM     11  C   UNL A   1      30.899  25.451  25.846  1.00  0.00     0.124 A 
ATOM     12  F   UNL A   1      29.745  25.038  26.386  1.00  0.00    -0.207 F 
ATOM     13  C   UNL A   1      30.998  26.751  25.366  1.00  0.00     0.053 A 
BRANCH   8  14
ATOM     14  C   UNL A   1      34.327  24.066  25.196  1.00  0.00    -0.018 A 
ATOM     15  C   UNL A   1      36.463  22.236  25.239  1.00  0.00     0.121 A 
ATOM     16  C   UNL A   1      36.703  23.599  25.418  1.00  0.00     0.047 A 
ATOM     17  C   UNL A   1      35.160  21.758  25.061  1.00  0.00    -0.008 A 
ATOM     18  C   UNL A   1      35.643  24.509  25.388  1.00  0.00     0.012 A 
ATOM     19  C   UNL A   1      34.109  22.687  25.018  1.00  0.00     0.016 A 
ATOM     20  C   UNL A   1      34.854  20.298  24.897  1.00  0.00     0.048 C 
BRANCH  15  21
ATOM     21  O   UNL A   1      37.539  21.394  25.337  1.00  0.00    -0.496 OA
ATOM     22  C   UNL A   1      38.643  22.042  25.966  1.00  0.00     0.278 C 
ENDBRANCH  15  21
ENDBRANCH   8  14
ENDBRANCH   4   7
ENDBRANCH   2   3
ENDBRANCH   1   2
BRANCH   1  23
ATOM     23  C   UNL A   1      34.286  30.483  27.773  1.00  0.00     0.118 C 
BRANCH  23  24
ATOM     24  N   UNL A   1      34.937  31.419  28.685  1.00  0.00    -0.352 N 
ATOM     25  C   UNL A   1      36.102  31.254  29.416  1.00  0.00     0.251 C 
ATOM     26  H   UNL A   1      34.486  32.287  28.796  1.00  0.00     0.163 HD
ATOM     27  O   UNL A   1      36.475  32.103  30.210  1.00  0.00    -0.269 OA
BRANCH  25  28
ATOM     28  C   UNL A   1      36.958  30.079  29.127  1.00  0.00     0.039 A 
ATOM     29  C   UNL A   1      37.096  29.117  30.136  1.00  0.00     0.014 A 
ATOM     30  C   UNL A   1      37.786  30.057  28.010  1.00  0.00     0.014 A 
ATOM     31  C   UNL A   1      38.214  28.288  30.138  1.00  0.00     0.010 A 
ATOM     32  C   UNL A   1      38.948  29.318  28.069  1.00  0.00     0.010 A 
ATOM     33  C   UNL A   1      39.189  28.477  29.161  1.00  0.00    -0.014 A 
BRANCH  33  34
ATOM     34  C   UNL A   1      40.532  27.921  29.241  1.00  0.00     0.031 A 
ATOM     35  C   UNL A   1      40.807  26.558  28.751  1.00  0.00     0.074 A 
ATOM     36  C   UNL A   1      41.556  28.694  29.666  1.00  0.00     0.049 A 
ATOM     37  N   UNL A   1      41.841  25.867  29.086  1.00  0.00    -0.248 NA
ATOM     38  C   UNL A   1      39.903  25.841  27.862  1.00  0.00     0.031 C 
ATOM     39  C   UNL A   1      42.986  28.427  29.533  1.00  0.00     0.029 A 
ATOM     40  N   UNL A   1      41.486  29.778  30.539  1.00  0.00    -0.354 N 
ATOM     41  C   UNL A   1      41.900  24.768  28.264  1.00  0.00     0.074 A 
ATOM     42  C   UNL A   1      40.636  24.765  27.563  1.00  0.00     0.031 C 
ATOM     43  C   UNL A   1      43.644  29.114  30.478  1.00  0.00     0.029 A 
ATOM     44  C   UNL A   1      42.650  29.729  31.336  1.00  0.00     0.049 A 
ATOM     45  H   UNL A   1      40.766  30.447  30.589  1.00  0.00     0.167 HD
ATOM     46  C   UNL A   1      43.061  24.059  28.187  1.00  0.00     0.034 A 
ATOM     47  C   UNL A   1      42.557  29.572  32.690  1.00  0.00     0.034 A 
ATOM     48  C   UNL A   1      44.072  24.567  29.118  1.00  0.00     0.049 A 
ATOM     49  C   UNL A   1      43.200  28.298  33.212  1.00  0.00     0.074 A 
ATOM     50  C   UNL A   1      45.223  25.329  28.998  1.00  0.00     0.029 A 
ATOM     51  N   UNL A   1      43.807  24.500  30.474  1.00  0.00    -0.354 N 
ATOM     52  N   UNL A   1      43.779  27.399  32.461  1.00  0.00    -0.248 NA
ATOM     53  C   UNL A   1      43.169  27.893  34.618  1.00  0.00     0.031 C 
ATOM     54  C   UNL A   1      45.646  25.706  30.309  1.00  0.00     0.029 A 
ATOM     55  C   UNL A   1      44.763  25.158  31.220  1.00  0.00     0.049 A 
ATOM     56  H   UNL A   1      43.029  24.038  30.860  1.00  0.00     0.167 HD
ATOM     57  C   UNL A   1      44.110  26.303  33.217  1.00  0.00     0.074 A 
ATOM     58  C   UNL A   1      43.721  26.667  34.567  1.00  0.00     0.031 C 
ATOM     59  C   UNL A   1      44.624  25.160  32.669  1.00  0.00     0.034 A 
BRANCH  46  60
ATOM     60  C   UNL A   1      43.371  23.040  27.116  1.00  0.00     0.023 A 
ATOM     61  C   UNL A   1      42.756  21.772  27.181  1.00  0.00     0.031 A 
ATOM     62  C   UNL A   1      44.258  23.222  26.038  1.00  0.00     0.131 A 
ATOM     63  C   UNL A   1      43.101  20.740  26.292  1.00  0.00     0.055 A 
ATOM     64  C   UNL A   1      44.651  22.176  25.190  1.00  0.00     0.041 A 
ATOM     65  F   UNL A   1      44.737  24.428  25.711  1.00  0.00    -0.206 F 
ATOM     66  C   UNL A   1      44.081  20.921  25.322  1.00  0.00     0.022 A 
BRANCH  63  67
ATOM     67  S   UNL A   1      42.235  19.151  26.415  1.00  0.00     0.124 S 
ATOM     68  O   UNL A   1      43.087  18.273  25.620  1.00  0.00    -0.237 OA
ATOM     69  O   UNL A   1      42.227  18.917  27.854  1.00  0.00    -0.237 OA
ATOM     70  O   UNL A   1      40.925  19.434  25.829  1.00  0.00    -0.744 OA
ENDBRANCH  63  67
ENDBRANCH  46  60
BRANCH  47  71
ATOM     71  C   UNL A   1      41.345  30.254  33.243  1.00  0.00     0.023 A 
ATOM     72  C   UNL A   1      41.386  31.668  33.310  1.00  0.00     0.031 A 
ATOM     73  C   UNL A   1      40.089  29.636  33.266  1.00  0.00     0.131 A 
ATOM     74  C   UNL A   1      40.206  32.415  33.195  1.00  0.00     0.055 A 
ATOM     75  C   UNL A   1      38.908  30.390  33.244  1.00  0.00     0.041 A 
ATOM     76  F   UNL A   1      39.979  28.303  33.167  1.00  0.00    -0.206 F 
ATOM     77  C   UNL A   1      38.963  31.783  33.155  1.00  0.00     0.022 A 
BRANCH  74  78
ATOM     78  S   UNL A   1      40.333  34.185  32.780  1.00  0.00     0.124 S 
ATOM     79  O   UNL A   1      41.128  34.701  33.888  1.00  0.00    -0.237 OA
ATOM     80  O   UNL A   1      40.989  34.168  31.474  1.00  0.00    -0.237 OA
ATOM     81  O   UNL A   1      38.942  34.631  32.739  1.00  0.00    -0.744 OA
ENDBRANCH  74  78
ENDBRANCH  47  71
BRANCH  59  82
ATOM     82  C   UNL A   1      44.991  23.916  33.449  1.00  0.00     0.023 A 
ATOM     83  C   UNL A   1      46.322  23.523  33.659  1.00  0.00     0.031 A 
ATOM     84  C   UNL A   1      44.001  23.030  33.945  1.00  0.00     0.131 A 
ATOM     85  C   UNL A   1      46.622  22.355  34.387  1.00  0.00     0.055 A 
ATOM     86  C   UNL A   1      44.303  21.833  34.597  1.00  0.00     0.041 A 
ATOM     87  F   UNL A   1      42.692  23.302  33.853  1.00  0.00    -0.206 F 
ATOM     88  C   UNL A   1      45.622  21.494  34.837  1.00  0.00     0.022 A 
BRANCH  85  89
ATOM     89  S   UNL A   1      48.351  22.009  34.800  1.00  0.00     0.124 S 
ATOM     90  O   UNL A   1      48.344  22.046  36.258  1.00  0.00    -0.237 OA
ATOM     91  O   UNL A   1      48.541  20.691  34.199  1.00  0.00    -0.237 OA
ATOM     92  O   UNL A   1      49.086  23.094  34.153  1.00  0.00    -0.744 OA
ENDBRANCH  85  89
ENDBRANCH  59  82
ENDBRANCH  33  34
ENDBRANCH  25  28
ENDBRANCH  23  24
ENDBRANCH   1  23
TORSDOF 15
ENDMDL
MODEL 2
REMARK VINA RESULT:     -12.7      2.550      2.994
REMARK SMILES COc1ccc(-c2cc(F)cc(C(=O)NCCCNC(=O)c3ccc(-c4c5nc(c(-c6cc(S(=O)(=O)[O-])ccc6F)c6ccc([nH]6)c(-c6cc(S(=O)(=O)[O-])ccc6F)c6nc(c(-c7cc(S(=O)(=O)[O-])ccc7F)c7ccc4[nH]7)C=C6)C=C5)cc3)c2)cc1C
REMARK SMILES IDX 17 1 16 2 15 3 13 4 14 5 12 7 7 8 8 9 85 10 9 11 10 12 11 13
REMARK SMILES IDX 6 14 3 15 4 16 87 17 5 18 86 19 88 20 2 21 1 22 18 23 19 24
REMARK SMILES IDX 20 25 21 27 22 28 23 29 84 30 24 31 83 32 25 33 26 34 27 35
REMARK SMILES IDX 77 36 28 37 82 38 76 39 78 40 29 41 81 42 75 43 74 44 30 46
REMARK SMILES IDX 62 47 42 48 61 49 43 50 46 51 60 52 79 53 44 54 45 55 59 57
REMARK SMILES IDX 80 58 47 59 31 60 32 61 40 62 33 63 39 64 41 65 38 66 34 67
REMARK SMILES IDX 35 68 36 69 37 70 63 71 64 72 72 73 65 74 71 75 73 76 70 77
REMARK SMILES IDX 66 78 67 79 68 80 69 81 48 82 49 83 57 84 50 85 56 86 58 87
REMARK SMILES IDX 55 88 51 89 52 90 53 91 54 92
REMARK H PARENT 15 6 19 26 78 45 46 56
REMARK Flexibility Score: inf
ROOT
ATOM      1  C   UNL A   1      33.329  28.510  27.221  1.00  0.00     0.042 C 
ENDROOT
BRANCH   1   2
ATOM      2  C   UNL A   1      32.019  28.114  26.537  1.00  0.00     0.118 C 
BRANCH   2   3
ATOM      3  N   UNL A   1      31.574  26.788  26.952  1.00  0.00    -0.352 N 
ATOM      4  C   UNL A   1      31.889  25.515  26.548  1.00  0.00     0.251 C 
ATOM      5  O   UNL A   1      31.367  24.579  27.158  1.00  0.00    -0.269 OA
ATOM      6  H   UNL A   1      30.906  26.811  27.675  1.00  0.00     0.163 HD
BRANCH   4   7
ATOM      7  C   UNL A   1      32.818  25.178  25.422  1.00  0.00     0.043 A 
ATOM      8  C   UNL A   1      34.955  24.117  24.789  1.00  0.00    -0.015 A 
ATOM      9  C   UNL A   1      34.658  24.376  23.446  1.00  0.00     0.048 A 
ATOM     10  C   UNL A   1      34.021  24.519  25.762  1.00  0.00     0.022 A 
ATOM     11  C   UNL A   1      33.478  25.014  23.105  1.00  0.00     0.124 A 
ATOM     12  F   UNL A   1      33.203  25.239  21.813  1.00  0.00    -0.207 F 
ATOM     13  C   UNL A   1      32.565  25.413  24.073  1.00  0.00     0.053 A 
BRANCH   8  14
ATOM     14  C   UNL A   1      36.207  23.434  25.142  1.00  0.00    -0.018 A 
ATOM     15  C   UNL A   1      38.527  22.049  25.922  1.00  0.00     0.121 A 
ATOM     16  C   UNL A   1      38.345  23.380  26.299  1.00  0.00     0.047 A 
ATOM     17  C   UNL A   1      37.552  21.378  25.176  1.00  0.00    -0.008 A 
ATOM     18  C   UNL A   1      37.196  24.071  25.904  1.00  0.00     0.012 A 
ATOM     19  C   UNL A   1      36.412  22.091  24.774  1.00  0.00     0.016 A 
ATOM     20  C   UNL A   1      37.693  19.938  24.778  1.00  0.00     0.048 C 
BRANCH  15  21
ATOM     21  O   UNL A   1      39.647  21.414  26.392  1.00  0.00    -0.496 OA
ATOM     22  C   UNL A   1      40.722  22.335  26.572  1.00  0.00     0.278 C 
ENDBRANCH  15  21
ENDBRANCH   8  14
ENDBRANCH   4   7
ENDBRANCH   2   3
ENDBRANCH   1   2
BRANCH   1  23
ATOM     23  C   UNL A   1      34.078  29.620  26.499  1.00  0.00     0.118 C 
BRANCH  23  24
ATOM     24  N   UNL A   1      34.368  30.779  27.337  1.00  0.00    -0.352 N 
ATOM     25  C   UNL A   1      35.403  30.965  28.238  1.00  0.00     0.251 C 
ATOM     26  H   UNL A   1      33.741  31.533  27.250  1.00  0.00     0.163 HD
ATOM     27  O   UNL A   1      35.462  31.965  28.935  1.00  0.00    -0.269 OA
BRANCH  25  28
ATOM     28  C   UNL A   1      36.512  29.982  28.254  1.00  0.00     0.039 A 
ATOM     29  C   UNL A   1      36.619  29.148  29.375  1.00  0.00     0.014 A 
ATOM     30  C   UNL A   1      37.545  30.055  27.325  1.00  0.00     0.014 A 
ATOM     31  C   UNL A   1      37.851  28.578  29.685  1.00  0.00     0.010 A 
ATOM     32  C   UNL A   1      38.789  29.586  27.688  1.00  0.00     0.010 A 
ATOM     33  C   UNL A   1      38.954  28.898  28.896  1.00  0.00    -0.014 A 
BRANCH  33  34
ATOM     34  C   UNL A   1      40.332  28.648  29.293  1.00  0.00     0.031 A 
ATOM     35  C   UNL A   1      41.036  27.440  28.827  1.00  0.00     0.074 A 
ATOM     36  C   UNL A   1      41.007  29.580  30.003  1.00  0.00     0.049 A 
ATOM     37  N   UNL A   1      42.096  26.964  29.385  1.00  0.00    -0.248 NA
ATOM     38  C   UNL A   1      40.572  26.639  27.702  1.00  0.00     0.031 C 
ATOM     39  C   UNL A   1      42.448  29.652  30.230  1.00  0.00     0.029 A 
ATOM     40  N   UNL A   1      40.470  30.522  30.878  1.00  0.00    -0.354 N 
ATOM     41  C   UNL A   1      42.613  25.999  28.555  1.00  0.00     0.074 A 
ATOM     42  C   UNL A   1      41.592  25.791  27.553  1.00  0.00     0.031 C 
ATOM     43  C   UNL A   1      42.674  30.363  31.344  1.00  0.00     0.029 A 
ATOM     44  C   UNL A   1      41.386  30.649  31.945  1.00  0.00     0.049 A 
ATOM     45  H   UNL A   1      39.620  31.006  30.772  1.00  0.00     0.167 HD
ATOM     46  C   UNL A   1      43.894  25.577  28.747  1.00  0.00     0.034 A 
ATOM     47  C   UNL A   1      41.012  30.333  33.220  1.00  0.00     0.034 A 
ATOM     48  C   UNL A   1      44.499  26.195  29.930  1.00  0.00     0.049 A 
ATOM     49  C   UNL A   1      41.800  29.185  33.831  1.00  0.00     0.074 A 
ATOM     50  C   UNL A   1      45.427  27.201  30.146  1.00  0.00     0.029 A 
ATOM     51  N   UNL A   1      43.941  25.928  31.167  1.00  0.00    -0.354 N 
ATOM     52  N   UNL A   1      42.741  28.521  33.213  1.00  0.00    -0.248 NA
ATOM     53  C   UNL A   1      41.532  28.636  35.160  1.00  0.00     0.031 C 
ATOM     54  C   UNL A   1      45.420  27.522  31.537  1.00  0.00     0.029 A 
ATOM     55  C   UNL A   1      44.504  26.698  32.164  1.00  0.00     0.049 A 
ATOM     56  H   UNL A   1      43.229  25.266  31.318  1.00  0.00     0.167 HD
ATOM     57  C   UNL A   1      43.135  27.452  33.977  1.00  0.00     0.074 A 
ATOM     58  C   UNL A   1      42.358  27.575  35.196  1.00  0.00     0.031 C 
ATOM     59  C   UNL A   1      44.025  26.516  33.526  1.00  0.00     0.034 A 
BRANCH  46  60
ATOM     60  C   UNL A   1      44.688  24.772  27.745  1.00  0.00     0.023 A 
ATOM     61  C   UNL A   1      45.558  25.446  26.863  1.00  0.00     0.031 A 
ATOM     62  C   UNL A   1      44.629  23.375  27.580  1.00  0.00     0.131 A 
ATOM     63  C   UNL A   1      46.224  24.769  25.826  1.00  0.00     0.055 A 
ATOM     64  C   UNL A   1      45.241  22.708  26.509  1.00  0.00     0.041 A 
ATOM     65  F   UNL A   1      44.035  22.580  28.479  1.00  0.00    -0.206 F 
ATOM     66  C   UNL A   1      46.035  23.408  25.616  1.00  0.00     0.022 A 
BRANCH  63  67
ATOM     67  S   UNL A   1      47.356  25.699  24.759  1.00  0.00     0.124 S 
ATOM     68  O   UNL A   1      46.547  26.853  24.380  1.00  0.00    -0.237 OA
ATOM     69  O   UNL A   1      48.477  25.961  25.654  1.00  0.00    -0.237 OA
ATOM     70  O   UNL A   1      47.641  24.763  23.671  1.00  0.00    -0.744 OA
ENDBRANCH  63  67
ENDBRANCH  46  60
BRANCH  47  71
ATOM     71  C   UNL A   1      39.576  30.667  33.474  1.00  0.00     0.023 A 
ATOM     72  C   UNL A   1      39.255  32.039  33.601  1.00  0.00     0.031 A 
ATOM     73  C   UNL A   1      38.539  29.781  33.155  1.00  0.00     0.131 A 
ATOM     74  C   UNL A   1      37.990  32.508  33.219  1.00  0.00     0.055 A 
ATOM     75  C   UNL A   1      37.250  30.247  32.863  1.00  0.00     0.041 A 
ATOM     76  F   UNL A   1      38.782  28.473  32.983  1.00  0.00    -0.206 F 
ATOM     77  C   UNL A   1      36.984  31.618  32.843  1.00  0.00     0.022 A 
BRANCH  74  78
ATOM     78  S   UNL A   1      37.778  34.292  32.916  1.00  0.00     0.124 S 
ATOM     79  O   UNL A   1      39.157  34.768  32.920  1.00  0.00    -0.237 OA
ATOM     80  O   UNL A   1      37.093  34.325  31.625  1.00  0.00    -0.237 OA
ATOM     81  O   UNL A   1      36.953  34.738  34.036  1.00  0.00    -0.744 OA
ENDBRANCH  74  78
ENDBRANCH  47  71
BRANCH  59  82
ATOM     82  C   UNL A   1      44.484  25.309  34.316  1.00  0.00     0.023 A 
ATOM     83  C   UNL A   1      45.837  25.060  34.597  1.00  0.00     0.031 A 
ATOM     84  C   UNL A   1      43.572  24.313  34.749  1.00  0.00     0.131 A 
ATOM     85  C   UNL A   1      46.223  23.922  35.331  1.00  0.00     0.055 A 
ATOM     86  C   UNL A   1      43.967  23.147  35.407  1.00  0.00     0.041 A 
ATOM     87  F   UNL A   1      42.248  24.441  34.586  1.00  0.00    -0.206 F 
ATOM     88  C   UNL A   1      45.301  22.951  35.717  1.00  0.00     0.022 A 
BRANCH  85  89
ATOM     89  S   UNL A   1      47.955  23.761  35.838  1.00  0.00     0.124 S 
ATOM     90  O   UNL A   1      48.065  22.341  36.150  1.00  0.00    -0.237 OA
ATOM     91  O   UNL A   1      48.656  24.203  34.634  1.00  0.00    -0.237 OA
ATOM     92  O   UNL A   1      48.066  24.663  36.983  1.00  0.00    -0.744 OA
ENDBRANCH  85  89
ENDBRANCH  59  82
ENDBRANCH  33  34
ENDBRANCH  25  28
ENDBRANCH  23  24
ENDBRANCH   1  23
TORSDOF 15
ENDMDL
MODEL 3
REMARK VINA RESULT:     -12.7      4.155     10.726
REMARK SMILES COc1ccc(-c2cc(F)cc(C(=O)NCCCNC(=O)c3ccc(-c4c5nc(c(-c6cc(S(=O)(=O)[O-])ccc6F)c6ccc([nH]6)c(-c6cc(S(=O)(=O)[O-])ccc6F)c6nc(c(-c7cc(S(=O)(=O)[O-])ccc7F)c7ccc4[nH]7)C=C6)C=C5)cc3)c2)cc1C
REMARK SMILES IDX 17 1 16 2 15 3 13 4 14 5 12 7 7 8 8 9 85 10 9 11 10 12 11 13
REMARK SMILES IDX 6 14 3 15 4 16 87 17 5 18 86 19 88 20 2 21 1 22 18 23 19 24
REMARK SMILES IDX 20 25 21 27 22 28 23 29 84 30 24 31 83 32 25 33 26 34 27 35
REMARK SMILES IDX 77 36 28 37 82 38 76 39 78 40 29 41 81 42 75 43 74 44 30 46
REMARK SMILES IDX 62 47 42 48 61 49 43 50 46 51 60 52 79 53 44 54 45 55 59 57
REMARK SMILES IDX 80 58 47 59 31 60 32 61 40 62 33 63 39 64 41 65 38 66 34 67
REMARK SMILES IDX 35 68 36 69 37 70 63 71 64 72 72 73 65 74 71 75 73 76 70 77
REMARK SMILES IDX 66 78 67 79 68 80 69 81 48 82 49 83 57 84 50 85 56 86 58 87
REMARK SMILES IDX 55 88 51 89 52 90 53 91 54 92
REMARK H PARENT 15 6 19 26 78 45 46 56
REMARK Flexibility Score: inf
ROOT
ATOM      1  C   UNL A   1      38.358  21.456  25.711  1.00  0.00     0.042 C 
ENDROOT
BRANCH   1   2
ATOM      2  C   UNL A   1      37.097  21.551  24.849  1.00  0.00     0.118 C 
BRANCH   2   3
ATOM      3  N   UNL A   1      35.894  21.260  25.620  1.00  0.00    -0.352 N 
ATOM      4  C   UNL A   1      34.600  21.713  25.561  1.00  0.00     0.251 C 
ATOM      5  O   UNL A   1      33.786  21.211  26.339  1.00  0.00    -0.269 OA
ATOM      6  H   UNL A   1      36.042  20.600  26.336  1.00  0.00     0.163 HD
BRANCH   4   7
ATOM      7  C   UNL A   1      34.104  22.769  24.622  1.00  0.00     0.043 A 
ATOM      8  C   UNL A   1      33.523  25.154  24.359  1.00  0.00    -0.015 A 
ATOM      9  C   UNL A   1      33.270  24.919  23.003  1.00  0.00     0.048 A 
ATOM     10  C   UNL A   1      33.944  24.070  25.152  1.00  0.00     0.022 A 
ATOM     11  C   UNL A   1      33.433  23.648  22.476  1.00  0.00     0.124 A 
ATOM     12  F   UNL A   1      33.203  23.445  21.171  1.00  0.00    -0.207 F 
ATOM     13  C   UNL A   1      33.844  22.583  23.267  1.00  0.00     0.053 A 
BRANCH   8  14
ATOM     14  C   UNL A   1      33.354  26.506  24.909  1.00  0.00    -0.018 A 
ATOM     15  C   UNL A   1      32.888  29.091  25.915  1.00  0.00     0.121 A 
ATOM     16  C   UNL A   1      33.643  28.915  24.754  1.00  0.00     0.047 A 
ATOM     17  C   UNL A   1      32.334  27.992  26.579  1.00  0.00    -0.008 A 
ATOM     18  C   UNL A   1      33.881  27.630  24.259  1.00  0.00     0.012 A 
ATOM     19  C   UNL A   1      32.596  26.707  26.078  1.00  0.00     0.016 A 
ATOM     20  C   UNL A   1      31.489  28.139  27.811  1.00  0.00     0.048 C 
BRANCH  15  21
ATOM     21  O   UNL A   1      32.644  30.380  26.312  1.00  0.00    -0.496 OA
ATOM     22  C   UNL A   1      33.609  30.815  27.268  1.00  0.00     0.278 C 
ENDBRANCH  15  21
ENDBRANCH   8  14
ENDBRANCH   4   7
ENDBRANCH   2   3
ENDBRANCH   1   2
BRANCH   1  23
ATOM     23  C   UNL A   1      38.874  22.807  26.182  1.00  0.00     0.118 C 
BRANCH  23  24
ATOM     24  N   UNL A   1      40.327  22.878  26.295  1.00  0.00    -0.352 N 
ATOM     25  C   UNL A   1      41.129  23.982  26.532  1.00  0.00     0.251 C 
ATOM     26  H   UNL A   1      40.803  22.023  26.188  1.00  0.00     0.163 HD
ATOM     27  O   UNL A   1      42.346  23.895  26.512  1.00  0.00    -0.269 OA
BRANCH  25  28
ATOM     28  C   UNL A   1      40.481  25.253  26.936  1.00  0.00     0.039 A 
ATOM     29  C   UNL A   1      40.782  26.397  26.186  1.00  0.00     0.014 A 
ATOM     30  C   UNL A   1      39.811  25.358  28.150  1.00  0.00     0.014 A 
ATOM     31  C   UNL A   1      40.625  27.653  26.766  1.00  0.00     0.010 A 
ATOM     32  C   UNL A   1      39.761  26.590  28.768  1.00  0.00     0.010 A 
ATOM     33  C   UNL A   1      40.221  27.729  28.097  1.00  0.00    -0.014 A 
BRANCH  33  34
ATOM     34  C   UNL A   1      40.338  28.931  28.911  1.00  0.00     0.031 A 
ATOM     35  C   UNL A   1      39.252  29.928  28.930  1.00  0.00     0.074 A 
ATOM     36  C   UNL A   1      41.397  29.085  29.736  1.00  0.00     0.049 A 
ATOM     37  N   UNL A   1      39.399  31.146  29.321  1.00  0.00    -0.248 NA
ATOM     38  C   UNL A   1      37.903  29.635  28.465  1.00  0.00     0.031 C 
ATOM     39  C   UNL A   1      41.541  30.045  30.826  1.00  0.00     0.029 A 
ATOM     40  N   UNL A   1      42.672  28.547  29.577  1.00  0.00    -0.354 N 
ATOM     41  C   UNL A   1      38.151  31.706  29.439  1.00  0.00     0.074 A 
ATOM     42  C   UNL A   1      37.258  30.745  28.833  1.00  0.00     0.031 C 
ATOM     43  C   UNL A   1      42.847  30.241  31.060  1.00  0.00     0.029 A 
ATOM     44  C   UNL A   1      43.582  29.524  30.037  1.00  0.00     0.049 A 
ATOM     45  H   UNL A   1      42.896  27.660  29.215  1.00  0.00     0.167 HD
ATOM     46  C   UNL A   1      38.008  32.864  30.144  1.00  0.00     0.034 A 
ATOM     47  C   UNL A   1      44.504  30.068  29.187  1.00  0.00     0.034 A 
ATOM     48  C   UNL A   1      39.299  33.387  30.599  1.00  0.00     0.049 A 
ATOM     49  C   UNL A   1      44.349  31.566  28.980  1.00  0.00     0.074 A 
ATOM     50  C   UNL A   1      39.969  33.428  31.811  1.00  0.00     0.029 A 
ATOM     51  N   UNL A   1      40.225  33.767  29.645  1.00  0.00    -0.354 N 
ATOM     52  N   UNL A   1      43.416  32.296  29.531  1.00  0.00    -0.248 NA
ATOM     53  C   UNL A   1      45.184  32.348  28.068  1.00  0.00     0.031 C 
ATOM     54  C   UNL A   1      41.310  33.851  31.564  1.00  0.00     0.029 A 
ATOM     55  C   UNL A   1      41.445  34.083  30.208  1.00  0.00     0.049 A 
ATOM     56  H   UNL A   1      40.037  33.809  28.681  1.00  0.00     0.167 HD
ATOM     57  C   UNL A   1      43.455  33.567  29.015  1.00  0.00     0.074 A 
ATOM     58  C   UNL A   1      44.591  33.554  28.113  1.00  0.00     0.031 C 
ATOM     59  C   UNL A   1      42.518  34.515  29.325  1.00  0.00     0.034 A 
BRANCH  46  60
ATOM     60  C   UNL A   1      36.685  33.419  30.617  1.00  0.00     0.023 A 
ATOM     61  C   UNL A   1      35.812  34.000  29.673  1.00  0.00     0.031 A 
ATOM     62  C   UNL A   1      36.229  33.439  31.948  1.00  0.00     0.131 A 
ATOM     63  C   UNL A   1      34.628  34.648  30.067  1.00  0.00     0.055 A 
ATOM     64  C   UNL A   1      35.083  34.139  32.351  1.00  0.00     0.041 A 
ATOM     65  F   UNL A   1      36.829  32.731  32.913  1.00  0.00    -0.206 F 
ATOM     66  C   UNL A   1      34.280  34.761  31.408  1.00  0.00     0.022 A 
BRANCH  63  67
ATOM     67  S   UNL A   1      33.539  35.335  28.790  1.00  0.00     0.124 S 
ATOM     68  O   UNL A   1      34.460  36.143  27.999  1.00  0.00    -0.237 OA
ATOM     69  O   UNL A   1      33.019  34.132  28.150  1.00  0.00    -0.237 OA
ATOM     70  O   UNL A   1      32.556  36.097  29.560  1.00  0.00    -0.744 OA
ENDBRANCH  63  67
ENDBRANCH  46  60
BRANCH  47  71
ATOM     71  C   UNL A   1      44.983  29.071  28.179  1.00  0.00     0.023 A 
ATOM     72  C   UNL A   1      45.881  28.080  28.643  1.00  0.00     0.031 A 
ATOM     73  C   UNL A   1      44.278  28.811  26.997  1.00  0.00     0.131 A 
ATOM     74  C   UNL A   1      45.903  26.811  28.047  1.00  0.00     0.055 A 
ATOM     75  C   UNL A   1      44.374  27.571  26.352  1.00  0.00     0.041 A 
ATOM     76  F   UNL A   1      43.384  29.692  26.524  1.00  0.00    -0.206 F 
ATOM     77  C   UNL A   1      45.147  26.548  26.904  1.00  0.00     0.022 A 
BRANCH  74  78
ATOM     78  S   UNL A   1      46.673  25.435  28.958  1.00  0.00     0.124 S 
ATOM     79  O   UNL A   1      47.547  24.850  27.947  1.00  0.00    -0.237 OA
ATOM     80  O   UNL A   1      47.342  26.111  30.069  1.00  0.00    -0.237 OA
ATOM     81  O   UNL A   1      45.537  24.610  29.364  1.00  0.00    -0.744 OA
ENDBRANCH  74  78
ENDBRANCH  47  71
BRANCH  59  82
ATOM     82  C   UNL A   1      42.501  35.926  28.776  1.00  0.00     0.023 A 
ATOM     83  C   UNL A   1      42.869  37.040  29.547  1.00  0.00     0.031 A 
ATOM     84  C   UNL A   1      42.032  36.209  27.468  1.00  0.00     0.131 A 
ATOM     85  C   UNL A   1      42.834  38.338  29.000  1.00  0.00     0.055 A 
ATOM     86  C   UNL A   1      41.924  37.504  26.958  1.00  0.00     0.041 A 
ATOM     87  F   UNL A   1      41.690  35.239  26.610  1.00  0.00    -0.206 F 
ATOM     88  C   UNL A   1      42.341  38.580  27.719  1.00  0.00     0.022 A 
BRANCH  85  89
ATOM     89  S   UNL A   1      43.512  39.708  29.972  1.00  0.00     0.124 S 
ATOM     90  O   UNL A   1      43.821  39.071  31.246  1.00  0.00    -0.237 OA
ATOM     91  O   UNL A   1      44.663  40.103  29.162  1.00  0.00    -0.237 OA
ATOM     92  O   UNL A   1      42.421  40.680  30.008  1.00  0.00    -0.744 OA
ENDBRANCH  85  89
ENDBRANCH  59  82
ENDBRANCH  33  34
ENDBRANCH  25  28
ENDBRANCH  23  24
ENDBRANCH   1  23
TORSDOF 15
ENDMDL
