MODEL 1
REMARK VINA RESULT:     -11.9      0.000      0.000
REMARK SMILES CC(C)C[NH+]1CC[NH+]([C@@H]2CC[C@]([NH3+])(C(=O)NCCCNC(=O)c3ccc(-c4c5nc(c(-c6cc(S(=O)(=O)[O-])ccc6F)c6ccc([nH]6)c(-c6cc(S(=O)(=O)[O-])ccc6F)c6nc(c(-c7cc(S(=O)(=O)[O-])ccc7F)c7ccc4[nH]7)C=C6)C=C5)cc3)C2)CC1
REMARK SMILES IDX 18 1 17 2 16 3 14 4 15 5 12 7 9 8 10 9 86 10 11 11 8 12 5 13
REMARK SMILES IDX 6 14 88 15 7 17 87 18 4 20 2 21 1 22 3 23 13 24 19 28 20 29
REMARK SMILES IDX 21 30 22 32 23 33 24 34 85 35 25 36 84 37 26 38 27 39 28 40
REMARK SMILES IDX 78 41 29 42 83 43 77 44 79 45 30 46 82 47 76 48 75 49 31 51
REMARK SMILES IDX 63 52 43 53 62 54 44 55 47 56 61 57 80 58 45 59 46 60 60 62
REMARK SMILES IDX 81 63 48 64 32 65 33 66 41 67 34 68 40 69 42 70 39 71 35 72
REMARK SMILES IDX 36 73 37 74 38 75 64 76 65 77 73 78 66 79 72 80 74 81 71 82
REMARK SMILES IDX 67 83 68 84 69 85 70 86 49 87 50 88 58 89 51 90 57 91 59 92
REMARK SMILES IDX 56 93 52 94 53 95 54 96 55 97
REMARK H PARENT 16 6 5 16 8 19 13 25 13 26 13 27 20 31 79 50 47 61
REMARK Flexibility Score: inf
ROOT
ATOM      1  C   UNL A   1      31.829  31.459  26.923  1.00  0.00     0.042 C 
ENDROOT
BRANCH   1   2
ATOM      2  C   UNL A   1      32.171  30.027  26.550  1.00  0.00     0.118 C 
BRANCH   2   3
ATOM      3  N   UNL A   1      31.510  29.600  25.329  1.00  0.00    -0.351 N 
ATOM      4  C   UNL A   1      31.763  28.646  24.395  1.00  0.00     0.281 C 
ATOM      5  O   UNL A   1      30.904  28.542  23.508  1.00  0.00    -0.268 OA
ATOM      6  H   UNL A   1      30.695  30.117  25.136  1.00  0.00     0.163 HD
BRANCH   4   7
ATOM      7  C   UNL A   1      33.057  27.774  24.359  1.00  0.00     0.179 C 
ATOM      8  C   UNL A   1      33.750  25.520  23.523  1.00  0.00     0.191 C 
ATOM      9  C   UNL A   1      34.146  25.701  24.992  1.00  0.00     0.072 C 
ATOM     10  C   UNL A   1      32.957  26.803  23.156  1.00  0.00     0.144 C 
ATOM     11  C   UNL A   1      33.261  26.809  25.517  1.00  0.00     0.085 C 
BRANCH   8  12
ATOM     12  N   UNL A   1      33.171  24.229  23.106  1.00  0.00    -0.323 N 
ATOM     13  N   UNL A   1      33.015  21.769  24.900  1.00  0.00    -0.325 N 
ATOM     14  C   UNL A   1      34.278  22.153  24.217  1.00  0.00     0.324 C 
ATOM     15  C   UNL A   1      32.217  22.990  25.079  1.00  0.00     0.324 C 
ATOM     16  H   UNL A   1      33.173  21.381  25.830  1.00  0.00     0.348 HD
ATOM     17  C   UNL A   1      34.144  23.120  22.994  1.00  0.00     0.324 C 
ATOM     18  C   UNL A   1      31.953  23.755  23.772  1.00  0.00     0.324 C 
ATOM     19  H   UNL A   1      32.861  24.509  22.176  1.00  0.00     0.348 HD
BRANCH  13  20
ATOM     20  C   UNL A   1      32.354  20.683  24.156  1.00  0.00     0.265 C 
BRANCH  20  21
ATOM     21  C   UNL A   1      32.992  19.270  24.202  1.00  0.00     0.038 C 
ATOM     22  C   UNL A   1      32.725  18.486  25.493  1.00  0.00     0.013 C 
ATOM     23  C   UNL A   1      32.436  18.452  23.026  1.00  0.00     0.013 C 
ENDBRANCH  20  21
ENDBRANCH  13  20
ENDBRANCH   8  12
BRANCH   7  24
ATOM     24  N   UNL A   1      34.226  28.661  24.200  1.00  0.00    -0.345 N 
ATOM     25  H   UNL A   1      34.467  29.070  25.103  1.00  0.00     0.345 HD
ATOM     26  H   UNL A   1      34.001  29.405  23.540  1.00  0.00     0.345 HD
ATOM     27  H   UNL A   1      35.017  28.122  23.849  1.00  0.00     0.345 HD
ENDBRANCH   7  24
ENDBRANCH   4   7
ENDBRANCH   2   3
ENDBRANCH   1   2
BRANCH   1  28
ATOM     28  C   UNL A   1      33.057  32.250  27.356  1.00  0.00     0.118 C 
BRANCH  28  29
ATOM     29  N   UNL A   1      32.743  33.657  27.598  1.00  0.00    -0.352 N 
ATOM     30  C   UNL A   1      33.196  34.502  28.584  1.00  0.00     0.251 C 
ATOM     31  H   UNL A   1      32.111  34.060  26.959  1.00  0.00     0.163 HD
ATOM     32  O   UNL A   1      32.633  35.570  28.781  1.00  0.00    -0.269 OA
BRANCH  30  33
ATOM     33  C   UNL A   1      34.356  34.097  29.404  1.00  0.00     0.039 A 
ATOM     34  C   UNL A   1      34.168  33.263  30.509  1.00  0.00     0.014 A 
ATOM     35  C   UNL A   1      35.635  34.533  29.058  1.00  0.00     0.014 A 
ATOM     36  C   UNL A   1      35.279  32.797  31.217  1.00  0.00     0.010 A 
ATOM     37  C   UNL A   1      36.739  33.994  29.699  1.00  0.00     0.010 A 
ATOM     38  C   UNL A   1      36.574  33.124  30.788  1.00  0.00    -0.014 A 
BRANCH  38  39
ATOM     39  C   UNL A   1      37.797  32.614  31.461  1.00  0.00     0.031 A 
ATOM     40  C   UNL A   1      38.551  31.476  30.829  1.00  0.00     0.074 A 
ATOM     41  C   UNL A   1      38.144  33.075  32.679  1.00  0.00     0.049 A 
ATOM     42  N   UNL A   1      39.472  30.704  31.342  1.00  0.00    -0.248 NA
ATOM     43  C   UNL A   1      38.171  31.132  29.450  1.00  0.00     0.031 C 
ATOM     44  C   UNL A   1      37.475  34.160  33.400  1.00  0.00     0.029 A 
ATOM     45  N   UNL A   1      39.130  32.662  33.541  1.00  0.00    -0.354 N 
ATOM     46  C   UNL A   1      39.751  29.754  30.363  1.00  0.00     0.074 A 
ATOM     47  C   UNL A   1      38.860  30.018  29.255  1.00  0.00     0.031 C 
ATOM     48  C   UNL A   1      38.075  34.332  34.589  1.00  0.00     0.029 A 
ATOM     49  C   UNL A   1      39.127  33.332  34.744  1.00  0.00     0.049 A 
ATOM     50  H   UNL A   1      39.777  31.955  33.320  1.00  0.00     0.167 HD
ATOM     51  C   UNL A   1      40.678  28.764  30.385  1.00  0.00     0.034 A 
ATOM     52  C   UNL A   1      39.868  33.139  35.853  1.00  0.00     0.034 A 
ATOM     53  C   UNL A   1      41.577  28.544  31.491  1.00  0.00     0.049 A 
ATOM     54  C   UNL A   1      40.890  32.031  35.860  1.00  0.00     0.074 A 
ATOM     55  C   UNL A   1      42.589  27.609  31.607  1.00  0.00     0.029 A 
ATOM     56  N   UNL A   1      41.574  29.276  32.672  1.00  0.00    -0.354 N 
ATOM     57  N   UNL A   1      41.156  31.148  34.924  1.00  0.00    -0.248 NA
ATOM     58  C   UNL A   1      41.719  31.895  37.066  1.00  0.00     0.031 C 
ATOM     59  C   UNL A   1      43.160  27.737  32.877  1.00  0.00     0.029 A 
ATOM     60  C   UNL A   1      42.555  28.802  33.526  1.00  0.00     0.049 A 
ATOM     61  H   UNL A   1      40.963  30.022  32.872  1.00  0.00     0.167 HD
ATOM     62  C   UNL A   1      42.211  30.383  35.413  1.00  0.00     0.074 A 
ATOM     63  C   UNL A   1      42.530  30.904  36.727  1.00  0.00     0.031 C 
ATOM     64  C   UNL A   1      42.866  29.351  34.826  1.00  0.00     0.034 A 
BRANCH  51  65
ATOM     65  C   UNL A   1      40.737  27.841  29.193  1.00  0.00     0.023 A 
ATOM     66  C   UNL A   1      41.674  28.025  28.162  1.00  0.00     0.031 A 
ATOM     67  C   UNL A   1      39.817  26.786  29.063  1.00  0.00     0.131 A 
ATOM     68  C   UNL A   1      41.614  27.231  27.008  1.00  0.00     0.055 A 
ATOM     69  C   UNL A   1      39.821  25.938  27.951  1.00  0.00     0.041 A 
ATOM     70  F   UNL A   1      38.884  26.570  30.003  1.00  0.00    -0.206 F 
ATOM     71  C   UNL A   1      40.710  26.170  26.907  1.00  0.00     0.022 A 
BRANCH  68  72
ATOM     72  S   UNL A   1      42.623  27.706  25.579  1.00  0.00     0.124 S 
ATOM     73  O   UNL A   1      42.544  26.505  24.751  1.00  0.00    -0.237 OA
ATOM     74  O   UNL A   1      41.920  28.878  25.071  1.00  0.00    -0.237 OA
ATOM     75  O   UNL A   1      43.938  27.968  26.160  1.00  0.00    -0.744 OA
ENDBRANCH  68  72
ENDBRANCH  51  65
BRANCH  52  76
ATOM     76  C   UNL A   1      39.667  34.000  37.054  1.00  0.00     0.023 A 
ATOM     77  C   UNL A   1      39.037  33.496  38.203  1.00  0.00     0.031 A 
ATOM     78  C   UNL A   1      40.070  35.347  37.061  1.00  0.00     0.131 A 
ATOM     79  C   UNL A   1      38.786  34.344  39.292  1.00  0.00     0.055 A 
ATOM     80  C   UNL A   1      39.864  36.173  38.169  1.00  0.00     0.041 A 
ATOM     81  F   UNL A   1      40.686  35.879  35.992  1.00  0.00    -0.206 F 
ATOM     82  C   UNL A   1      39.206  35.676  39.288  1.00  0.00     0.022 A 
BRANCH  79  83
ATOM     83  S   UNL A   1      37.821  33.699  40.688  1.00  0.00     0.124 S 
ATOM     84  O   UNL A   1      38.795  32.835  41.346  1.00  0.00    -0.237 OA
ATOM     85  O   UNL A   1      37.464  34.923  41.398  1.00  0.00    -0.237 OA
ATOM     86  O   UNL A   1      36.709  33.008  40.041  1.00  0.00    -0.744 OA
ENDBRANCH  79  83
ENDBRANCH  52  76
BRANCH  64  87
ATOM     87  C   UNL A   1      44.049  28.773  35.560  1.00  0.00     0.023 A 
ATOM     88  C   UNL A   1      43.918  27.715  36.473  1.00  0.00     0.031 A 
ATOM     89  C   UNL A   1      45.338  29.280  35.307  1.00  0.00     0.131 A 
ATOM     90  C   UNL A   1      45.056  27.217  37.128  1.00  0.00     0.055 A 
ATOM     91  C   UNL A   1      46.469  28.748  35.922  1.00  0.00     0.041 A 
ATOM     92  F   UNL A   1      45.515  30.292  34.441  1.00  0.00    -0.206 F 
ATOM     93  C   UNL A   1      46.331  27.716  36.845  1.00  0.00     0.022 A 
BRANCH  90  94
ATOM     94  S   UNL A   1      44.844  25.940  38.398  1.00  0.00     0.124 S 
ATOM     95  O   UNL A   1      44.177  24.878  37.651  1.00  0.00    -0.237 OA
ATOM     96  O   UNL A   1      46.219  25.668  38.801  1.00  0.00    -0.237 OA
ATOM     97  O   UNL A   1      44.020  26.597  39.412  1.00  0.00    -0.744 OA
ENDBRANCH  90  94
ENDBRANCH  64  87
ENDBRANCH  38  39
ENDBRANCH  30  33
ENDBRANCH  28  29
ENDBRANCH   1  28
TORSDOF 17
ENDMDL
MODEL 2
REMARK VINA RESULT:     -11.6      1.592      2.139
REMARK SMILES CC(C)C[NH+]1CC[NH+]([C@@H]2CC[C@]([NH3+])(C(=O)NCCCNC(=O)c3ccc(-c4c5nc(c(-c6cc(S(=O)(=O)[O-])ccc6F)c6ccc([nH]6)c(-c6cc(S(=O)(=O)[O-])ccc6F)c6nc(c(-c7cc(S(=O)(=O)[O-])ccc7F)c7ccc4[nH]7)C=C6)C=C5)cc3)C2)CC1
REMARK SMILES IDX 18 1 17 2 16 3 14 4 15 5 12 7 9 8 10 9 86 10 11 11 8 12 5 13
REMARK SMILES IDX 6 14 88 15 7 17 87 18 4 20 2 21 1 22 3 23 13 24 19 28 20 29
REMARK SMILES IDX 21 30 22 32 23 33 24 34 85 35 25 36 84 37 26 38 27 39 28 40
REMARK SMILES IDX 78 41 29 42 83 43 77 44 79 45 30 46 82 47 76 48 75 49 31 51
REMARK SMILES IDX 63 52 43 53 62 54 44 55 47 56 61 57 80 58 45 59 46 60 60 62
REMARK SMILES IDX 81 63 48 64 32 65 33 66 41 67 34 68 40 69 42 70 39 71 35 72
REMARK SMILES IDX 36 73 37 74 38 75 64 76 65 77 73 78 66 79 72 80 74 81 71 82
REMARK SMILES IDX 67 83 68 84 69 85 70 86 49 87 50 88 58 89 51 90 57 91 59 92
REMARK SMILES IDX 56 93 52 94 53 95 54 96 55 97
REMARK H PARENT 16 6 5 16 8 19 13 25 13 26 13 27 20 31 79 50 47 61
REMARK Flexibility Score: inf
ROOT
ATOM      1  C   UNL A   1      32.094  31.517  26.794  1.00  0.00     0.042 C 
ENDROOT
BRANCH   1   2
ATOM      2  C   UNL A   1      32.430  30.038  26.740  1.00  0.00     0.118 C 
BRANCH   2   3
ATOM      3  N   UNL A   1      33.160  29.680  25.536  1.00  0.00    -0.351 N 
ATOM      4  C   UNL A   1      32.805  29.195  24.317  1.00  0.00     0.281 C 
ATOM      5  O   UNL A   1      33.736  29.079  23.509  1.00  0.00    -0.268 OA
ATOM      6  H   UNL A   1      34.131  29.821  25.622  1.00  0.00     0.163 HD
BRANCH   4   7
ATOM      7  C   UNL A   1      31.360  28.738  23.942  1.00  0.00     0.179 C 
ATOM      8  C   UNL A   1      29.921  26.713  24.241  1.00  0.00     0.191 C 
ATOM      9  C   UNL A   1      29.957  27.143  22.771  1.00  0.00     0.072 C 
ATOM     10  C   UNL A   1      30.907  27.668  24.967  1.00  0.00     0.144 C 
ATOM     11  C   UNL A   1      31.201  27.992  22.626  1.00  0.00     0.085 C 
BRANCH   8  12
ATOM     12  N   UNL A   1      30.024  25.275  24.554  1.00  0.00    -0.323 N 
ATOM     13  N   UNL A   1      32.658  23.815  25.027  1.00  0.00    -0.325 N 
ATOM     14  C   UNL A   1      32.185  24.139  23.655  1.00  0.00     0.324 C 
ATOM     15  C   UNL A   1      32.068  24.799  25.945  1.00  0.00     0.324 C 
ATOM     16  H   UNL A   1      33.670  23.893  25.123  1.00  0.00     0.348 HD
ATOM     17  C   UNL A   1      30.662  24.456  23.499  1.00  0.00     0.324 C 
ATOM     18  C   UNL A   1      30.534  24.874  25.869  1.00  0.00     0.324 C 
ATOM     19  H   UNL A   1      29.026  25.069  24.592  1.00  0.00     0.348 HD
BRANCH  13  20
ATOM     20  C   UNL A   1      32.367  22.405  25.337  1.00  0.00     0.265 C 
BRANCH  20  21
ATOM     21  C   UNL A   1      33.073  21.309  24.494  1.00  0.00     0.038 C 
ATOM     22  C   UNL A   1      34.600  21.278  24.630  1.00  0.00     0.013 C 
ATOM     23  C   UNL A   1      32.529  19.940  24.932  1.00  0.00     0.013 C 
ENDBRANCH  20  21
ENDBRANCH  13  20
ENDBRANCH   8  12
BRANCH   7  24
ATOM     24  N   UNL A   1      30.461  29.907  23.998  1.00  0.00    -0.345 N 
ATOM     25  H   UNL A   1      29.668  29.755  23.374  1.00  0.00     0.345 HD
ATOM     26  H   UNL A   1      30.969  30.741  23.704  1.00  0.00     0.345 HD
ATOM     27  H   UNL A   1      30.124  30.032  24.952  1.00  0.00     0.345 HD
ENDBRANCH   7  24
ENDBRANCH   4   7
ENDBRANCH   2   3
ENDBRANCH   1   2
BRANCH   1  28
ATOM     28  C   UNL A   1      33.276  32.360  27.256  1.00  0.00     0.118 C 
BRANCH  28  29
ATOM     29  N   UNL A   1      32.868  33.709  27.643  1.00  0.00    -0.352 N 
ATOM     30  C   UNL A   1      33.250  34.468  28.724  1.00  0.00     0.251 C 
ATOM     31  H   UNL A   1      32.221  34.139  27.037  1.00  0.00     0.163 HD
ATOM     32  O   UNL A   1      32.616  35.470  29.024  1.00  0.00    -0.269 OA
BRANCH  30  33
ATOM     33  C   UNL A   1      34.421  34.048  29.521  1.00  0.00     0.039 A 
ATOM     34  C   UNL A   1      34.238  33.275  30.670  1.00  0.00     0.014 A 
ATOM     35  C   UNL A   1      35.703  34.411  29.111  1.00  0.00     0.014 A 
ATOM     36  C   UNL A   1      35.353  32.792  31.360  1.00  0.00     0.010 A 
ATOM     37  C   UNL A   1      36.807  33.852  29.738  1.00  0.00     0.010 A 
ATOM     38  C   UNL A   1      36.645  33.040  30.872  1.00  0.00    -0.014 A 
BRANCH  38  39
ATOM     39  C   UNL A   1      37.868  32.508  31.525  1.00  0.00     0.031 A 
ATOM     40  C   UNL A   1      38.608  31.376  30.864  1.00  0.00     0.074 A 
ATOM     41  C   UNL A   1      38.229  32.941  32.748  1.00  0.00     0.049 A 
ATOM     42  N   UNL A   1      39.526  30.586  31.354  1.00  0.00    -0.248 NA
ATOM     43  C   UNL A   1      38.214  31.062  29.482  1.00  0.00     0.031 C 
ATOM     44  C   UNL A   1      37.575  34.017  33.496  1.00  0.00     0.029 A 
ATOM     45  N   UNL A   1      39.218  32.503  33.594  1.00  0.00    -0.354 N 
ATOM     46  C   UNL A   1      39.790  29.654  30.355  1.00  0.00     0.074 A 
ATOM     47  C   UNL A   1      38.892  29.947  29.259  1.00  0.00     0.031 C 
ATOM     48  C   UNL A   1      38.186  34.161  34.683  1.00  0.00     0.029 A 
ATOM     49  C   UNL A   1      39.230  33.149  34.810  1.00  0.00     0.049 A 
ATOM     50  H   UNL A   1      39.857  31.795  33.354  1.00  0.00     0.167 HD
ATOM     51  C   UNL A   1      40.708  28.656  30.350  1.00  0.00     0.034 A 
ATOM     52  C   UNL A   1      39.978  32.928  35.909  1.00  0.00     0.034 A 
ATOM     53  C   UNL A   1      41.614  28.407  31.443  1.00  0.00     0.049 A 
ATOM     54  C   UNL A   1      40.991  31.812  35.886  1.00  0.00     0.074 A 
ATOM     55  C   UNL A   1      42.619  27.461  31.533  1.00  0.00     0.029 A 
ATOM     56  N   UNL A   1      41.626  29.115  32.639  1.00  0.00    -0.354 N 
ATOM     57  N   UNL A   1      41.242  30.945  34.930  1.00  0.00    -0.248 NA
ATOM     58  C   UNL A   1      41.828  31.645  37.083  1.00  0.00     0.031 C 
ATOM     59  C   UNL A   1      43.201  27.559  32.801  1.00  0.00     0.029 A 
ATOM     60  C   UNL A   1      42.610  28.616  33.475  1.00  0.00     0.049 A 
ATOM     61  H   UNL A   1      41.024  29.861  32.859  1.00  0.00     0.167 HD
ATOM     62  C   UNL A   1      42.294  30.162  35.396  1.00  0.00     0.074 A 
ATOM     63  C   UNL A   1      42.627  30.654  36.717  1.00  0.00     0.031 C 
ATOM     64  C   UNL A   1      42.936  29.136  34.783  1.00  0.00     0.034 A 
BRANCH  51  65
ATOM     65  C   UNL A   1      40.750  27.756  29.139  1.00  0.00     0.023 A 
ATOM     66  C   UNL A   1      41.674  27.959  28.099  1.00  0.00     0.031 A 
ATOM     67  C   UNL A   1      39.826  26.705  29.000  1.00  0.00     0.131 A 
ATOM     68  C   UNL A   1      41.597  27.187  26.931  1.00  0.00     0.055 A 
ATOM     69  C   UNL A   1      39.814  25.879  27.873  1.00  0.00     0.041 A 
ATOM     70  F   UNL A   1      38.906  26.472  29.948  1.00  0.00    -0.206 F 
ATOM     71  C   UNL A   1      40.690  26.130  26.821  1.00  0.00     0.022 A 
BRANCH  68  72
ATOM     72  S   UNL A   1      42.588  27.689  25.498  1.00  0.00     0.124 S 
ATOM     73  O   UNL A   1      43.892  27.928  26.112  1.00  0.00    -0.237 OA
ATOM     74  O   UNL A   1      42.497  26.523  24.627  1.00  0.00    -0.237 OA
ATOM     75  O   UNL A   1      41.907  28.887  25.012  1.00  0.00    -0.744 OA
ENDBRANCH  68  72
ENDBRANCH  51  65
BRANCH  52  76
ATOM     76  C   UNL A   1      39.794  33.767  37.129  1.00  0.00     0.023 A 
ATOM     77  C   UNL A   1      40.628  34.868  37.377  1.00  0.00     0.031 A 
ATOM     78  C   UNL A   1      38.807  33.460  38.082  1.00  0.00     0.131 A 
ATOM     79  C   UNL A   1      40.492  35.595  38.569  1.00  0.00     0.055 A 
ATOM     80  C   UNL A   1      38.642  34.219  39.243  1.00  0.00     0.041 A 
ATOM     81  F   UNL A   1      37.976  32.422  37.891  1.00  0.00    -0.206 F 
ATOM     82  C   UNL A   1      39.497  35.286  39.499  1.00  0.00     0.022 A 
BRANCH  79  83
ATOM     83  S   UNL A   1      41.696  36.904  38.928  1.00  0.00     0.124 S 
ATOM     84  O   UNL A   1      42.496  36.290  39.981  1.00  0.00    -0.237 OA
ATOM     85  O   UNL A   1      42.353  37.072  37.636  1.00  0.00    -0.237 OA
ATOM     86  O   UNL A   1      40.861  38.026  39.351  1.00  0.00    -0.744 OA
ENDBRANCH  79  83
ENDBRANCH  52  76
BRANCH  64  87
ATOM     87  C   UNL A   1      44.120  28.534  35.496  1.00  0.00     0.023 A 
ATOM     88  C   UNL A   1      43.979  27.512  36.448  1.00  0.00     0.031 A 
ATOM     89  C   UNL A   1      45.418  28.980  35.184  1.00  0.00     0.131 A 
ATOM     90  C   UNL A   1      45.117  26.989  37.081  1.00  0.00     0.055 A 
ATOM     91  C   UNL A   1      46.548  28.422  35.778  1.00  0.00     0.041 A 
ATOM     92  F   UNL A   1      45.605  29.956  34.280  1.00  0.00    -0.206 F 
ATOM     93  C   UNL A   1      46.401  27.426  36.739  1.00  0.00     0.022 A 
BRANCH  90  94
ATOM     94  S   UNL A   1      44.899  25.763  38.399  1.00  0.00     0.124 S 
ATOM     95  O   UNL A   1      46.203  25.788  39.055  1.00  0.00    -0.237 OA
ATOM     96  O   UNL A   1      43.790  26.320  39.165  1.00  0.00    -0.237 OA
ATOM     97  O   UNL A   1      44.593  24.530  37.674  1.00  0.00    -0.744 OA
ENDBRANCH  90  94
ENDBRANCH  64  87
ENDBRANCH  38  39
ENDBRANCH  30  33
ENDBRANCH  28  29
ENDBRANCH   1  28
TORSDOF 17
ENDMDL
MODEL 3
REMARK VINA RESULT:     -11.5      2.490      3.585
REMARK SMILES CC(C)C[NH+]1CC[NH+]([C@@H]2CC[C@]([NH3+])(C(=O)NCCCNC(=O)c3ccc(-c4c5nc(c(-c6cc(S(=O)(=O)[O-])ccc6F)c6ccc([nH]6)c(-c6cc(S(=O)(=O)[O-])ccc6F)c6nc(c(-c7cc(S(=O)(=O)[O-])ccc7F)c7ccc4[nH]7)C=C6)C=C5)cc3)C2)CC1
REMARK SMILES IDX 18 1 17 2 16 3 14 4 15 5 12 7 9 8 10 9 86 10 11 11 8 12 5 13
REMARK SMILES IDX 6 14 88 15 7 17 87 18 4 20 2 21 1 22 3 23 13 24 19 28 20 29
REMARK SMILES IDX 21 30 22 32 23 33 24 34 85 35 25 36 84 37 26 38 27 39 28 40
REMARK SMILES IDX 78 41 29 42 83 43 77 44 79 45 30 46 82 47 76 48 75 49 31 51
REMARK SMILES IDX 63 52 43 53 62 54 44 55 47 56 61 57 80 58 45 59 46 60 60 62
REMARK SMILES IDX 81 63 48 64 32 65 33 66 41 67 34 68 40 69 42 70 39 71 35 72
REMARK SMILES IDX 36 73 37 74 38 75 64 76 65 77 73 78 66 79 72 80 74 81 71 82
REMARK SMILES IDX 67 83 68 84 69 85 70 86 49 87 50 88 58 89 51 90 57 91 59 92
REMARK SMILES IDX 56 93 52 94 53 95 54 96 55 97
REMARK H PARENT 16 6 5 16 8 19 13 25 13 26 13 27 20 31 79 50 47 61
REMARK Flexibility Score: inf
ROOT
ATOM      1  C   UNL A   1      33.300  27.981  24.368  1.00  0.00     0.042 C 
ENDROOT
BRANCH   1   2
ATOM      2  C   UNL A   1      32.608  27.706  23.045  1.00  0.00     0.118 C 
BRANCH   2   3
ATOM      3  N   UNL A   1      31.241  28.197  23.024  1.00  0.00    -0.351 N 
ATOM      4  C   UNL A   1      30.044  27.697  23.431  1.00  0.00     0.281 C 
ATOM      5  O   UNL A   1      29.083  28.467  23.299  1.00  0.00    -0.268 OA
ATOM      6  H   UNL A   1      31.163  29.094  22.625  1.00  0.00     0.163 HD
BRANCH   4   7
ATOM      7  C   UNL A   1      29.837  26.244  23.965  1.00  0.00     0.179 C 
ATOM      8  C   UNL A   1      30.927  24.699  25.603  1.00  0.00     0.191 C 
ATOM      9  C   UNL A   1      30.752  24.016  24.243  1.00  0.00     0.072 C 
ATOM     10  C   UNL A   1      30.442  26.159  25.389  1.00  0.00     0.144 C 
ATOM     11  C   UNL A   1      30.590  25.138  23.242  1.00  0.00     0.085 C 
BRANCH   8  12
ATOM     12  N   UNL A   1      32.200  24.513  26.324  1.00  0.00    -0.323 N 
ATOM     13  N   UNL A   1      34.652  23.148  25.132  1.00  0.00    -0.325 N 
ATOM     14  C   UNL A   1      33.502  22.363  25.652  1.00  0.00     0.324 C 
ATOM     15  C   UNL A   1      34.143  24.465  24.723  1.00  0.00     0.324 C 
ATOM     16  H   UNL A   1      35.075  22.727  24.305  1.00  0.00     0.348 HD
ATOM     17  C   UNL A   1      32.536  23.106  26.633  1.00  0.00     0.324 C 
ATOM     18  C   UNL A   1      33.394  25.213  25.838  1.00  0.00     0.324 C 
ATOM     19  H   UNL A   1      31.947  25.002  27.182  1.00  0.00     0.348 HD
BRANCH  13  20
ATOM     20  C   UNL A   1      35.736  23.170  26.130  1.00  0.00     0.265 C 
BRANCH  20  21
ATOM     21  C   UNL A   1      37.198  23.271  25.621  1.00  0.00     0.038 C 
ATOM     22  C   UNL A   1      38.140  24.071  26.528  1.00  0.00     0.013 C 
ATOM     23  C   UNL A   1      37.761  21.848  25.487  1.00  0.00     0.013 C 
ENDBRANCH  20  21
ENDBRANCH  13  20
ENDBRANCH   8  12
BRANCH   7  24
ATOM     24  N   UNL A   1      28.390  25.956  24.010  1.00  0.00    -0.345 N 
ATOM     25  H   UNL A   1      27.884  26.799  24.281  1.00  0.00     0.345 HD
ATOM     26  H   UNL A   1      28.211  25.218  24.691  1.00  0.00     0.345 HD
ATOM     27  H   UNL A   1      28.075  25.652  23.089  1.00  0.00     0.345 HD
ENDBRANCH   7  24
ENDBRANCH   4   7
ENDBRANCH   2   3
ENDBRANCH   1   2
BRANCH   1  28
ATOM     28  C   UNL A   1      33.713  29.441  24.509  1.00  0.00     0.118 C 
BRANCH  28  29
ATOM     29  N   UNL A   1      32.812  30.180  25.392  1.00  0.00    -0.352 N 
ATOM     30  C   UNL A   1      32.979  30.556  26.705  1.00  0.00     0.251 C 
ATOM     31  H   UNL A   1      31.956  30.450  24.986  1.00  0.00     0.163 HD
ATOM     32  O   UNL A   1      32.020  30.944  27.357  1.00  0.00    -0.269 OA
BRANCH  30  33
ATOM     33  C   UNL A   1      34.322  30.468  27.314  1.00  0.00     0.039 A 
ATOM     34  C   UNL A   1      35.070  31.629  27.517  1.00  0.00     0.014 A 
ATOM     35  C   UNL A   1      34.826  29.226  27.700  1.00  0.00     0.014 A 
ATOM     36  C   UNL A   1      36.293  31.551  28.190  1.00  0.00     0.010 A 
ATOM     37  C   UNL A   1      35.990  29.162  28.451  1.00  0.00     0.010 A 
ATOM     38  C   UNL A   1      36.739  30.323  28.701  1.00  0.00    -0.014 A 
BRANCH  38  39
ATOM     39  C   UNL A   1      38.000  30.183  29.474  1.00  0.00     0.031 A 
ATOM     40  C   UNL A   1      39.068  29.259  28.955  1.00  0.00     0.074 A 
ATOM     41  C   UNL A   1      38.126  30.768  30.680  1.00  0.00     0.049 A 
ATOM     42  N   UNL A   1      40.119  28.780  29.566  1.00  0.00    -0.248 NA
ATOM     43  C   UNL A   1      38.893  28.771  27.579  1.00  0.00     0.031 C 
ATOM     44  C   UNL A   1      37.147  31.667  31.295  1.00  0.00     0.029 A 
ATOM     45  N   UNL A   1      39.120  30.667  31.622  1.00  0.00    -0.354 N 
ATOM     46  C   UNL A   1      40.707  27.898  28.663  1.00  0.00     0.074 A 
ATOM     47  C   UNL A   1      39.860  27.872  27.490  1.00  0.00     0.031 C 
ATOM     48  C   UNL A   1      37.593  32.041  32.506  1.00  0.00     0.029 A 
ATOM     49  C   UNL A   1      38.855  31.361  32.781  1.00  0.00     0.049 A 
ATOM     50  H   UNL A   1      39.944  30.147  31.481  1.00  0.00     0.167 HD
ATOM     51  C   UNL A   1      41.856  27.190  28.797  1.00  0.00     0.034 A 
ATOM     52  C   UNL A   1      39.538  31.417  33.941  1.00  0.00     0.034 A 
ATOM     53  C   UNL A   1      42.698  27.261  29.965  1.00  0.00     0.049 A 
ATOM     54  C   UNL A   1      40.812  30.620  34.074  1.00  0.00     0.074 A 
ATOM     55  C   UNL A   1      43.908  26.632  30.195  1.00  0.00     0.029 A 
ATOM     56  N   UNL A   1      42.419  28.014  31.099  1.00  0.00    -0.354 N 
ATOM     57  N   UNL A   1      41.365  29.800  33.208  1.00  0.00    -0.248 NA
ATOM     58  C   UNL A   1      41.557  30.757  35.333  1.00  0.00     0.031 C 
ATOM     59  C   UNL A   1      44.333  26.959  31.487  1.00  0.00     0.029 A 
ATOM     60  C   UNL A   1      43.426  27.852  32.036  1.00  0.00     0.049 A 
ATOM     61  H   UNL A   1      41.622  28.580  31.219  1.00  0.00     0.167 HD
ATOM     62  C   UNL A   1      42.545  29.362  33.803  1.00  0.00     0.074 A 
ATOM     63  C   UNL A   1      42.621  30.002  35.100  1.00  0.00     0.031 C 
ATOM     64  C   UNL A   1      43.488  28.516  33.317  1.00  0.00     0.034 A 
BRANCH  51  65
ATOM     65  C   UNL A   1      42.239  26.267  27.667  1.00  0.00     0.023 A 
ATOM     66  C   UNL A   1      41.857  24.914  27.656  1.00  0.00     0.031 A 
ATOM     67  C   UNL A   1      43.034  26.732  26.604  1.00  0.00     0.131 A 
ATOM     68  C   UNL A   1      42.342  24.055  26.659  1.00  0.00     0.055 A 
ATOM     69  C   UNL A   1      43.439  25.892  25.564  1.00  0.00     0.041 A 
ATOM     70  F   UNL A   1      43.449  28.008  26.568  1.00  0.00    -0.206 F 
ATOM     71  C   UNL A   1      43.109  24.541  25.597  1.00  0.00     0.022 A 
BRANCH  68  72
ATOM     72  S   UNL A   1      42.090  22.271  26.860  1.00  0.00     0.124 S 
ATOM     73  O   UNL A   1      41.207  21.971  25.735  1.00  0.00    -0.237 OA
ATOM     74  O   UNL A   1      43.448  21.748  26.763  1.00  0.00    -0.237 OA
ATOM     75  O   UNL A   1      41.469  22.158  28.178  1.00  0.00    -0.744 OA
ENDBRANCH  68  72
ENDBRANCH  51  65
BRANCH  52  76
ATOM     76  C   UNL A   1      39.034  32.243  35.076  1.00  0.00     0.023 A 
ATOM     77  C   UNL A   1      38.511  31.638  36.230  1.00  0.00     0.031 A 
ATOM     78  C   UNL A   1      39.035  33.648  35.012  1.00  0.00     0.131 A 
ATOM     79  C   UNL A   1      37.968  32.430  37.251  1.00  0.00     0.055 A 
ATOM     80  C   UNL A   1      38.541  34.434  36.055  1.00  0.00     0.041 A 
ATOM     81  F   UNL A   1      39.532  34.279  33.936  1.00  0.00    -0.206 F 
ATOM     82  C   UNL A   1      37.990  33.825  37.178  1.00  0.00     0.022 A 
BRANCH  79  83
ATOM     83  S   UNL A   1      37.151  31.606  38.646  1.00  0.00     0.124 S 
ATOM     84  O   UNL A   1      36.996  30.248  38.138  1.00  0.00    -0.237 OA
ATOM     85  O   UNL A   1      38.127  31.786  39.715  1.00  0.00    -0.237 OA
ATOM     86  O   UNL A   1      35.909  32.359  38.806  1.00  0.00    -0.744 OA
ENDBRANCH  79  83
ENDBRANCH  52  76
BRANCH  64  87
ATOM     87  C   UNL A   1      44.724  28.302  34.152  1.00  0.00     0.023 A 
ATOM     88  C   UNL A   1      44.821  27.263  35.091  1.00  0.00     0.031 A 
ATOM     89  C   UNL A   1      45.837  29.145  33.972  1.00  0.00     0.131 A 
ATOM     90  C   UNL A   1      45.998  27.112  35.841  1.00  0.00     0.055 A 
ATOM     91  C   UNL A   1      47.021  28.958  34.684  1.00  0.00     0.041 A 
ATOM     92  F   UNL A   1      45.793  30.153  33.086  1.00  0.00    -0.206 F 
ATOM     93  C   UNL A   1      47.103  27.943  35.631  1.00  0.00     0.022 A 
BRANCH  90  94
ATOM     94  S   UNL A   1      46.051  25.845  37.137  1.00  0.00     0.124 S 
ATOM     95  O   UNL A   1      47.468  25.491  37.158  1.00  0.00    -0.237 OA
ATOM     96  O   UNL A   1      45.559  26.569  38.304  1.00  0.00    -0.237 OA
ATOM     97  O   UNL A   1      45.159  24.801  36.635  1.00  0.00    -0.744 OA
ENDBRANCH  90  94
ENDBRANCH  64  87
ENDBRANCH  38  39
ENDBRANCH  30  33
ENDBRANCH  28  29
ENDBRANCH   1  28
TORSDOF 17
ENDMDL
