MODEL 1
REMARK VINA RESULT:     -13.0      0.000      0.000
REMARK SMILES CCc1ccc(-c2cc(Cl)cc3c2O[C@H](C(F)(F)F)C(C(=O)NCCCNC(=O)c2ccc(-c4c5nc(c(-c6cc(S(=O)(=O)[O-])ccc6F)c6ccc([nH]6)c(-c6cc(S(=O)(=O)[O-])ccc6F)c6nc(c(-c7cc(S(=O)(=O)[O-])ccc7F)c7ccc4[nH]7)C=C6)C=C5)cc2)=C3)cc1
REMARK SMILES IDX 25 1 24 2 23 3 21 4 22 5 20 7 7 8 8 9 13 10 9 11 12 12 14 13
REMARK SMILES IDX 10 14 11 15 93 16 15 17 6 18 3 19 4 20 95 21 5 22 94 23 2 24
REMARK SMILES IDX 1 25 16 26 17 27 18 28 19 29 26 30 27 31 28 32 29 34 30 35
REMARK SMILES IDX 31 36 92 37 32 38 91 39 33 40 34 41 35 42 85 43 36 44 90 45
REMARK SMILES IDX 84 46 86 47 37 48 89 49 83 50 82 51 38 53 70 54 50 55 69 56
REMARK SMILES IDX 51 57 54 58 68 59 87 60 52 61 53 62 67 64 88 65 55 66 39 67
REMARK SMILES IDX 40 68 48 69 41 70 47 71 49 72 46 73 42 74 43 75 44 76 45 77
REMARK SMILES IDX 71 78 72 79 80 80 73 81 79 82 81 83 78 84 74 85 75 86 76 87
REMARK SMILES IDX 77 88 56 89 57 90 65 91 58 92 64 93 66 94 63 95 59 96 60 97
REMARK SMILES IDX 61 98 62 99
REMARK H PARENT 23 6 27 33 86 52 54 63
REMARK Flexibility Score: inf
ROOT
ATOM      1  C   UNL A   1      36.008  21.477  25.423  1.00  0.00     0.042 C 
ENDROOT
BRANCH   1   2
ATOM      2  C   UNL A   1      34.901  21.893  26.393  1.00  0.00     0.118 C 
BRANCH   2   3
ATOM      3  N   UNL A   1      34.713  23.329  26.350  1.00  0.00    -0.352 N 
ATOM      4  C   UNL A   1      34.151  24.046  25.347  1.00  0.00     0.251 C 
ATOM      5  O   UNL A   1      34.625  25.131  25.032  1.00  0.00    -0.270 OA
ATOM      6  H   UNL A   1      35.027  23.838  27.133  1.00  0.00     0.163 HD
BRANCH   4   7
ATOM      7  C   UNL A   1      32.873  23.525  24.781  1.00  0.00     0.067 C 
ATOM      8  C   UNL A   1      30.907  27.045  24.223  1.00  0.00     0.026 A 
ATOM      9  C   UNL A   1      31.085  27.805  25.411  1.00  0.00     0.033 A 
ATOM     10  C   UNL A   1      31.254  25.683  24.302  1.00  0.00     0.135 A 
ATOM     11  C   UNL A   1      31.425  27.229  26.633  1.00  0.00     0.042 A 
ATOM     12  C   UNL A   1      31.475  25.100  25.577  1.00  0.00     0.019 A 
ATOM     13  O   UNL A   1      31.452  24.877  23.188  1.00  0.00    -0.475 OA
ATOM     14  Cl  UNL A   1      31.654  28.228  28.013  1.00  0.00    -0.084 Cl
ATOM     15  C   UNL A   1      31.550  25.861  26.740  1.00  0.00     0.032 A 
ATOM     16  C   UNL A   1      31.837  23.667  25.631  1.00  0.00     0.025 C 
ATOM     17  C   UNL A   1      32.589  23.913  23.338  1.00  0.00     0.314 C 
BRANCH   8  18
ATOM     18  C   UNL A   1      30.192  27.767  23.135  1.00  0.00    -0.015 A 
ATOM     19  C   UNL A   1      28.762  29.944  21.936  1.00  0.00    -0.048 A 
ATOM     20  C   UNL A   1      30.154  29.836  21.814  1.00  0.00     0.004 A 
ATOM     21  C   UNL A   1      28.084  28.877  22.536  1.00  0.00     0.004 A 
ATOM     22  C   UNL A   1      30.852  28.760  22.384  1.00  0.00     0.009 A 
ATOM     23  C   UNL A   1      28.787  27.805  23.125  1.00  0.00     0.009 A 
BRANCH  19  24
ATOM     24  C   UNL A   1      28.076  31.179  21.387  1.00  0.00     0.032 C 
ATOM     25  C   UNL A   1      28.403  32.512  22.054  1.00  0.00     0.009 C 
ENDBRANCH  19  24
ENDBRANCH   8  18
BRANCH  17  26
ATOM     26  C   UNL A   1      32.357  22.609  22.539  1.00  0.00     0.429 C 
ATOM     27  F   UNL A   1      32.925  21.529  23.123  1.00  0.00    -0.167 F 
ATOM     28  F   UNL A   1      31.036  22.349  22.393  1.00  0.00    -0.167 F 
ATOM     29  F   UNL A   1      32.868  22.670  21.279  1.00  0.00    -0.167 F 
ENDBRANCH  17  26
ENDBRANCH   4   7
ENDBRANCH   2   3
ENDBRANCH   1   2
BRANCH   1  30
ATOM     30  C   UNL A   1      37.374  22.094  25.715  1.00  0.00     0.118 C 
BRANCH  30  31
ATOM     31  N   UNL A   1      38.383  21.104  26.052  1.00  0.00    -0.352 N 
ATOM     32  C   UNL A   1      39.666  21.296  26.499  1.00  0.00     0.251 C 
ATOM     33  H   UNL A   1      38.108  20.165  25.943  1.00  0.00     0.163 HD
ATOM     34  O   UNL A   1      40.433  20.335  26.561  1.00  0.00    -0.269 OA
BRANCH  32  35
ATOM     35  C   UNL A   1      40.125  22.650  26.879  1.00  0.00     0.039 A 
ATOM     36  C   UNL A   1      40.968  22.793  27.982  1.00  0.00     0.014 A 
ATOM     37  C   UNL A   1      39.724  23.777  26.155  1.00  0.00     0.014 A 
ATOM     38  C   UNL A   1      41.437  24.060  28.335  1.00  0.00     0.010 A 
ATOM     39  C   UNL A   1      40.272  25.022  26.446  1.00  0.00     0.010 A 
ATOM     40  C   UNL A   1      41.112  25.184  27.557  1.00  0.00    -0.014 A 
BRANCH  40  41
ATOM     41  C   UNL A   1      41.596  26.540  27.933  1.00  0.00     0.031 A 
ATOM     42  C   UNL A   1      42.991  26.971  27.555  1.00  0.00     0.074 A 
ATOM     43  C   UNL A   1      40.795  27.370  28.631  1.00  0.00     0.049 A 
ATOM     44  N   UNL A   1      43.605  28.100  27.801  1.00  0.00    -0.248 NA
ATOM     45  C   UNL A   1      43.815  25.988  26.836  1.00  0.00     0.031 C 
ATOM     46  C   UNL A   1      39.445  27.047  29.099  1.00  0.00     0.029 A 
ATOM     47  N   UNL A   1      40.995  28.657  29.064  1.00  0.00    -0.354 N 
ATOM     48  C   UNL A   1      44.888  27.955  27.279  1.00  0.00     0.074 A 
ATOM     49  C   UNL A   1      44.987  26.601  26.782  1.00  0.00     0.031 C 
ATOM     50  C   UNL A   1      38.922  28.121  29.712  1.00  0.00     0.029 A 
ATOM     51  C   UNL A   1      39.912  29.194  29.722  1.00  0.00     0.049 A 
ATOM     52  H   UNL A   1      41.834  29.150  28.917  1.00  0.00     0.167 HD
ATOM     53  C   UNL A   1      45.880  28.876  27.190  1.00  0.00     0.034 A 
ATOM     54  C   UNL A   1      39.737  30.413  30.270  1.00  0.00     0.034 A 
ATOM     55  C   UNL A   1      45.758  30.228  27.676  1.00  0.00     0.049 A 
ATOM     56  C   UNL A   1      40.857  31.419  30.163  1.00  0.00     0.074 A 
ATOM     57  C   UNL A   1      46.677  31.260  27.600  1.00  0.00     0.029 A 
ATOM     58  N   UNL A   1      44.644  30.738  28.335  1.00  0.00    -0.354 N 
ATOM     59  N   UNL A   1      42.044  31.284  29.615  1.00  0.00    -0.248 NA
ATOM     60  C   UNL A   1      40.603  32.747  30.730  1.00  0.00     0.031 C 
ATOM     61  C   UNL A   1      46.151  32.367  28.276  1.00  0.00     0.029 A 
ATOM     62  C   UNL A   1      44.866  32.059  28.695  1.00  0.00     0.049 A 
ATOM     63  H   UNL A   1      43.819  30.234  28.521  1.00  0.00     0.167 HD
ATOM     64  C   UNL A   1      42.663  32.525  29.742  1.00  0.00     0.074 A 
ATOM     65  C   UNL A   1      41.706  33.397  30.392  1.00  0.00     0.031 C 
ATOM     66  C   UNL A   1      43.907  32.913  29.357  1.00  0.00     0.034 A 
BRANCH  53  67
ATOM     67  C   UNL A   1      47.183  28.435  26.560  1.00  0.00     0.023 A 
ATOM     68  C   UNL A   1      47.343  28.361  25.164  1.00  0.00     0.031 A 
ATOM     69  C   UNL A   1      48.268  28.044  27.364  1.00  0.00     0.131 A 
ATOM     70  C   UNL A   1      48.521  27.828  24.619  1.00  0.00     0.055 A 
ATOM     71  C   UNL A   1      49.473  27.602  26.812  1.00  0.00     0.041 A 
ATOM     72  F   UNL A   1      48.172  28.068  28.702  1.00  0.00    -0.206 F 
ATOM     73  C   UNL A   1      49.599  27.474  25.433  1.00  0.00     0.022 A 
BRANCH  70  74
ATOM     74  S   UNL A   1      48.560  27.451  22.844  1.00  0.00     0.124 S 
ATOM     75  O   UNL A   1      47.411  28.209  22.357  1.00  0.00    -0.237 OA
ATOM     76  O   UNL A   1      49.871  27.951  22.444  1.00  0.00    -0.237 OA
ATOM     77  O   UNL A   1      48.405  25.999  22.798  1.00  0.00    -0.744 OA
ENDBRANCH  70  74
ENDBRANCH  53  67
BRANCH  54  78
ATOM     78  C   UNL A   1      38.460  30.763  30.960  1.00  0.00     0.023 A 
ATOM     79  C   UNL A   1      37.413  31.396  30.272  1.00  0.00     0.031 A 
ATOM     80  C   UNL A   1      38.290  30.518  32.335  1.00  0.00     0.131 A 
ATOM     81  C   UNL A   1      36.267  31.813  30.968  1.00  0.00     0.055 A 
ATOM     82  C   UNL A   1      37.123  30.880  33.011  1.00  0.00     0.041 A 
ATOM     83  F   UNL A   1      39.257  29.912  33.041  1.00  0.00    -0.206 F 
ATOM     84  C   UNL A   1      36.109  31.547  32.330  1.00  0.00     0.022 A 
BRANCH  81  85
ATOM     85  S   UNL A   1      35.025  32.800  30.087  1.00  0.00     0.124 S 
ATOM     86  O   UNL A   1      34.028  33.021  31.129  1.00  0.00    -0.237 OA
ATOM     87  O   UNL A   1      35.799  33.968  29.681  1.00  0.00    -0.237 OA
ATOM     88  O   UNL A   1      34.605  31.923  28.996  1.00  0.00    -0.744 OA
ENDBRANCH  81  85
ENDBRANCH  54  78
BRANCH  66  89
ATOM     89  C   UNL A   1      44.274  34.360  29.591  1.00  0.00     0.023 A 
ATOM     90  C   UNL A   1      43.903  35.373  28.689  1.00  0.00     0.031 A 
ATOM     91  C   UNL A   1      45.048  34.724  30.708  1.00  0.00     0.131 A 
ATOM     92  C   UNL A   1      44.381  36.680  28.870  1.00  0.00     0.055 A 
ATOM     93  C   UNL A   1      45.451  36.042  30.927  1.00  0.00     0.041 A 
ATOM     94  F   UNL A   1      45.435  33.801  31.602  1.00  0.00    -0.206 F 
ATOM     95  C   UNL A   1      45.136  37.025  29.993  1.00  0.00     0.022 A 
BRANCH  92  96
ATOM     96  S   UNL A   1      44.130  37.886  27.538  1.00  0.00     0.124 S 
ATOM     97  O   UNL A   1      43.066  37.260  26.760  1.00  0.00    -0.237 OA
ATOM     98  O   UNL A   1      43.758  39.089  28.274  1.00  0.00    -0.237 OA
ATOM     99  O   UNL A   1      45.433  37.941  26.877  1.00  0.00    -0.744 OA
ENDBRANCH  92  96
ENDBRANCH  66  89
ENDBRANCH  40  41
ENDBRANCH  32  35
ENDBRANCH  30  31
ENDBRANCH   1  30
TORSDOF 16
ENDMDL
MODEL 2
REMARK VINA RESULT:     -13.0      4.976     10.326
REMARK SMILES CCc1ccc(-c2cc(Cl)cc3c2O[C@H](C(F)(F)F)C(C(=O)NCCCNC(=O)c2ccc(-c4c5nc(c(-c6cc(S(=O)(=O)[O-])ccc6F)c6ccc([nH]6)c(-c6cc(S(=O)(=O)[O-])ccc6F)c6nc(c(-c7cc(S(=O)(=O)[O-])ccc7F)c7ccc4[nH]7)C=C6)C=C5)cc2)=C3)cc1
REMARK SMILES IDX 25 1 24 2 23 3 21 4 22 5 20 7 7 8 8 9 13 10 9 11 12 12 14 13
REMARK SMILES IDX 10 14 11 15 93 16 15 17 6 18 3 19 4 20 95 21 5 22 94 23 2 24
REMARK SMILES IDX 1 25 16 26 17 27 18 28 19 29 26 30 27 31 28 32 29 34 30 35
REMARK SMILES IDX 31 36 92 37 32 38 91 39 33 40 34 41 35 42 85 43 36 44 90 45
REMARK SMILES IDX 84 46 86 47 37 48 89 49 83 50 82 51 38 53 70 54 50 55 69 56
REMARK SMILES IDX 51 57 54 58 68 59 87 60 52 61 53 62 67 64 88 65 55 66 39 67
REMARK SMILES IDX 40 68 48 69 41 70 47 71 49 72 46 73 42 74 43 75 44 76 45 77
REMARK SMILES IDX 71 78 72 79 80 80 73 81 79 82 81 83 78 84 74 85 75 86 76 87
REMARK SMILES IDX 77 88 56 89 57 90 65 91 58 92 64 93 66 94 63 95 59 96 60 97
REMARK SMILES IDX 61 98 62 99
REMARK H PARENT 23 6 27 33 86 52 54 63
REMARK Flexibility Score: inf
ROOT
ATOM      1  C   UNL A   1      32.536  29.312  25.054  1.00  0.00     0.042 C 
ENDROOT
BRANCH   1   2
ATOM      2  C   UNL A   1      33.445  28.610  24.043  1.00  0.00     0.118 C 
BRANCH   2   3
ATOM      3  N   UNL A   1      34.075  27.458  24.655  1.00  0.00    -0.352 N 
ATOM      4  C   UNL A   1      33.504  26.254  24.904  1.00  0.00     0.251 C 
ATOM      5  O   UNL A   1      33.761  25.660  25.945  1.00  0.00    -0.270 OA
ATOM      6  H   UNL A   1      35.020  27.560  24.918  1.00  0.00     0.163 HD
BRANCH   4   7
ATOM      7  C   UNL A   1      32.701  25.649  23.803  1.00  0.00     0.067 C 
ATOM      8  C   UNL A   1      33.585  21.724  24.411  1.00  0.00     0.026 A 
ATOM      9  C   UNL A   1      34.991  21.647  24.604  1.00  0.00     0.033 A 
ATOM     10  C   UNL A   1      33.096  22.940  23.899  1.00  0.00     0.135 A 
ATOM     11  C   UNL A   1      35.869  22.637  24.170  1.00  0.00     0.042 A 
ATOM     12  C   UNL A   1      34.012  23.876  23.352  1.00  0.00     0.019 A 
ATOM     13  O   UNL A   1      31.758  23.309  23.948  1.00  0.00    -0.475 OA
ATOM     14  Cl  UNL A   1      37.553  22.479  24.476  1.00  0.00    -0.084 Cl
ATOM     15  C   UNL A   1      35.390  23.726  23.473  1.00  0.00     0.032 A 
ATOM     16  C   UNL A   1      33.471  25.145  22.819  1.00  0.00     0.025 C 
ATOM     17  C   UNL A   1      31.547  24.763  24.244  1.00  0.00     0.314 C 
BRANCH   8  18
ATOM     18  C   UNL A   1      32.869  20.431  24.595  1.00  0.00    -0.015 A 
ATOM     19  C   UNL A   1      32.610  17.579  24.744  1.00  0.00    -0.048 A 
ATOM     20  C   UNL A   1      32.832  18.349  25.895  1.00  0.00     0.004 A 
ATOM     21  C   UNL A   1      32.374  18.265  23.548  1.00  0.00     0.004 A 
ATOM     22  C   UNL A   1      32.939  19.746  25.825  1.00  0.00     0.009 A 
ATOM     23  C   UNL A   1      32.500  19.668  23.474  1.00  0.00     0.009 A 
BRANCH  19  24
ATOM     24  C   UNL A   1      32.604  16.069  24.868  1.00  0.00     0.032 C 
ATOM     25  C   UNL A   1      33.886  15.404  25.363  1.00  0.00     0.009 C 
ENDBRANCH  19  24
ENDBRANCH   8  18
BRANCH  17  26
ATOM     26  C   UNL A   1      30.257  25.310  23.587  1.00  0.00     0.429 C 
ATOM     27  F   UNL A   1      29.602  24.375  22.861  1.00  0.00    -0.167 F 
ATOM     28  F   UNL A   1      29.395  25.786  24.516  1.00  0.00    -0.167 F 
ATOM     29  F   UNL A   1      30.502  26.345  22.738  1.00  0.00    -0.167 F 
ENDBRANCH  17  26
ENDBRANCH   4   7
ENDBRANCH   2   3
ENDBRANCH   1   2
BRANCH   1  30
ATOM     30  C   UNL A   1      33.231  29.738  26.345  1.00  0.00     0.118 C 
BRANCH  30  31
ATOM     31  N   UNL A   1      33.038  31.144  26.656  1.00  0.00    -0.352 N 
ATOM     32  C   UNL A   1      33.745  31.943  27.520  1.00  0.00     0.251 C 
ATOM     33  H   UNL A   1      32.296  31.585  26.181  1.00  0.00     0.163 HD
ATOM     34  O   UNL A   1      33.319  33.067  27.785  1.00  0.00    -0.269 OA
BRANCH  32  35
ATOM     35  C   UNL A   1      34.989  31.444  28.143  1.00  0.00     0.039 A 
ATOM     36  C   UNL A   1      35.024  30.136  28.630  1.00  0.00     0.014 A 
ATOM     37  C   UNL A   1      36.118  32.262  28.255  1.00  0.00     0.014 A 
ATOM     38  C   UNL A   1      36.202  29.639  29.193  1.00  0.00     0.010 A 
ATOM     39  C   UNL A   1      37.316  31.734  28.722  1.00  0.00     0.010 A 
ATOM     40  C   UNL A   1      37.366  30.425  29.224  1.00  0.00    -0.014 A 
BRANCH  40  41
ATOM     41  C   UNL A   1      38.621  29.909  29.834  1.00  0.00     0.031 A 
ATOM     42  C   UNL A   1      39.042  30.386  31.201  1.00  0.00     0.074 A 
ATOM     43  C   UNL A   1      39.389  29.034  29.154  1.00  0.00     0.049 A 
ATOM     44  N   UNL A   1      40.104  30.071  31.898  1.00  0.00    -0.248 NA
ATOM     45  C   UNL A   1      38.172  31.376  31.854  1.00  0.00     0.031 C 
ATOM     46  C   UNL A   1      39.113  28.539  27.803  1.00  0.00     0.029 A 
ATOM     47  N   UNL A   1      40.555  28.401  29.505  1.00  0.00    -0.354 N 
ATOM     48  C   UNL A   1      40.033  30.832  33.062  1.00  0.00     0.074 A 
ATOM     49  C   UNL A   1      38.872  31.684  32.934  1.00  0.00     0.031 C 
ATOM     50  C   UNL A   1      40.056  27.646  27.460  1.00  0.00     0.029 A 
ATOM     51  C   UNL A   1      41.027  27.537  28.544  1.00  0.00     0.049 A 
ATOM     52  H   UNL A   1      41.010  28.550  30.365  1.00  0.00     0.167 HD
ATOM     53  C   UNL A   1      40.840  30.800  34.152  1.00  0.00     0.034 A 
ATOM     54  C   UNL A   1      42.120  26.747  28.538  1.00  0.00     0.034 A 
ATOM     55  C   UNL A   1      41.985  29.931  34.269  1.00  0.00     0.049 A 
ATOM     56  C   UNL A   1      43.005  26.731  29.759  1.00  0.00     0.074 A 
ATOM     57  C   UNL A   1      42.847  29.778  35.341  1.00  0.00     0.029 A 
ATOM     58  N   UNL A   1      42.432  29.067  33.276  1.00  0.00    -0.354 N 
ATOM     59  N   UNL A   1      42.892  27.416  30.875  1.00  0.00    -0.248 NA
ATOM     60  C   UNL A   1      44.153  25.819  29.726  1.00  0.00     0.031 C 
ATOM     61  C   UNL A   1      43.854  28.880  34.969  1.00  0.00     0.029 A 
ATOM     62  C   UNL A   1      43.572  28.400  33.700  1.00  0.00     0.049 A 
ATOM     63  H   UNL A   1      42.002  28.946  32.399  1.00  0.00     0.167 HD
ATOM     64  C   UNL A   1      43.937  26.988  31.690  1.00  0.00     0.074 A 
ATOM     65  C   UNL A   1      44.648  25.969  30.945  1.00  0.00     0.031 C 
ATOM     66  C   UNL A   1      44.280  27.397  32.940  1.00  0.00     0.034 A 
BRANCH  53  67
ATOM     67  C   UNL A   1      40.515  31.747  35.286  1.00  0.00     0.023 A 
ATOM     68  C   UNL A   1      39.538  31.440  36.250  1.00  0.00     0.031 A 
ATOM     69  C   UNL A   1      41.161  32.992  35.383  1.00  0.00     0.131 A 
ATOM     70  C   UNL A   1      39.175  32.395  37.212  1.00  0.00     0.055 A 
ATOM     71  C   UNL A   1      40.860  33.902  36.400  1.00  0.00     0.041 A 
ATOM     72  F   UNL A   1      42.085  33.356  34.481  1.00  0.00    -0.206 F 
ATOM     73  C   UNL A   1      39.849  33.614  37.311  1.00  0.00     0.022 A 
BRANCH  70  74
ATOM     74  S   UNL A   1      37.700  32.088  38.224  1.00  0.00     0.124 S 
ATOM     75  O   UNL A   1      38.224  32.281  39.574  1.00  0.00    -0.237 OA
ATOM     76  O   UNL A   1      36.772  33.108  37.747  1.00  0.00    -0.237 OA
ATOM     77  O   UNL A   1      37.338  30.712  37.895  1.00  0.00    -0.744 OA
ENDBRANCH  70  74
ENDBRANCH  53  67
BRANCH  54  78
ATOM     78  C   UNL A   1      42.440  25.898  27.351  1.00  0.00     0.023 A 
ATOM     79  C   UNL A   1      42.038  24.555  27.290  1.00  0.00     0.031 A 
ATOM     80  C   UNL A   1      43.202  26.406  26.284  1.00  0.00     0.131 A 
ATOM     81  C   UNL A   1      42.446  23.749  26.214  1.00  0.00     0.055 A 
ATOM     82  C   UNL A   1      43.554  25.617  25.187  1.00  0.00     0.041 A 
ATOM     83  F   UNL A   1      43.610  27.685  26.288  1.00  0.00    -0.206 F 
ATOM     84  C   UNL A   1      43.190  24.275  25.156  1.00  0.00     0.022 A 
BRANCH  81  85
ATOM     85  S   UNL A   1      42.075  21.973  26.268  1.00  0.00     0.124 S 
ATOM     86  O   UNL A   1      40.639  21.963  26.015  1.00  0.00    -0.237 OA
ATOM     87  O   UNL A   1      42.920  21.455  25.197  1.00  0.00    -0.237 OA
ATOM     88  O   UNL A   1      42.475  21.583  27.618  1.00  0.00    -0.744 OA
ENDBRANCH  81  85
ENDBRANCH  54  78
BRANCH  66  89
ATOM     89  C   UNL A   1      45.452  26.696  33.589  1.00  0.00     0.023 A 
ATOM     90  C   UNL A   1      45.292  25.501  34.312  1.00  0.00     0.031 A 
ATOM     91  C   UNL A   1      46.739  27.260  33.525  1.00  0.00     0.131 A 
ATOM     92  C   UNL A   1      46.378  24.958  35.015  1.00  0.00     0.055 A 
ATOM     93  C   UNL A   1      47.833  26.669  34.158  1.00  0.00     0.041 A 
ATOM     94  F   UNL A   1      46.954  28.401  32.852  1.00  0.00    -0.206 F 
ATOM     95  C   UNL A   1      47.651  25.524  34.927  1.00  0.00     0.022 A 
BRANCH  92  96
ATOM     96  S   UNL A   1      46.068  23.592  36.167  1.00  0.00     0.124 S 
ATOM     97  O   UNL A   1      47.201  22.710  35.904  1.00  0.00    -0.237 OA
ATOM     98  O   UNL A   1      46.074  24.268  37.460  1.00  0.00    -0.237 OA
ATOM     99  O   UNL A   1      44.767  23.075  35.743  1.00  0.00    -0.744 OA
ENDBRANCH  92  96
ENDBRANCH  66  89
ENDBRANCH  40  41
ENDBRANCH  32  35
ENDBRANCH  30  31
ENDBRANCH   1  30
TORSDOF 16
ENDMDL
MODEL 3
REMARK VINA RESULT:     -12.8      5.777      9.252
REMARK SMILES CCc1ccc(-c2cc(Cl)cc3c2O[C@H](C(F)(F)F)C(C(=O)NCCCNC(=O)c2ccc(-c4c5nc(c(-c6cc(S(=O)(=O)[O-])ccc6F)c6ccc([nH]6)c(-c6cc(S(=O)(=O)[O-])ccc6F)c6nc(c(-c7cc(S(=O)(=O)[O-])ccc7F)c7ccc4[nH]7)C=C6)C=C5)cc2)=C3)cc1
REMARK SMILES IDX 25 1 24 2 23 3 21 4 22 5 20 7 7 8 8 9 13 10 9 11 12 12 14 13
REMARK SMILES IDX 10 14 11 15 93 16 15 17 6 18 3 19 4 20 95 21 5 22 94 23 2 24
REMARK SMILES IDX 1 25 16 26 17 27 18 28 19 29 26 30 27 31 28 32 29 34 30 35
REMARK SMILES IDX 31 36 92 37 32 38 91 39 33 40 34 41 35 42 85 43 36 44 90 45
REMARK SMILES IDX 84 46 86 47 37 48 89 49 83 50 82 51 38 53 70 54 50 55 69 56
REMARK SMILES IDX 51 57 54 58 68 59 87 60 52 61 53 62 67 64 88 65 55 66 39 67
REMARK SMILES IDX 40 68 48 69 41 70 47 71 49 72 46 73 42 74 43 75 44 76 45 77
REMARK SMILES IDX 71 78 72 79 80 80 73 81 79 82 81 83 78 84 74 85 75 86 76 87
REMARK SMILES IDX 77 88 56 89 57 90 65 91 58 92 64 93 66 94 63 95 59 96 60 97
REMARK SMILES IDX 61 98 62 99
REMARK H PARENT 23 6 27 33 86 52 54 63
REMARK Flexibility Score: inf
ROOT
ATOM      1  C   UNL A   1      31.912  32.853  26.357  1.00  0.00     0.042 C 
ENDROOT
BRANCH   1   2
ATOM      2  C   UNL A   1      30.974  31.661  26.559  1.00  0.00     0.118 C 
BRANCH   2   3
ATOM      3  N   UNL A   1      31.218  30.657  25.544  1.00  0.00    -0.352 N 
ATOM      4  C   UNL A   1      32.353  29.937  25.367  1.00  0.00     0.251 C 
ATOM      5  O   UNL A   1      32.758  29.704  24.234  1.00  0.00    -0.270 OA
ATOM      6  H   UNL A   1      30.480  30.479  24.915  1.00  0.00     0.163 HD
BRANCH   4   7
ATOM      7  C   UNL A   1      32.964  29.334  26.586  1.00  0.00     0.067 C 
ATOM      8  C   UNL A   1      33.539  25.538  25.236  1.00  0.00     0.026 A 
ATOM      9  C   UNL A   1      32.336  25.150  24.584  1.00  0.00     0.033 A 
ATOM     10  C   UNL A   1      33.466  26.699  26.028  1.00  0.00     0.135 A 
ATOM     11  C   UNL A   1      31.112  25.767  24.826  1.00  0.00     0.042 A 
ATOM     12  C   UNL A   1      32.192  27.231  26.356  1.00  0.00     0.019 A 
ATOM     13  O   UNL A   1      34.584  27.397  26.468  1.00  0.00    -0.475 OA
ATOM     14  Cl  UNL A   1      29.714  25.257  23.967  1.00  0.00    -0.084 Cl
ATOM     15  C   UNL A   1      31.018  26.766  25.771  1.00  0.00     0.032 A 
ATOM     16  C   UNL A   1      32.145  28.452  27.191  1.00  0.00     0.025 C 
ATOM     17  C   UNL A   1      34.410  28.885  26.441  1.00  0.00     0.314 C 
BRANCH   8  18
ATOM     18  C   UNL A   1      34.640  24.540  25.137  1.00  0.00    -0.015 A 
ATOM     19  C   UNL A   1      35.790  21.922  24.934  1.00  0.00    -0.048 A 
ATOM     20  C   UNL A   1      35.527  22.689  23.791  1.00  0.00     0.004 A 
ATOM     21  C   UNL A   1      35.608  22.537  26.178  1.00  0.00     0.004 A 
ATOM     22  C   UNL A   1      34.982  23.978  23.890  1.00  0.00     0.009 A 
ATOM     23  C   UNL A   1      35.043  23.826  26.278  1.00  0.00     0.009 A 
BRANCH  19  24
ATOM     24  C   UNL A   1      36.283  20.499  24.760  1.00  0.00     0.032 C 
ATOM     25  C   UNL A   1      37.777  20.251  24.956  1.00  0.00     0.009 C 
ENDBRANCH  19  24
ENDBRANCH   8  18
BRANCH  17  26
ATOM     26  C   UNL A   1      35.232  29.588  27.548  1.00  0.00     0.429 C 
ATOM     27  F   UNL A   1      35.835  28.714  28.386  1.00  0.00    -0.167 F 
ATOM     28  F   UNL A   1      36.195  30.380  27.020  1.00  0.00    -0.167 F 
ATOM     29  F   UNL A   1      34.469  30.398  28.331  1.00  0.00    -0.167 F 
ENDBRANCH  17  26
ENDBRANCH   4   7
ENDBRANCH   2   3
ENDBRANCH   1   2
BRANCH   1  30
ATOM     30  C   UNL A   1      32.848  33.131  27.532  1.00  0.00     0.118 C 
BRANCH  30  31
ATOM     31  N   UNL A   1      32.823  34.518  27.961  1.00  0.00    -0.352 N 
ATOM     32  C   UNL A   1      33.529  35.123  28.971  1.00  0.00     0.251 C 
ATOM     33  H   UNL A   1      32.214  35.107  27.458  1.00  0.00     0.163 HD
ATOM     34  O   UNL A   1      33.240  36.274  29.302  1.00  0.00    -0.269 OA
BRANCH  32  35
ATOM     35  C   UNL A   1      34.605  34.388  29.668  1.00  0.00     0.039 A 
ATOM     36  C   UNL A   1      35.918  34.517  29.210  1.00  0.00     0.014 A 
ATOM     37  C   UNL A   1      34.326  33.568  30.766  1.00  0.00     0.014 A 
ATOM     38  C   UNL A   1      36.952  33.855  29.877  1.00  0.00     0.010 A 
ATOM     39  C   UNL A   1      35.366  32.993  31.488  1.00  0.00     0.010 A 
ATOM     40  C   UNL A   1      36.689  33.105  31.036  1.00  0.00    -0.014 A 
BRANCH  40  41
ATOM     41  C   UNL A   1      37.781  32.385  31.744  1.00  0.00     0.031 A 
ATOM     42  C   UNL A   1      38.496  31.247  31.060  1.00  0.00     0.074 A 
ATOM     43  C   UNL A   1      38.112  32.736  33.003  1.00  0.00     0.049 A 
ATOM     44  N   UNL A   1      39.461  30.485  31.509  1.00  0.00    -0.248 NA
ATOM     45  C   UNL A   1      38.042  30.898  29.706  1.00  0.00     0.031 C 
ATOM     46  C   UNL A   1      37.458  33.785  33.788  1.00  0.00     0.029 A 
ATOM     47  N   UNL A   1      39.085  32.254  33.843  1.00  0.00    -0.354 N 
ATOM     48  C   UNL A   1      39.717  29.562  30.498  1.00  0.00     0.074 A 
ATOM     49  C   UNL A   1      38.749  29.808  29.453  1.00  0.00     0.031 C 
ATOM     50  C   UNL A   1      38.075  33.898  34.975  1.00  0.00     0.029 A 
ATOM     51  C   UNL A   1      39.140  32.903  35.056  1.00  0.00     0.049 A 
ATOM     52  H   UNL A   1      39.687  31.514  33.600  1.00  0.00     0.167 HD
ATOM     53  C   UNL A   1      40.691  28.620  30.430  1.00  0.00     0.034 A 
ATOM     54  C   UNL A   1      39.957  32.716  36.112  1.00  0.00     0.034 A 
ATOM     55  C   UNL A   1      41.660  28.401  31.476  1.00  0.00     0.049 A 
ATOM     56  C   UNL A   1      41.030  31.659  36.016  1.00  0.00     0.074 A 
ATOM     57  C   UNL A   1      42.717  27.509  31.500  1.00  0.00     0.029 A 
ATOM     58  N   UNL A   1      41.687  29.079  32.690  1.00  0.00    -0.354 N 
ATOM     59  N   UNL A   1      41.295  30.833  35.028  1.00  0.00    -0.248 NA
ATOM     60  C   UNL A   1      41.926  31.526  37.169  1.00  0.00     0.031 C 
ATOM     61  C   UNL A   1      43.337  27.596  32.752  1.00  0.00     0.029 A 
ATOM     62  C   UNL A   1      42.725  28.606  33.478  1.00  0.00     0.049 A 
ATOM     63  H   UNL A   1      41.060  29.791  32.952  1.00  0.00     0.167 HD
ATOM     64  C   UNL A   1      42.412  30.107  35.432  1.00  0.00     0.074 A 
ATOM     65  C   UNL A   1      42.783  30.615  36.737  1.00  0.00     0.031 C 
ATOM     66  C   UNL A   1      43.074  29.112  34.785  1.00  0.00     0.034 A 
BRANCH  53  67
ATOM     67  C   UNL A   1      40.734  27.752  29.193  1.00  0.00     0.023 A 
ATOM     68  C   UNL A   1      41.672  27.972  28.167  1.00  0.00     0.031 A 
ATOM     69  C   UNL A   1      39.801  26.717  29.014  1.00  0.00     0.131 A 
ATOM     70  C   UNL A   1      41.601  27.229  26.978  1.00  0.00     0.055 A 
ATOM     71  C   UNL A   1      39.795  25.919  27.867  1.00  0.00     0.041 A 
ATOM     72  F   UNL A   1      38.865  26.471  29.944  1.00  0.00    -0.206 F 
ATOM     73  C   UNL A   1      40.686  26.184  26.833  1.00  0.00     0.022 A 
BRANCH  70  74
ATOM     74  S   UNL A   1      42.610  27.756  25.566  1.00  0.00     0.124 S 
ATOM     75  O   UNL A   1      43.887  28.052  26.211  1.00  0.00    -0.237 OA
ATOM     76  O   UNL A   1      42.588  26.578  24.705  1.00  0.00    -0.237 OA
ATOM     77  O   UNL A   1      41.897  28.921  25.049  1.00  0.00    -0.744 OA
ENDBRANCH  70  74
ENDBRANCH  53  67
BRANCH  54  78
ATOM     78  C   UNL A   1      39.809  33.544  37.345  1.00  0.00     0.023 A 
ATOM     79  C   UNL A   1      39.123  33.057  38.469  1.00  0.00     0.031 A 
ATOM     80  C   UNL A   1      40.306  34.859  37.397  1.00  0.00     0.131 A 
ATOM     81  C   UNL A   1      38.902  33.895  39.574  1.00  0.00     0.055 A 
ATOM     82  C   UNL A   1      40.135  35.669  38.523  1.00  0.00     0.041 A 
ATOM     83  F   UNL A   1      40.973  35.375  36.354  1.00  0.00    -0.206 F 
ATOM     84  C   UNL A   1      39.416  35.193  39.614  1.00  0.00     0.022 A 
BRANCH  81  85
ATOM     85  S   UNL A   1      37.844  33.296  40.922  1.00  0.00     0.124 S 
ATOM     86  O   UNL A   1      36.547  33.201  40.261  1.00  0.00    -0.237 OA
ATOM     87  O   UNL A   1      38.482  32.032  41.269  1.00  0.00    -0.237 OA
ATOM     88  O   UNL A   1      37.955  34.346  41.932  1.00  0.00    -0.744 OA
ENDBRANCH  81  85
ENDBRANCH  54  78
BRANCH  66  89
ATOM     89  C   UNL A   1      44.298  28.548  35.471  1.00  0.00     0.023 A 
ATOM     90  C   UNL A   1      44.201  27.535  36.442  1.00  0.00     0.031 A 
ATOM     91  C   UNL A   1      45.574  29.066  35.184  1.00  0.00     0.131 A 
ATOM     92  C   UNL A   1      45.344  27.138  37.154  1.00  0.00     0.055 A 
ATOM     93  C   UNL A   1      46.719  28.606  35.837  1.00  0.00     0.041 A 
ATOM     94  F   UNL A   1      45.729  30.035  34.269  1.00  0.00    -0.206 F 
ATOM     95  C   UNL A   1      46.604  27.653  36.844  1.00  0.00     0.022 A 
BRANCH  92  96
ATOM     96  S   UNL A   1      45.134  26.052  38.591  1.00  0.00     0.124 S 
ATOM     97  O   UNL A   1      44.783  24.782  37.963  1.00  0.00    -0.237 OA
ATOM     98  O   UNL A   1      46.449  26.110  39.219  1.00  0.00    -0.237 OA
ATOM     99  O   UNL A   1      44.057  26.690  39.347  1.00  0.00    -0.744 OA
ENDBRANCH  92  96
ENDBRANCH  66  89
ENDBRANCH  40  41
ENDBRANCH  32  35
ENDBRANCH  30  31
ENDBRANCH   1  30
TORSDOF 16
ENDMDL
