MODEL 1
REMARK VINA RESULT:     -11.0      0.000      0.000
REMARK SMILES CC[C@H](C)[C@@H](NC(=O)c1csc(NC(C)=O)n1)C(=O)NCCCNC(=O)c1ccc(-c2c3nc(c(-c4cc(S(=O)(=O)[O-])ccc4F)c4ccc([nH]4)c(-c4cc(S(=O)(=O)[O-])ccc4F)c4nc(c(-c5cc(S(=O)(=O)[O-])ccc5F)c5ccc2[nH]5)C=C4)C=C3)cc1
REMARK SMILES IDX 22 1 21 2 20 3 18 4 19 5 5 7 3 8 4 9 2 10 1 11 6 12 7 13
REMARK SMILES IDX 8 15 9 16 10 17 17 18 11 19 12 20 13 21 14 22 15 24 16 25
REMARK SMILES IDX 23 26 24 27 25 28 26 30 27 31 28 32 89 33 29 34 88 35 30 36
REMARK SMILES IDX 31 37 32 38 82 39 33 40 87 41 81 42 83 43 34 44 86 45 80 46
REMARK SMILES IDX 79 47 35 49 67 50 47 51 66 52 48 53 51 54 65 55 84 56 49 57
REMARK SMILES IDX 50 58 64 60 85 61 52 62 36 63 37 64 45 65 38 66 44 67 46 68
REMARK SMILES IDX 43 69 39 70 40 71 41 72 42 73 68 74 69 75 77 76 70 77 76 78
REMARK SMILES IDX 78 79 75 80 71 81 72 82 73 83 74 84 53 85 54 86 62 87 55 88
REMARK SMILES IDX 61 89 63 90 60 91 56 92 57 93 58 94 59 95
REMARK H PARENT 20 6 6 14 13 23 24 29 83 48 51 59
REMARK Flexibility Score: inf
ROOT
ATOM      1  C   UNL A   1      32.982  27.705  26.490  1.00  0.00     0.042 C 
ENDROOT
BRANCH   1   2
ATOM      2  C   UNL A   1      33.308  26.312  25.987  1.00  0.00     0.117 C 
BRANCH   2   3
ATOM      3  N   UNL A   1      32.106  25.543  25.732  1.00  0.00    -0.354 N 
ATOM      4  C   UNL A   1      31.900  24.516  24.862  1.00  0.00     0.242 C 
ATOM      5  O   UNL A   1      30.752  24.062  24.774  1.00  0.00    -0.273 OA
ATOM      6  H   UNL A   1      31.322  25.801  26.268  1.00  0.00     0.163 HD
BRANCH   4   7
ATOM      7  C   UNL A   1      33.018  24.054  23.898  1.00  0.00     0.174 C 
BRANCH   7   8
ATOM      8  C   UNL A   1      33.254  22.516  24.174  1.00  0.00     0.018 C 
ATOM      9  C   UNL A   1      32.568  21.604  23.150  1.00  0.00     0.010 C 
BRANCH   8  10
ATOM     10  C   UNL A   1      34.772  22.206  24.288  1.00  0.00     0.002 C 
ATOM     11  C   UNL A   1      35.600  23.245  25.032  1.00  0.00     0.004 C 
ENDBRANCH   8  10
ENDBRANCH   7   8
BRANCH   7  12
ATOM     12  N   UNL A   1      32.771  24.319  22.462  1.00  0.00    -0.339 N 
ATOM     13  C   UNL A   1      32.900  25.460  21.701  1.00  0.00     0.271 C 
ATOM     14  H   UNL A   1      32.458  23.534  21.957  1.00  0.00     0.164 HD
ATOM     15  O   UNL A   1      32.900  25.329  20.476  1.00  0.00    -0.267 OA
BRANCH  13  16
ATOM     16  C   UNL A   1      32.852  26.777  22.330  1.00  0.00     0.141 A 
ATOM     17  C   UNL A   1      33.939  27.638  22.328  1.00  0.00     0.102 A 
ATOM     18  N   UNL A   1      31.712  27.310  22.915  1.00  0.00    -0.215 NA
ATOM     19  S   UNL A   1      33.456  29.187  22.872  1.00  0.00    -0.104 S 
ATOM     20  C   UNL A   1      31.877  28.599  23.105  1.00  0.00     0.190 A 
BRANCH  20  21
ATOM     21  N   UNL A   1      30.819  29.400  23.450  1.00  0.00    -0.302 N 
ATOM     22  C   UNL A   1      29.830  29.855  22.613  1.00  0.00     0.223 C 
ATOM     23  H   UNL A   1      30.763  29.677  24.393  1.00  0.00     0.172 HD
ATOM     24  C   UNL A   1      28.840  30.758  23.306  1.00  0.00     0.114 C 
ATOM     25  O   UNL A   1      29.681  29.579  21.427  1.00  0.00    -0.275 OA
ENDBRANCH  20  21
ENDBRANCH  13  16
ENDBRANCH   7  12
ENDBRANCH   4   7
ENDBRANCH   2   3
ENDBRANCH   1   2
BRANCH   1  26
ATOM     26  C   UNL A   1      34.174  28.650  26.478  1.00  0.00     0.118 C 
BRANCH  26  27
ATOM     27  N   UNL A   1      33.812  30.028  26.770  1.00  0.00    -0.352 N 
ATOM     28  C   UNL A   1      34.419  30.910  27.631  1.00  0.00     0.251 C 
ATOM     29  H   UNL A   1      33.027  30.375  26.287  1.00  0.00     0.163 HD
ATOM     30  O   UNL A   1      33.873  31.973  27.905  1.00  0.00    -0.269 OA
BRANCH  28  31
ATOM     31  C   UNL A   1      35.710  30.539  28.246  1.00  0.00     0.039 A 
ATOM     32  C   UNL A   1      35.714  29.678  29.343  1.00  0.00     0.014 A 
ATOM     33  C   UNL A   1      36.913  31.006  27.708  1.00  0.00     0.014 A 
ATOM     34  C   UNL A   1      36.931  29.229  29.855  1.00  0.00     0.010 A 
ATOM     35  C   UNL A   1      38.119  30.484  28.157  1.00  0.00     0.010 A 
ATOM     36  C   UNL A   1      38.141  29.596  29.242  1.00  0.00    -0.014 A 
BRANCH  36  37
ATOM     37  C   UNL A   1      39.434  29.056  29.730  1.00  0.00     0.031 A 
ATOM     38  C   UNL A   1      40.119  29.688  30.911  1.00  0.00     0.074 A 
ATOM     39  C   UNL A   1      40.007  28.025  29.078  1.00  0.00     0.049 A 
ATOM     40  N   UNL A   1      41.247  29.359  31.485  1.00  0.00    -0.248 NA
ATOM     41  C   UNL A   1      39.467  30.868  31.501  1.00  0.00     0.031 C 
ATOM     42  C   UNL A   1      39.472  27.384  27.873  1.00  0.00     0.029 A 
ATOM     43  N   UNL A   1      41.161  27.332  29.336  1.00  0.00    -0.354 N 
ATOM     44  C   UNL A   1      41.443  30.294  32.497  1.00  0.00     0.074 A 
ATOM     45  C   UNL A   1      40.357  31.246  32.405  1.00  0.00     0.031 C 
ATOM     46  C   UNL A   1      40.274  26.365  27.524  1.00  0.00     0.029 A 
ATOM     47  C   UNL A   1      41.394  26.299  28.456  1.00  0.00     0.049 A 
ATOM     48  H   UNL A   1      41.767  27.551  30.081  1.00  0.00     0.167 HD
ATOM     49  C   UNL A   1      42.421  30.335  33.436  1.00  0.00     0.034 A 
ATOM     50  C   UNL A   1      42.393  25.397  28.413  1.00  0.00     0.034 A 
ATOM     51  C   UNL A   1      43.487  29.367  33.520  1.00  0.00     0.049 A 
ATOM     52  C   UNL A   1      43.452  25.446  29.483  1.00  0.00     0.074 A 
ATOM     53  C   UNL A   1      44.498  29.273  34.460  1.00  0.00     0.029 A 
ATOM     54  N   UNL A   1      43.681  28.322  32.624  1.00  0.00    -0.354 N 
ATOM     55  N   UNL A   1      43.586  26.294  30.476  1.00  0.00    -0.248 NA
ATOM     56  C   UNL A   1      44.484  24.403  29.435  1.00  0.00     0.031 C 
ATOM     57  C   UNL A   1      45.335  28.210  34.100  1.00  0.00     0.029 A 
ATOM     58  C   UNL A   1      44.809  27.595  32.975  1.00  0.00     0.049 A 
ATOM     59  H   UNL A   1      43.102  28.127  31.852  1.00  0.00     0.167 HD
ATOM     60  C   UNL A   1      44.708  25.874  31.184  1.00  0.00     0.074 A 
ATOM     61  C   UNL A   1      45.192  24.680  30.518  1.00  0.00     0.031 C 
ATOM     62  C   UNL A   1      45.290  26.423  32.281  1.00  0.00     0.034 A 
BRANCH  49  63
ATOM     63  C   UNL A   1      42.378  31.474  34.428  1.00  0.00     0.023 A 
ATOM     64  C   UNL A   1      41.485  31.471  35.516  1.00  0.00     0.031 A 
ATOM     65  C   UNL A   1      43.208  32.597  34.266  1.00  0.00     0.131 A 
ATOM     66  C   UNL A   1      41.384  32.598  36.345  1.00  0.00     0.055 A 
ATOM     67  C   UNL A   1      43.162  33.682  35.145  1.00  0.00     0.041 A 
ATOM     68  F   UNL A   1      44.067  32.668  33.236  1.00  0.00    -0.206 F 
ATOM     69  C   UNL A   1      42.234  33.693  36.183  1.00  0.00     0.022 A 
BRANCH  66  70
ATOM     70  S   UNL A   1      40.026  32.671  37.546  1.00  0.00     0.124 S 
ATOM     71  O   UNL A   1      39.545  34.038  37.362  1.00  0.00    -0.237 OA
ATOM     72  O   UNL A   1      39.137  31.613  37.083  1.00  0.00    -0.237 OA
ATOM     73  O   UNL A   1      40.687  32.417  38.825  1.00  0.00    -0.744 OA
ENDBRANCH  66  70
ENDBRANCH  49  63
BRANCH  50  74
ATOM     74  C   UNL A   1      42.434  24.365  27.339  1.00  0.00     0.023 A 
ATOM     75  C   UNL A   1      41.679  23.186  27.438  1.00  0.00     0.031 A 
ATOM     76  C   UNL A   1      43.255  24.531  26.210  1.00  0.00     0.131 A 
ATOM     77  C   UNL A   1      41.796  22.196  26.450  1.00  0.00     0.055 A 
ATOM     78  C   UNL A   1      43.332  23.565  25.205  1.00  0.00     0.041 A 
ATOM     79  F   UNL A   1      43.988  25.647  26.061  1.00  0.00    -0.206 F 
ATOM     80  C   UNL A   1      42.609  22.382  25.329  1.00  0.00     0.022 A 
BRANCH  77  81
ATOM     81  S   UNL A   1      40.923  20.623  26.688  1.00  0.00     0.124 S 
ATOM     82  O   UNL A   1      39.662  20.874  26.000  1.00  0.00    -0.237 OA
ATOM     83  O   UNL A   1      41.829  19.675  26.047  1.00  0.00    -0.237 OA
ATOM     84  O   UNL A   1      40.830  20.504  28.142  1.00  0.00    -0.744 OA
ENDBRANCH  77  81
ENDBRANCH  50  74
BRANCH  62  85
ATOM     85  C   UNL A   1      46.504  25.712  32.826  1.00  0.00     0.023 A 
ATOM     86  C   UNL A   1      46.387  24.680  33.773  1.00  0.00     0.031 A 
ATOM     87  C   UNL A   1      47.795  26.100  32.424  1.00  0.00     0.131 A 
ATOM     88  C   UNL A   1      47.539  24.122  34.343  1.00  0.00     0.055 A 
ATOM     89  C   UNL A   1      48.938  25.495  32.948  1.00  0.00     0.041 A 
ATOM     90  F   UNL A   1      47.964  27.081  31.523  1.00  0.00    -0.206 F 
ATOM     91  C   UNL A   1      48.814  24.512  33.926  1.00  0.00     0.022 A 
BRANCH  88  92
ATOM     92  S   UNL A   1      47.349  22.962  35.725  1.00  0.00     0.124 S 
ATOM     93  O   UNL A   1      47.929  21.740  35.178  1.00  0.00    -0.237 OA
ATOM     94  O   UNL A   1      48.115  23.612  36.784  1.00  0.00    -0.237 OA
ATOM     95  O   UNL A   1      45.905  22.921  35.942  1.00  0.00    -0.744 OA
ENDBRANCH  88  92
ENDBRANCH  62  85
ENDBRANCH  36  37
ENDBRANCH  28  31
ENDBRANCH  26  27
ENDBRANCH   1  26
TORSDOF 18
ENDMDL
MODEL 2
REMARK VINA RESULT:     -10.9      2.199      3.488
REMARK SMILES CC[C@H](C)[C@@H](NC(=O)c1csc(NC(C)=O)n1)C(=O)NCCCNC(=O)c1ccc(-c2c3nc(c(-c4cc(S(=O)(=O)[O-])ccc4F)c4ccc([nH]4)c(-c4cc(S(=O)(=O)[O-])ccc4F)c4nc(c(-c5cc(S(=O)(=O)[O-])ccc5F)c5ccc2[nH]5)C=C4)C=C3)cc1
REMARK SMILES IDX 22 1 21 2 20 3 18 4 19 5 5 7 3 8 4 9 2 10 1 11 6 12 7 13
REMARK SMILES IDX 8 15 9 16 10 17 17 18 11 19 12 20 13 21 14 22 15 24 16 25
REMARK SMILES IDX 23 26 24 27 25 28 26 30 27 31 28 32 89 33 29 34 88 35 30 36
REMARK SMILES IDX 31 37 32 38 82 39 33 40 87 41 81 42 83 43 34 44 86 45 80 46
REMARK SMILES IDX 79 47 35 49 67 50 47 51 66 52 48 53 51 54 65 55 84 56 49 57
REMARK SMILES IDX 50 58 64 60 85 61 52 62 36 63 37 64 45 65 38 66 44 67 46 68
REMARK SMILES IDX 43 69 39 70 40 71 41 72 42 73 68 74 69 75 77 76 70 77 76 78
REMARK SMILES IDX 78 79 75 80 71 81 72 82 73 83 74 84 53 85 54 86 62 87 55 88
REMARK SMILES IDX 61 89 63 90 60 91 56 92 57 93 58 94 59 95
REMARK H PARENT 20 6 6 14 13 23 24 29 83 48 51 59
REMARK Flexibility Score: inf
ROOT
ATOM      1  C   UNL A   1      31.819  28.858  27.266  1.00  0.00     0.042 C 
ENDROOT
BRANCH   1   2
ATOM      2  C   UNL A   1      31.539  27.562  26.530  1.00  0.00     0.117 C 
BRANCH   2   3
ATOM      3  N   UNL A   1      32.762  26.841  26.237  1.00  0.00    -0.354 N 
ATOM      4  C   UNL A   1      33.286  26.470  25.036  1.00  0.00     0.242 C 
ATOM      5  O   UNL A   1      34.320  25.792  25.047  1.00  0.00    -0.273 OA
ATOM      6  H   UNL A   1      33.294  26.581  27.023  1.00  0.00     0.163 HD
BRANCH   4   7
ATOM      7  C   UNL A   1      32.523  26.742  23.718  1.00  0.00     0.174 C 
BRANCH   7   8
ATOM      8  C   UNL A   1      32.484  28.309  23.525  1.00  0.00     0.018 C 
ATOM      9  C   UNL A   1      33.730  28.865  22.824  1.00  0.00     0.010 C 
BRANCH   8  10
ATOM     10  C   UNL A   1      31.180  28.741  22.800  1.00  0.00     0.002 C 
ATOM     11  C   UNL A   1      30.207  29.564  23.633  1.00  0.00     0.004 C 
ENDBRANCH   8  10
ENDBRANCH   7   8
BRANCH   7  12
ATOM     12  N   UNL A   1      33.060  26.058  22.519  1.00  0.00    -0.339 N 
ATOM     13  C   UNL A   1      32.938  24.762  22.066  1.00  0.00     0.271 C 
ATOM     14  H   UNL A   1      33.604  26.636  21.936  1.00  0.00     0.164 HD
ATOM     15  O   UNL A   1      33.251  24.538  20.895  1.00  0.00    -0.267 OA
BRANCH  13  16
ATOM     16  C   UNL A   1      32.628  23.681  22.996  1.00  0.00     0.141 A 
ATOM     17  C   UNL A   1      33.574  22.745  23.383  1.00  0.00     0.102 A 
ATOM     18  N   UNL A   1      31.399  23.532  23.622  1.00  0.00    -0.215 NA
ATOM     19  S   UNL A   1      32.974  21.817  24.691  1.00  0.00    -0.104 S 
ATOM     20  C   UNL A   1      31.513  22.684  24.620  1.00  0.00     0.190 A 
BRANCH  20  21
ATOM     21  N   UNL A   1      30.507  22.541  25.540  1.00  0.00    -0.302 N 
ATOM     22  C   UNL A   1      30.398  23.199  26.741  1.00  0.00     0.223 C 
ATOM     23  H   UNL A   1      29.792  21.902  25.318  1.00  0.00     0.172 HD
ATOM     24  C   UNL A   1      29.190  22.772  27.539  1.00  0.00     0.114 C 
ATOM     25  O   UNL A   1      31.142  24.072  27.175  1.00  0.00    -0.275 OA
ENDBRANCH  20  21
ENDBRANCH  13  16
ENDBRANCH   7  12
ENDBRANCH   4   7
ENDBRANCH   2   3
ENDBRANCH   1   2
BRANCH   1  26
ATOM     26  C   UNL A   1      33.002  29.632  26.705  1.00  0.00     0.118 C 
BRANCH  26  27
ATOM     27  N   UNL A   1      32.919  31.062  26.960  1.00  0.00    -0.352 N 
ATOM     28  C   UNL A   1      33.790  31.859  27.663  1.00  0.00     0.251 C 
ATOM     29  H   UNL A   1      32.136  31.519  26.578  1.00  0.00     0.163 HD
ATOM     30  O   UNL A   1      33.474  33.009  27.947  1.00  0.00    -0.269 OA
BRANCH  28  31
ATOM     31  C   UNL A   1      35.083  31.297  28.102  1.00  0.00     0.039 A 
ATOM     32  C   UNL A   1      36.216  32.110  28.083  1.00  0.00     0.014 A 
ATOM     33  C   UNL A   1      35.163  29.982  28.573  1.00  0.00     0.014 A 
ATOM     34  C   UNL A   1      37.415  31.625  28.605  1.00  0.00     0.010 A 
ATOM     35  C   UNL A   1      36.330  29.536  29.179  1.00  0.00     0.010 A 
ATOM     36  C   UNL A   1      37.471  30.350  29.194  1.00  0.00    -0.014 A 
BRANCH  36  37
ATOM     37  C   UNL A   1      38.721  29.860  29.826  1.00  0.00     0.031 A 
ATOM     38  C   UNL A   1      39.133  30.370  31.181  1.00  0.00     0.074 A 
ATOM     39  C   UNL A   1      39.503  28.990  29.157  1.00  0.00     0.049 A 
ATOM     40  N   UNL A   1      40.184  30.061  31.896  1.00  0.00    -0.248 NA
ATOM     41  C   UNL A   1      38.267  31.388  31.796  1.00  0.00     0.031 C 
ATOM     42  C   UNL A   1      39.243  28.488  27.804  1.00  0.00     0.029 A 
ATOM     43  N   UNL A   1      40.671  28.371  29.520  1.00  0.00    -0.354 N 
ATOM     44  C   UNL A   1      40.109  30.851  33.039  1.00  0.00     0.074 A 
ATOM     45  C   UNL A   1      38.953  31.706  32.882  1.00  0.00     0.031 C 
ATOM     46  C   UNL A   1      40.199  27.606  27.471  1.00  0.00     0.029 A 
ATOM     47  C   UNL A   1      41.155  27.503  28.568  1.00  0.00     0.049 A 
ATOM     48  H   UNL A   1      41.120  28.531  30.381  1.00  0.00     0.167 HD
ATOM     49  C   UNL A   1      40.912  30.840  34.131  1.00  0.00     0.034 A 
ATOM     50  C   UNL A   1      42.243  26.709  28.583  1.00  0.00     0.034 A 
ATOM     51  C   UNL A   1      42.052  29.968  34.273  1.00  0.00     0.049 A 
ATOM     52  C   UNL A   1      43.105  26.693  29.819  1.00  0.00     0.074 A 
ATOM     53  C   UNL A   1      42.904  29.827  35.356  1.00  0.00     0.029 A 
ATOM     54  N   UNL A   1      42.503  29.087  33.298  1.00  0.00    -0.354 N 
ATOM     55  N   UNL A   1      42.981  27.396  30.922  1.00  0.00    -0.248 NA
ATOM     56  C   UNL A   1      44.240  25.764  29.817  1.00  0.00     0.031 C 
ATOM     57  C   UNL A   1      43.901  28.906  35.012  1.00  0.00     0.029 A 
ATOM     58  C   UNL A   1      43.635  28.419  33.742  1.00  0.00     0.049 A 
ATOM     59  H   UNL A   1      42.081  28.957  32.417  1.00  0.00     0.167 HD
ATOM     60  C   UNL A   1      44.015  26.977  31.754  1.00  0.00     0.074 A 
ATOM     61  C   UNL A   1      44.730  25.941  31.033  1.00  0.00     0.031 C 
ATOM     62  C   UNL A   1      44.349  27.408  32.997  1.00  0.00     0.034 A 
BRANCH  49  63
ATOM     63  C   UNL A   1      40.584  31.813  35.240  1.00  0.00     0.023 A 
ATOM     64  C   UNL A   1      39.535  31.570  36.146  1.00  0.00     0.031 A 
ATOM     65  C   UNL A   1      41.298  33.017  35.370  1.00  0.00     0.131 A 
ATOM     66  C   UNL A   1      39.177  32.551  37.084  1.00  0.00     0.055 A 
ATOM     67  C   UNL A   1      40.989  33.953  36.361  1.00  0.00     0.041 A 
ATOM     68  F   UNL A   1      42.295  33.315  34.523  1.00  0.00    -0.206 F 
ATOM     69  C   UNL A   1      39.913  33.730  37.215  1.00  0.00     0.022 A 
BRANCH  66  70
ATOM     70  S   UNL A   1      37.646  32.325  38.031  1.00  0.00     0.124 S 
ATOM     71  O   UNL A   1      38.040  32.821  39.348  1.00  0.00    -0.237 OA
ATOM     72  O   UNL A   1      36.695  33.150  37.296  1.00  0.00    -0.237 OA
ATOM     73  O   UNL A   1      37.409  30.885  37.960  1.00  0.00    -0.744 OA
ENDBRANCH  66  70
ENDBRANCH  49  63
BRANCH  50  74
ATOM     74  C   UNL A   1      42.571  25.853  27.408  1.00  0.00     0.023 A 
ATOM     75  C   UNL A   1      42.133  24.521  27.337  1.00  0.00     0.031 A 
ATOM     76  C   UNL A   1      43.356  26.348  26.352  1.00  0.00     0.131 A 
ATOM     77  C   UNL A   1      42.521  23.714  26.256  1.00  0.00     0.055 A 
ATOM     78  C   UNL A   1      43.699  25.556  25.255  1.00  0.00     0.041 A 
ATOM     79  F   UNL A   1      43.790  27.619  26.365  1.00  0.00    -0.206 F 
ATOM     80  C   UNL A   1      43.292  24.225  25.210  1.00  0.00     0.022 A 
BRANCH  77  81
ATOM     81  S   UNL A   1      42.064  21.959  26.275  1.00  0.00     0.124 S 
ATOM     82  O   UNL A   1      42.428  21.570  27.633  1.00  0.00    -0.237 OA
ATOM     83  O   UNL A   1      40.635  22.017  25.983  1.00  0.00    -0.237 OA
ATOM     84  O   UNL A   1      42.890  21.382  25.216  1.00  0.00    -0.744 OA
ENDBRANCH  77  81
ENDBRANCH  50  74
BRANCH  62  85
ATOM     85  C   UNL A   1      45.531  26.735  33.649  1.00  0.00     0.023 A 
ATOM     86  C   UNL A   1      46.837  27.233  33.493  1.00  0.00     0.031 A 
ATOM     87  C   UNL A   1      45.356  25.559  34.399  1.00  0.00     0.131 A 
ATOM     88  C   UNL A   1      47.924  26.519  34.014  1.00  0.00     0.055 A 
ATOM     89  C   UNL A   1      46.437  24.887  34.972  1.00  0.00     0.041 A 
ATOM     90  F   UNL A   1      44.131  25.040  34.579  1.00  0.00    -0.206 F 
ATOM     91  C   UNL A   1      47.731  25.357  34.766  1.00  0.00     0.022 A 
BRANCH  88  92
ATOM     92  S   UNL A   1      49.602  27.064  33.596  1.00  0.00     0.124 S 
ATOM     93  O   UNL A   1      49.343  28.234  32.763  1.00  0.00    -0.237 OA
ATOM     94  O   UNL A   1      50.179  27.332  34.910  1.00  0.00    -0.237 OA
ATOM     95  O   UNL A   1      50.170  25.916  32.893  1.00  0.00    -0.744 OA
ENDBRANCH  88  92
ENDBRANCH  62  85
ENDBRANCH  36  37
ENDBRANCH  28  31
ENDBRANCH  26  27
ENDBRANCH   1  26
TORSDOF 18
ENDMDL
MODEL 3
REMARK VINA RESULT:     -10.9      2.316      4.076
REMARK SMILES CC[C@H](C)[C@@H](NC(=O)c1csc(NC(C)=O)n1)C(=O)NCCCNC(=O)c1ccc(-c2c3nc(c(-c4cc(S(=O)(=O)[O-])ccc4F)c4ccc([nH]4)c(-c4cc(S(=O)(=O)[O-])ccc4F)c4nc(c(-c5cc(S(=O)(=O)[O-])ccc5F)c5ccc2[nH]5)C=C4)C=C3)cc1
REMARK SMILES IDX 22 1 21 2 20 3 18 4 19 5 5 7 3 8 4 9 2 10 1 11 6 12 7 13
REMARK SMILES IDX 8 15 9 16 10 17 17 18 11 19 12 20 13 21 14 22 15 24 16 25
REMARK SMILES IDX 23 26 24 27 25 28 26 30 27 31 28 32 89 33 29 34 88 35 30 36
REMARK SMILES IDX 31 37 32 38 82 39 33 40 87 41 81 42 83 43 34 44 86 45 80 46
REMARK SMILES IDX 79 47 35 49 67 50 47 51 66 52 48 53 51 54 65 55 84 56 49 57
REMARK SMILES IDX 50 58 64 60 85 61 52 62 36 63 37 64 45 65 38 66 44 67 46 68
REMARK SMILES IDX 43 69 39 70 40 71 41 72 42 73 68 74 69 75 77 76 70 77 76 78
REMARK SMILES IDX 78 79 75 80 71 81 72 82 73 83 74 84 53 85 54 86 62 87 55 88
REMARK SMILES IDX 61 89 63 90 60 91 56 92 57 93 58 94 59 95
REMARK H PARENT 20 6 6 14 13 23 24 29 83 48 51 59
REMARK Flexibility Score: inf
ROOT
ATOM      1  C   UNL A   1      33.230  29.480  24.903  1.00  0.00     0.042 C 
ENDROOT
BRANCH   1   2
ATOM      2  C   UNL A   1      33.384  28.003  24.591  1.00  0.00     0.117 C 
BRANCH   2   3
ATOM      3  N   UNL A   1      32.370  27.210  25.256  1.00  0.00    -0.354 N 
ATOM      4  C   UNL A   1      31.218  26.679  24.760  1.00  0.00     0.242 C 
ATOM      5  O   UNL A   1      30.470  26.093  25.552  1.00  0.00    -0.273 OA
ATOM      6  H   UNL A   1      32.539  27.027  26.208  1.00  0.00     0.163 HD
BRANCH   4   7
ATOM      7  C   UNL A   1      30.782  26.950  23.301  1.00  0.00     0.174 C 
BRANCH   7   8
ATOM      8  C   UNL A   1      30.073  28.362  23.289  1.00  0.00     0.018 C 
ATOM      9  C   UNL A   1      30.656  29.324  22.246  1.00  0.00     0.010 C 
BRANCH   8  10
ATOM     10  C   UNL A   1      28.537  28.204  23.124  1.00  0.00     0.002 C 
ATOM     11  C   UNL A   1      27.790  29.460  22.697  1.00  0.00     0.004 C 
ENDBRANCH   8  10
ENDBRANCH   7   8
BRANCH   7  12
ATOM     12  N   UNL A   1      31.860  26.873  22.289  1.00  0.00    -0.339 N 
ATOM     13  C   UNL A   1      32.656  25.828  21.869  1.00  0.00     0.271 C 
ATOM     14  H   UNL A   1      32.043  27.724  21.829  1.00  0.00     0.164 HD
ATOM     15  O   UNL A   1      33.276  25.975  20.815  1.00  0.00    -0.267 OA
BRANCH  13  16
ATOM     16  C   UNL A   1      32.888  24.680  22.740  1.00  0.00     0.141 A 
ATOM     17  C   UNL A   1      32.042  23.582  22.758  1.00  0.00     0.102 A 
ATOM     18  N   UNL A   1      33.996  24.551  23.566  1.00  0.00    -0.215 NA
ATOM     19  S   UNL A   1      32.757  22.309  23.651  1.00  0.00    -0.104 S 
ATOM     20  C   UNL A   1      34.096  23.306  23.976  1.00  0.00     0.190 A 
BRANCH  20  21
ATOM     21  N   UNL A   1      35.228  22.864  24.609  1.00  0.00    -0.302 N 
ATOM     22  C   UNL A   1      36.430  22.559  24.017  1.00  0.00     0.223 C 
ATOM     23  H   UNL A   1      35.175  22.753  25.586  1.00  0.00     0.172 HD
ATOM     24  C   UNL A   1      37.458  22.052  24.999  1.00  0.00     0.114 C 
ATOM     25  O   UNL A   1      36.723  22.685  22.833  1.00  0.00    -0.275 OA
ENDBRANCH  20  21
ENDBRANCH  13  16
ENDBRANCH   7  12
ENDBRANCH   4   7
ENDBRANCH   2   3
ENDBRANCH   1   2
BRANCH   1  26
ATOM     26  C   UNL A   1      32.581  29.750  26.252  1.00  0.00     0.118 C 
BRANCH  26  27
ATOM     27  N   UNL A   1      32.390  31.168  26.518  1.00  0.00    -0.352 N 
ATOM     28  C   UNL A   1      33.145  32.002  27.307  1.00  0.00     0.251 C 
ATOM     29  H   UNL A   1      31.617  31.585  26.074  1.00  0.00     0.163 HD
ATOM     30  O   UNL A   1      32.737  33.126  27.578  1.00  0.00    -0.269 OA
BRANCH  28  31
ATOM     31  C   UNL A   1      34.427  31.508  27.851  1.00  0.00     0.039 A 
ATOM     32  C   UNL A   1      35.486  32.401  28.004  1.00  0.00     0.014 A 
ATOM     33  C   UNL A   1      34.561  30.175  28.252  1.00  0.00     0.014 A 
ATOM     34  C   UNL A   1      36.658  31.972  28.626  1.00  0.00     0.010 A 
ATOM     35  C   UNL A   1      35.691  29.776  28.956  1.00  0.00     0.010 A 
ATOM     36  C   UNL A   1      36.755  30.669  29.142  1.00  0.00    -0.014 A 
BRANCH  36  37
ATOM     37  C   UNL A   1      37.967  30.231  29.878  1.00  0.00     0.031 A 
ATOM     38  C   UNL A   1      38.203  30.698  31.290  1.00  0.00     0.074 A 
ATOM     39  C   UNL A   1      38.872  29.451  29.255  1.00  0.00     0.049 A 
ATOM     40  N   UNL A   1      39.197  30.423  32.095  1.00  0.00    -0.248 NA
ATOM     41  C   UNL A   1      37.210  31.623  31.855  1.00  0.00     0.031 C 
ATOM     42  C   UNL A   1      38.785  29.003  27.862  1.00  0.00     0.029 A 
ATOM     43  N   UNL A   1      40.039  28.893  29.710  1.00  0.00    -0.354 N 
ATOM     44  C   UNL A   1      38.952  31.147  33.258  1.00  0.00     0.074 A 
ATOM     45  C   UNL A   1      37.759  31.930  33.020  1.00  0.00     0.031 C 
ATOM     46  C   UNL A   1      39.830  28.204  27.592  1.00  0.00     0.029 A 
ATOM     47  C   UNL A   1      40.677  28.109  28.776  1.00  0.00     0.049 A 
ATOM     48  H   UNL A   1      40.387  29.038  30.619  1.00  0.00     0.167 HD
ATOM     49  C   UNL A   1      39.640  31.133  34.426  1.00  0.00     0.034 A 
ATOM     50  C   UNL A   1      41.811  27.389  28.868  1.00  0.00     0.034 A 
ATOM     51  C   UNL A   1      40.819  30.333  34.647  1.00  0.00     0.049 A 
ATOM     52  C   UNL A   1      42.544  27.368  30.185  1.00  0.00     0.074 A 
ATOM     53  C   UNL A   1      41.566  30.193  35.804  1.00  0.00     0.029 A 
ATOM     54  N   UNL A   1      41.428  29.535  33.685  1.00  0.00    -0.354 N 
ATOM     55  N   UNL A   1      42.261  28.003  31.299  1.00  0.00    -0.248 NA
ATOM     56  C   UNL A   1      43.737  26.517  30.259  1.00  0.00     0.031 C 
ATOM     57  C   UNL A   1      42.656  29.360  35.525  1.00  0.00     0.029 A 
ATOM     58  C   UNL A   1      42.554  28.922  34.214  1.00  0.00     0.049 A 
ATOM     59  H   UNL A   1      41.106  29.423  32.761  1.00  0.00     0.167 HD
ATOM     60  C   UNL A   1      43.233  27.612  32.214  1.00  0.00     0.074 A 
ATOM     61  C   UNL A   1      44.089  26.664  31.527  1.00  0.00     0.031 C 
ATOM     62  C   UNL A   1      43.409  28.000  33.503  1.00  0.00     0.034 A 
BRANCH  49  63
ATOM     63  C   UNL A   1      39.134  32.025  35.536  1.00  0.00     0.023 A 
ATOM     64  C   UNL A   1      39.564  33.359  35.663  1.00  0.00     0.031 A 
ATOM     65  C   UNL A   1      38.244  31.528  36.504  1.00  0.00     0.131 A 
ATOM     66  C   UNL A   1      39.172  34.120  36.775  1.00  0.00     0.055 A 
ATOM     67  C   UNL A   1      37.791  32.318  37.564  1.00  0.00     0.041 A 
ATOM     68  F   UNL A   1      37.814  30.257  36.449  1.00  0.00    -0.206 F 
ATOM     69  C   UNL A   1      38.268  33.617  37.713  1.00  0.00     0.022 A 
BRANCH  66  70
ATOM     70  S   UNL A   1      39.974  35.723  37.054  1.00  0.00     0.124 S 
ATOM     71  O   UNL A   1      41.372  35.328  37.209  1.00  0.00    -0.237 OA
ATOM     72  O   UNL A   1      39.648  36.455  35.837  1.00  0.00    -0.237 OA
ATOM     73  O   UNL A   1      39.335  36.218  38.272  1.00  0.00    -0.744 OA
ENDBRANCH  66  70
ENDBRANCH  49  63
BRANCH  50  74
ATOM     74  C   UNL A   1      42.315  26.619  27.697  1.00  0.00     0.023 A 
ATOM     75  C   UNL A   1      41.975  25.269  27.517  1.00  0.00     0.031 A 
ATOM     76  C   UNL A   1      43.173  27.215  26.756  1.00  0.00     0.131 A 
ATOM     77  C   UNL A   1      42.526  24.545  26.448  1.00  0.00     0.055 A 
ATOM     78  C   UNL A   1      43.680  26.504  25.667  1.00  0.00     0.041 A 
ATOM     79  F   UNL A   1      43.520  28.507  26.875  1.00  0.00    -0.206 F 
ATOM     80  C   UNL A   1      43.367  25.156  25.516  1.00  0.00     0.022 A 
BRANCH  77  81
ATOM     81  S   UNL A   1      42.184  22.767  26.335  1.00  0.00     0.124 S 
ATOM     82  O   UNL A   1      40.738  22.729  26.519  1.00  0.00    -0.237 OA
ATOM     83  O   UNL A   1      42.671  22.450  24.996  1.00  0.00    -0.237 OA
ATOM     84  O   UNL A   1      42.969  22.200  27.430  1.00  0.00    -0.744 OA
ENDBRANCH  77  81
ENDBRANCH  50  74
BRANCH  62  85
ATOM     85  C   UNL A   1      44.565  27.375  34.243  1.00  0.00     0.023 A 
ATOM     86  C   UNL A   1      44.407  26.192  34.986  1.00  0.00     0.031 A 
ATOM     87  C   UNL A   1      45.829  27.992  34.240  1.00  0.00     0.131 A 
ATOM     88  C   UNL A   1      45.473  25.702  35.755  1.00  0.00     0.055 A 
ATOM     89  C   UNL A   1      46.904  27.464  34.955  1.00  0.00     0.041 A 
ATOM     90  F   UNL A   1      46.034  29.124  33.548  1.00  0.00    -0.206 F 
ATOM     91  C   UNL A   1      46.725  26.323  35.732  1.00  0.00     0.022 A 
BRANCH  88  92
ATOM     92  S   UNL A   1      45.166  24.312  36.878  1.00  0.00     0.124 S 
ATOM     93  O   UNL A   1      44.695  23.279  35.962  1.00  0.00    -0.237 OA
ATOM     94  O   UNL A   1      46.483  24.090  37.466  1.00  0.00    -0.237 OA
ATOM     95  O   UNL A   1      44.157  24.832  37.799  1.00  0.00    -0.744 OA
ENDBRANCH  88  92
ENDBRANCH  62  85
ENDBRANCH  36  37
ENDBRANCH  28  31
ENDBRANCH  26  27
ENDBRANCH   1  26
TORSDOF 18
ENDMDL
