MODEL 1
REMARK VINA RESULT:     -11.2      0.000      0.000
REMARK SMILES CCN1C(=O)/C(=C/N[C@H](CCSC)C(=O)NCCCNC(=O)c2ccc(-c3c4nc(c(-c5cc(S(=O)(=O)[O-])ccc5F)c5ccc([nH]5)c(-c5cc(S(=O)(=O)[O-])ccc5F)c5nc(c(-c6cc(S(=O)(=O)[O-])ccc6F)c6ccc3[nH]6)C=C5)C=C4)cc2)C(=O)NC1=S
REMARK SMILES IDX 18 1 17 2 16 3 14 4 15 5 9 7 8 8 7 10 3 11 4 12 89 13 5 14
REMARK SMILES IDX 6 15 88 16 90 17 86 18 87 20 2 21 1 22 10 23 11 24 12 25
REMARK SMILES IDX 13 26 19 27 20 28 21 29 22 31 23 32 24 33 85 34 25 35 84 36
REMARK SMILES IDX 26 37 27 38 28 39 78 40 29 41 83 42 77 43 79 44 30 45 82 46
REMARK SMILES IDX 76 47 75 48 31 50 63 51 43 52 62 53 44 54 47 55 61 56 80 57
REMARK SMILES IDX 45 58 46 59 60 61 81 62 48 63 32 64 33 65 41 66 34 67 40 68
REMARK SMILES IDX 42 69 39 70 35 71 36 72 37 73 38 74 64 75 65 76 73 77 66 78
REMARK SMILES IDX 72 79 74 80 71 81 67 82 68 83 69 84 70 85 49 86 50 87 58 88
REMARK SMILES IDX 51 89 57 90 59 91 56 92 52 93 53 94 54 95 55 96
REMARK H PARENT 16 6 8 9 88 19 20 30 79 49 47 60
REMARK Flexibility Score: inf
ROOT
ATOM      1  C   UNL A   1      31.554  31.599  26.163  1.00  0.00     0.042 C 
ENDROOT
BRANCH   1   2
ATOM      2  C   UNL A   1      31.580  30.116  25.835  1.00  0.00     0.117 C 
BRANCH   2   3
ATOM      3  N   UNL A   1      32.630  29.781  24.880  1.00  0.00    -0.354 N 
ATOM      4  C   UNL A   1      32.553  29.112  23.688  1.00  0.00     0.242 C 
ATOM      5  O   UNL A   1      33.590  28.939  23.045  1.00  0.00    -0.273 OA
ATOM      6  H   UNL A   1      33.534  30.081  25.132  1.00  0.00     0.163 HD
BRANCH   4   7
ATOM      7  C   UNL A   1      31.185  28.590  23.174  1.00  0.00     0.169 C 
BRANCH   7   8
ATOM      8  N   UNL A   1      31.410  27.272  22.554  1.00  0.00    -0.379 N 
ATOM      9  H   UNL A   1      31.675  27.291  21.606  1.00  0.00     0.160 HD
BRANCH   8  10
ATOM     10  C   UNL A   1      31.302  26.028  23.106  1.00  0.00     0.098 C 
ATOM     11  N   UNL A   1      32.840  23.235  24.650  1.00  0.00    -0.285 N 
ATOM     12  C   UNL A   1      31.782  23.884  24.011  1.00  0.00     0.267 C 
ATOM     13  C   UNL A   1      34.094  23.173  24.055  1.00  0.00     0.182 C 
ATOM     14  O   UNL A   1      30.600  23.582  24.171  1.00  0.00    -0.268 OA
ATOM     15  C   UNL A   1      32.175  25.013  23.153  1.00  0.00     0.121 C 
ATOM     16  N   UNL A   1      34.333  24.058  23.026  1.00  0.00    -0.298 N 
ATOM     17  S   UNL A   1      35.364  22.148  24.428  1.00  0.00    -0.040 S 
ATOM     18  C   UNL A   1      33.513  25.055  22.561  1.00  0.00     0.264 C 
ATOM     19  H   UNL A   1      35.200  23.963  22.569  1.00  0.00     0.172 HD
ATOM     20  O   UNL A   1      33.889  25.894  21.760  1.00  0.00    -0.269 OA
BRANCH  11  21
ATOM     21  C   UNL A   1      32.386  22.486  25.837  1.00  0.00     0.125 C 
ATOM     22  C   UNL A   1      32.351  23.191  27.182  1.00  0.00     0.028 C 
ENDBRANCH  11  21
ENDBRANCH   8  10
ENDBRANCH   7   8
BRANCH   7  23
ATOM     23  C   UNL A   1      30.563  29.688  22.299  1.00  0.00     0.046 C 
BRANCH  23  24
ATOM     24  C   UNL A   1      29.270  30.389  22.724  1.00  0.00     0.072 C 
BRANCH  24  25
ATOM     25  S   UNL A   1      27.957  30.524  21.463  1.00  0.00    -0.165 SA
ATOM     26  C   UNL A   1      28.133  32.240  20.919  1.00  0.00     0.085 C 
ENDBRANCH  24  25
ENDBRANCH  23  24
ENDBRANCH   7  23
ENDBRANCH   4   7
ENDBRANCH   2   3
ENDBRANCH   1   2
BRANCH   1  27
ATOM     27  C   UNL A   1      32.600  32.014  27.186  1.00  0.00     0.118 C 
BRANCH  27  28
ATOM     28  N   UNL A   1      32.543  33.437  27.489  1.00  0.00    -0.352 N 
ATOM     29  C   UNL A   1      33.286  34.178  28.376  1.00  0.00     0.251 C 
ATOM     30  H   UNL A   1      31.870  33.945  26.981  1.00  0.00     0.163 HD
ATOM     31  O   UNL A   1      32.938  35.324  28.645  1.00  0.00    -0.269 OA
BRANCH  29  32
ATOM     32  C   UNL A   1      34.480  33.587  29.018  1.00  0.00     0.039 A 
ATOM     33  C   UNL A   1      35.730  34.172  28.800  1.00  0.00     0.014 A 
ATOM     34  C   UNL A   1      34.369  32.453  29.826  1.00  0.00     0.014 A 
ATOM     35  C   UNL A   1      36.856  33.661  29.449  1.00  0.00     0.010 A 
ATOM     36  C   UNL A   1      35.472  32.004  30.543  1.00  0.00     0.010 A 
ATOM     37  C   UNL A   1      36.730  32.596  30.356  1.00  0.00    -0.014 A 
BRANCH  37  38
ATOM     38  C   UNL A   1      37.898  32.055  31.096  1.00  0.00     0.031 A 
ATOM     39  C   UNL A   1      38.723  30.956  30.480  1.00  0.00     0.074 A 
ATOM     40  C   UNL A   1      38.166  32.490  32.343  1.00  0.00     0.049 A 
ATOM     41  N   UNL A   1      39.688  30.248  31.007  1.00  0.00    -0.248 NA
ATOM     42  C   UNL A   1      38.388  30.580  29.097  1.00  0.00     0.031 C 
ATOM     43  C   UNL A   1      37.416  33.526  33.059  1.00  0.00     0.029 A 
ATOM     44  N   UNL A   1      39.132  32.105  33.238  1.00  0.00    -0.354 N 
ATOM     45  C   UNL A   1      40.058  29.328  30.031  1.00  0.00     0.074 A 
ATOM     46  C   UNL A   1      39.172  29.532  28.905  1.00  0.00     0.031 C 
ATOM     47  C   UNL A   1      37.962  33.704  34.272  1.00  0.00     0.029 A 
ATOM     48  C   UNL A   1      39.065  32.765  34.444  1.00  0.00     0.049 A 
ATOM     49  H   UNL A   1      39.810  31.420  33.037  1.00  0.00     0.167 HD
ATOM     50  C   UNL A   1      41.060  28.415  30.062  1.00  0.00     0.034 A 
ATOM     51  C   UNL A   1      39.799  32.615  35.565  1.00  0.00     0.034 A 
ATOM     52  C   UNL A   1      41.951  28.244  31.183  1.00  0.00     0.049 A 
ATOM     53  C   UNL A   1      40.902  31.587  35.580  1.00  0.00     0.074 A 
ATOM     54  C   UNL A   1      43.029  27.386  31.306  1.00  0.00     0.029 A 
ATOM     55  N   UNL A   1      41.868  28.950  32.377  1.00  0.00    -0.354 N 
ATOM     56  N   UNL A   1      41.261  30.747  34.636  1.00  0.00    -0.248 NA
ATOM     57  C   UNL A   1      41.706  31.495  36.805  1.00  0.00     0.031 C 
ATOM     58  C   UNL A   1      43.562  27.530  32.591  1.00  0.00     0.029 A 
ATOM     59  C   UNL A   1      42.862  28.531  33.247  1.00  0.00     0.049 A 
ATOM     60  H   UNL A   1      41.201  29.646  32.576  1.00  0.00     0.167 HD
ATOM     61  C   UNL A   1      42.355  30.052  35.144  1.00  0.00     0.074 A 
ATOM     62  C   UNL A   1      42.603  30.579  36.470  1.00  0.00     0.031 C 
ATOM     63  C   UNL A   1      43.093  29.070  34.567  1.00  0.00     0.034 A 
BRANCH  50  64
ATOM     64  C   UNL A   1      41.223  27.522  28.856  1.00  0.00     0.023 A 
ATOM     65  C   UNL A   1      42.245  27.734  27.914  1.00  0.00     0.031 A 
ATOM     66  C   UNL A   1      40.329  26.460  28.629  1.00  0.00     0.131 A 
ATOM     67  C   UNL A   1      42.302  26.949  26.752  1.00  0.00     0.055 A 
ATOM     68  C   UNL A   1      40.442  25.630  27.512  1.00  0.00     0.041 A 
ATOM     69  F   UNL A   1      39.321  26.221  29.482  1.00  0.00    -0.206 F 
ATOM     70  C   UNL A   1      41.423  25.881  26.557  1.00  0.00     0.022 A 
BRANCH  67  71
ATOM     71  S   UNL A   1      43.451  27.432  25.436  1.00  0.00     0.124 S 
ATOM     72  O   UNL A   1      42.531  27.853  24.382  1.00  0.00    -0.237 OA
ATOM     73  O   UNL A   1      44.227  28.494  26.068  1.00  0.00    -0.237 OA
ATOM     74  O   UNL A   1      44.189  26.203  25.156  1.00  0.00    -0.744 OA
ENDBRANCH  67  71
ENDBRANCH  50  64
BRANCH  51  75
ATOM     75  C   UNL A   1      39.516  33.443  36.772  1.00  0.00     0.023 A 
ATOM     76  C   UNL A   1      38.835  32.902  37.874  1.00  0.00     0.031 A 
ATOM     77  C   UNL A   1      39.876  34.802  36.823  1.00  0.00     0.131 A 
ATOM     78  C   UNL A   1      38.488  33.725  38.957  1.00  0.00     0.055 A 
ATOM     79  C   UNL A   1      39.576  35.604  37.925  1.00  0.00     0.041 A 
ATOM     80  F   UNL A   1      40.535  35.368  35.799  1.00  0.00    -0.206 F 
ATOM     81  C   UNL A   1      38.865  35.069  38.995  1.00  0.00     0.022 A 
BRANCH  78  82
ATOM     82  S   UNL A   1      37.453  33.033  40.276  1.00  0.00     0.124 S 
ATOM     83  O   UNL A   1      37.453  34.117  41.253  1.00  0.00    -0.237 OA
ATOM     84  O   UNL A   1      36.193  32.797  39.579  1.00  0.00    -0.237 OA
ATOM     85  O   UNL A   1      38.177  31.829  40.679  1.00  0.00    -0.744 OA
ENDBRANCH  78  82
ENDBRANCH  51  75
BRANCH  63  86
ATOM     86  C   UNL A   1      44.273  28.550  35.349  1.00  0.00     0.023 A 
ATOM     87  C   UNL A   1      44.136  27.529  36.305  1.00  0.00     0.031 A 
ATOM     88  C   UNL A   1      45.552  29.094  35.136  1.00  0.00     0.131 A 
ATOM     89  C   UNL A   1      45.252  27.120  37.051  1.00  0.00     0.055 A 
ATOM     90  C   UNL A   1      46.668  28.642  35.841  1.00  0.00     0.041 A 
ATOM     91  F   UNL A   1      45.737  30.071  34.234  1.00  0.00    -0.206 F 
ATOM     92  C   UNL A   1      46.519  27.658  36.814  1.00  0.00     0.022 A 
BRANCH  89  93
ATOM     93  S   UNL A   1      45.009  25.928  38.397  1.00  0.00     0.124 S 
ATOM     94  O   UNL A   1      44.188  24.906  37.753  1.00  0.00    -0.237 OA
ATOM     95  O   UNL A   1      46.377  25.535  38.718  1.00  0.00    -0.237 OA
ATOM     96  O   UNL A   1      44.330  26.709  39.429  1.00  0.00    -0.744 OA
ENDBRANCH  89  93
ENDBRANCH  63  86
ENDBRANCH  37  38
ENDBRANCH  29  32
ENDBRANCH  27  28
ENDBRANCH   1  27
TORSDOF 19
ENDMDL
MODEL 2
REMARK VINA RESULT:     -11.1      5.542     11.793
REMARK SMILES CCN1C(=O)/C(=C/N[C@H](CCSC)C(=O)NCCCNC(=O)c2ccc(-c3c4nc(c(-c5cc(S(=O)(=O)[O-])ccc5F)c5ccc([nH]5)c(-c5cc(S(=O)(=O)[O-])ccc5F)c5nc(c(-c6cc(S(=O)(=O)[O-])ccc6F)c6ccc3[nH]6)C=C5)C=C4)cc2)C(=O)NC1=S
REMARK SMILES IDX 18 1 17 2 16 3 14 4 15 5 9 7 8 8 7 10 3 11 4 12 89 13 5 14
REMARK SMILES IDX 6 15 88 16 90 17 86 18 87 20 2 21 1 22 10 23 11 24 12 25
REMARK SMILES IDX 13 26 19 27 20 28 21 29 22 31 23 32 24 33 85 34 25 35 84 36
REMARK SMILES IDX 26 37 27 38 28 39 78 40 29 41 83 42 77 43 79 44 30 45 82 46
REMARK SMILES IDX 76 47 75 48 31 50 63 51 43 52 62 53 44 54 47 55 61 56 80 57
REMARK SMILES IDX 45 58 46 59 60 61 81 62 48 63 32 64 33 65 41 66 34 67 40 68
REMARK SMILES IDX 42 69 39 70 35 71 36 72 37 73 38 74 64 75 65 76 73 77 66 78
REMARK SMILES IDX 72 79 74 80 71 81 67 82 68 83 69 84 70 85 49 86 50 87 58 88
REMARK SMILES IDX 51 89 57 90 59 91 56 92 52 93 53 94 54 95 55 96
REMARK H PARENT 16 6 8 9 88 19 20 30 79 49 47 60
REMARK Flexibility Score: inf
ROOT
ATOM      1  C   UNL A   1      37.846  20.270  25.005  1.00  0.00     0.042 C 
ENDROOT
BRANCH   1   2
ATOM      2  C   UNL A   1      36.761  21.332  24.935  1.00  0.00     0.117 C 
BRANCH   2   3
ATOM      3  N   UNL A   1      35.932  21.355  26.134  1.00  0.00    -0.354 N 
ATOM      4  C   UNL A   1      34.584  21.160  26.273  1.00  0.00     0.242 C 
ATOM      5  O   UNL A   1      34.095  21.232  27.403  1.00  0.00    -0.273 OA
ATOM      6  H   UNL A   1      36.416  21.538  26.972  1.00  0.00     0.163 HD
BRANCH   4   7
ATOM      7  C   UNL A   1      33.707  20.856  25.031  1.00  0.00     0.169 C 
BRANCH   7   8
ATOM      8  N   UNL A   1      32.370  21.427  25.272  1.00  0.00    -0.379 N 
ATOM      9  H   UNL A   1      31.829  20.963  25.951  1.00  0.00     0.160 HD
BRANCH   8  10
ATOM     10  C   UNL A   1      31.774  22.507  24.688  1.00  0.00     0.098 C 
ATOM     11  N   UNL A   1      31.305  26.016  24.530  1.00  0.00    -0.285 N 
ATOM     12  C   UNL A   1      30.977  24.696  24.215  1.00  0.00     0.267 C 
ATOM     13  C   UNL A   1      31.396  26.424  25.855  1.00  0.00     0.182 C 
ATOM     14  O   UNL A   1      30.399  24.364  23.181  1.00  0.00    -0.268 OA
ATOM     15  C   UNL A   1      31.422  23.694  25.198  1.00  0.00     0.121 C 
ATOM     16  N   UNL A   1      31.508  25.429  26.801  1.00  0.00    -0.298 N 
ATOM     17  S   UNL A   1      31.385  27.986  26.457  1.00  0.00    -0.040 S 
ATOM     18  C   UNL A   1      31.621  24.077  26.597  1.00  0.00     0.264 C 
ATOM     19  H   UNL A   1      31.507  25.725  27.740  1.00  0.00     0.172 HD
ATOM     20  O   UNL A   1      31.888  23.296  27.495  1.00  0.00    -0.269 OA
BRANCH  11  21
ATOM     21  C   UNL A   1      31.300  26.881  23.336  1.00  0.00     0.125 C 
ATOM     22  C   UNL A   1      30.095  27.769  23.076  1.00  0.00     0.028 C 
ENDBRANCH  11  21
ENDBRANCH   8  10
ENDBRANCH   7   8
BRANCH   7  23
ATOM     23  C   UNL A   1      33.794  19.348  24.752  1.00  0.00     0.046 C 
BRANCH  23  24
ATOM     24  C   UNL A   1      32.853  18.367  25.455  1.00  0.00     0.072 C 
BRANCH  24  25
ATOM     25  S   UNL A   1      33.135  16.590  25.141  1.00  0.00    -0.165 SA
ATOM     26  C   UNL A   1      33.972  16.620  23.538  1.00  0.00     0.085 C 
ENDBRANCH  24  25
ENDBRANCH  23  24
ENDBRANCH   7  23
ENDBRANCH   4   7
ENDBRANCH   2   3
ENDBRANCH   1   2
BRANCH   1  27
ATOM     27  C   UNL A   1      39.059  20.694  25.819  1.00  0.00     0.118 C 
BRANCH  27  28
ATOM     28  N   UNL A   1      40.026  19.616  25.972  1.00  0.00    -0.352 N 
ATOM     29  C   UNL A   1      41.386  19.674  26.152  1.00  0.00     0.251 C 
ATOM     30  H   UNL A   1      39.646  18.708  25.943  1.00  0.00     0.163 HD
ATOM     31  O   UNL A   1      42.054  18.650  26.041  1.00  0.00    -0.269 OA
BRANCH  29  32
ATOM     32  C   UNL A   1      42.040  20.967  26.452  1.00  0.00     0.039 A 
ATOM     33  C   UNL A   1      42.442  21.788  25.396  1.00  0.00     0.014 A 
ATOM     34  C   UNL A   1      42.264  21.365  27.772  1.00  0.00     0.014 A 
ATOM     35  C   UNL A   1      43.005  23.038  25.666  1.00  0.00     0.010 A 
ATOM     36  C   UNL A   1      42.737  22.644  28.038  1.00  0.00     0.010 A 
ATOM     37  C   UNL A   1      43.122  23.492  26.989  1.00  0.00    -0.014 A 
BRANCH  37  38
ATOM     38  C   UNL A   1      43.675  24.832  27.311  1.00  0.00     0.031 A 
ATOM     39  C   UNL A   1      42.768  25.892  27.878  1.00  0.00     0.074 A 
ATOM     40  C   UNL A   1      44.959  25.119  27.020  1.00  0.00     0.049 A 
ATOM     41  N   UNL A   1      43.008  27.159  28.095  1.00  0.00    -0.248 NA
ATOM     42  C   UNL A   1      41.397  25.474  28.209  1.00  0.00     0.031 C 
ATOM     43  C   UNL A   1      45.925  24.184  26.436  1.00  0.00     0.029 A 
ATOM     44  N   UNL A   1      45.671  26.284  27.160  1.00  0.00    -0.354 N 
ATOM     45  C   UNL A   1      41.812  27.695  28.564  1.00  0.00     0.074 A 
ATOM     46  C   UNL A   1      40.837  26.627  28.541  1.00  0.00     0.031 C 
ATOM     47  C   UNL A   1      47.105  24.808  26.286  1.00  0.00     0.029 A 
ATOM     48  C   UNL A   1      46.970  26.197  26.713  1.00  0.00     0.049 A 
ATOM     49  H   UNL A   1      45.289  27.105  27.545  1.00  0.00     0.167 HD
ATOM     50  C   UNL A   1      41.558  28.955  28.995  1.00  0.00     0.034 A 
ATOM     51  C   UNL A   1      47.935  27.135  26.639  1.00  0.00     0.034 A 
ATOM     52  C   UNL A   1      42.551  30.001  29.035  1.00  0.00     0.049 A 
ATOM     53  C   UNL A   1      47.627  28.532  27.116  1.00  0.00     0.074 A 
ATOM     54  C   UNL A   1      42.418  31.298  29.497  1.00  0.00     0.029 A 
ATOM     55  N   UNL A   1      43.862  29.867  28.598  1.00  0.00    -0.354 N 
ATOM     56  N   UNL A   1      46.500  29.015  27.587  1.00  0.00    -0.248 NA
ATOM     57  C   UNL A   1      48.723  29.508  27.063  1.00  0.00     0.031 C 
ATOM     58  C   UNL A   1      43.631  31.965  29.287  1.00  0.00     0.029 A 
ATOM     59  C   UNL A   1      44.543  31.063  28.760  1.00  0.00     0.049 A 
ATOM     60  H   UNL A   1      44.253  29.043  28.227  1.00  0.00     0.167 HD
ATOM     61  C   UNL A   1      46.765  30.341  27.919  1.00  0.00     0.074 A 
ATOM     62  C   UNL A   1      48.159  30.577  27.604  1.00  0.00     0.031 C 
ATOM     63  C   UNL A   1      45.934  31.279  28.440  1.00  0.00     0.034 A 
BRANCH  50  64
ATOM     64  C   UNL A   1      40.148  29.268  29.433  1.00  0.00     0.023 A 
ATOM     65  C   UNL A   1      39.808  29.393  30.792  1.00  0.00     0.031 A 
ATOM     66  C   UNL A   1      39.123  29.417  28.483  1.00  0.00     0.131 A 
ATOM     67  C   UNL A   1      38.469  29.579  31.166  1.00  0.00     0.055 A 
ATOM     68  C   UNL A   1      37.805  29.687  28.859  1.00  0.00     0.041 A 
ATOM     69  F   UNL A   1      39.381  29.290  27.172  1.00  0.00    -0.206 F 
ATOM     70  C   UNL A   1      37.469  29.754  30.208  1.00  0.00     0.022 A 
BRANCH  67  71
ATOM     71  S   UNL A   1      38.035  29.453  32.922  1.00  0.00     0.124 S 
ATOM     72  O   UNL A   1      37.362  28.156  32.965  1.00  0.00    -0.237 OA
ATOM     73  O   UNL A   1      39.337  29.519  33.576  1.00  0.00    -0.237 OA
ATOM     74  O   UNL A   1      37.165  30.606  33.144  1.00  0.00    -0.744 OA
ENDBRANCH  67  71
ENDBRANCH  50  64
BRANCH  51  75
ATOM     75  C   UNL A   1      49.277  26.801  26.083  1.00  0.00     0.023 A 
ATOM     76  C   UNL A   1      49.657  27.236  24.804  1.00  0.00     0.031 A 
ATOM     77  C   UNL A   1      50.181  25.998  26.802  1.00  0.00     0.131 A 
ATOM     78  C   UNL A   1      50.884  26.824  24.259  1.00  0.00     0.055 A 
ATOM     79  C   UNL A   1      51.423  25.634  26.278  1.00  0.00     0.041 A 
ATOM     80  F   UNL A   1      49.870  25.560  28.033  1.00  0.00    -0.206 F 
ATOM     81  C   UNL A   1      51.773  26.036  24.992  1.00  0.00     0.022 A 
BRANCH  78  82
ATOM     82  S   UNL A   1      51.257  27.258  22.538  1.00  0.00     0.124 S 
ATOM     83  O   UNL A   1      51.440  28.702  22.629  1.00  0.00    -0.237 OA
ATOM     84  O   UNL A   1      52.461  26.473  22.284  1.00  0.00    -0.237 OA
ATOM     85  O   UNL A   1      50.066  26.823  21.812  1.00  0.00    -0.744 OA
ENDBRANCH  78  82
ENDBRANCH  51  75
BRANCH  63  86
ATOM     86  C   UNL A   1      46.535  32.626  28.756  1.00  0.00     0.023 A 
ATOM     87  C   UNL A   1      46.568  33.663  27.809  1.00  0.00     0.031 A 
ATOM     88  C   UNL A   1      47.088  32.868  30.026  1.00  0.00     0.131 A 
ATOM     89  C   UNL A   1      47.191  34.879  28.129  1.00  0.00     0.055 A 
ATOM     90  C   UNL A   1      47.655  34.099  30.357  1.00  0.00     0.041 A 
ATOM     91  F   UNL A   1      47.082  31.910  30.968  1.00  0.00    -0.206 F 
ATOM     92  C   UNL A   1      47.720  35.109  29.401  1.00  0.00     0.022 A 
BRANCH  89  93
ATOM     93  S   UNL A   1      47.373  36.132  26.830  1.00  0.00     0.124 S 
ATOM     94  O   UNL A   1      48.382  37.019  27.403  1.00  0.00    -0.237 OA
ATOM     95  O   UNL A   1      47.803  35.336  25.685  1.00  0.00    -0.237 OA
ATOM     96  O   UNL A   1      46.034  36.707  26.717  1.00  0.00    -0.744 OA
ENDBRANCH  89  93
ENDBRANCH  63  86
ENDBRANCH  37  38
ENDBRANCH  29  32
ENDBRANCH  27  28
ENDBRANCH   1  27
TORSDOF 19
ENDMDL
MODEL 3
REMARK VINA RESULT:     -11.1      5.262      8.740
REMARK SMILES CCN1C(=O)/C(=C/N[C@H](CCSC)C(=O)NCCCNC(=O)c2ccc(-c3c4nc(c(-c5cc(S(=O)(=O)[O-])ccc5F)c5ccc([nH]5)c(-c5cc(S(=O)(=O)[O-])ccc5F)c5nc(c(-c6cc(S(=O)(=O)[O-])ccc6F)c6ccc3[nH]6)C=C5)C=C4)cc2)C(=O)NC1=S
REMARK SMILES IDX 18 1 17 2 16 3 14 4 15 5 9 7 8 8 7 10 3 11 4 12 89 13 5 14
REMARK SMILES IDX 6 15 88 16 90 17 86 18 87 20 2 21 1 22 10 23 11 24 12 25
REMARK SMILES IDX 13 26 19 27 20 28 21 29 22 31 23 32 24 33 85 34 25 35 84 36
REMARK SMILES IDX 26 37 27 38 28 39 78 40 29 41 83 42 77 43 79 44 30 45 82 46
REMARK SMILES IDX 76 47 75 48 31 50 63 51 43 52 62 53 44 54 47 55 61 56 80 57
REMARK SMILES IDX 45 58 46 59 60 61 81 62 48 63 32 64 33 65 41 66 34 67 40 68
REMARK SMILES IDX 42 69 39 70 35 71 36 72 37 73 38 74 64 75 65 76 73 77 66 78
REMARK SMILES IDX 72 79 74 80 71 81 67 82 68 83 69 84 70 85 49 86 50 87 58 88
REMARK SMILES IDX 51 89 57 90 59 91 56 92 52 93 53 94 54 95 55 96
REMARK H PARENT 16 6 8 9 88 19 20 30 79 49 47 60
REMARK Flexibility Score: inf
ROOT
ATOM      1  C   UNL A   1      35.173  22.731  25.618  1.00  0.00     0.042 C 
ENDROOT
BRANCH   1   2
ATOM      2  C   UNL A   1      35.288  21.261  25.250  1.00  0.00     0.117 C 
BRANCH   2   3
ATOM      3  N   UNL A   1      34.272  20.447  25.907  1.00  0.00    -0.354 N 
ATOM      4  C   UNL A   1      33.293  19.659  25.365  1.00  0.00     0.242 C 
ATOM      5  O   UNL A   1      32.534  19.058  26.129  1.00  0.00    -0.273 OA
ATOM      6  H   UNL A   1      34.293  20.468  26.891  1.00  0.00     0.163 HD
BRANCH   4   7
ATOM      7  C   UNL A   1      33.155  19.534  23.825  1.00  0.00     0.169 C 
BRANCH   7   8
ATOM      8  N   UNL A   1      32.149  20.516  23.381  1.00  0.00    -0.379 N 
ATOM      9  H   UNL A   1      31.235  20.167  23.278  1.00  0.00     0.160 HD
BRANCH   8  10
ATOM     10  C   UNL A   1      32.305  21.841  23.092  1.00  0.00     0.098 C 
ATOM     11  N   UNL A   1      32.739  25.175  24.211  1.00  0.00    -0.285 N 
ATOM     12  C   UNL A   1      32.453  24.209  23.244  1.00  0.00     0.267 C 
ATOM     13  C   UNL A   1      32.014  25.227  25.394  1.00  0.00     0.182 C 
ATOM     14  O   UNL A   1      32.648  24.368  22.040  1.00  0.00    -0.268 OA
ATOM     15  C   UNL A   1      31.941  22.934  23.774  1.00  0.00     0.121 C 
ATOM     16  N   UNL A   1      31.283  24.105  25.720  1.00  0.00    -0.298 N 
ATOM     17  S   UNL A   1      31.909  26.491  26.487  1.00  0.00    -0.040 S 
ATOM     18  C   UNL A   1      31.240  22.903  25.060  1.00  0.00     0.264 C 
ATOM     19  H   UNL A   1      30.722  24.175  26.526  1.00  0.00     0.172 HD
ATOM     20  O   UNL A   1      30.696  21.916  25.525  1.00  0.00    -0.269 OA
BRANCH  11  21
ATOM     21  C   UNL A   1      33.686  26.189  23.708  1.00  0.00     0.125 C 
ATOM     22  C   UNL A   1      33.158  27.559  23.320  1.00  0.00     0.028 C 
ENDBRANCH  11  21
ENDBRANCH   8  10
ENDBRANCH   7   8
BRANCH   7  23
ATOM     23  C   UNL A   1      32.897  18.057  23.494  1.00  0.00     0.046 C 
BRANCH  23  24
ATOM     24  C   UNL A   1      34.052  17.054  23.437  1.00  0.00     0.072 C 
BRANCH  24  25
ATOM     25  S   UNL A   1      34.404  16.120  24.966  1.00  0.00    -0.165 SA
ATOM     26  C   UNL A   1      32.779  15.441  25.375  1.00  0.00     0.085 C 
ENDBRANCH  24  25
ENDBRANCH  23  24
ENDBRANCH   7  23
ENDBRANCH   4   7
ENDBRANCH   2   3
ENDBRANCH   1   2
BRANCH   1  27
ATOM     27  C   UNL A   1      36.488  23.351  26.064  1.00  0.00     0.118 C 
BRANCH  27  28
ATOM     28  N   UNL A   1      37.543  22.359  26.216  1.00  0.00    -0.352 N 
ATOM     29  C   UNL A   1      38.881  22.530  26.471  1.00  0.00     0.251 C 
ATOM     30  H   UNL A   1      37.252  21.423  26.123  1.00  0.00     0.163 HD
ATOM     31  O   UNL A   1      39.646  21.578  26.346  1.00  0.00    -0.269 OA
BRANCH  29  32
ATOM     32  C   UNL A   1      39.396  23.858  26.869  1.00  0.00     0.039 A 
ATOM     33  C   UNL A   1      39.969  24.685  25.899  1.00  0.00     0.014 A 
ATOM     34  C   UNL A   1      39.322  24.286  28.197  1.00  0.00     0.014 A 
ATOM     35  C   UNL A   1      40.403  25.966  26.249  1.00  0.00     0.010 A 
ATOM     36  C   UNL A   1      39.667  25.592  28.524  1.00  0.00     0.010 A 
ATOM     37  C   UNL A   1      40.221  26.443  27.557  1.00  0.00    -0.014 A 
BRANCH  37  38
ATOM     38  C   UNL A   1      40.631  27.814  27.954  1.00  0.00     0.031 A 
ATOM     39  C   UNL A   1      42.089  28.190  27.927  1.00  0.00     0.074 A 
ATOM     40  C   UNL A   1      39.712  28.687  28.413  1.00  0.00     0.049 A 
ATOM     41  N   UNL A   1      42.675  29.274  28.363  1.00  0.00    -0.248 NA
ATOM     42  C   UNL A   1      43.013  27.192  27.365  1.00  0.00     0.031 C 
ATOM     43  C   UNL A   1      38.274  28.425  28.519  1.00  0.00     0.029 A 
ATOM     44  N   UNL A   1      39.850  29.965  28.892  1.00  0.00    -0.354 N 
ATOM     45  C   UNL A   1      44.037  29.080  28.152  1.00  0.00     0.074 A 
ATOM     46  C   UNL A   1      44.190  27.749  27.605  1.00  0.00     0.031 C 
ATOM     47  C   UNL A   1      37.664  29.514  29.013  1.00  0.00     0.029 A 
ATOM     48  C   UNL A   1      38.667  30.532  29.307  1.00  0.00     0.049 A 
ATOM     49  H   UNL A   1      40.715  30.433  28.935  1.00  0.00     0.167 HD
ATOM     50  C   UNL A   1      45.061  29.940  28.374  1.00  0.00     0.034 A 
ATOM     51  C   UNL A   1      38.423  31.730  29.876  1.00  0.00     0.034 A 
ATOM     52  C   UNL A   1      44.886  31.273  28.897  1.00  0.00     0.049 A 
ATOM     53  C   UNL A   1      39.579  32.667  30.120  1.00  0.00     0.074 A 
ATOM     54  C   UNL A   1      45.845  32.246  29.115  1.00  0.00     0.029 A 
ATOM     55  N   UNL A   1      43.669  31.821  29.280  1.00  0.00    -0.354 N 
ATOM     56  N   UNL A   1      40.858  32.480  29.885  1.00  0.00    -0.248 NA
ATOM     57  C   UNL A   1      39.259  33.979  30.696  1.00  0.00     0.031 C 
ATOM     58  C   UNL A   1      45.218  33.360  29.684  1.00  0.00     0.029 A 
ATOM     59  C   UNL A   1      43.856  33.110  29.753  1.00  0.00     0.049 A 
ATOM     60  H   UNL A   1      42.800  31.362  29.225  1.00  0.00     0.167 HD
ATOM     61  C   UNL A   1      41.488  33.667  30.252  1.00  0.00     0.074 A 
ATOM     62  C   UNL A   1      40.447  34.564  30.713  1.00  0.00     0.031 C 
ATOM     63  C   UNL A   1      42.805  33.989  30.209  1.00  0.00     0.034 A 
BRANCH  50  64
ATOM     64  C   UNL A   1      46.456  29.451  28.070  1.00  0.00     0.023 A 
ATOM     65  C   UNL A   1      47.228  28.779  29.034  1.00  0.00     0.031 A 
ATOM     66  C   UNL A   1      47.035  29.682  26.810  1.00  0.00     0.131 A 
ATOM     67  C   UNL A   1      48.558  28.432  28.751  1.00  0.00     0.055 A 
ATOM     68  C   UNL A   1      48.331  29.260  26.506  1.00  0.00     0.041 A 
ATOM     69  F   UNL A   1      46.355  30.337  25.855  1.00  0.00    -0.206 F 
ATOM     70  C   UNL A   1      49.106  28.644  27.484  1.00  0.00     0.022 A 
BRANCH  67  71
ATOM     71  S   UNL A   1      49.602  27.826  30.104  1.00  0.00     0.124 S 
ATOM     72  O   UNL A   1      48.896  26.609  30.499  1.00  0.00    -0.237 OA
ATOM     73  O   UNL A   1      50.890  27.632  29.447  1.00  0.00    -0.237 OA
ATOM     74  O   UNL A   1      49.558  28.910  31.083  1.00  0.00    -0.744 OA
ENDBRANCH  67  71
ENDBRANCH  50  64
BRANCH  51  75
ATOM     75  C   UNL A   1      37.037  32.115  30.267  1.00  0.00     0.023 A 
ATOM     76  C   UNL A   1      36.157  32.685  29.335  1.00  0.00     0.031 A 
ATOM     77  C   UNL A   1      36.588  31.966  31.592  1.00  0.00     0.131 A 
ATOM     78  C   UNL A   1      34.893  33.135  29.749  1.00  0.00     0.055 A 
ATOM     79  C   UNL A   1      35.310  32.366  31.987  1.00  0.00     0.041 A 
ATOM     80  F   UNL A   1      37.388  31.419  32.522  1.00  0.00    -0.206 F 
ATOM     81  C   UNL A   1      34.460  32.968  31.065  1.00  0.00     0.022 A 
BRANCH  78  82
ATOM     82  S   UNL A   1      33.858  34.029  28.557  1.00  0.00     0.124 S 
ATOM     83  O   UNL A   1      33.437  32.955  27.665  1.00  0.00    -0.237 OA
ATOM     84  O   UNL A   1      32.823  34.591  29.419  1.00  0.00    -0.237 OA
ATOM     85  O   UNL A   1      34.777  35.003  27.972  1.00  0.00    -0.744 OA
ENDBRANCH  78  82
ENDBRANCH  51  75
BRANCH  63  86
ATOM     86  C   UNL A   1      43.180  35.392  30.616  1.00  0.00     0.023 A 
ATOM     87  C   UNL A   1      43.284  35.769  31.966  1.00  0.00     0.031 A 
ATOM     88  C   UNL A   1      43.430  36.366  29.634  1.00  0.00     0.131 A 
ATOM     89  C   UNL A   1      43.576  37.101  32.297  1.00  0.00     0.055 A 
ATOM     90  C   UNL A   1      43.777  37.675  29.970  1.00  0.00     0.041 A 
ATOM     91  F   UNL A   1      43.345  36.058  28.329  1.00  0.00    -0.206 F 
ATOM     92  C   UNL A   1      43.839  38.052  31.308  1.00  0.00     0.022 A 
BRANCH  89  93
ATOM     93  S   UNL A   1      43.529  37.595  34.042  1.00  0.00     0.124 S 
ATOM     94  O   UNL A   1      42.755  36.512  34.643  1.00  0.00    -0.237 OA
ATOM     95  O   UNL A   1      44.944  37.637  34.394  1.00  0.00    -0.237 OA
ATOM     96  O   UNL A   1      42.858  38.893  34.013  1.00  0.00    -0.744 OA
ENDBRANCH  89  93
ENDBRANCH  63  86
ENDBRANCH  37  38
ENDBRANCH  29  32
ENDBRANCH  27  28
ENDBRANCH   1  27
TORSDOF 19
ENDMDL
