MODEL 1
REMARK VINA RESULT:     -10.0      0.000      0.000
REMARK SMILES C[NH2+]C[C@H](C)C(=O)NC[C@](C)(O)C(=O)NCCCNC(=O)c1ccc(-c2c3nc(c(-c4cc(S(=O)(=O)[O-])ccc4F)c4ccc([nH]4)c(-c4cc(S(=O)(=O)[O-])ccc4F)c4nc(c(-c5cc(S(=O)(=O)[O-])ccc5F)c5ccc2[nH]5)C=C4)C=C3)cc1
REMARK SMILES IDX 16 1 15 2 13 3 14 4 10 6 11 7 9 8 8 9 6 10 7 11 4 13 5 14
REMARK SMILES IDX 3 15 2 16 1 17 12 20 17 22 18 23 19 24 20 25 21 27 22 28
REMARK SMILES IDX 23 29 84 30 24 31 83 32 25 33 26 34 27 35 77 36 28 37 82 38
REMARK SMILES IDX 76 39 78 40 29 41 81 42 75 43 74 44 30 46 62 47 42 48 61 49
REMARK SMILES IDX 43 50 46 51 60 52 79 53 44 54 45 55 59 57 80 58 47 59 31 60
REMARK SMILES IDX 32 61 40 62 33 63 39 64 41 65 38 66 34 67 35 68 36 69 37 70
REMARK SMILES IDX 63 71 64 72 72 73 65 74 71 75 73 76 70 77 66 78 67 79 68 80
REMARK SMILES IDX 69 81 48 82 49 83 57 84 50 85 56 86 58 87 55 88 51 89 52 90
REMARK SMILES IDX 53 91 54 92
REMARK H PARENT 15 5 8 12 2 18 2 19 12 21 19 26 78 45 46 56
REMARK Flexibility Score: inf
ROOT
ATOM      1  C   UNL A   1      34.760  33.439  30.545  1.00  0.00     0.117 C 
ENDROOT
BRANCH   1   2
ATOM      2  N   UNL A   1      35.954  34.229  30.709  1.00  0.00    -0.353 N 
ATOM      3  C   UNL A   1      36.802  34.243  31.785  1.00  0.00     0.253 C 
ATOM      4  O   UNL A   1      37.940  34.683  31.600  1.00  0.00    -0.272 OA
ATOM      5  H   UNL A   1      36.186  34.828  29.963  1.00  0.00     0.163 HD
BRANCH   3   6
ATOM      6  C   UNL A   1      36.333  33.702  33.170  1.00  0.00     0.157 C 
ATOM      7  C   UNL A   1      36.490  32.176  33.182  1.00  0.00     0.055 C 
BRANCH   6   8
ATOM      8  C   UNL A   1      34.848  34.094  33.459  1.00  0.00     0.160 C 
BRANCH   8   9
ATOM      9  N   UNL A   1      34.663  35.547  33.455  1.00  0.00    -0.352 N 
ATOM     10  C   UNL A   1      33.681  36.364  33.001  1.00  0.00     0.228 C 
ATOM     11  O   UNL A   1      33.846  37.572  33.207  1.00  0.00    -0.275 OA
ATOM     12  H   UNL A   1      35.411  36.034  33.870  1.00  0.00     0.163 HD
BRANCH  10  13
ATOM     13  C   UNL A   1      32.425  35.893  32.273  1.00  0.00     0.130 C 
ATOM     14  C   UNL A   1      31.121  36.263  32.965  1.00  0.00     0.024 C 
BRANCH  13  15
ATOM     15  C   UNL A   1      32.405  36.285  30.788  1.00  0.00     0.273 C 
BRANCH  15  16
ATOM     16  N   UNL A   1      33.449  37.247  30.410  1.00  0.00    -0.348 N 
ATOM     17  C   UNL A   1      33.596  37.372  28.963  1.00  0.00     0.330 C 
ATOM     18  H   UNL A   1      33.208  38.161  30.794  1.00  0.00     0.346 HD
ATOM     19  H   UNL A   1      34.336  36.907  30.783  1.00  0.00     0.346 HD
ENDBRANCH  15  16
ENDBRANCH  13  15
ENDBRANCH  10  13
ENDBRANCH   8   9
ENDBRANCH   6   8
BRANCH   6  20
ATOM     20  O   UNL A   1      37.204  34.154  34.224  1.00  0.00    -0.378 OA
ATOM     21  H   UNL A   1      37.918  34.690  33.844  1.00  0.00     0.212 HD
ENDBRANCH   6  20
ENDBRANCH   3   6
ENDBRANCH   1   2
BRANCH   1  22
ATOM     22  C   UNL A   1      34.008  33.647  29.250  1.00  0.00     0.042 C 
BRANCH  22  23
ATOM     23  C   UNL A   1      34.749  33.127  28.029  1.00  0.00     0.118 C 
BRANCH  23  24
ATOM     24  N   UNL A   1      34.187  31.889  27.486  1.00  0.00    -0.352 N 
ATOM     25  C   UNL A   1      34.675  30.604  27.471  1.00  0.00     0.251 C 
ATOM     26  H   UNL A   1      33.309  31.996  27.054  1.00  0.00     0.163 HD
ATOM     27  O   UNL A   1      34.061  29.746  26.839  1.00  0.00    -0.269 OA
BRANCH  25  28
ATOM     28  C   UNL A   1      35.935  30.264  28.167  1.00  0.00     0.039 A 
ATOM     29  C   UNL A   1      35.874  29.656  29.424  1.00  0.00     0.014 A 
ATOM     30  C   UNL A   1      37.173  30.516  27.578  1.00  0.00     0.014 A 
ATOM     31  C   UNL A   1      37.049  29.210  30.034  1.00  0.00     0.010 A 
ATOM     32  C   UNL A   1      38.323  29.963  28.123  1.00  0.00     0.010 A 
ATOM     33  C   UNL A   1      38.276  29.303  29.359  1.00  0.00    -0.014 A 
BRANCH  33  34
ATOM     34  C   UNL A   1      39.519  28.707  29.915  1.00  0.00     0.031 A 
ATOM     35  C   UNL A   1      40.195  29.337  31.103  1.00  0.00     0.074 A 
ATOM     36  C   UNL A   1      40.095  27.668  29.280  1.00  0.00     0.049 A 
ATOM     37  N   UNL A   1      41.336  29.032  31.667  1.00  0.00    -0.248 NA
ATOM     38  C   UNL A   1      39.522  30.498  31.702  1.00  0.00     0.031 C 
ATOM     39  C   UNL A   1      39.586  27.032  28.062  1.00  0.00     0.029 A 
ATOM     40  N   UNL A   1      41.246  26.974  29.556  1.00  0.00    -0.354 N 
ATOM     41  C   UNL A   1      41.530  29.981  32.665  1.00  0.00     0.074 A 
ATOM     42  C   UNL A   1      40.430  30.916  32.570  1.00  0.00     0.031 C 
ATOM     43  C   UNL A   1      40.406  26.030  27.710  1.00  0.00     0.029 A 
ATOM     44  C   UNL A   1      41.520  25.977  28.649  1.00  0.00     0.049 A 
ATOM     45  H   UNL A   1      41.821  27.172  30.330  1.00  0.00     0.167 HD
ATOM     46  C   UNL A   1      42.517  30.050  33.595  1.00  0.00     0.034 A 
ATOM     47  C   UNL A   1      42.559  25.122  28.575  1.00  0.00     0.034 A 
ATOM     48  C   UNL A   1      43.593  29.091  33.683  1.00  0.00     0.049 A 
ATOM     49  C   UNL A   1      43.624  25.185  29.635  1.00  0.00     0.074 A 
ATOM     50  C   UNL A   1      44.594  29.000  34.632  1.00  0.00     0.029 A 
ATOM     51  N   UNL A   1      43.814  28.059  32.776  1.00  0.00    -0.354 N 
ATOM     52  N   UNL A   1      43.749  26.032  30.631  1.00  0.00    -0.248 NA
ATOM     53  C   UNL A   1      44.677  24.166  29.571  1.00  0.00     0.031 C 
ATOM     54  C   UNL A   1      45.457  27.960  34.264  1.00  0.00     0.029 A 
ATOM     55  C   UNL A   1      44.953  27.350  33.126  1.00  0.00     0.049 A 
ATOM     56  H   UNL A   1      43.243  27.860  31.999  1.00  0.00     0.167 HD
ATOM     57  C   UNL A   1      44.891  25.639  31.322  1.00  0.00     0.074 A 
ATOM     58  C   UNL A   1      45.399  24.462  30.643  1.00  0.00     0.031 C 
ATOM     59  C   UNL A   1      45.467  26.198  32.417  1.00  0.00     0.034 A 
BRANCH  46  60
ATOM     60  C   UNL A   1      42.474  31.212  34.562  1.00  0.00     0.023 A 
ATOM     61  C   UNL A   1      41.480  31.312  35.554  1.00  0.00     0.031 A 
ATOM     62  C   UNL A   1      43.393  32.271  34.451  1.00  0.00     0.131 A 
ATOM     63  C   UNL A   1      41.356  32.488  36.308  1.00  0.00     0.055 A 
ATOM     64  C   UNL A   1      43.325  33.396  35.277  1.00  0.00     0.041 A 
ATOM     65  F   UNL A   1      44.355  32.247  33.516  1.00  0.00    -0.206 F 
ATOM     66  C   UNL A   1      42.287  33.521  36.196  1.00  0.00     0.022 A 
BRANCH  63  67
ATOM     67  S   UNL A   1      39.847  32.726  37.290  1.00  0.00     0.124 S 
ATOM     68  O   UNL A   1      40.386  32.799  38.646  1.00  0.00    -0.237 OA
ATOM     69  O   UNL A   1      39.311  33.968  36.747  1.00  0.00    -0.237 OA
ATOM     70  O   UNL A   1      39.061  31.527  37.004  1.00  0.00    -0.744 OA
ENDBRANCH  63  67
ENDBRANCH  46  60
BRANCH  47  71
ATOM     71  C   UNL A   1      42.637  24.145  27.455  1.00  0.00     0.023 A 
ATOM     72  C   UNL A   1      42.024  22.886  27.543  1.00  0.00     0.031 A 
ATOM     73  C   UNL A   1      43.324  24.465  26.269  1.00  0.00     0.131 A 
ATOM     74  C   UNL A   1      42.133  21.979  26.476  1.00  0.00     0.055 A 
ATOM     75  C   UNL A   1      43.394  23.577  25.195  1.00  0.00     0.041 A 
ATOM     76  F   UNL A   1      43.913  25.663  26.130  1.00  0.00    -0.206 F 
ATOM     77  C   UNL A   1      42.803  22.322  25.298  1.00  0.00     0.022 A 
BRANCH  74  78
ATOM     78  S   UNL A   1      41.420  20.322  26.666  1.00  0.00     0.124 S 
ATOM     79  O   UNL A   1      42.196  19.788  27.779  1.00  0.00    -0.237 OA
ATOM     80  O   UNL A   1      40.021  20.625  26.946  1.00  0.00    -0.237 OA
ATOM     81  O   UNL A   1      41.671  19.694  25.371  1.00  0.00    -0.744 OA
ENDBRANCH  74  78
ENDBRANCH  47  71
BRANCH  59  82
ATOM     82  C   UNL A   1      46.708  25.521  32.950  1.00  0.00     0.023 A 
ATOM     83  C   UNL A   1      47.971  25.743  32.373  1.00  0.00     0.031 A 
ATOM     84  C   UNL A   1      46.621  24.621  34.026  1.00  0.00     0.131 A 
ATOM     85  C   UNL A   1      49.085  25.024  32.831  1.00  0.00     0.055 A 
ATOM     86  C   UNL A   1      47.744  23.958  34.521  1.00  0.00     0.041 A 
ATOM     87  F   UNL A   1      45.440  24.369  34.613  1.00  0.00    -0.206 F 
ATOM     88  C   UNL A   1      48.982  24.145  33.913  1.00  0.00     0.022 A 
BRANCH  85  89
ATOM     89  S   UNL A   1      50.648  25.166  31.921  1.00  0.00     0.124 S 
ATOM     90  O   UNL A   1      51.002  23.767  31.709  1.00  0.00    -0.237 OA
ATOM     91  O   UNL A   1      50.248  25.911  30.731  1.00  0.00    -0.237 OA
ATOM     92  O   UNL A   1      51.517  25.892  32.845  1.00  0.00    -0.744 OA
ENDBRANCH  85  89
ENDBRANCH  59  82
ENDBRANCH  33  34
ENDBRANCH  25  28
ENDBRANCH  23  24
ENDBRANCH  22  23
ENDBRANCH   1  22
TORSDOF 19
ENDMDL
MODEL 2
REMARK VINA RESULT:     -10.0      6.346     10.621
REMARK SMILES C[NH2+]C[C@H](C)C(=O)NC[C@](C)(O)C(=O)NCCCNC(=O)c1ccc(-c2c3nc(c(-c4cc(S(=O)(=O)[O-])ccc4F)c4ccc([nH]4)c(-c4cc(S(=O)(=O)[O-])ccc4F)c4nc(c(-c5cc(S(=O)(=O)[O-])ccc5F)c5ccc2[nH]5)C=C4)C=C3)cc1
REMARK SMILES IDX 16 1 15 2 13 3 14 4 10 6 11 7 9 8 8 9 6 10 7 11 4 13 5 14
REMARK SMILES IDX 3 15 2 16 1 17 12 20 17 22 18 23 19 24 20 25 21 27 22 28
REMARK SMILES IDX 23 29 84 30 24 31 83 32 25 33 26 34 27 35 77 36 28 37 82 38
REMARK SMILES IDX 76 39 78 40 29 41 81 42 75 43 74 44 30 46 62 47 42 48 61 49
REMARK SMILES IDX 43 50 46 51 60 52 79 53 44 54 45 55 59 57 80 58 47 59 31 60
REMARK SMILES IDX 32 61 40 62 33 63 39 64 41 65 38 66 34 67 35 68 36 69 37 70
REMARK SMILES IDX 63 71 64 72 72 73 65 74 71 75 73 76 70 77 66 78 67 79 68 80
REMARK SMILES IDX 69 81 48 82 49 83 57 84 50 85 56 86 58 87 55 88 51 89 52 90
REMARK SMILES IDX 53 91 54 92
REMARK H PARENT 15 5 8 12 2 18 2 19 12 21 19 26 78 45 46 56
REMARK Flexibility Score: inf
ROOT
ATOM      1  C   UNL A   1      34.741  23.182  26.324  1.00  0.00     0.117 C 
ENDROOT
BRANCH   1   2
ATOM      2  N   UNL A   1      33.337  23.144  26.643  1.00  0.00    -0.353 N 
ATOM      3  C   UNL A   1      32.308  22.750  25.828  1.00  0.00     0.253 C 
ATOM      4  O   UNL A   1      31.248  22.432  26.373  1.00  0.00    -0.272 OA
ATOM      5  H   UNL A   1      33.088  23.435  27.550  1.00  0.00     0.163 HD
BRANCH   3   6
ATOM      6  C   UNL A   1      32.500  22.694  24.282  1.00  0.00     0.157 C 
ATOM      7  C   UNL A   1      31.251  23.275  23.608  1.00  0.00     0.055 C 
BRANCH   6   8
ATOM      8  C   UNL A   1      32.744  21.230  23.793  1.00  0.00     0.160 C 
BRANCH   8   9
ATOM      9  N   UNL A   1      32.478  20.255  24.853  1.00  0.00    -0.352 N 
ATOM     10  C   UNL A   1      32.881  18.980  25.075  1.00  0.00     0.228 C 
ATOM     11  O   UNL A   1      32.478  18.461  26.123  1.00  0.00    -0.275 OA
ATOM     12  H   UNL A   1      31.878  20.599  25.555  1.00  0.00     0.163 HD
BRANCH  10  13
ATOM     13  C   UNL A   1      33.773  18.174  24.136  1.00  0.00     0.130 C 
ATOM     14  C   UNL A   1      35.224  18.067  24.584  1.00  0.00     0.024 C 
BRANCH  13  15
ATOM     15  C   UNL A   1      33.191  16.798  23.782  1.00  0.00     0.273 C 
BRANCH  15  16
ATOM     16  N   UNL A   1      32.289  16.250  24.803  1.00  0.00    -0.348 N 
ATOM     17  C   UNL A   1      32.783  15.000  25.372  1.00  0.00     0.330 C 
ATOM     18  H   UNL A   1      32.188  16.934  25.554  1.00  0.00     0.346 HD
ATOM     19  H   UNL A   1      31.393  16.054  24.354  1.00  0.00     0.346 HD
ENDBRANCH  15  16
ENDBRANCH  13  15
ENDBRANCH  10  13
ENDBRANCH   8   9
ENDBRANCH   6   8
BRANCH   6  20
ATOM     20  O   UNL A   1      33.565  23.566  23.861  1.00  0.00    -0.378 OA
ATOM     21  H   UNL A   1      33.887  24.073  24.624  1.00  0.00     0.212 HD
ENDBRANCH   6  20
ENDBRANCH   3   6
ENDBRANCH   1   2
BRANCH   1  22
ATOM     22  C   UNL A   1      35.411  21.839  26.147  1.00  0.00     0.042 C 
BRANCH  22  23
ATOM     23  C   UNL A   1      36.509  21.843  25.095  1.00  0.00     0.118 C 
BRANCH  23  24
ATOM     24  N   UNL A   1      37.507  20.789  25.285  1.00  0.00    -0.352 N 
ATOM     25  C   UNL A   1      38.782  20.831  25.797  1.00  0.00     0.251 C 
ATOM     26  H   UNL A   1      37.215  19.895  24.994  1.00  0.00     0.163 HD
ATOM     27  O   UNL A   1      39.476  19.818  25.740  1.00  0.00    -0.269 OA
BRANCH  25  28
ATOM     28  C   UNL A   1      39.327  22.082  26.369  1.00  0.00     0.039 A 
ATOM     29  C   UNL A   1      40.411  22.011  27.248  1.00  0.00     0.014 A 
ATOM     30  C   UNL A   1      38.794  23.324  26.025  1.00  0.00     0.014 A 
ATOM     31  C   UNL A   1      41.020  23.187  27.692  1.00  0.00     0.010 A 
ATOM     32  C   UNL A   1      39.474  24.485  26.364  1.00  0.00     0.010 A 
ATOM     33  C   UNL A   1      40.595  24.432  27.203  1.00  0.00    -0.014 A 
BRANCH  33  34
ATOM     34  C   UNL A   1      41.313  25.689  27.539  1.00  0.00     0.031 A 
ATOM     35  C   UNL A   1      40.622  26.767  28.331  1.00  0.00     0.074 A 
ATOM     36  C   UNL A   1      42.545  25.902  27.037  1.00  0.00     0.049 A 
ATOM     37  N   UNL A   1      41.038  27.971  28.634  1.00  0.00    -0.248 NA
ATOM     38  C   UNL A   1      39.261  26.469  28.796  1.00  0.00     0.031 C 
ATOM     39  C   UNL A   1      43.280  24.972  26.175  1.00  0.00     0.029 A 
ATOM     40  N   UNL A   1      43.390  26.976  27.158  1.00  0.00    -0.354 N 
ATOM     41  C   UNL A   1      39.979  28.580  29.298  1.00  0.00     0.074 A 
ATOM     42  C   UNL A   1      38.879  27.641  29.277  1.00  0.00     0.031 C 
ATOM     43  C   UNL A   1      44.472  25.505  25.866  1.00  0.00     0.029 A 
ATOM     44  C   UNL A   1      44.571  26.828  26.469  1.00  0.00     0.049 A 
ATOM     45  H   UNL A   1      43.172  27.776  27.688  1.00  0.00     0.167 HD
ATOM     46  C   UNL A   1      39.938  29.798  29.897  1.00  0.00     0.034 A 
ATOM     47  C   UNL A   1      45.614  27.670  26.329  1.00  0.00     0.034 A 
ATOM     48  C   UNL A   1      41.058  30.708  29.924  1.00  0.00     0.049 A 
ATOM     49  C   UNL A   1      45.570  29.000  27.031  1.00  0.00     0.074 A 
ATOM     50  C   UNL A   1      41.169  31.924  30.574  1.00  0.00     0.029 A 
ATOM     51  N   UNL A   1      42.262  30.506  29.256  1.00  0.00    -0.354 N 
ATOM     52  N   UNL A   1      44.596  29.529  27.734  1.00  0.00    -0.248 NA
ATOM     53  C   UNL A   1      46.772  29.834  26.934  1.00  0.00     0.031 C 
ATOM     54  C   UNL A   1      42.410  32.486  30.247  1.00  0.00     0.029 A 
ATOM     55  C   UNL A   1      43.107  31.589  29.453  1.00  0.00     0.049 A 
ATOM     56  H   UNL A   1      42.484  29.709  28.723  1.00  0.00     0.167 HD
ATOM     57  C   UNL A   1      45.073  30.759  28.177  1.00  0.00     0.074 A 
ATOM     58  C   UNL A   1      46.432  30.875  27.682  1.00  0.00     0.031 C 
ATOM     59  C   UNL A   1      44.448  31.706  28.924  1.00  0.00     0.034 A 
BRANCH  46  60
ATOM     60  C   UNL A   1      38.633  30.205  30.544  1.00  0.00     0.023 A 
ATOM     61  C   UNL A   1      37.670  30.965  29.854  1.00  0.00     0.031 A 
ATOM     62  C   UNL A   1      38.372  29.892  31.891  1.00  0.00     0.131 A 
ATOM     63  C   UNL A   1      36.561  31.484  30.537  1.00  0.00     0.055 A 
ATOM     64  C   UNL A   1      37.213  30.327  32.537  1.00  0.00     0.041 A 
ATOM     65  F   UNL A   1      39.255  29.184  32.612  1.00  0.00    -0.206 F 
ATOM     66  C   UNL A   1      36.311  31.149  31.868  1.00  0.00     0.022 A 
BRANCH  63  67
ATOM     67  S   UNL A   1      35.564  32.761  29.717  1.00  0.00     0.124 S 
ATOM     68  O   UNL A   1      34.561  31.954  29.027  1.00  0.00    -0.237 OA
ATOM     69  O   UNL A   1      35.083  33.556  30.841  1.00  0.00    -0.237 OA
ATOM     70  O   UNL A   1      36.522  33.432  28.841  1.00  0.00    -0.744 OA
ENDBRANCH  63  67
ENDBRANCH  46  60
BRANCH  47  71
ATOM     71  C   UNL A   1      46.777  27.277  25.486  1.00  0.00     0.023 A 
ATOM     72  C   UNL A   1      46.980  27.841  24.217  1.00  0.00     0.031 A 
ATOM     73  C   UNL A   1      47.712  26.333  25.947  1.00  0.00     0.131 A 
ATOM     74  C   UNL A   1      48.075  27.435  23.439  1.00  0.00     0.055 A 
ATOM     75  C   UNL A   1      48.822  25.964  25.188  1.00  0.00     0.041 A 
ATOM     76  F   UNL A   1      47.571  25.777  27.161  1.00  0.00    -0.206 F 
ATOM     77  C   UNL A   1      49.005  26.509  23.921  1.00  0.00     0.022 A 
BRANCH  74  78
ATOM     78  S   UNL A   1      48.248  28.105  21.762  1.00  0.00     0.124 S 
ATOM     79  O   UNL A   1      48.056  26.913  20.943  1.00  0.00    -0.237 OA
ATOM     80  O   UNL A   1      47.175  29.092  21.718  1.00  0.00    -0.237 OA
ATOM     81  O   UNL A   1      49.601  28.657  21.754  1.00  0.00    -0.744 OA
ENDBRANCH  74  78
ENDBRANCH  47  71
BRANCH  59  82
ATOM     82  C   UNL A   1      45.247  32.942  29.258  1.00  0.00     0.023 A 
ATOM     83  C   UNL A   1      45.219  34.081  28.433  1.00  0.00     0.031 A 
ATOM     84  C   UNL A   1      46.070  32.972  30.397  1.00  0.00     0.131 A 
ATOM     85  C   UNL A   1      46.048  35.175  28.722  1.00  0.00     0.055 A 
ATOM     86  C   UNL A   1      46.844  34.088  30.716  1.00  0.00     0.041 A 
ATOM     87  F   UNL A   1      46.139  31.911  31.218  1.00  0.00    -0.206 F 
ATOM     88  C   UNL A   1      46.849  35.192  29.869  1.00  0.00     0.022 A 
BRANCH  85  89
ATOM     89  S   UNL A   1      46.155  36.528  27.519  1.00  0.00     0.124 S 
ATOM     90  O   UNL A   1      46.904  37.535  28.263  1.00  0.00    -0.237 OA
ATOM     91  O   UNL A   1      46.861  35.900  26.407  1.00  0.00    -0.237 OA
ATOM     92  O   UNL A   1      44.757  36.865  27.257  1.00  0.00    -0.744 OA
ENDBRANCH  85  89
ENDBRANCH  59  82
ENDBRANCH  33  34
ENDBRANCH  25  28
ENDBRANCH  23  24
ENDBRANCH  22  23
ENDBRANCH   1  22
TORSDOF 19
ENDMDL
MODEL 3
REMARK VINA RESULT:     -10.0      5.982     12.071
REMARK SMILES C[NH2+]C[C@H](C)C(=O)NC[C@](C)(O)C(=O)NCCCNC(=O)c1ccc(-c2c3nc(c(-c4cc(S(=O)(=O)[O-])ccc4F)c4ccc([nH]4)c(-c4cc(S(=O)(=O)[O-])ccc4F)c4nc(c(-c5cc(S(=O)(=O)[O-])ccc5F)c5ccc2[nH]5)C=C4)C=C3)cc1
REMARK SMILES IDX 16 1 15 2 13 3 14 4 10 6 11 7 9 8 8 9 6 10 7 11 4 13 5 14
REMARK SMILES IDX 3 15 2 16 1 17 12 20 17 22 18 23 19 24 20 25 21 27 22 28
REMARK SMILES IDX 23 29 84 30 24 31 83 32 25 33 26 34 27 35 77 36 28 37 82 38
REMARK SMILES IDX 76 39 78 40 29 41 81 42 75 43 74 44 30 46 62 47 42 48 61 49
REMARK SMILES IDX 43 50 46 51 60 52 79 53 44 54 45 55 59 57 80 58 47 59 31 60
REMARK SMILES IDX 32 61 40 62 33 63 39 64 41 65 38 66 34 67 35 68 36 69 37 70
REMARK SMILES IDX 63 71 64 72 72 73 65 74 71 75 73 76 70 77 66 78 67 79 68 80
REMARK SMILES IDX 69 81 48 82 49 83 57 84 50 85 56 86 58 87 55 88 51 89 52 90
REMARK SMILES IDX 53 91 54 92
REMARK H PARENT 15 5 8 12 2 18 2 19 12 21 19 26 78 45 46 56
REMARK Flexibility Score: inf
ROOT
ATOM      1  C   UNL A   1      35.138  23.265  24.077  1.00  0.00     0.117 C 
ENDROOT
BRANCH   1   2
ATOM      2  N   UNL A   1      34.628  23.562  22.763  1.00  0.00    -0.353 N 
ATOM      3  C   UNL A   1      33.316  23.687  22.387  1.00  0.00     0.253 C 
ATOM      4  O   UNL A   1      33.085  24.296  21.340  1.00  0.00    -0.272 OA
ATOM      5  H   UNL A   1      35.298  23.688  22.053  1.00  0.00     0.163 HD
BRANCH   3   6
ATOM      6  C   UNL A   1      32.179  23.093  23.273  1.00  0.00     0.157 C 
ATOM      7  C   UNL A   1      32.255  23.728  24.667  1.00  0.00     0.055 C 
BRANCH   6   8
ATOM      8  C   UNL A   1      32.298  21.538  23.382  1.00  0.00     0.160 C 
BRANCH   8   9
ATOM      9  N   UNL A   1      32.595  21.115  24.753  1.00  0.00    -0.352 N 
ATOM     10  C   UNL A   1      33.011  19.948  25.302  1.00  0.00     0.228 C 
ATOM     11  O   UNL A   1      33.201  19.964  26.524  1.00  0.00    -0.275 OA
ATOM     12  H   UNL A   1      32.464  21.830  25.416  1.00  0.00     0.163 HD
BRANCH  10  13
ATOM     13  C   UNL A   1      33.251  18.657  24.524  1.00  0.00     0.130 C 
ATOM     14  C   UNL A   1      34.715  18.259  24.402  1.00  0.00     0.024 C 
BRANCH  13  15
ATOM     15  C   UNL A   1      32.388  17.486  25.016  1.00  0.00     0.273 C 
BRANCH  15  16
ATOM     16  N   UNL A   1      32.899  16.163  24.632  1.00  0.00    -0.348 N 
ATOM     17  C   UNL A   1      32.413  15.101  25.507  1.00  0.00     0.330 C 
ATOM     18  H   UNL A   1      32.603  15.962  23.677  1.00  0.00     0.346 HD
ATOM     19  H   UNL A   1      33.916  16.189  24.710  1.00  0.00     0.346 HD
ENDBRANCH  15  16
ENDBRANCH  13  15
ENDBRANCH  10  13
ENDBRANCH   8   9
ENDBRANCH   6   8
BRANCH   6  20
ATOM     20  O   UNL A   1      30.883  23.481  22.781  1.00  0.00    -0.378 OA
ATOM     21  H   UNL A   1      30.510  24.165  23.359  1.00  0.00     0.212 HD
ENDBRANCH   6  20
ENDBRANCH   3   6
ENDBRANCH   1   2
BRANCH   1  22
ATOM     22  C   UNL A   1      36.016  22.039  24.179  1.00  0.00     0.042 C 
BRANCH  22  23
ATOM     23  C   UNL A   1      36.494  21.752  25.594  1.00  0.00     0.118 C 
BRANCH  23  24
ATOM     24  N   UNL A   1      37.618  20.817  25.654  1.00  0.00    -0.352 N 
ATOM     25  C   UNL A   1      38.933  21.003  26.008  1.00  0.00     0.251 C 
ATOM     26  H   UNL A   1      37.393  19.893  25.396  1.00  0.00     0.163 HD
ATOM     27  O   UNL A   1      39.723  20.072  25.861  1.00  0.00    -0.269 OA
BRANCH  25  28
ATOM     28  C   UNL A   1      39.403  22.310  26.516  1.00  0.00     0.039 A 
ATOM     29  C   UNL A   1      40.449  22.343  27.441  1.00  0.00     0.014 A 
ATOM     30  C   UNL A   1      38.836  23.503  26.068  1.00  0.00     0.014 A 
ATOM     31  C   UNL A   1      40.991  23.571  27.830  1.00  0.00     0.010 A 
ATOM     32  C   UNL A   1      39.454  24.712  26.355  1.00  0.00     0.010 A 
ATOM     33  C   UNL A   1      40.539  24.761  27.241  1.00  0.00    -0.014 A 
BRANCH  33  34
ATOM     34  C   UNL A   1      41.191  26.068  27.521  1.00  0.00     0.031 A 
ATOM     35  C   UNL A   1      42.605  26.319  27.073  1.00  0.00     0.074 A 
ATOM     36  C   UNL A   1      40.546  26.981  28.273  1.00  0.00     0.049 A 
ATOM     37  N   UNL A   1      43.382  27.345  27.311  1.00  0.00    -0.248 NA
ATOM     38  C   UNL A   1      43.249  25.247  26.301  1.00  0.00     0.031 C 
ATOM     39  C   UNL A   1      39.208  26.813  28.847  1.00  0.00     0.029 A 
ATOM     40  N   UNL A   1      40.935  28.224  28.704  1.00  0.00    -0.354 N 
ATOM     41  C   UNL A   1      44.612  27.028  26.744  1.00  0.00     0.074 A 
ATOM     42  C   UNL A   1      44.497  25.682  26.226  1.00  0.00     0.031 C 
ATOM     43  C   UNL A   1      38.880  27.919  29.533  1.00  0.00     0.029 A 
ATOM     44  C   UNL A   1      39.996  28.856  29.485  1.00  0.00     0.049 A 
ATOM     45  H   UNL A   1      41.804  28.625  28.476  1.00  0.00     0.167 HD
ATOM     46  C   UNL A   1      45.724  27.800  26.637  1.00  0.00     0.034 A 
ATOM     47  C   UNL A   1      40.033  30.051  30.104  1.00  0.00     0.034 A 
ATOM     48  C   UNL A   1      45.806  29.149  27.142  1.00  0.00     0.049 A 
ATOM     49  C   UNL A   1      41.257  30.911  29.944  1.00  0.00     0.074 A 
ATOM     50  C   UNL A   1      46.839  30.060  27.014  1.00  0.00     0.029 A 
ATOM     51  N   UNL A   1      44.815  29.780  27.888  1.00  0.00    -0.354 N 
ATOM     52  N   UNL A   1      42.383  30.637  29.326  1.00  0.00    -0.248 NA
ATOM     53  C   UNL A   1      41.206  32.247  30.548  1.00  0.00     0.031 C 
ATOM     54  C   UNL A   1      46.503  31.212  27.735  1.00  0.00     0.029 A 
ATOM     55  C   UNL A   1      45.227  31.054  28.253  1.00  0.00     0.049 A 
ATOM     56  H   UNL A   1      43.945  29.382  28.121  1.00  0.00     0.167 HD
ATOM     57  C   UNL A   1      43.174  31.775  29.457  1.00  0.00     0.074 A 
ATOM     58  C   UNL A   1      42.381  32.745  30.188  1.00  0.00     0.031 C 
ATOM     59  C   UNL A   1      44.437  31.998  29.013  1.00  0.00     0.034 A 
BRANCH  46  60
ATOM     60  C   UNL A   1      46.931  27.181  25.968  1.00  0.00     0.023 A 
ATOM     61  C   UNL A   1      47.863  26.412  26.689  1.00  0.00     0.031 A 
ATOM     62  C   UNL A   1      47.196  27.418  24.607  1.00  0.00     0.131 A 
ATOM     63  C   UNL A   1      49.064  26.012  26.084  1.00  0.00     0.055 A 
ATOM     64  C   UNL A   1      48.347  26.929  23.984  1.00  0.00     0.041 A 
ATOM     65  F   UNL A   1      46.358  28.158  23.865  1.00  0.00    -0.206 F 
ATOM     66  C   UNL A   1      49.302  26.243  24.729  1.00  0.00     0.022 A 
BRANCH  63  67
ATOM     67  S   UNL A   1      50.389  25.367  27.144  1.00  0.00     0.124 S 
ATOM     68  O   UNL A   1      50.681  26.524  27.988  1.00  0.00    -0.237 OA
ATOM     69  O   UNL A   1      49.743  24.241  27.806  1.00  0.00    -0.237 OA
ATOM     70  O   UNL A   1      51.445  25.015  26.197  1.00  0.00    -0.744 OA
ENDBRANCH  63  67
ENDBRANCH  46  60
BRANCH  47  71
ATOM     71  C   UNL A   1      38.878  30.495  30.933  1.00  0.00     0.023 A 
ATOM     72  C   UNL A   1      37.774  31.142  30.357  1.00  0.00     0.031 A 
ATOM     73  C   UNL A   1      38.860  30.265  32.321  1.00  0.00     0.131 A 
ATOM     74  C   UNL A   1      36.710  31.566  31.169  1.00  0.00     0.055 A 
ATOM     75  C   UNL A   1      37.781  30.650  33.117  1.00  0.00     0.041 A 
ATOM     76  F   UNL A   1      39.884  29.635  32.917  1.00  0.00    -0.206 F 
ATOM     77  C   UNL A   1      36.701  31.312  32.543  1.00  0.00     0.022 A 
BRANCH  74  78
ATOM     78  S   UNL A   1      35.350  32.494  30.407  1.00  0.00     0.124 S 
ATOM     79  O   UNL A   1      35.052  31.678  29.235  1.00  0.00    -0.237 OA
ATOM     80  O   UNL A   1      34.348  32.485  31.467  1.00  0.00    -0.237 OA
ATOM     81  O   UNL A   1      35.944  33.799  30.126  1.00  0.00    -0.744 OA
ENDBRANCH  74  78
ENDBRANCH  47  71
BRANCH  59  82
ATOM     82  C   UNL A   1      45.026  33.358  29.302  1.00  0.00     0.023 A 
ATOM     83  C   UNL A   1      44.858  34.436  28.414  1.00  0.00     0.031 A 
ATOM     84  C   UNL A   1      45.791  33.571  30.462  1.00  0.00     0.131 A 
ATOM     85  C   UNL A   1      45.500  35.657  28.667  1.00  0.00     0.055 A 
ATOM     86  C   UNL A   1      46.373  34.808  30.742  1.00  0.00     0.041 A 
ATOM     87  F   UNL A   1      45.987  32.577  31.343  1.00  0.00    -0.206 F 
ATOM     88  C   UNL A   1      46.244  35.855  29.834  1.00  0.00     0.022 A 
BRANCH  85  89
ATOM     89  S   UNL A   1      45.447  36.949  27.394  1.00  0.00     0.124 S 
ATOM     90  O   UNL A   1      44.044  36.923  26.995  1.00  0.00    -0.237 OA
ATOM     91  O   UNL A   1      45.879  38.131  28.133  1.00  0.00    -0.237 OA
ATOM     92  O   UNL A   1      46.388  36.471  26.382  1.00  0.00    -0.744 OA
ENDBRANCH  85  89
ENDBRANCH  59  82
ENDBRANCH  33  34
ENDBRANCH  25  28
ENDBRANCH  23  24
ENDBRANCH  22  23
ENDBRANCH   1  22
TORSDOF 19
ENDMDL
