MODEL 1
REMARK VINA RESULT:     -12.1      0.000      0.000
REMARK SMILES CC(C)c1nc(OCC(=O)NCCCNC(=O)c2ccc(-c3c4nc(c(-c5cc(S(=O)(=O)[O-])ccc5F)c5ccc([nH]5)c(-c5cc(S(=O)(=O)[O-])ccc5F)c5nc(c(-c6cc(S(=O)(=O)[O-])ccc6F)c6ccc3[nH]6)C=C5)C=C4)cc2)cc(-c2ccccn2)n1
REMARK SMILES IDX 13 1 12 2 11 3 9 4 10 5 8 7 7 8 6 9 4 10 5 11 89 12 82 13
REMARK SMILES IDX 81 14 2 15 1 16 3 17 83 18 84 19 88 20 85 21 87 22 86 23
REMARK SMILES IDX 14 24 15 25 16 26 17 28 18 29 19 30 80 31 20 32 79 33 21 34
REMARK SMILES IDX 22 35 23 36 73 37 24 38 78 39 72 40 74 41 25 42 77 43 71 44
REMARK SMILES IDX 70 45 26 47 58 48 38 49 57 50 39 51 42 52 56 53 75 54 40 55
REMARK SMILES IDX 41 56 55 58 76 59 43 60 27 61 28 62 36 63 29 64 35 65 37 66
REMARK SMILES IDX 34 67 30 68 31 69 32 70 33 71 59 72 60 73 68 74 61 75 67 76
REMARK SMILES IDX 69 77 66 78 62 79 63 80 64 81 65 82 44 83 45 84 53 85 46 86
REMARK SMILES IDX 52 87 54 88 51 89 47 90 48 91 49 92 50 93
REMARK H PARENT 11 6 15 27 74 46 42 57
REMARK Flexibility Score: inf
ROOT
ATOM      1  C   UNL A   1      32.044  28.561  26.549  1.00  0.00     0.042 C 
ENDROOT
BRANCH   1   2
ATOM      2  C   UNL A   1      31.862  27.249  25.794  1.00  0.00     0.117 C 
BRANCH   2   3
ATOM      3  N   UNL A   1      31.309  26.198  26.629  1.00  0.00    -0.353 N 
ATOM      4  C   UNL A   1      31.218  24.866  26.359  1.00  0.00     0.258 C 
ATOM      5  O   UNL A   1      30.713  24.118  27.201  1.00  0.00    -0.271 OA
ATOM      6  H   UNL A   1      30.954  26.484  27.503  1.00  0.00     0.163 HD
BRANCH   4   7
ATOM      7  C   UNL A   1      31.758  24.321  25.031  1.00  0.00     0.331 C 
BRANCH   7   8
ATOM      8  O   UNL A   1      31.467  22.965  24.745  1.00  0.00    -0.467 OA
BRANCH   8   9
ATOM      9  C   UNL A   1      32.503  22.074  24.744  1.00  0.00     0.217 A 
ATOM     10  C   UNL A   1      34.781  21.878  24.478  1.00  0.00     0.135 A 
ATOM     11  N   UNL A   1      33.688  22.664  24.533  1.00  0.00    -0.198 NA
ATOM     12  N   UNL A   1      34.743  20.541  24.609  1.00  0.00    -0.231 NA
ATOM     13  C   UNL A   1      33.536  19.974  24.814  1.00  0.00     0.096 A 
ATOM     14  C   UNL A   1      32.380  20.720  24.920  1.00  0.00     0.099 A 
BRANCH  10  15
ATOM     15  C   UNL A   1      36.144  22.531  24.336  1.00  0.00     0.051 C 
ATOM     16  C   UNL A   1      36.286  23.741  25.265  1.00  0.00     0.016 C 
ATOM     17  C   UNL A   1      37.308  21.563  24.585  1.00  0.00     0.016 C 
ENDBRANCH  10  15
BRANCH  13  18
ATOM     18  C   UNL A   1      33.469  18.507  24.862  1.00  0.00     0.089 A 
ATOM     19  C   UNL A   1      34.342  17.727  24.100  1.00  0.00     0.030 A 
ATOM     20  N   UNL A   1      32.470  17.960  25.601  1.00  0.00    -0.255 NA
ATOM     21  C   UNL A   1      34.191  16.344  24.095  1.00  0.00     0.004 A 
ATOM     22  C   UNL A   1      32.358  16.614  25.589  1.00  0.00     0.112 A 
ATOM     23  C   UNL A   1      33.178  15.774  24.855  1.00  0.00     0.020 A 
ENDBRANCH  13  18
ENDBRANCH   8   9
ENDBRANCH   7   8
ENDBRANCH   4   7
ENDBRANCH   2   3
ENDBRANCH   1   2
BRANCH   1  24
ATOM     24  C   UNL A   1      33.408  29.218  26.357  1.00  0.00     0.118 C 
BRANCH  24  25
ATOM     25  N   UNL A   1      33.435  30.612  26.781  1.00  0.00    -0.352 N 
ATOM     26  C   UNL A   1      34.289  31.266  27.634  1.00  0.00     0.251 C 
ATOM     27  H   UNL A   1      32.727  31.175  26.392  1.00  0.00     0.163 HD
ATOM     28  O   UNL A   1      34.012  32.412  27.989  1.00  0.00    -0.269 OA
BRANCH  26  29
ATOM     29  C   UNL A   1      35.510  30.605  28.142  1.00  0.00     0.039 A 
ATOM     30  C   UNL A   1      36.731  30.864  27.511  1.00  0.00     0.014 A 
ATOM     31  C   UNL A   1      35.459  29.717  29.219  1.00  0.00     0.014 A 
ATOM     32  C   UNL A   1      37.905  30.288  28.005  1.00  0.00     0.010 A 
ATOM     33  C   UNL A   1      36.639  29.213  29.762  1.00  0.00     0.010 A 
ATOM     34  C   UNL A   1      37.876  29.490  29.160  1.00  0.00    -0.014 A 
BRANCH  34  35
ATOM     35  C   UNL A   1      39.125  28.933  29.747  1.00  0.00     0.031 A 
ATOM     36  C   UNL A   1      39.660  29.476  31.045  1.00  0.00     0.074 A 
ATOM     37  C   UNL A   1      39.809  27.981  29.084  1.00  0.00     0.049 A 
ATOM     38  N   UNL A   1      40.761  29.167  31.682  1.00  0.00    -0.248 NA
ATOM     39  C   UNL A   1      38.864  30.526  31.693  1.00  0.00     0.031 C 
ATOM     40  C   UNL A   1      39.411  27.393  27.804  1.00  0.00     0.029 A 
ATOM     41  N   UNL A   1      40.981  27.339  29.393  1.00  0.00    -0.354 N 
ATOM     42  C   UNL A   1      40.794  29.991  32.803  1.00  0.00     0.074 A 
ATOM     43  C   UNL A   1      39.643  30.865  32.707  1.00  0.00     0.031 C 
ATOM     44  C   UNL A   1      40.300  26.448  27.459  1.00  0.00     0.029 A 
ATOM     45  C   UNL A   1      41.360  26.400  28.462  1.00  0.00     0.049 A 
ATOM     46  H   UNL A   1      41.502  27.532  30.206  1.00  0.00     0.167 HD
ATOM     47  C   UNL A   1      41.680  29.997  33.831  1.00  0.00     0.034 A 
ATOM     48  C   UNL A   1      42.440  25.596  28.415  1.00  0.00     0.034 A 
ATOM     49  C   UNL A   1      42.829  29.125  33.903  1.00  0.00     0.049 A 
ATOM     50  C   UNL A   1      43.453  25.668  29.530  1.00  0.00     0.074 A 
ATOM     51  C   UNL A   1      43.774  29.023  34.911  1.00  0.00     0.029 A 
ATOM     52  N   UNL A   1      43.201  28.213  32.922  1.00  0.00    -0.354 N 
ATOM     53  N   UNL A   1      43.450  26.423  30.604  1.00  0.00    -0.248 NA
ATOM     54  C   UNL A   1      44.611  24.772  29.426  1.00  0.00     0.031 C 
ATOM     55  C   UNL A   1      44.756  28.113  34.503  1.00  0.00     0.029 A 
ATOM     56  C   UNL A   1      44.379  27.574  33.283  1.00  0.00     0.049 A 
ATOM     57  H   UNL A   1      42.700  28.045  32.092  1.00  0.00     0.167 HD
ATOM     58  C   UNL A   1      44.587  26.063  31.323  1.00  0.00     0.074 A 
ATOM     59  C   UNL A   1      45.243  25.019  30.563  1.00  0.00     0.031 C 
ATOM     60  C   UNL A   1      45.039  26.544  32.510  1.00  0.00     0.034 A 
BRANCH  47  61
ATOM     61  C   UNL A   1      41.446  31.009  34.933  1.00  0.00     0.023 A 
ATOM     62  C   UNL A   1      40.302  30.955  35.749  1.00  0.00     0.031 A 
ATOM     63  C   UNL A   1      42.338  32.078  35.129  1.00  0.00     0.131 A 
ATOM     64  C   UNL A   1      40.020  32.007  36.634  1.00  0.00     0.055 A 
ATOM     65  C   UNL A   1      42.104  33.067  36.089  1.00  0.00     0.041 A 
ATOM     66  F   UNL A   1      43.440  32.201  34.371  1.00  0.00    -0.206 F 
ATOM     67  C   UNL A   1      40.927  33.049  36.831  1.00  0.00     0.022 A 
BRANCH  64  68
ATOM     68  S   UNL A   1      38.360  32.095  37.363  1.00  0.00     0.124 S 
ATOM     69  O   UNL A   1      37.831  30.770  37.052  1.00  0.00    -0.237 OA
ATOM     70  O   UNL A   1      38.646  32.357  38.768  1.00  0.00    -0.237 OA
ATOM     71  O   UNL A   1      37.727  33.195  36.638  1.00  0.00    -0.744 OA
ENDBRANCH  64  68
ENDBRANCH  47  61
BRANCH  48  72
ATOM     72  C   UNL A   1      42.619  24.643  27.283  1.00  0.00     0.023 A 
ATOM     73  C   UNL A   1      42.090  23.345  27.349  1.00  0.00     0.031 A 
ATOM     74  C   UNL A   1      43.338  25.006  26.130  1.00  0.00     0.131 A 
ATOM     75  C   UNL A   1      42.319  22.442  26.299  1.00  0.00     0.055 A 
ATOM     76  C   UNL A   1      43.517  24.123  25.065  1.00  0.00     0.041 A 
ATOM     77  F   UNL A   1      43.861  26.237  26.016  1.00  0.00    -0.206 F 
ATOM     78  C   UNL A   1      43.015  22.828  25.150  1.00  0.00     0.022 A 
BRANCH  75  79
ATOM     79  S   UNL A   1      41.751  20.731  26.486  1.00  0.00     0.124 S 
ATOM     80  O   UNL A   1      42.246  20.398  27.817  1.00  0.00    -0.237 OA
ATOM     81  O   UNL A   1      40.305  20.875  26.355  1.00  0.00    -0.237 OA
ATOM     82  O   UNL A   1      42.407  20.032  25.383  1.00  0.00    -0.744 OA
ENDBRANCH  75  79
ENDBRANCH  48  72
BRANCH  60  83
ATOM     83  C   UNL A   1      46.283  25.905  33.085  1.00  0.00     0.023 A 
ATOM     84  C   UNL A   1      46.226  24.749  33.884  1.00  0.00     0.031 A 
ATOM     85  C   UNL A   1      47.546  26.474  32.839  1.00  0.00     0.131 A 
ATOM     86  C   UNL A   1      47.401  24.237  34.457  1.00  0.00     0.055 A 
ATOM     87  C   UNL A   1      48.718  25.920  33.355  1.00  0.00     0.041 A 
ATOM     88  F   UNL A   1      47.662  27.582  32.089  1.00  0.00    -0.206 F 
ATOM     89  C   UNL A   1      48.649  24.803  34.182  1.00  0.00     0.022 A 
BRANCH  86  90
ATOM     90  S   UNL A   1      47.267  22.882  35.658  1.00  0.00     0.124 S 
ATOM     91  O   UNL A   1      46.673  21.821  34.851  1.00  0.00    -0.237 OA
ATOM     92  O   UNL A   1      48.657  22.679  36.056  1.00  0.00    -0.237 OA
ATOM     93  O   UNL A   1      46.399  23.431  36.698  1.00  0.00    -0.744 OA
ENDBRANCH  86  90
ENDBRANCH  60  83
ENDBRANCH  34  35
ENDBRANCH  26  29
ENDBRANCH  24  25
ENDBRANCH   1  24
TORSDOF 17
ENDMDL
MODEL 2
REMARK VINA RESULT:     -12.0      5.000      8.253
REMARK SMILES CC(C)c1nc(OCC(=O)NCCCNC(=O)c2ccc(-c3c4nc(c(-c5cc(S(=O)(=O)[O-])ccc5F)c5ccc([nH]5)c(-c5cc(S(=O)(=O)[O-])ccc5F)c5nc(c(-c6cc(S(=O)(=O)[O-])ccc6F)c6ccc3[nH]6)C=C5)C=C4)cc2)cc(-c2ccccn2)n1
REMARK SMILES IDX 13 1 12 2 11 3 9 4 10 5 8 7 7 8 6 9 4 10 5 11 89 12 82 13
REMARK SMILES IDX 81 14 2 15 1 16 3 17 83 18 84 19 88 20 85 21 87 22 86 23
REMARK SMILES IDX 14 24 15 25 16 26 17 28 18 29 19 30 80 31 20 32 79 33 21 34
REMARK SMILES IDX 22 35 23 36 73 37 24 38 78 39 72 40 74 41 25 42 77 43 71 44
REMARK SMILES IDX 70 45 26 47 58 48 38 49 57 50 39 51 42 52 56 53 75 54 40 55
REMARK SMILES IDX 41 56 55 58 76 59 43 60 27 61 28 62 36 63 29 64 35 65 37 66
REMARK SMILES IDX 34 67 30 68 31 69 32 70 33 71 59 72 60 73 68 74 61 75 67 76
REMARK SMILES IDX 69 77 66 78 62 79 63 80 64 81 65 82 44 83 45 84 53 85 46 86
REMARK SMILES IDX 52 87 54 88 51 89 47 90 48 91 49 92 50 93
REMARK H PARENT 11 6 15 27 74 46 42 57
REMARK Flexibility Score: inf
ROOT
ATOM      1  C   UNL A   1      34.537  21.594  26.780  1.00  0.00     0.042 C 
ENDROOT
BRANCH   1   2
ATOM      2  C   UNL A   1      33.273  21.641  25.929  1.00  0.00     0.117 C 
BRANCH   2   3
ATOM      3  N   UNL A   1      32.113  22.089  26.679  1.00  0.00    -0.353 N 
ATOM      4  C   UNL A   1      31.474  23.289  26.607  1.00  0.00     0.258 C 
ATOM      5  O   UNL A   1      30.494  23.489  27.329  1.00  0.00    -0.271 OA
ATOM      6  H   UNL A   1      31.740  21.442  27.321  1.00  0.00     0.163 HD
BRANCH   4   7
ATOM      7  C   UNL A   1      31.970  24.356  25.623  1.00  0.00     0.331 C 
BRANCH   7   8
ATOM      8  O   UNL A   1      30.978  25.187  25.046  1.00  0.00    -0.467 OA
BRANCH   8   9
ATOM      9  C   UNL A   1      31.157  26.539  25.114  1.00  0.00     0.217 A 
ATOM     10  C   UNL A   1      30.491  28.547  24.207  1.00  0.00     0.135 A 
ATOM     11  N   UNL A   1      30.376  27.206  24.252  1.00  0.00    -0.198 NA
ATOM     12  N   UNL A   1      31.352  29.246  24.966  1.00  0.00    -0.231 NA
ATOM     13  C   UNL A   1      32.131  28.549  25.819  1.00  0.00     0.096 A 
ATOM     14  C   UNL A   1      32.040  27.178  25.947  1.00  0.00     0.099 A 
BRANCH  10  15
ATOM     15  C   UNL A   1      29.550  29.331  23.309  1.00  0.00     0.051 C 
ATOM     16  C   UNL A   1      30.225  29.713  21.988  1.00  0.00     0.016 C 
ATOM     17  C   UNL A   1      28.240  28.591  23.012  1.00  0.00     0.016 C 
ENDBRANCH  10  15
BRANCH  13  18
ATOM     18  C   UNL A   1      33.142  29.291  26.584  1.00  0.00     0.089 A 
ATOM     19  C   UNL A   1      32.921  30.619  26.960  1.00  0.00     0.030 A 
ATOM     20  N   UNL A   1      34.321  28.660  26.820  1.00  0.00    -0.255 NA
ATOM     21  C   UNL A   1      33.936  31.322  27.600  1.00  0.00     0.004 A 
ATOM     22  C   UNL A   1      35.283  29.365  27.457  1.00  0.00     0.112 A 
ATOM     23  C   UNL A   1      35.143  30.684  27.855  1.00  0.00     0.020 A 
ENDBRANCH  13  18
ENDBRANCH   8   9
ENDBRANCH   7   8
ENDBRANCH   4   7
ENDBRANCH   2   3
ENDBRANCH   1   2
BRANCH   1  24
ATOM     24  C   UNL A   1      35.779  22.166  26.102  1.00  0.00     0.118 C 
BRANCH  24  25
ATOM     25  N   UNL A   1      36.786  21.155  25.810  1.00  0.00    -0.352 N 
ATOM     26  C   UNL A   1      38.156  21.248  25.775  1.00  0.00     0.251 C 
ATOM     27  H   UNL A   1      36.428  20.261  25.605  1.00  0.00     0.163 HD
ATOM     28  O   UNL A   1      38.805  20.303  25.325  1.00  0.00    -0.269 OA
BRANCH  26  29
ATOM     29  C   UNL A   1      38.847  22.468  26.245  1.00  0.00     0.039 A 
ATOM     30  C   UNL A   1      39.980  22.333  27.053  1.00  0.00     0.014 A 
ATOM     31  C   UNL A   1      38.378  23.741  25.914  1.00  0.00     0.014 A 
ATOM     32  C   UNL A   1      40.678  23.471  27.468  1.00  0.00     0.010 A 
ATOM     33  C   UNL A   1      39.121  24.868  26.256  1.00  0.00     0.010 A 
ATOM     34  C   UNL A   1      40.279  24.747  27.040  1.00  0.00    -0.014 A 
BRANCH  34  35
ATOM     35  C   UNL A   1      41.054  25.964  27.405  1.00  0.00     0.031 A 
ATOM     36  C   UNL A   1      40.438  27.023  28.278  1.00  0.00     0.074 A 
ATOM     37  C   UNL A   1      42.292  26.143  26.902  1.00  0.00     0.049 A 
ATOM     38  N   UNL A   1      40.928  28.178  28.652  1.00  0.00    -0.248 NA
ATOM     39  C   UNL A   1      39.079  26.759  28.766  1.00  0.00     0.031 C 
ATOM     40  C   UNL A   1      42.989  25.204  26.022  1.00  0.00     0.029 A 
ATOM     41  N   UNL A   1      43.183  27.174  27.060  1.00  0.00    -0.354 N 
ATOM     42  C   UNL A   1      39.933  28.781  29.416  1.00  0.00     0.074 A 
ATOM     43  C   UNL A   1      38.787  27.896  29.377  1.00  0.00     0.031 C 
ATOM     44  C   UNL A   1      44.215  25.682  25.752  1.00  0.00     0.029 A 
ATOM     45  C   UNL A   1      44.371  26.985  26.392  1.00  0.00     0.049 A 
ATOM     46  H   UNL A   1      42.991  27.974  27.601  1.00  0.00     0.167 HD
ATOM     47  C   UNL A   1      39.980  29.947  30.110  1.00  0.00     0.034 A 
ATOM     48  C   UNL A   1      45.460  27.773  26.300  1.00  0.00     0.034 A 
ATOM     49  C   UNL A   1      41.128  30.823  30.128  1.00  0.00     0.049 A 
ATOM     50  C   UNL A   1      45.467  29.098  27.018  1.00  0.00     0.074 A 
ATOM     51  C   UNL A   1      41.298  32.010  30.820  1.00  0.00     0.029 A 
ATOM     52  N   UNL A   1      42.300  30.616  29.409  1.00  0.00    -0.354 N 
ATOM     53  N   UNL A   1      44.535  29.637  27.770  1.00  0.00    -0.248 NA
ATOM     54  C   UNL A   1      46.678  29.915  26.880  1.00  0.00     0.031 C 
ATOM     55  C   UNL A   1      42.534  32.559  30.457  1.00  0.00     0.029 A 
ATOM     56  C   UNL A   1      43.179  31.671  29.610  1.00  0.00     0.049 A 
ATOM     57  H   UNL A   1      42.480  29.835  28.838  1.00  0.00     0.167 HD
ATOM     58  C   UNL A   1      45.066  30.842  28.225  1.00  0.00     0.074 A 
ATOM     59  C   UNL A   1      46.400  30.942  27.670  1.00  0.00     0.031 C 
ATOM     60  C   UNL A   1      44.504  31.773  29.039  1.00  0.00     0.034 A 
BRANCH  47  61
ATOM     61  C   UNL A   1      38.733  30.343  30.872  1.00  0.00     0.023 A 
ATOM     62  C   UNL A   1      37.828  31.290  30.359  1.00  0.00     0.031 A 
ATOM     63  C   UNL A   1      38.478  29.823  32.153  1.00  0.00     0.131 A 
ATOM     64  C   UNL A   1      36.785  31.773  31.164  1.00  0.00     0.055 A 
ATOM     65  C   UNL A   1      37.374  30.231  32.908  1.00  0.00     0.041 A 
ATOM     66  F   UNL A   1      39.311  28.930  32.710  1.00  0.00    -0.206 F 
ATOM     67  C   UNL A   1      36.534  31.229  32.425  1.00  0.00     0.022 A 
BRANCH  64  68
ATOM     68  S   UNL A   1      35.899  33.261  30.622  1.00  0.00     0.124 S 
ATOM     69  O   UNL A   1      36.292  34.227  31.645  1.00  0.00    -0.237 OA
ATOM     70  O   UNL A   1      36.444  33.484  29.289  1.00  0.00    -0.237 OA
ATOM     71  O   UNL A   1      34.495  32.858  30.665  1.00  0.00    -0.744 OA
ENDBRANCH  64  68
ENDBRANCH  47  61
BRANCH  48  72
ATOM     72  C   UNL A   1      46.643  27.329  25.508  1.00  0.00     0.023 A 
ATOM     73  C   UNL A   1      46.854  27.808  24.206  1.00  0.00     0.031 A 
ATOM     74  C   UNL A   1      47.566  26.405  26.030  1.00  0.00     0.131 A 
ATOM     75  C   UNL A   1      47.940  27.334  23.454  1.00  0.00     0.055 A 
ATOM     76  C   UNL A   1      48.674  25.978  25.298  1.00  0.00     0.041 A 
ATOM     77  F   UNL A   1      47.411  25.919  27.272  1.00  0.00    -0.206 F 
ATOM     78  C   UNL A   1      48.861  26.435  23.997  1.00  0.00     0.022 A 
BRANCH  75  79
ATOM     79  S   UNL A   1      48.094  27.859  21.725  1.00  0.00     0.124 S 
ATOM     80  O   UNL A   1      46.794  28.474  21.485  1.00  0.00    -0.237 OA
ATOM     81  O   UNL A   1      49.234  28.769  21.786  1.00  0.00    -0.237 OA
ATOM     82  O   UNL A   1      48.337  26.608  21.010  1.00  0.00    -0.744 OA
ENDBRANCH  75  79
ENDBRANCH  48  72
BRANCH  60  83
ATOM     83  C   UNL A   1      45.358  32.962  29.418  1.00  0.00     0.023 A 
ATOM     84  C   UNL A   1      45.380  34.140  28.651  1.00  0.00     0.031 A 
ATOM     85  C   UNL A   1      46.176  32.906  30.561  1.00  0.00     0.131 A 
ATOM     86  C   UNL A   1      46.247  35.188  29.002  1.00  0.00     0.055 A 
ATOM     87  C   UNL A   1      46.984  33.977  30.944  1.00  0.00     0.041 A 
ATOM     88  F   UNL A   1      46.203  31.804  31.329  1.00  0.00    -0.206 F 
ATOM     89  C   UNL A   1      47.034  35.121  30.154  1.00  0.00     0.022 A 
BRANCH  86  90
ATOM     90  S   UNL A   1      46.413  36.598  27.871  1.00  0.00     0.124 S 
ATOM     91  O   UNL A   1      46.976  37.622  28.745  1.00  0.00    -0.237 OA
ATOM     92  O   UNL A   1      47.308  36.071  26.846  1.00  0.00    -0.237 OA
ATOM     93  O   UNL A   1      45.042  36.846  27.428  1.00  0.00    -0.744 OA
ENDBRANCH  86  90
ENDBRANCH  60  83
ENDBRANCH  34  35
ENDBRANCH  26  29
ENDBRANCH  24  25
ENDBRANCH   1  24
TORSDOF 17
ENDMDL
MODEL 3
REMARK VINA RESULT:     -11.9      1.773      2.324
REMARK SMILES CC(C)c1nc(OCC(=O)NCCCNC(=O)c2ccc(-c3c4nc(c(-c5cc(S(=O)(=O)[O-])ccc5F)c5ccc([nH]5)c(-c5cc(S(=O)(=O)[O-])ccc5F)c5nc(c(-c6cc(S(=O)(=O)[O-])ccc6F)c6ccc3[nH]6)C=C5)C=C4)cc2)cc(-c2ccccn2)n1
REMARK SMILES IDX 13 1 12 2 11 3 9 4 10 5 8 7 7 8 6 9 4 10 5 11 89 12 82 13
REMARK SMILES IDX 81 14 2 15 1 16 3 17 83 18 84 19 88 20 85 21 87 22 86 23
REMARK SMILES IDX 14 24 15 25 16 26 17 28 18 29 19 30 80 31 20 32 79 33 21 34
REMARK SMILES IDX 22 35 23 36 73 37 24 38 78 39 72 40 74 41 25 42 77 43 71 44
REMARK SMILES IDX 70 45 26 47 58 48 38 49 57 50 39 51 42 52 56 53 75 54 40 55
REMARK SMILES IDX 41 56 55 58 76 59 43 60 27 61 28 62 36 63 29 64 35 65 37 66
REMARK SMILES IDX 34 67 30 68 31 69 32 70 33 71 59 72 60 73 68 74 61 75 67 76
REMARK SMILES IDX 69 77 66 78 62 79 63 80 64 81 65 82 44 83 45 84 53 85 46 86
REMARK SMILES IDX 52 87 54 88 51 89 47 90 48 91 49 92 50 93
REMARK H PARENT 11 6 15 27 74 46 42 57
REMARK Flexibility Score: inf
ROOT
ATOM      1  C   UNL A   1      31.802  28.864  26.708  1.00  0.00     0.042 C 
ENDROOT
BRANCH   1   2
ATOM      2  C   UNL A   1      31.903  27.415  26.244  1.00  0.00     0.117 C 
BRANCH   2   3
ATOM      3  N   UNL A   1      30.689  26.662  26.504  1.00  0.00    -0.353 N 
ATOM      4  C   UNL A   1      30.456  25.337  26.288  1.00  0.00     0.258 C 
ATOM      5  O   UNL A   1      29.351  24.870  26.575  1.00  0.00    -0.271 OA
ATOM      6  H   UNL A   1      29.939  27.173  26.886  1.00  0.00     0.163 HD
BRANCH   4   7
ATOM      7  C   UNL A   1      31.569  24.454  25.712  1.00  0.00     0.331 C 
BRANCH   7   8
ATOM      8  O   UNL A   1      31.330  23.058  25.719  1.00  0.00    -0.467 OA
BRANCH   8   9
ATOM      9  C   UNL A   1      32.372  22.228  25.419  1.00  0.00     0.217 A 
ATOM     10  C   UNL A   1      34.554  22.179  24.689  1.00  0.00     0.135 A 
ATOM     11  N   UNL A   1      33.471  22.897  25.042  1.00  0.00    -0.198 NA
ATOM     12  N   UNL A   1      34.586  20.835  24.680  1.00  0.00    -0.231 NA
ATOM     13  C   UNL A   1      33.464  20.189  25.057  1.00  0.00     0.096 A 
ATOM     14  C   UNL A   1      32.331  20.858  25.469  1.00  0.00     0.099 A 
BRANCH  10  15
ATOM     15  C   UNL A   1      35.839  22.915  24.350  1.00  0.00     0.051 C 
ATOM     16  C   UNL A   1      36.195  23.945  25.427  1.00  0.00     0.016 C 
ATOM     17  C   UNL A   1      37.034  21.976  24.133  1.00  0.00     0.016 C 
ENDBRANCH  10  15
BRANCH  13  18
ATOM     18  C   UNL A   1      33.455  18.723  24.961  1.00  0.00     0.089 A 
ATOM     19  C   UNL A   1      34.296  18.061  24.062  1.00  0.00     0.030 A 
ATOM     20  N   UNL A   1      32.536  18.061  25.710  1.00  0.00    -0.255 NA
ATOM     21  C   UNL A   1      34.196  16.680  23.928  1.00  0.00     0.004 A 
ATOM     22  C   UNL A   1      32.473  16.719  25.569  1.00  0.00     0.112 A 
ATOM     23  C   UNL A   1      33.266  15.993  24.696  1.00  0.00     0.020 A 
ENDBRANCH  13  18
ENDBRANCH   8   9
ENDBRANCH   7   8
ENDBRANCH   4   7
ENDBRANCH   2   3
ENDBRANCH   1   2
BRANCH   1  24
ATOM     24  C   UNL A   1      32.644  29.848  25.898  1.00  0.00     0.118 C 
BRANCH  24  25
ATOM     25  N   UNL A   1      32.467  31.231  26.320  1.00  0.00    -0.352 N 
ATOM     26  C   UNL A   1      33.150  31.971  27.253  1.00  0.00     0.251 C 
ATOM     27  H   UNL A   1      31.742  31.713  25.861  1.00  0.00     0.163 HD
ATOM     28  O   UNL A   1      32.709  33.074  27.576  1.00  0.00    -0.269 OA
BRANCH  26  29
ATOM     29  C   UNL A   1      34.382  31.449  27.884  1.00  0.00     0.039 A 
ATOM     30  C   UNL A   1      35.478  32.305  28.035  1.00  0.00     0.014 A 
ATOM     31  C   UNL A   1      34.473  30.121  28.308  1.00  0.00     0.014 A 
ATOM     32  C   UNL A   1      36.634  31.847  28.673  1.00  0.00     0.010 A 
ATOM     33  C   UNL A   1      35.592  29.693  29.018  1.00  0.00     0.010 A 
ATOM     34  C   UNL A   1      36.688  30.550  29.206  1.00  0.00    -0.014 A 
BRANCH  34  35
ATOM     35  C   UNL A   1      37.879  30.071  29.958  1.00  0.00     0.031 A 
ATOM     36  C   UNL A   1      38.146  30.567  31.353  1.00  0.00     0.074 A 
ATOM     37  C   UNL A   1      38.753  29.235  29.364  1.00  0.00     0.049 A 
ATOM     38  N   UNL A   1      39.160  30.317  32.143  1.00  0.00    -0.248 NA
ATOM     39  C   UNL A   1      37.156  31.492  31.920  1.00  0.00     0.031 C 
ATOM     40  C   UNL A   1      38.622  28.704  28.006  1.00  0.00     0.029 A 
ATOM     41  N   UNL A   1      39.921  28.683  29.825  1.00  0.00    -0.354 N 
ATOM     42  C   UNL A   1      38.932  31.060  33.299  1.00  0.00     0.074 A 
ATOM     43  C   UNL A   1      37.727  31.829  33.064  1.00  0.00     0.031 C 
ATOM     44  C   UNL A   1      39.647  27.871  27.759  1.00  0.00     0.029 A 
ATOM     45  C   UNL A   1      40.536  27.851  28.917  1.00  0.00     0.049 A 
ATOM     46  H   UNL A   1      40.286  28.865  30.721  1.00  0.00     0.167 HD
ATOM     47  C   UNL A   1      39.641  31.075  34.456  1.00  0.00     0.034 A 
ATOM     48  C   UNL A   1      41.686  27.156  29.003  1.00  0.00     0.034 A 
ATOM     49  C   UNL A   1      40.848  30.310  34.666  1.00  0.00     0.049 A 
ATOM     50  C   UNL A   1      42.499  27.241  30.270  1.00  0.00     0.074 A 
ATOM     51  C   UNL A   1      41.628  30.224  35.807  1.00  0.00     0.029 A 
ATOM     52  N   UNL A   1      41.459  29.507  33.711  1.00  0.00    -0.354 N 
ATOM     53  N   UNL A   1      42.250  27.915  31.369  1.00  0.00    -0.248 NA
ATOM     54  C   UNL A   1      43.745  26.465  30.307  1.00  0.00     0.031 C 
ATOM     55  C   UNL A   1      42.750  29.440  35.515  1.00  0.00     0.029 A 
ATOM     56  C   UNL A   1      42.626  28.955  34.222  1.00  0.00     0.049 A 
ATOM     57  H   UNL A   1      41.115  29.353  32.801  1.00  0.00     0.167 HD
ATOM     58  C   UNL A   1      43.292  27.612  32.243  1.00  0.00     0.074 A 
ATOM     59  C   UNL A   1      44.162  26.689  31.544  1.00  0.00     0.031 C 
ATOM     60  C   UNL A   1      43.500  28.048  33.513  1.00  0.00     0.034 A 
BRANCH  47  61
ATOM     61  C   UNL A   1      39.135  31.981  35.559  1.00  0.00     0.023 A 
ATOM     62  C   UNL A   1      39.514  33.333  35.631  1.00  0.00     0.031 A 
ATOM     63  C   UNL A   1      38.321  31.474  36.587  1.00  0.00     0.131 A 
ATOM     64  C   UNL A   1      39.181  34.096  36.761  1.00  0.00     0.055 A 
ATOM     65  C   UNL A   1      37.904  32.271  37.658  1.00  0.00     0.041 A 
ATOM     66  F   UNL A   1      37.939  30.187  36.590  1.00  0.00    -0.206 F 
ATOM     67  C   UNL A   1      38.355  33.584  37.762  1.00  0.00     0.022 A 
BRANCH  64  68
ATOM     68  S   UNL A   1      40.017  35.690  36.999  1.00  0.00     0.124 S 
ATOM     69  O   UNL A   1      39.419  36.153  38.248  1.00  0.00    -0.237 OA
ATOM     70  O   UNL A   1      41.421  35.302  37.066  1.00  0.00    -0.237 OA
ATOM     71  O   UNL A   1      39.636  36.456  35.814  1.00  0.00    -0.744 OA
ENDBRANCH  64  68
ENDBRANCH  47  61
BRANCH  48  72
ATOM     72  C   UNL A   1      42.137  26.305  27.865  1.00  0.00     0.023 A 
ATOM     73  C   UNL A   1      41.656  24.996  27.714  1.00  0.00     0.031 A 
ATOM     74  C   UNL A   1      43.070  26.779  26.925  1.00  0.00     0.131 A 
ATOM     75  C   UNL A   1      42.135  24.190  26.670  1.00  0.00     0.055 A 
ATOM     76  C   UNL A   1      43.504  25.992  25.857  1.00  0.00     0.041 A 
ATOM     77  F   UNL A   1      43.559  28.025  27.022  1.00  0.00    -0.206 F 
ATOM     78  C   UNL A   1      43.044  24.685  25.731  1.00  0.00     0.022 A 
BRANCH  75  79
ATOM     79  S   UNL A   1      41.606  22.457  26.597  1.00  0.00     0.124 S 
ATOM     80  O   UNL A   1      42.345  21.970  25.438  1.00  0.00    -0.237 OA
ATOM     81  O   UNL A   1      42.041  21.952  27.895  1.00  0.00    -0.237 OA
ATOM     82  O   UNL A   1      40.158  22.550  26.421  1.00  0.00    -0.744 OA
ENDBRANCH  75  79
ENDBRANCH  48  72
BRANCH  60  83
ATOM     83  C   UNL A   1      44.698  27.487  34.246  1.00  0.00     0.023 A 
ATOM     84  C   UNL A   1      44.623  26.302  35.000  1.00  0.00     0.031 A 
ATOM     85  C   UNL A   1      45.931  28.162  34.201  1.00  0.00     0.131 A 
ATOM     86  C   UNL A   1      45.742  25.862  35.725  1.00  0.00     0.055 A 
ATOM     87  C   UNL A   1      47.059  27.683  34.868  1.00  0.00     0.041 A 
ATOM     88  F   UNL A   1      46.062  29.302  33.504  1.00  0.00    -0.206 F 
ATOM     89  C   UNL A   1      46.965  26.534  35.648  1.00  0.00     0.022 A 
BRANCH  86  90
ATOM     90  S   UNL A   1      45.549  24.458  36.859  1.00  0.00     0.124 S 
ATOM     91  O   UNL A   1      45.025  25.107  38.057  1.00  0.00    -0.237 OA
ATOM     92  O   UNL A   1      44.616  23.600  36.137  1.00  0.00    -0.237 OA
ATOM     93  O   UNL A   1      46.907  23.931  36.984  1.00  0.00    -0.744 OA
ENDBRANCH  86  90
ENDBRANCH  60  83
ENDBRANCH  34  35
ENDBRANCH  26  29
ENDBRANCH  24  25
ENDBRANCH   1  24
TORSDOF 17
ENDMDL
