MODEL 1
REMARK VINA RESULT:     -12.2      0.000      0.000
REMARK SMILES CCOC(=O)c1c(NC(=O)/C=C/C(=O)NCCCNC(=O)c2ccc(-c3c4nc(c(-c5cc(S(=O)(=O)[O-])ccc5F)c5ccc([nH]5)c(-c5cc(S(=O)(=O)[O-])ccc5F)c5nc(c(-c6cc(S(=O)(=O)[O-])ccc6F)c6ccc3[nH]6)C=C5)C=C4)cc2)sc(C)c1-c1ccc(C)c(C)c1
REMARK SMILES IDX 16 1 15 2 13 3 14 4 12 6 11 7 9 8 8 9 10 11 7 12 6 13 88 14
REMARK SMILES IDX 85 15 86 16 87 17 4 18 5 19 3 20 2 21 1 22 89 23 90 24 96 25
REMARK SMILES IDX 91 26 94 27 92 28 95 29 93 30 17 31 18 32 19 33 20 34 21 36
REMARK SMILES IDX 22 37 23 38 84 39 24 40 83 41 25 42 26 43 27 44 77 45 28 46
REMARK SMILES IDX 82 47 76 48 78 49 29 50 81 51 75 52 74 53 30 55 62 56 42 57
REMARK SMILES IDX 61 58 43 59 46 60 60 61 79 62 44 63 45 64 59 66 80 67 47 68
REMARK SMILES IDX 31 69 32 70 40 71 33 72 39 73 41 74 38 75 34 76 35 77 36 78
REMARK SMILES IDX 37 79 63 80 64 81 72 82 65 83 71 84 73 85 70 86 66 87 67 88
REMARK SMILES IDX 68 89 69 90 48 91 49 92 57 93 50 94 56 95 58 96 55 97 51 98
REMARK SMILES IDX 52 99 53 100 54 101
REMARK H PARENT 15 5 8 10 19 35 78 54 46 65
REMARK Flexibility Score: inf
ROOT
ATOM      1  C   UNL A   1      31.684  30.872  26.434  1.00  0.00     0.118 C 
ENDROOT
BRANCH   1   2
ATOM      2  N   UNL A   1      32.956  30.304  26.850  1.00  0.00    -0.352 N 
ATOM      3  C   UNL A   1      33.652  29.300  26.256  1.00  0.00     0.244 C 
ATOM      4  O   UNL A   1      34.498  28.670  26.882  1.00  0.00    -0.270 OA
ATOM      5  H   UNL A   1      33.360  30.694  27.659  1.00  0.00     0.163 HD
BRANCH   3   6
ATOM      6  C   UNL A   1      33.394  28.991  24.839  1.00  0.00     0.077 C 
ATOM      7  C   UNL A   1      33.047  27.730  24.540  1.00  0.00     0.077 C 
BRANCH   7   8
ATOM      8  C   UNL A   1      32.466  27.402  23.235  1.00  0.00     0.249 C 
ATOM      9  N   UNL A   1      32.045  26.136  22.947  1.00  0.00    -0.313 N 
ATOM     10  H   UNL A   1      31.714  26.028  22.025  1.00  0.00     0.171 HD
ATOM     11  O   UNL A   1      32.385  28.288  22.386  1.00  0.00    -0.270 OA
BRANCH   9  12
ATOM     12  C   UNL A   1      31.992  24.969  23.699  1.00  0.00     0.111 A 
ATOM     13  C   UNL A   1      32.665  23.786  23.429  1.00  0.00     0.102 A 
ATOM     14  C   UNL A   1      32.213  22.718  24.298  1.00  0.00     0.012 A 
ATOM     15  S   UNL A   1      31.100  24.845  25.129  1.00  0.00    -0.122 S 
ATOM     16  C   UNL A   1      31.277  23.158  25.218  1.00  0.00     0.012 A 
ATOM     17  C   UNL A   1      30.470  22.419  26.237  1.00  0.00     0.057 C 
BRANCH  13  18
ATOM     18  C   UNL A   1      33.652  23.693  22.364  1.00  0.00     0.341 C 
ATOM     19  O   UNL A   1      33.363  23.874  21.186  1.00  0.00    -0.246 OA
BRANCH  18  20
ATOM     20  O   UNL A   1      34.888  23.331  22.807  1.00  0.00    -0.462 OA
BRANCH  20  21
ATOM     21  C   UNL A   1      35.370  24.035  23.960  1.00  0.00     0.230 C 
ATOM     22  C   UNL A   1      36.445  23.257  24.704  1.00  0.00     0.049 C 
ENDBRANCH  20  21
ENDBRANCH  18  20
ENDBRANCH  13  18
BRANCH  14  23
ATOM     23  C   UNL A   1      32.684  21.343  24.305  1.00  0.00    -0.016 A 
ATOM     24  C   UNL A   1      33.538  20.918  25.322  1.00  0.00     0.009 A 
ATOM     25  C   UNL A   1      32.279  20.442  23.315  1.00  0.00     0.012 A 
ATOM     26  C   UNL A   1      33.982  19.598  25.349  1.00  0.00     0.004 A 
ATOM     27  C   UNL A   1      32.711  19.106  23.337  1.00  0.00    -0.048 A 
ATOM     28  C   UNL A   1      33.576  18.680  24.367  1.00  0.00    -0.048 A 
ATOM     29  C   UNL A   1      32.231  18.173  22.259  1.00  0.00     0.044 C 
ATOM     30  C   UNL A   1      34.113  17.278  24.461  1.00  0.00     0.044 C 
ENDBRANCH  14  23
ENDBRANCH   9  12
ENDBRANCH   7   8
ENDBRANCH   3   6
ENDBRANCH   1   2
BRANCH   1  31
ATOM     31  C   UNL A   1      31.588  32.340  26.832  1.00  0.00     0.042 C 
BRANCH  31  32
ATOM     32  C   UNL A   1      32.920  32.912  27.309  1.00  0.00     0.118 C 
BRANCH  32  33
ATOM     33  N   UNL A   1      32.749  34.193  27.980  1.00  0.00    -0.352 N 
ATOM     34  C   UNL A   1      33.329  34.661  29.134  1.00  0.00     0.251 C 
ATOM     35  H   UNL A   1      32.126  34.816  27.542  1.00  0.00     0.163 HD
ATOM     36  O   UNL A   1      32.844  35.634  29.702  1.00  0.00    -0.269 OA
BRANCH  34  37
ATOM     37  C   UNL A   1      34.520  33.984  29.688  1.00  0.00     0.039 A 
ATOM     38  C   UNL A   1      35.786  34.333  29.213  1.00  0.00     0.014 A 
ATOM     39  C   UNL A   1      34.384  32.990  30.662  1.00  0.00     0.014 A 
ATOM     40  C   UNL A   1      36.921  33.729  29.762  1.00  0.00     0.010 A 
ATOM     41  C   UNL A   1      35.515  32.450  31.262  1.00  0.00     0.010 A 
ATOM     42  C   UNL A   1      36.795  32.810  30.816  1.00  0.00    -0.014 A 
BRANCH  42  43
ATOM     43  C   UNL A   1      37.985  32.211  31.469  1.00  0.00     0.031 A 
ATOM     44  C   UNL A   1      38.709  31.069  30.810  1.00  0.00     0.074 A 
ATOM     45  C   UNL A   1      38.352  32.633  32.694  1.00  0.00     0.049 A 
ATOM     46  N   UNL A   1      39.691  30.336  31.267  1.00  0.00    -0.248 NA
ATOM     47  C   UNL A   1      38.237  30.682  29.473  1.00  0.00     0.031 C 
ATOM     48  C   UNL A   1      37.689  33.695  33.455  1.00  0.00     0.029 A 
ATOM     49  N   UNL A   1      39.357  32.207  33.525  1.00  0.00    -0.354 N 
ATOM     50  C   UNL A   1      39.945  29.388  30.281  1.00  0.00     0.074 A 
ATOM     51  C   UNL A   1      38.968  29.603  29.234  1.00  0.00     0.031 C 
ATOM     52  C   UNL A   1      38.311  33.843  34.636  1.00  0.00     0.029 A 
ATOM     53  C   UNL A   1      39.386  32.861  34.734  1.00  0.00     0.049 A 
ATOM     54  H   UNL A   1      39.996  31.500  33.278  1.00  0.00     0.167 HD
ATOM     55  C   UNL A   1      40.918  28.443  30.242  1.00  0.00     0.034 A 
ATOM     56  C   UNL A   1      40.175  32.676  35.810  1.00  0.00     0.034 A 
ATOM     57  C   UNL A   1      41.887  28.252  31.294  1.00  0.00     0.049 A 
ATOM     58  C   UNL A   1      41.238  31.612  35.757  1.00  0.00     0.074 A 
ATOM     59  C   UNL A   1      42.959  27.377  31.335  1.00  0.00     0.029 A 
ATOM     60  N   UNL A   1      41.893  28.940  32.503  1.00  0.00    -0.354 N 
ATOM     61  N   UNL A   1      41.506  30.762  34.793  1.00  0.00    -0.248 NA
ATOM     62  C   UNL A   1      42.109  31.491  36.932  1.00  0.00     0.031 C 
ATOM     63  C   UNL A   1      43.574  27.493  32.588  1.00  0.00     0.029 A 
ATOM     64  C   UNL A   1      42.927  28.485  33.308  1.00  0.00     0.049 A 
ATOM     65  H   UNL A   1      41.255  29.648  32.751  1.00  0.00     0.167 HD
ATOM     66  C   UNL A   1      42.585  30.008  35.243  1.00  0.00     0.074 A 
ATOM     67  C   UNL A   1      42.930  30.521  36.554  1.00  0.00     0.031 C 
ATOM     68  C   UNL A   1      43.233  28.986  34.628  1.00  0.00     0.034 A 
BRANCH  55  69
ATOM     69  C   UNL A   1      40.951  27.538  29.032  1.00  0.00     0.023 A 
ATOM     70  C   UNL A   1      41.903  27.709  28.011  1.00  0.00     0.031 A 
ATOM     71  C   UNL A   1      39.987  26.529  28.866  1.00  0.00     0.131 A 
ATOM     72  C   UNL A   1      41.811  26.955  26.831  1.00  0.00     0.055 A 
ATOM     73  C   UNL A   1      39.956  25.721  27.726  1.00  0.00     0.041 A 
ATOM     74  F   UNL A   1      39.041  26.327  29.796  1.00  0.00    -0.206 F 
ATOM     75  C   UNL A   1      40.858  25.945  26.691  1.00  0.00     0.022 A 
BRANCH  72  76
ATOM     76  S   UNL A   1      42.846  27.433  25.419  1.00  0.00     0.124 S 
ATOM     77  O   UNL A   1      42.067  28.526  24.840  1.00  0.00    -0.237 OA
ATOM     78  O   UNL A   1      44.099  27.810  26.060  1.00  0.00    -0.237 OA
ATOM     79  O   UNL A   1      42.899  26.219  24.607  1.00  0.00    -0.744 OA
ENDBRANCH  72  76
ENDBRANCH  55  69
BRANCH  56  80
ATOM     80  C   UNL A   1      39.972  33.501  37.032  1.00  0.00     0.023 A 
ATOM     81  C   UNL A   1      39.231  33.014  38.118  1.00  0.00     0.031 A 
ATOM     82  C   UNL A   1      40.518  34.794  37.128  1.00  0.00     0.131 A 
ATOM     83  C   UNL A   1      39.031  33.825  39.247  1.00  0.00     0.055 A 
ATOM     84  C   UNL A   1      40.351  35.581  38.268  1.00  0.00     0.041 A 
ATOM     85  F   UNL A   1      41.245  35.298  36.119  1.00  0.00    -0.206 F 
ATOM     86  C   UNL A   1      39.596  35.100  39.333  1.00  0.00     0.022 A 
BRANCH  83  87
ATOM     87  S   UNL A   1      37.979  33.205  40.588  1.00  0.00     0.124 S 
ATOM     88  O   UNL A   1      36.711  32.992  39.899  1.00  0.00    -0.237 OA
ATOM     89  O   UNL A   1      38.694  32.001  41.002  1.00  0.00    -0.237 OA
ATOM     90  O   UNL A   1      37.989  34.295  41.560  1.00  0.00    -0.744 OA
ENDBRANCH  83  87
ENDBRANCH  56  80
BRANCH  68  91
ATOM     91  C   UNL A   1      44.388  28.370  35.378  1.00  0.00     0.023 A 
ATOM     92  C   UNL A   1      44.183  27.400  36.374  1.00  0.00     0.031 A 
ATOM     93  C   UNL A   1      45.707  28.773  35.106  1.00  0.00     0.131 A 
ATOM     94  C   UNL A   1      45.275  26.902  37.099  1.00  0.00     0.055 A 
ATOM     95  C   UNL A   1      46.795  28.235  35.793  1.00  0.00     0.041 A 
ATOM     96  F   UNL A   1      45.958  29.700  34.167  1.00  0.00    -0.206 F 
ATOM     97  C   UNL A   1      46.581  27.302  36.805  1.00  0.00     0.022 A 
BRANCH  94  98
ATOM     98  S   UNL A   1      44.960  25.783  38.491  1.00  0.00     0.124 S 
ATOM     99  O   UNL A   1      46.255  25.764  39.164  1.00  0.00    -0.237 OA
ATOM    100  O   UNL A   1      43.882  26.464  39.203  1.00  0.00    -0.237 OA
ATOM    101  O   UNL A   1      44.578  24.530  37.844  1.00  0.00    -0.744 OA
ENDBRANCH  94  98
ENDBRANCH  68  91
ENDBRANCH  42  43
ENDBRANCH  34  37
ENDBRANCH  32  33
ENDBRANCH  31  32
ENDBRANCH   1  31
TORSDOF 19
ENDMDL
MODEL 2
REMARK VINA RESULT:     -11.7      0.964      7.529
REMARK SMILES CCOC(=O)c1c(NC(=O)/C=C/C(=O)NCCCNC(=O)c2ccc(-c3c4nc(c(-c5cc(S(=O)(=O)[O-])ccc5F)c5ccc([nH]5)c(-c5cc(S(=O)(=O)[O-])ccc5F)c5nc(c(-c6cc(S(=O)(=O)[O-])ccc6F)c6ccc3[nH]6)C=C5)C=C4)cc2)sc(C)c1-c1ccc(C)c(C)c1
REMARK SMILES IDX 16 1 15 2 13 3 14 4 12 6 11 7 9 8 8 9 10 11 7 12 6 13 88 14
REMARK SMILES IDX 85 15 86 16 87 17 4 18 5 19 3 20 2 21 1 22 89 23 90 24 96 25
REMARK SMILES IDX 91 26 94 27 92 28 95 29 93 30 17 31 18 32 19 33 20 34 21 36
REMARK SMILES IDX 22 37 23 38 84 39 24 40 83 41 25 42 26 43 27 44 77 45 28 46
REMARK SMILES IDX 82 47 76 48 78 49 29 50 81 51 75 52 74 53 30 55 62 56 42 57
REMARK SMILES IDX 61 58 43 59 46 60 60 61 79 62 44 63 45 64 59 66 80 67 47 68
REMARK SMILES IDX 31 69 32 70 40 71 33 72 39 73 41 74 38 75 34 76 35 77 36 78
REMARK SMILES IDX 37 79 63 80 64 81 72 82 65 83 71 84 73 85 70 86 66 87 67 88
REMARK SMILES IDX 68 89 69 90 48 91 49 92 57 93 50 94 56 95 58 96 55 97 51 98
REMARK SMILES IDX 52 99 53 100 54 101
REMARK H PARENT 15 5 8 10 19 35 78 54 46 65
REMARK Flexibility Score: inf
ROOT
ATOM      1  C   UNL A   1      33.475  30.740  27.070  1.00  0.00     0.118 C 
ENDROOT
BRANCH   1   2
ATOM      2  N   UNL A   1      32.943  29.542  27.700  1.00  0.00    -0.352 N 
ATOM      3  C   UNL A   1      31.970  28.718  27.229  1.00  0.00     0.244 C 
ATOM      4  O   UNL A   1      31.360  27.974  27.990  1.00  0.00    -0.270 OA
ATOM      5  H   UNL A   1      33.335  29.300  28.570  1.00  0.00     0.163 HD
BRANCH   3   6
ATOM      6  C   UNL A   1      31.672  28.713  25.787  1.00  0.00     0.077 C 
ATOM      7  C   UNL A   1      32.424  27.920  25.009  1.00  0.00     0.077 C 
BRANCH   7   8
ATOM      8  C   UNL A   1      32.008  27.602  23.639  1.00  0.00     0.249 C 
ATOM      9  N   UNL A   1      31.762  26.314  23.257  1.00  0.00    -0.313 N 
ATOM     10  H   UNL A   1      31.532  26.222  22.304  1.00  0.00     0.171 HD
ATOM     11  O   UNL A   1      31.906  28.518  22.825  1.00  0.00    -0.270 OA
BRANCH   9  12
ATOM     12  C   UNL A   1      31.771  25.110  23.950  1.00  0.00     0.111 A 
ATOM     13  C   UNL A   1      32.528  23.990  23.638  1.00  0.00     0.102 A 
ATOM     14  C   UNL A   1      32.131  22.851  24.442  1.00  0.00     0.012 A 
ATOM     15  S   UNL A   1      30.860  24.855  25.350  1.00  0.00    -0.122 S 
ATOM     16  C   UNL A   1      31.148  23.182  25.360  1.00  0.00     0.012 A 
ATOM     17  C   UNL A   1      30.372  22.340  26.322  1.00  0.00     0.057 C 
BRANCH  13  18
ATOM     18  C   UNL A   1      33.541  24.016  22.594  1.00  0.00     0.341 C 
ATOM     19  O   UNL A   1      33.256  24.154  21.409  1.00  0.00    -0.246 OA
BRANCH  18  20
ATOM     20  O   UNL A   1      34.802  23.813  23.064  1.00  0.00    -0.462 OA
BRANCH  20  21
ATOM     21  C   UNL A   1      35.134  24.496  24.280  1.00  0.00     0.230 C 
ATOM     22  C   UNL A   1      36.208  23.771  25.075  1.00  0.00     0.049 C 
ENDBRANCH  20  21
ENDBRANCH  18  20
ENDBRANCH  13  18
BRANCH  14  23
ATOM     23  C   UNL A   1      32.693  21.512  24.393  1.00  0.00    -0.016 A 
ATOM     24  C   UNL A   1      33.677  21.149  25.311  1.00  0.00     0.009 A 
ATOM     25  C   UNL A   1      32.246  20.582  23.448  1.00  0.00     0.012 A 
ATOM     26  C   UNL A   1      34.211  19.863  25.284  1.00  0.00     0.004 A 
ATOM     27  C   UNL A   1      32.769  19.279  23.418  1.00  0.00    -0.048 A 
ATOM     28  C   UNL A   1      33.765  18.916  24.347  1.00  0.00    -0.048 A 
ATOM     29  C   UNL A   1      32.240  18.312  22.394  1.00  0.00     0.044 C 
ATOM     30  C   UNL A   1      34.405  17.555  24.378  1.00  0.00     0.044 C 
ENDBRANCH  14  23
ENDBRANCH   9  12
ENDBRANCH   7   8
ENDBRANCH   3   6
ENDBRANCH   1   2
BRANCH   1  31
ATOM     31  C   UNL A   1      32.792  31.989  27.617  1.00  0.00     0.042 C 
BRANCH  31  32
ATOM     32  C   UNL A   1      33.694  33.219  27.584  1.00  0.00     0.118 C 
BRANCH  32  33
ATOM     33  N   UNL A   1      33.224  34.259  28.489  1.00  0.00    -0.352 N 
ATOM     34  C   UNL A   1      33.518  34.463  29.815  1.00  0.00     0.251 C 
ATOM     35  H   UNL A   1      32.603  34.911  28.092  1.00  0.00     0.163 HD
ATOM     36  O   UNL A   1      32.805  35.204  30.484  1.00  0.00    -0.269 OA
BRANCH  34  37
ATOM     37  C   UNL A   1      34.679  33.784  30.427  1.00  0.00     0.039 A 
ATOM     38  C   UNL A   1      34.461  32.727  31.315  1.00  0.00     0.014 A 
ATOM     39  C   UNL A   1      35.981  34.204  30.141  1.00  0.00     0.014 A 
ATOM     40  C   UNL A   1      35.553  32.051  31.864  1.00  0.00     0.010 A 
ATOM     41  C   UNL A   1      37.065  33.481  30.625  1.00  0.00     0.010 A 
ATOM     42  C   UNL A   1      36.862  32.400  31.495  1.00  0.00    -0.014 A 
BRANCH  42  43
ATOM     43  C   UNL A   1      38.038  31.650  32.004  1.00  0.00     0.031 A 
ATOM     44  C   UNL A   1      38.650  32.021  33.326  1.00  0.00     0.074 A 
ATOM     45  C   UNL A   1      38.606  30.704  31.233  1.00  0.00     0.049 A 
ATOM     46  N   UNL A   1      39.742  31.571  33.890  1.00  0.00    -0.248 NA
ATOM     47  C   UNL A   1      37.958  33.063  34.098  1.00  0.00     0.031 C 
ATOM     48  C   UNL A   1      38.132  30.299  29.906  1.00  0.00     0.029 A 
ATOM     49  N   UNL A   1      39.716  29.926  31.440  1.00  0.00    -0.354 N 
ATOM     50  C   UNL A   1      39.878  32.287  35.075  1.00  0.00     0.074 A 
ATOM     51  C   UNL A   1      38.791  33.245  35.111  1.00  0.00     0.031 C 
ATOM     52  C   UNL A   1      38.941  29.343  29.424  1.00  0.00     0.029 A 
ATOM     53  C   UNL A   1      40.013  29.096  30.384  1.00  0.00     0.049 A 
ATOM     54  H   UNL A   1      40.250  29.959  32.266  1.00  0.00     0.167 HD
ATOM     55  C   UNL A   1      40.808  32.143  36.052  1.00  0.00     0.034 A 
ATOM     56  C   UNL A   1      41.043  28.249  30.200  1.00  0.00     0.034 A 
ATOM     57  C   UNL A   1      41.877  31.176  36.000  1.00  0.00     0.049 A 
ATOM     58  C   UNL A   1      42.075  28.113  31.287  1.00  0.00     0.074 A 
ATOM     59  C   UNL A   1      42.834  30.889  36.958  1.00  0.00     0.029 A 
ATOM     60  N   UNL A   1      42.142  30.343  34.917  1.00  0.00    -0.354 N 
ATOM     61  N   UNL A   1      42.157  28.754  32.430  1.00  0.00    -0.248 NA
ATOM     62  C   UNL A   1      43.145  27.134  31.062  1.00  0.00     0.031 C 
ATOM     63  C   UNL A   1      43.710  29.932  36.433  1.00  0.00     0.029 A 
ATOM     64  C   UNL A   1      43.265  29.570  35.171  1.00  0.00     0.049 A 
ATOM     65  H   UNL A   1      41.609  30.308  34.090  1.00  0.00     0.167 HD
ATOM     66  C   UNL A   1      43.287  28.248  33.066  1.00  0.00     0.074 A 
ATOM     67  C   UNL A   1      43.837  27.234  32.188  1.00  0.00     0.031 C 
ATOM     68  C   UNL A   1      43.820  28.588  34.267  1.00  0.00     0.034 A 
BRANCH  55  69
ATOM     69  C   UNL A   1      40.710  33.074  37.239  1.00  0.00     0.023 A 
ATOM     70  C   UNL A   1      40.045  32.695  38.419  1.00  0.00     0.031 A 
ATOM     71  C   UNL A   1      41.236  34.375  37.173  1.00  0.00     0.131 A 
ATOM     72  C   UNL A   1      39.837  33.635  39.441  1.00  0.00     0.055 A 
ATOM     73  C   UNL A   1      41.103  35.278  38.232  1.00  0.00     0.041 A 
ATOM     74  F   UNL A   1      41.867  34.803  36.068  1.00  0.00    -0.206 F 
ATOM     75  C   UNL A   1      40.382  34.917  39.366  1.00  0.00     0.022 A 
BRANCH  72  76
ATOM     76  S   UNL A   1      38.698  33.207  40.788  1.00  0.00     0.124 S 
ATOM     77  O   UNL A   1      39.070  34.183  41.809  1.00  0.00    -0.237 OA
ATOM     78  O   UNL A   1      37.392  33.395  40.167  1.00  0.00    -0.237 OA
ATOM     79  O   UNL A   1      39.046  31.822  41.103  1.00  0.00    -0.744 OA
ENDBRANCH  72  76
ENDBRANCH  55  69
BRANCH  56  80
ATOM     80  C   UNL A   1      41.159  27.484  28.928  1.00  0.00     0.023 A 
ATOM     81  C   UNL A   1      42.139  27.807  27.978  1.00  0.00     0.031 A 
ATOM     82  C   UNL A   1      40.286  26.418  28.646  1.00  0.00     0.131 A 
ATOM     83  C   UNL A   1      42.207  27.087  26.774  1.00  0.00     0.055 A 
ATOM     84  C   UNL A   1      40.383  25.680  27.466  1.00  0.00     0.041 A 
ATOM     85  F   UNL A   1      39.340  26.065  29.530  1.00  0.00    -0.206 F 
ATOM     86  C   UNL A   1      41.343  26.019  26.518  1.00  0.00     0.022 A 
BRANCH  83  87
ATOM     87  S   UNL A   1      43.416  27.598  25.523  1.00  0.00     0.124 S 
ATOM     88  O   UNL A   1      42.562  27.853  24.368  1.00  0.00    -0.237 OA
ATOM     89  O   UNL A   1      44.019  28.773  26.146  1.00  0.00    -0.237 OA
ATOM     90  O   UNL A   1      44.296  26.438  25.406  1.00  0.00    -0.744 OA
ENDBRANCH  83  87
ENDBRANCH  56  80
BRANCH  68  91
ATOM     91  C   UNL A   1      45.058  27.840  34.693  1.00  0.00     0.023 A 
ATOM     92  C   UNL A   1      44.976  26.621  35.387  1.00  0.00     0.031 A 
ATOM     93  C   UNL A   1      46.334  28.364  34.419  1.00  0.00     0.131 A 
ATOM     94  C   UNL A   1      46.148  25.990  35.830  1.00  0.00     0.055 A 
ATOM     95  C   UNL A   1      47.497  27.705  34.815  1.00  0.00     0.041 A 
ATOM     96  F   UNL A   1      46.467  29.528  33.763  1.00  0.00    -0.206 F 
ATOM     97  C   UNL A   1      47.408  26.516  35.536  1.00  0.00     0.022 A 
BRANCH  94  98
ATOM     98  S   UNL A   1      46.002  24.511  36.870  1.00  0.00     0.124 S 
ATOM     99  O   UNL A   1      46.283  25.046  38.199  1.00  0.00    -0.237 OA
ATOM    100  O   UNL A   1      44.623  24.094  36.630  1.00  0.00    -0.237 OA
ATOM    101  O   UNL A   1      47.022  23.613  36.334  1.00  0.00    -0.744 OA
ENDBRANCH  94  98
ENDBRANCH  68  91
ENDBRANCH  42  43
ENDBRANCH  34  37
ENDBRANCH  32  33
ENDBRANCH  31  32
ENDBRANCH   1  31
TORSDOF 19
ENDMDL
MODEL 3
REMARK VINA RESULT:     -11.1      3.281      8.215
REMARK SMILES CCOC(=O)c1c(NC(=O)/C=C/C(=O)NCCCNC(=O)c2ccc(-c3c4nc(c(-c5cc(S(=O)(=O)[O-])ccc5F)c5ccc([nH]5)c(-c5cc(S(=O)(=O)[O-])ccc5F)c5nc(c(-c6cc(S(=O)(=O)[O-])ccc6F)c6ccc3[nH]6)C=C5)C=C4)cc2)sc(C)c1-c1ccc(C)c(C)c1
REMARK SMILES IDX 16 1 15 2 13 3 14 4 12 6 11 7 9 8 8 9 10 11 7 12 6 13 88 14
REMARK SMILES IDX 85 15 86 16 87 17 4 18 5 19 3 20 2 21 1 22 89 23 90 24 96 25
REMARK SMILES IDX 91 26 94 27 92 28 95 29 93 30 17 31 18 32 19 33 20 34 21 36
REMARK SMILES IDX 22 37 23 38 84 39 24 40 83 41 25 42 26 43 27 44 77 45 28 46
REMARK SMILES IDX 82 47 76 48 78 49 29 50 81 51 75 52 74 53 30 55 62 56 42 57
REMARK SMILES IDX 61 58 43 59 46 60 60 61 79 62 44 63 45 64 59 66 80 67 47 68
REMARK SMILES IDX 31 69 32 70 40 71 33 72 39 73 41 74 38 75 34 76 35 77 36 78
REMARK SMILES IDX 37 79 63 80 64 81 72 82 65 83 71 84 73 85 70 86 66 87 67 88
REMARK SMILES IDX 68 89 69 90 48 91 49 92 57 93 50 94 56 95 58 96 55 97 51 98
REMARK SMILES IDX 52 99 53 100 54 101
REMARK H PARENT 15 5 8 10 19 35 78 54 46 65
REMARK Flexibility Score: inf
ROOT
ATOM      1  C   UNL A   1      34.338  29.700  27.040  1.00  0.00     0.118 C 
ENDROOT
BRANCH   1   2
ATOM      2  N   UNL A   1      33.353  28.857  27.698  1.00  0.00    -0.352 N 
ATOM      3  C   UNL A   1      32.140  28.471  27.223  1.00  0.00     0.244 C 
ATOM      4  O   UNL A   1      31.264  28.081  27.989  1.00  0.00    -0.270 OA
ATOM      5  H   UNL A   1      33.594  28.528  28.594  1.00  0.00     0.163 HD
BRANCH   3   6
ATOM      6  C   UNL A   1      31.896  28.503  25.771  1.00  0.00     0.077 C 
ATOM      7  C   UNL A   1      32.658  27.709  25.004  1.00  0.00     0.077 C 
BRANCH   7   8
ATOM      8  C   UNL A   1      32.286  27.430  23.613  1.00  0.00     0.249 C 
ATOM      9  N   UNL A   1      31.991  26.162  23.202  1.00  0.00    -0.313 N 
ATOM     10  H   UNL A   1      31.799  26.093  22.238  1.00  0.00     0.171 HD
ATOM     11  O   UNL A   1      32.267  28.361  22.810  1.00  0.00    -0.270 OA
BRANCH   9  12
ATOM     12  C   UNL A   1      31.909  24.950  23.876  1.00  0.00     0.111 A 
ATOM     13  C   UNL A   1      32.599  23.789  23.563  1.00  0.00     0.102 A 
ATOM     14  C   UNL A   1      32.113  22.667  24.341  1.00  0.00     0.012 A 
ATOM     15  S   UNL A   1      30.952  24.735  25.253  1.00  0.00    -0.122 S 
ATOM     16  C   UNL A   1      31.133  23.046  25.244  1.00  0.00     0.012 A 
ATOM     17  C   UNL A   1      30.284  22.243  26.175  1.00  0.00     0.057 C 
BRANCH  13  18
ATOM     18  C   UNL A   1      33.635  23.765  22.542  1.00  0.00     0.341 C 
ATOM     19  O   UNL A   1      33.439  23.306  21.422  1.00  0.00    -0.246 OA
BRANCH  18  20
ATOM     20  O   UNL A   1      34.834  24.240  22.981  1.00  0.00    -0.462 OA
BRANCH  20  21
ATOM     21  C   UNL A   1      35.673  23.293  23.656  1.00  0.00     0.230 C 
ATOM     22  C   UNL A   1      36.195  23.826  24.981  1.00  0.00     0.049 C 
ENDBRANCH  20  21
ENDBRANCH  18  20
ENDBRANCH  13  18
BRANCH  14  23
ATOM     23  C   UNL A   1      32.590  21.295  24.284  1.00  0.00    -0.016 A 
ATOM     24  C   UNL A   1      33.429  20.820  25.292  1.00  0.00     0.009 A 
ATOM     25  C   UNL A   1      32.206  20.446  23.241  1.00  0.00     0.012 A 
ATOM     26  C   UNL A   1      33.879  19.502  25.256  1.00  0.00     0.004 A 
ATOM     27  C   UNL A   1      32.644  19.112  23.200  1.00  0.00    -0.048 A 
ATOM     28  C   UNL A   1      33.492  18.635  24.220  1.00  0.00    -0.048 A 
ATOM     29  C   UNL A   1      32.185  18.236  22.066  1.00  0.00     0.044 C 
ATOM     30  C   UNL A   1      34.035  17.233  24.250  1.00  0.00     0.044 C 
ENDBRANCH  14  23
ENDBRANCH   9  12
ENDBRANCH   7   8
ENDBRANCH   3   6
ENDBRANCH   1   2
BRANCH   1  31
ATOM     31  C   UNL A   1      35.231  30.392  28.064  1.00  0.00     0.042 C 
BRANCH  31  32
ATOM     32  C   UNL A   1      35.198  31.912  27.947  1.00  0.00     0.118 C 
BRANCH  32  33
ATOM     33  N   UNL A   1      34.677  32.538  29.155  1.00  0.00    -0.352 N 
ATOM     34  C   UNL A   1      35.071  32.383  30.460  1.00  0.00     0.251 C 
ATOM     35  H   UNL A   1      33.930  33.163  29.014  1.00  0.00     0.163 HD
ATOM     36  O   UNL A   1      34.330  32.757  31.364  1.00  0.00    -0.269 OA
BRANCH  34  37
ATOM     37  C   UNL A   1      36.375  31.760  30.769  1.00  0.00     0.039 A 
ATOM     38  C   UNL A   1      36.411  30.603  31.552  1.00  0.00     0.014 A 
ATOM     39  C   UNL A   1      37.563  32.329  30.303  1.00  0.00     0.014 A 
ATOM     40  C   UNL A   1      37.635  29.982  31.812  1.00  0.00     0.010 A 
ATOM     41  C   UNL A   1      38.771  31.667  30.495  1.00  0.00     0.010 A 
ATOM     42  C   UNL A   1      38.820  30.490  31.255  1.00  0.00    -0.014 A 
BRANCH  42  43
ATOM     43  C   UNL A   1      40.124  29.809  31.452  1.00  0.00     0.031 A 
ATOM     44  C   UNL A   1      41.071  30.292  32.514  1.00  0.00     0.074 A 
ATOM     45  C   UNL A   1      40.489  28.821  30.613  1.00  0.00     0.049 A 
ATOM     46  N   UNL A   1      42.297  29.912  32.768  1.00  0.00    -0.248 NA
ATOM     47  C   UNL A   1      40.583  31.373  33.383  1.00  0.00     0.031 C 
ATOM     48  C   UNL A   1      39.675  28.307  29.508  1.00  0.00     0.029 A 
ATOM     49  N   UNL A   1      41.646  28.088  30.542  1.00  0.00    -0.354 N 
ATOM     50  C   UNL A   1      42.734  30.718  33.815  1.00  0.00     0.074 A 
ATOM     51  C   UNL A   1      41.662  31.650  34.099  1.00  0.00     0.031 C 
ATOM     52  C   UNL A   1      40.354  27.336  28.877  1.00  0.00     0.029 A 
ATOM     53  C   UNL A   1      41.665  27.188  29.502  1.00  0.00     0.049 A 
ATOM     54  H   UNL A   1      42.392  28.195  31.176  1.00  0.00     0.167 HD
ATOM     55  C   UNL A   1      43.909  30.669  34.490  1.00  0.00     0.034 A 
ATOM     56  C   UNL A   1      42.636  26.354  29.085  1.00  0.00     0.034 A 
ATOM     57  C   UNL A   1      44.961  29.727  34.195  1.00  0.00     0.049 A 
ATOM     58  C   UNL A   1      43.940  26.324  29.835  1.00  0.00     0.074 A 
ATOM     59  C   UNL A   1      46.163  29.535  34.854  1.00  0.00     0.029 A 
ATOM     60  N   UNL A   1      44.942  28.822  33.138  1.00  0.00    -0.354 N 
ATOM     61  N   UNL A   1      44.317  27.051  30.861  1.00  0.00    -0.248 NA
ATOM     62  C   UNL A   1      44.943  25.357  29.375  1.00  0.00     0.031 C 
ATOM     63  C   UNL A   1      46.895  28.562  34.162  1.00  0.00     0.029 A 
ATOM     64  C   UNL A   1      46.125  28.097  33.108  1.00  0.00     0.049 A 
ATOM     65  H   UNL A   1      44.198  28.712  32.504  1.00  0.00     0.167 HD
ATOM     66  C   UNL A   1      45.602  26.621  31.176  1.00  0.00     0.074 A 
ATOM     67  C   UNL A   1      45.924  25.557  30.245  1.00  0.00     0.031 C 
ATOM     68  C   UNL A   1      46.440  27.063  32.149  1.00  0.00     0.034 A 
BRANCH  55  69
ATOM     69  C   UNL A   1      44.113  31.684  35.592  1.00  0.00     0.023 A 
ATOM     70  C   UNL A   1      43.710  31.427  36.914  1.00  0.00     0.031 A 
ATOM     71  C   UNL A   1      44.664  32.946  35.309  1.00  0.00     0.131 A 
ATOM     72  C   UNL A   1      43.771  32.445  37.878  1.00  0.00     0.055 A 
ATOM     73  C   UNL A   1      44.804  33.926  36.295  1.00  0.00     0.041 A 
ATOM     74  F   UNL A   1      45.052  33.260  34.063  1.00  0.00    -0.206 F 
ATOM     75  C   UNL A   1      44.338  33.686  37.584  1.00  0.00     0.022 A 
BRANCH  72  76
ATOM     76  S   UNL A   1      42.942  32.176  39.470  1.00  0.00     0.124 S 
ATOM     77  O   UNL A   1      41.590  31.823  39.041  1.00  0.00    -0.237 OA
ATOM     78  O   UNL A   1      43.729  31.098  40.057  1.00  0.00    -0.237 OA
ATOM     79  O   UNL A   1      43.057  33.471  40.139  1.00  0.00    -0.744 OA
ENDBRANCH  72  76
ENDBRANCH  55  69
BRANCH  56  80
ATOM     80  C   UNL A   1      42.418  25.499  27.885  1.00  0.00     0.023 A 
ATOM     81  C   UNL A   1      41.651  24.327  27.963  1.00  0.00     0.031 A 
ATOM     82  C   UNL A   1      42.977  25.845  26.642  1.00  0.00     0.131 A 
ATOM     83  C   UNL A   1      41.485  23.524  26.822  1.00  0.00     0.055 A 
ATOM     84  C   UNL A   1      42.777  25.066  25.503  1.00  0.00     0.041 A 
ATOM     85  F   UNL A   1      43.709  26.963  26.517  1.00  0.00    -0.206 F 
ATOM     86  C   UNL A   1      42.034  23.893  25.591  1.00  0.00     0.022 A 
BRANCH  83  87
ATOM     87  S   UNL A   1      40.578  21.963  26.983  1.00  0.00     0.124 S 
ATOM     88  O   UNL A   1      39.216  22.373  26.658  1.00  0.00    -0.237 OA
ATOM     89  O   UNL A   1      41.247  21.121  25.995  1.00  0.00    -0.237 OA
ATOM     90  O   UNL A   1      40.802  21.581  28.375  1.00  0.00    -0.744 OA
ENDBRANCH  83  87
ENDBRANCH  56  80
BRANCH  68  91
ATOM     91  C   UNL A   1      47.781  26.379  32.248  1.00  0.00     0.023 A 
ATOM     92  C   UNL A   1      48.862  26.761  31.435  1.00  0.00     0.031 A 
ATOM     93  C   UNL A   1      47.973  25.320  33.153  1.00  0.00     0.131 A 
ATOM     94  C   UNL A   1      50.071  26.055  31.505  1.00  0.00     0.055 A 
ATOM     95  C   UNL A   1      49.194  24.657  33.257  1.00  0.00     0.041 A 
ATOM     96  F   UNL A   1      46.971  24.914  33.950  1.00  0.00    -0.206 F 
ATOM     97  C   UNL A   1      50.250  25.015  32.421  1.00  0.00     0.022 A 
BRANCH  94  98
ATOM     98  S   UNL A   1      51.386  26.459  30.323  1.00  0.00     0.124 S 
ATOM     99  O   UNL A   1      51.299  27.915  30.259  1.00  0.00    -0.237 OA
ATOM    100  O   UNL A   1      52.574  25.920  30.979  1.00  0.00    -0.237 OA
ATOM    101  O   UNL A   1      50.981  25.760  29.106  1.00  0.00    -0.744 OA
ENDBRANCH  94  98
ENDBRANCH  68  91
ENDBRANCH  42  43
ENDBRANCH  34  37
ENDBRANCH  32  33
ENDBRANCH  31  32
ENDBRANCH   1  31
TORSDOF 19
ENDMDL
