MODEL 1
REMARK VINA RESULT:     -11.3      0.000      0.000
REMARK SMILES C[C@]1(C(=O)NCCCNC(=O)c2ccc(-c3c4nc(c(-c5cc(S(=O)(=O)[O-])ccc5F)c5ccc([nH]5)c(-c5cc(S(=O)(=O)[O-])ccc5F)c5nc(c(-c6cc(S(=O)(=O)[O-])ccc6F)c6ccc3[nH]6)C=C5)C=C4)cc2)COC[C@@H]1NC(=O)[C@H]1C=C[C@@H]([NH3+])C1
REMARK SMILES IDX 7 1 6 2 5 3 3 4 4 5 2 7 1 8 75 9 78 10 76 11 77 12 79 13
REMARK SMILES IDX 80 14 81 16 82 17 83 18 87 19 84 20 85 21 86 22 8 26 9 27
REMARK SMILES IDX 10 28 11 30 12 31 13 32 74 33 14 34 73 35 15 36 16 37 17 38
REMARK SMILES IDX 67 39 18 40 72 41 66 42 68 43 19 44 71 45 65 46 64 47 20 49
REMARK SMILES IDX 52 50 32 51 51 52 33 53 36 54 50 55 69 56 34 57 35 58 49 60
REMARK SMILES IDX 70 61 37 62 21 63 22 64 30 65 23 66 29 67 31 68 28 69 24 70
REMARK SMILES IDX 25 71 26 72 27 73 53 74 54 75 62 76 55 77 61 78 63 79 60 80
REMARK SMILES IDX 56 81 57 82 58 83 59 84 38 85 39 86 47 87 40 88 46 89 48 90
REMARK SMILES IDX 45 91 41 92 42 93 43 94 44 95
REMARK H PARENT 5 6 79 15 86 23 86 24 86 25 9 29 68 48 36 59
REMARK Flexibility Score: inf
ROOT
ATOM      1  C   UNL A   1      33.392  28.042  26.985  1.00  0.00     0.042 C 
ENDROOT
BRANCH   1   2
ATOM      2  C   UNL A   1      31.879  28.151  26.929  1.00  0.00     0.117 C 
BRANCH   2   3
ATOM      3  N   UNL A   1      31.212  26.866  26.965  1.00  0.00    -0.355 N 
ATOM      4  C   UNL A   1      31.030  25.909  26.028  1.00  0.00     0.230 C 
ATOM      5  O   UNL A   1      30.852  24.778  26.497  1.00  0.00    -0.274 OA
ATOM      6  H   UNL A   1      30.816  26.649  27.840  1.00  0.00     0.163 HD
BRANCH   4   7
ATOM      7  C   UNL A   1      30.966  26.170  24.510  1.00  0.00     0.092 C 
ATOM      8  C   UNL A   1      29.947  25.259  23.799  1.00  0.00     0.026 C 
ATOM      9  C   UNL A   1      30.573  27.621  24.221  1.00  0.00     0.179 C 
ATOM     10  C   UNL A   1      32.420  26.093  23.933  1.00  0.00     0.125 C 
ATOM     11  O   UNL A   1      31.305  28.022  23.064  1.00  0.00    -0.378 OA
ATOM     12  C   UNL A   1      32.596  27.438  23.202  1.00  0.00     0.186 C 
BRANCH  10  13
ATOM     13  N   UNL A   1      32.797  24.963  23.061  1.00  0.00    -0.349 N 
ATOM     14  C   UNL A   1      33.777  24.012  23.215  1.00  0.00     0.227 C 
ATOM     15  H   UNL A   1      32.261  24.876  22.239  1.00  0.00     0.163 HD
ATOM     16  O   UNL A   1      34.198  23.457  22.197  1.00  0.00    -0.274 OA
BRANCH  14  17
ATOM     17  C   UNL A   1      34.230  23.613  24.612  1.00  0.00     0.107 C 
ATOM     18  C   UNL A   1      34.607  22.157  24.709  1.00  0.00    -0.012 C 
ATOM     19  C   UNL A   1      35.500  24.286  25.123  1.00  0.00     0.087 C 
ATOM     20  C   UNL A   1      35.579  21.985  25.615  1.00  0.00     0.033 C 
ATOM     21  C   UNL A   1      36.010  23.300  26.187  1.00  0.00     0.205 C 
BRANCH  21  22
ATOM     22  N   UNL A   1      37.443  23.380  26.378  1.00  0.00    -0.352 N 
ATOM     23  H   UNL A   1      37.762  22.562  26.899  1.00  0.00     0.345 HD
ATOM     24  H   UNL A   1      37.669  24.225  26.902  1.00  0.00     0.345 HD
ATOM     25  H   UNL A   1      37.907  23.408  25.471  1.00  0.00     0.345 HD
ENDBRANCH  21  22
ENDBRANCH  14  17
ENDBRANCH  10  13
ENDBRANCH   4   7
ENDBRANCH   2   3
ENDBRANCH   1   2
BRANCH   1  26
ATOM     26  C   UNL A   1      34.134  29.117  26.201  1.00  0.00     0.118 C 
BRANCH  26  27
ATOM     27  N   UNL A   1      33.805  30.469  26.631  1.00  0.00    -0.352 N 
ATOM     28  C   UNL A   1      34.357  31.244  27.627  1.00  0.00     0.251 C 
ATOM     29  H   UNL A   1      33.071  30.897  26.133  1.00  0.00     0.163 HD
ATOM     30  O   UNL A   1      33.795  32.278  27.967  1.00  0.00    -0.269 OA
BRANCH  28  31
ATOM     31  C   UNL A   1      35.601  30.809  28.300  1.00  0.00     0.039 A 
ATOM     32  C   UNL A   1      35.530  29.845  29.308  1.00  0.00     0.014 A 
ATOM     33  C   UNL A   1      36.836  31.341  27.929  1.00  0.00     0.014 A 
ATOM     34  C   UNL A   1      36.708  29.351  29.873  1.00  0.00     0.010 A 
ATOM     35  C   UNL A   1      38.009  30.769  28.410  1.00  0.00     0.010 A 
ATOM     36  C   UNL A   1      37.960  29.769  29.392  1.00  0.00    -0.014 A 
BRANCH  36  37
ATOM     37  C   UNL A   1      39.228  29.182  29.901  1.00  0.00     0.031 A 
ATOM     38  C   UNL A   1      39.910  29.787  31.100  1.00  0.00     0.074 A 
ATOM     39  C   UNL A   1      39.799  28.152  29.243  1.00  0.00     0.049 A 
ATOM     40  N   UNL A   1      41.059  29.478  31.642  1.00  0.00    -0.248 NA
ATOM     41  C   UNL A   1      39.222  30.912  31.753  1.00  0.00     0.031 C 
ATOM     42  C   UNL A   1      39.258  27.511  28.042  1.00  0.00     0.029 A 
ATOM     43  N   UNL A   1      40.963  27.466  29.485  1.00  0.00    -0.354 N 
ATOM     44  C   UNL A   1      41.239  30.377  32.688  1.00  0.00     0.074 A 
ATOM     45  C   UNL A   1      40.115  31.288  32.655  1.00  0.00     0.031 C 
ATOM     46  C   UNL A   1      40.067  26.505  27.676  1.00  0.00     0.029 A 
ATOM     47  C   UNL A   1      41.214  26.463  28.576  1.00  0.00     0.049 A 
ATOM     48  H   UNL A   1      41.563  27.673  30.237  1.00  0.00     0.167 HD
ATOM     49  C   UNL A   1      42.232  30.421  33.610  1.00  0.00     0.034 A 
ATOM     50  C   UNL A   1      42.257  25.613  28.472  1.00  0.00     0.034 A 
ATOM     51  C   UNL A   1      43.338  29.494  33.635  1.00  0.00     0.049 A 
ATOM     52  C   UNL A   1      43.367  25.702  29.488  1.00  0.00     0.074 A 
ATOM     53  C   UNL A   1      44.371  29.412  34.552  1.00  0.00     0.029 A 
ATOM     54  N   UNL A   1      43.562  28.496  32.696  1.00  0.00    -0.354 N 
ATOM     55  N   UNL A   1      43.494  26.526  30.504  1.00  0.00    -0.248 NA
ATOM     56  C   UNL A   1      44.470  24.743  29.350  1.00  0.00     0.031 C 
ATOM     57  C   UNL A   1      45.259  28.419  34.123  1.00  0.00     0.029 A 
ATOM     58  C   UNL A   1      44.734  27.817  32.990  1.00  0.00     0.049 A 
ATOM     59  H   UNL A   1      42.972  28.297  31.931  1.00  0.00     0.167 HD
ATOM     60  C   UNL A   1      44.675  26.158  31.145  1.00  0.00     0.074 A 
ATOM     61  C   UNL A   1      45.210  25.030  30.410  1.00  0.00     0.031 C 
ATOM     62  C   UNL A   1      45.261  26.700  32.243  1.00  0.00     0.034 A 
BRANCH  49  63
ATOM     63  C   UNL A   1      42.174  31.519  34.646  1.00  0.00     0.023 A 
ATOM     64  C   UNL A   1      41.222  31.510  35.682  1.00  0.00     0.031 A 
ATOM     65  C   UNL A   1      43.066  32.604  34.587  1.00  0.00     0.131 A 
ATOM     66  C   UNL A   1      41.130  32.598  36.561  1.00  0.00     0.055 A 
ATOM     67  C   UNL A   1      43.029  33.642  35.521  1.00  0.00     0.041 A 
ATOM     68  F   UNL A   1      43.983  32.683  33.609  1.00  0.00    -0.206 F 
ATOM     69  C   UNL A   1      42.046  33.652  36.506  1.00  0.00     0.022 A 
BRANCH  66  70
ATOM     70  S   UNL A   1      39.702  32.692  37.675  1.00  0.00     0.124 S 
ATOM     71  O   UNL A   1      38.893  31.568  37.209  1.00  0.00    -0.237 OA
ATOM     72  O   UNL A   1      40.315  32.536  38.989  1.00  0.00    -0.237 OA
ATOM     73  O   UNL A   1      39.139  34.011  37.400  1.00  0.00    -0.744 OA
ENDBRANCH  66  70
ENDBRANCH  49  63
BRANCH  50  74
ATOM     74  C   UNL A   1      42.312  24.612  27.366  1.00  0.00     0.023 A 
ATOM     75  C   UNL A   1      41.530  23.447  27.405  1.00  0.00     0.031 A 
ATOM     76  C   UNL A   1      43.184  24.782  26.276  1.00  0.00     0.131 A 
ATOM     77  C   UNL A   1      41.672  22.474  26.404  1.00  0.00     0.055 A 
ATOM     78  C   UNL A   1      43.277  23.839  25.249  1.00  0.00     0.041 A 
ATOM     79  F   UNL A   1      43.954  25.878  26.185  1.00  0.00    -0.206 F 
ATOM     80  C   UNL A   1      42.528  22.669  25.318  1.00  0.00     0.022 A 
BRANCH  77  81
ATOM     81  S   UNL A   1      40.791  20.899  26.593  1.00  0.00     0.124 S 
ATOM     82  O   UNL A   1      39.489  21.217  26.019  1.00  0.00    -0.237 OA
ATOM     83  O   UNL A   1      41.630  19.989  25.820  1.00  0.00    -0.237 OA
ATOM     84  O   UNL A   1      40.800  20.677  28.038  1.00  0.00    -0.744 OA
ENDBRANCH  77  81
ENDBRANCH  50  74
BRANCH  62  85
ATOM     85  C   UNL A   1      46.525  26.041  32.743  1.00  0.00     0.023 A 
ATOM     86  C   UNL A   1      46.495  24.973  33.657  1.00  0.00     0.031 A 
ATOM     87  C   UNL A   1      47.780  26.496  32.301  1.00  0.00     0.131 A 
ATOM     88  C   UNL A   1      47.697  24.439  34.146  1.00  0.00     0.055 A 
ATOM     89  C   UNL A   1      48.970  25.913  32.737  1.00  0.00     0.041 A 
ATOM     90  F   UNL A   1      47.870  27.515  31.431  1.00  0.00    -0.206 F 
ATOM     91  C   UNL A   1      48.933  24.887  33.677  1.00  0.00     0.022 A 
BRANCH  88  92
ATOM     92  S   UNL A   1      47.623  23.217  35.486  1.00  0.00     0.124 S 
ATOM     93  O   UNL A   1      47.994  21.988  34.795  1.00  0.00    -0.237 OA
ATOM     94  O   UNL A   1      48.603  23.736  36.435  1.00  0.00    -0.237 OA
ATOM     95  O   UNL A   1      46.233  23.283  35.933  1.00  0.00    -0.744 OA
ENDBRANCH  88  92
ENDBRANCH  62  85
ENDBRANCH  36  37
ENDBRANCH  28  31
ENDBRANCH  26  27
ENDBRANCH   1  26
TORSDOF 16
ENDMDL
MODEL 2
REMARK VINA RESULT:     -11.3      1.642      2.823
REMARK SMILES C[C@]1(C(=O)NCCCNC(=O)c2ccc(-c3c4nc(c(-c5cc(S(=O)(=O)[O-])ccc5F)c5ccc([nH]5)c(-c5cc(S(=O)(=O)[O-])ccc5F)c5nc(c(-c6cc(S(=O)(=O)[O-])ccc6F)c6ccc3[nH]6)C=C5)C=C4)cc2)COC[C@@H]1NC(=O)[C@H]1C=C[C@@H]([NH3+])C1
REMARK SMILES IDX 7 1 6 2 5 3 3 4 4 5 2 7 1 8 75 9 78 10 76 11 77 12 79 13
REMARK SMILES IDX 80 14 81 16 82 17 83 18 87 19 84 20 85 21 86 22 8 26 9 27
REMARK SMILES IDX 10 28 11 30 12 31 13 32 74 33 14 34 73 35 15 36 16 37 17 38
REMARK SMILES IDX 67 39 18 40 72 41 66 42 68 43 19 44 71 45 65 46 64 47 20 49
REMARK SMILES IDX 52 50 32 51 51 52 33 53 36 54 50 55 69 56 34 57 35 58 49 60
REMARK SMILES IDX 70 61 37 62 21 63 22 64 30 65 23 66 29 67 31 68 28 69 24 70
REMARK SMILES IDX 25 71 26 72 27 73 53 74 54 75 62 76 55 77 61 78 63 79 60 80
REMARK SMILES IDX 56 81 57 82 58 83 59 84 38 85 39 86 47 87 40 88 46 89 48 90
REMARK SMILES IDX 45 91 41 92 42 93 43 94 44 95
REMARK H PARENT 5 6 79 15 86 23 86 24 86 25 9 29 68 48 36 59
REMARK Flexibility Score: inf
ROOT
ATOM      1  C   UNL A   1      32.083  29.038  26.894  1.00  0.00     0.042 C 
ENDROOT
BRANCH   1   2
ATOM      2  C   UNL A   1      32.380  27.559  26.727  1.00  0.00     0.117 C 
BRANCH   2   3
ATOM      3  N   UNL A   1      31.234  26.793  26.282  1.00  0.00    -0.355 N 
ATOM      4  C   UNL A   1      31.033  25.465  26.126  1.00  0.00     0.230 C 
ATOM      5  O   UNL A   1      29.844  25.129  26.194  1.00  0.00    -0.274 OA
ATOM      6  H   UNL A   1      30.453  27.345  26.049  1.00  0.00     0.163 HD
BRANCH   4   7
ATOM      7  C   UNL A   1      32.143  24.442  25.813  1.00  0.00     0.092 C 
ATOM      8  C   UNL A   1      33.553  25.004  26.080  1.00  0.00     0.026 C 
ATOM      9  C   UNL A   1      31.977  23.180  26.662  1.00  0.00     0.179 C 
ATOM     10  C   UNL A   1      31.923  23.903  24.359  1.00  0.00     0.125 C 
ATOM     11  O   UNL A   1      32.367  22.079  25.841  1.00  0.00    -0.378 OA
ATOM     12  C   UNL A   1      31.871  22.374  24.539  1.00  0.00     0.186 C 
BRANCH  10  13
ATOM     13  N   UNL A   1      32.874  24.279  23.293  1.00  0.00    -0.349 N 
ATOM     14  C   UNL A   1      32.947  25.419  22.531  1.00  0.00     0.227 C 
ATOM     15  H   UNL A   1      33.565  23.604  23.097  1.00  0.00     0.163 HD
ATOM     16  O   UNL A   1      33.514  25.340  21.439  1.00  0.00    -0.274 OA
BRANCH  14  17
ATOM     17  C   UNL A   1      32.427  26.737  23.091  1.00  0.00     0.107 C 
ATOM     18  C   UNL A   1      33.474  27.820  23.099  1.00  0.00    -0.012 C 
ATOM     19  C   UNL A   1      31.309  27.406  22.299  1.00  0.00     0.087 C 
ATOM     20  C   UNL A   1      32.906  29.020  22.920  1.00  0.00     0.033 C 
ATOM     21  C   UNL A   1      31.431  28.882  22.710  1.00  0.00     0.205 C 
BRANCH  21  22
ATOM     22  N   UNL A   1      30.926  29.786  21.698  1.00  0.00    -0.352 N 
ATOM     23  H   UNL A   1      31.219  30.739  21.916  1.00  0.00     0.345 HD
ATOM     24  H   UNL A   1      29.908  29.740  21.677  1.00  0.00     0.345 HD
ATOM     25  H   UNL A   1      31.297  29.517  20.786  1.00  0.00     0.345 HD
ENDBRANCH  21  22
ENDBRANCH  14  17
ENDBRANCH  10  13
ENDBRANCH   4   7
ENDBRANCH   2   3
ENDBRANCH   1   2
BRANCH   1  26
ATOM     26  C   UNL A   1      33.099  29.966  26.241  1.00  0.00     0.118 C 
BRANCH  26  27
ATOM     27  N   UNL A   1      33.025  31.335  26.735  1.00  0.00    -0.352 N 
ATOM     28  C   UNL A   1      33.830  32.001  27.631  1.00  0.00     0.251 C 
ATOM     29  H   UNL A   1      32.281  31.867  26.372  1.00  0.00     0.163 HD
ATOM     30  O   UNL A   1      33.472  33.086  28.072  1.00  0.00    -0.269 OA
BRANCH  28  31
ATOM     31  C   UNL A   1      35.100  31.390  28.081  1.00  0.00     0.039 A 
ATOM     32  C   UNL A   1      36.268  32.157  28.071  1.00  0.00     0.014 A 
ATOM     33  C   UNL A   1      35.138  30.067  28.524  1.00  0.00     0.014 A 
ATOM     34  C   UNL A   1      37.448  31.623  28.594  1.00  0.00     0.010 A 
ATOM     35  C   UNL A   1      36.282  29.578  29.145  1.00  0.00     0.010 A 
ATOM     36  C   UNL A   1      37.453  30.348  29.186  1.00  0.00    -0.014 A 
BRANCH  36  37
ATOM     37  C   UNL A   1      38.667  29.797  29.844  1.00  0.00     0.031 A 
ATOM     38  C   UNL A   1      39.077  30.294  31.205  1.00  0.00     0.074 A 
ATOM     39  C   UNL A   1      39.435  28.904  29.188  1.00  0.00     0.049 A 
ATOM     40  N   UNL A   1      40.143  30.005  31.906  1.00  0.00    -0.248 NA
ATOM     41  C   UNL A   1      38.186  31.273  31.847  1.00  0.00     0.031 C 
ATOM     42  C   UNL A   1      39.167  28.381  27.845  1.00  0.00     0.029 A 
ATOM     43  N   UNL A   1      40.602  28.280  29.555  1.00  0.00    -0.354 N 
ATOM     44  C   UNL A   1      40.058  30.775  33.061  1.00  0.00     0.074 A 
ATOM     45  C   UNL A   1      38.875  31.598  32.930  1.00  0.00     0.031 C 
ATOM     46  C   UNL A   1      40.118  27.492  27.519  1.00  0.00     0.029 A 
ATOM     47  C   UNL A   1      41.096  27.421  28.600  1.00  0.00     0.049 A 
ATOM     48  H   UNL A   1      41.044  28.434  30.421  1.00  0.00     0.167 HD
ATOM     49  C   UNL A   1      40.873  30.775  34.144  1.00  0.00     0.034 A 
ATOM     50  C   UNL A   1      42.217  26.671  28.589  1.00  0.00     0.034 A 
ATOM     51  C   UNL A   1      42.042  29.938  34.262  1.00  0.00     0.049 A 
ATOM     52  C   UNL A   1      43.128  26.713  29.790  1.00  0.00     0.074 A 
ATOM     53  C   UNL A   1      42.910  29.816  35.334  1.00  0.00     0.029 A 
ATOM     54  N   UNL A   1      42.514  29.085  33.273  1.00  0.00    -0.354 N 
ATOM     55  N   UNL A   1      43.003  27.409  30.897  1.00  0.00    -0.248 NA
ATOM     56  C   UNL A   1      44.323  25.863  29.744  1.00  0.00     0.031 C 
ATOM     57  C   UNL A   1      43.946  28.954  34.962  1.00  0.00     0.029 A 
ATOM     58  C   UNL A   1      43.679  28.463  33.694  1.00  0.00     0.049 A 
ATOM     59  H   UNL A   1      42.083  28.942  32.398  1.00  0.00     0.167 HD
ATOM     60  C   UNL A   1      44.089  27.051  31.694  1.00  0.00     0.074 A 
ATOM     61  C   UNL A   1      44.844  26.067  30.945  1.00  0.00     0.031 C 
ATOM     62  C   UNL A   1      44.428  27.491  32.933  1.00  0.00     0.034 A 
BRANCH  49  63
ATOM     63  C   UNL A   1      40.538  31.726  35.269  1.00  0.00     0.023 A 
ATOM     64  C   UNL A   1      39.542  31.430  36.217  1.00  0.00     0.031 A 
ATOM     65  C   UNL A   1      41.206  32.958  35.386  1.00  0.00     0.131 A 
ATOM     66  C   UNL A   1      39.185  32.382  37.183  1.00  0.00     0.055 A 
ATOM     67  C   UNL A   1      40.909  33.865  36.406  1.00  0.00     0.041 A 
ATOM     68  F   UNL A   1      42.151  33.311  34.499  1.00  0.00    -0.206 F 
ATOM     69  C   UNL A   1      39.882  33.586  37.303  1.00  0.00     0.022 A 
BRANCH  66  70
ATOM     70  S   UNL A   1      37.698  32.089  38.178  1.00  0.00     0.124 S 
ATOM     71  O   UNL A   1      38.215  32.254  39.535  1.00  0.00    -0.237 OA
ATOM     72  O   UNL A   1      36.793  33.131  37.708  1.00  0.00    -0.237 OA
ATOM     73  O   UNL A   1      37.315  30.723  37.828  1.00  0.00    -0.744 OA
ENDBRANCH  66  70
ENDBRANCH  49  63
BRANCH  50  74
ATOM     74  C   UNL A   1      42.552  25.825  27.406  1.00  0.00     0.023 A 
ATOM     75  C   UNL A   1      42.117  24.493  27.322  1.00  0.00     0.031 A 
ATOM     76  C   UNL A   1      43.355  26.321  26.362  1.00  0.00     0.131 A 
ATOM     77  C   UNL A   1      42.527  23.688  26.249  1.00  0.00     0.055 A 
ATOM     78  C   UNL A   1      43.709  25.533  25.264  1.00  0.00     0.041 A 
ATOM     79  F   UNL A   1      43.797  27.588  26.387  1.00  0.00    -0.206 F 
ATOM     80  C   UNL A   1      43.307  24.203  25.211  1.00  0.00     0.022 A 
BRANCH  77  81
ATOM     81  S   UNL A   1      42.107  21.923  26.278  1.00  0.00     0.124 S 
ATOM     82  O   UNL A   1      42.496  21.549  27.633  1.00  0.00    -0.237 OA
ATOM     83  O   UNL A   1      40.674  21.948  26.004  1.00  0.00    -0.237 OA
ATOM     84  O   UNL A   1      42.935  21.359  25.212  1.00  0.00    -0.744 OA
ENDBRANCH  77  81
ENDBRANCH  50  74
BRANCH  62  85
ATOM     85  C   UNL A   1      45.647  26.870  33.573  1.00  0.00     0.023 A 
ATOM     86  C   UNL A   1      45.582  25.644  34.260  1.00  0.00     0.031 A 
ATOM     87  C   UNL A   1      46.891  27.520  33.500  1.00  0.00     0.131 A 
ATOM     88  C   UNL A   1      46.726  25.140  34.898  1.00  0.00     0.055 A 
ATOM     89  C   UNL A   1      48.040  26.978  34.076  1.00  0.00     0.041 A 
ATOM     90  F   UNL A   1      47.012  28.695  32.861  1.00  0.00    -0.206 F 
ATOM     91  C   UNL A   1      47.958  25.788  34.793  1.00  0.00     0.022 A 
BRANCH  88  92
ATOM     92  S   UNL A   1      46.556  23.677  35.957  1.00  0.00     0.124 S 
ATOM     93  O   UNL A   1      45.211  23.848  36.495  1.00  0.00    -0.237 OA
ATOM     94  O   UNL A   1      46.728  22.583  35.007  1.00  0.00    -0.237 OA
ATOM     95  O   UNL A   1      47.638  23.830  36.928  1.00  0.00    -0.744 OA
ENDBRANCH  88  92
ENDBRANCH  62  85
ENDBRANCH  36  37
ENDBRANCH  28  31
ENDBRANCH  26  27
ENDBRANCH   1  26
TORSDOF 16
ENDMDL
MODEL 3
REMARK VINA RESULT:     -11.3      5.017      9.725
REMARK SMILES C[C@]1(C(=O)NCCCNC(=O)c2ccc(-c3c4nc(c(-c5cc(S(=O)(=O)[O-])ccc5F)c5ccc([nH]5)c(-c5cc(S(=O)(=O)[O-])ccc5F)c5nc(c(-c6cc(S(=O)(=O)[O-])ccc6F)c6ccc3[nH]6)C=C5)C=C4)cc2)COC[C@@H]1NC(=O)[C@H]1C=C[C@@H]([NH3+])C1
REMARK SMILES IDX 7 1 6 2 5 3 3 4 4 5 2 7 1 8 75 9 78 10 76 11 77 12 79 13
REMARK SMILES IDX 80 14 81 16 82 17 83 18 87 19 84 20 85 21 86 22 8 26 9 27
REMARK SMILES IDX 10 28 11 30 12 31 13 32 74 33 14 34 73 35 15 36 16 37 17 38
REMARK SMILES IDX 67 39 18 40 72 41 66 42 68 43 19 44 71 45 65 46 64 47 20 49
REMARK SMILES IDX 52 50 32 51 51 52 33 53 36 54 50 55 69 56 34 57 35 58 49 60
REMARK SMILES IDX 70 61 37 62 21 63 22 64 30 65 23 66 29 67 31 68 28 69 24 70
REMARK SMILES IDX 25 71 26 72 27 73 53 74 54 75 62 76 55 77 61 78 63 79 60 80
REMARK SMILES IDX 56 81 57 82 58 83 59 84 38 85 39 86 47 87 40 88 46 89 48 90
REMARK SMILES IDX 45 91 41 92 42 93 43 94 44 95
REMARK H PARENT 5 6 79 15 86 23 86 24 86 25 9 29 68 48 36 59
REMARK Flexibility Score: inf
ROOT
ATOM      1  C   UNL A   1      36.317  21.505  25.576  1.00  0.00     0.042 C 
ENDROOT
BRANCH   1   2
ATOM      2  C   UNL A   1      35.870  22.852  26.114  1.00  0.00     0.117 C 
BRANCH   2   3
ATOM      3  N   UNL A   1      34.827  22.750  27.114  1.00  0.00    -0.355 N 
ATOM      4  C   UNL A   1      33.482  22.861  27.040  1.00  0.00     0.230 C 
ATOM      5  O   UNL A   1      32.881  22.264  27.942  1.00  0.00    -0.274 OA
ATOM      6  H   UNL A   1      35.163  22.566  28.021  1.00  0.00     0.163 HD
BRANCH   4   7
ATOM      7  C   UNL A   1      32.728  23.704  25.992  1.00  0.00     0.092 C 
ATOM      8  C   UNL A   1      31.204  23.701  26.220  1.00  0.00     0.026 C 
ATOM      9  C   UNL A   1      33.199  25.160  26.021  1.00  0.00     0.179 C 
ATOM     10  C   UNL A   1      33.173  23.233  24.566  1.00  0.00     0.125 C 
ATOM     11  O   UNL A   1      33.186  25.622  24.670  1.00  0.00    -0.378 OA
ATOM     12  C   UNL A   1      33.649  24.529  23.884  1.00  0.00     0.186 C 
BRANCH  10  13
ATOM     13  N   UNL A   1      32.215  22.504  23.710  1.00  0.00    -0.349 N 
ATOM     14  C   UNL A   1      32.274  21.230  23.198  1.00  0.00     0.227 C 
ATOM     15  H   UNL A   1      31.407  23.011  23.467  1.00  0.00     0.163 HD
ATOM     16  O   UNL A   1      31.615  20.992  22.184  1.00  0.00    -0.274 OA
BRANCH  14  17
ATOM     17  C   UNL A   1      33.054  20.153  23.940  1.00  0.00     0.107 C 
ATOM     18  C   UNL A   1      32.552  19.933  25.344  1.00  0.00    -0.012 C 
ATOM     19  C   UNL A   1      32.963  18.743  23.365  1.00  0.00     0.087 C 
ATOM     20  C   UNL A   1      32.719  18.653  25.704  1.00  0.00     0.033 C 
ATOM     21  C   UNL A   1      33.291  17.854  24.575  1.00  0.00     0.205 C 
BRANCH  21  22
ATOM     22  N   UNL A   1      32.701  16.536  24.473  1.00  0.00    -0.352 N 
ATOM     23  H   UNL A   1      32.237  16.302  25.351  1.00  0.00     0.345 HD
ATOM     24  H   UNL A   1      33.432  15.850  24.282  1.00  0.00     0.345 HD
ATOM     25  H   UNL A   1      32.019  16.525  23.715  1.00  0.00     0.345 HD
ENDBRANCH  21  22
ENDBRANCH  14  17
ENDBRANCH  10  13
ENDBRANCH   4   7
ENDBRANCH   2   3
ENDBRANCH   1   2
BRANCH   1  26
ATOM     26  C   UNL A   1      37.717  21.496  24.976  1.00  0.00     0.118 C 
BRANCH  26  27
ATOM     27  N   UNL A   1      38.607  20.535  25.612  1.00  0.00    -0.352 N 
ATOM     28  C   UNL A   1      39.744  20.738  26.363  1.00  0.00     0.251 C 
ATOM     29  H   UNL A   1      38.359  19.591  25.485  1.00  0.00     0.163 HD
ATOM     30  O   UNL A   1      40.466  19.786  26.632  1.00  0.00    -0.269 OA
BRANCH  28  31
ATOM     31  C   UNL A   1      40.102  22.102  26.810  1.00  0.00     0.039 A 
ATOM     32  C   UNL A   1      41.058  22.262  27.816  1.00  0.00     0.014 A 
ATOM     33  C   UNL A   1      39.505  23.223  26.231  1.00  0.00     0.014 A 
ATOM     34  C   UNL A   1      41.480  23.547  28.168  1.00  0.00     0.010 A 
ATOM     35  C   UNL A   1      40.005  24.491  26.501  1.00  0.00     0.010 A 
ATOM     36  C   UNL A   1      40.997  24.670  27.476  1.00  0.00    -0.014 A 
BRANCH  36  37
ATOM     37  C   UNL A   1      41.506  26.039  27.758  1.00  0.00     0.031 A 
ATOM     38  C   UNL A   1      42.893  26.431  27.322  1.00  0.00     0.074 A 
ATOM     39  C   UNL A   1      40.747  26.902  28.464  1.00  0.00     0.049 A 
ATOM     40  N   UNL A   1      43.550  27.540  27.547  1.00  0.00    -0.248 NA
ATOM     41  C   UNL A   1      43.656  25.427  26.563  1.00  0.00     0.031 C 
ATOM     42  C   UNL A   1      39.405  26.622  28.981  1.00  0.00     0.029 A 
ATOM     43  N   UNL A   1      40.995  28.188  28.877  1.00  0.00    -0.354 N 
ATOM     44  C   UNL A   1      44.803  27.362  26.972  1.00  0.00     0.074 A 
ATOM     45  C   UNL A   1      44.839  26.011  26.455  1.00  0.00     0.031 C 
ATOM     46  C   UNL A   1      38.936  27.712  29.606  1.00  0.00     0.029 A 
ATOM     47  C   UNL A   1      39.961  28.750  29.589  1.00  0.00     0.049 A 
ATOM     48  H   UNL A   1      41.835  28.662  28.681  1.00  0.00     0.167 HD
ATOM     49  C   UNL A   1      45.821  28.252  26.858  1.00  0.00     0.034 A 
ATOM     50  C   UNL A   1      39.854  29.961  30.174  1.00  0.00     0.034 A 
ATOM     51  C   UNL A   1      45.761  29.599  27.370  1.00  0.00     0.049 A 
ATOM     52  C   UNL A   1      41.011  30.922  30.065  1.00  0.00     0.074 A 
ATOM     53  C   UNL A   1      46.709  30.602  27.265  1.00  0.00     0.029 A 
ATOM     54  N   UNL A   1      44.700  30.132  28.090  1.00  0.00    -0.354 N 
ATOM     55  N   UNL A   1      42.171  30.755  29.470  1.00  0.00    -0.248 NA
ATOM     56  C   UNL A   1      40.842  32.236  30.697  1.00  0.00     0.031 C 
ATOM     57  C   UNL A   1      46.257  31.710  27.989  1.00  0.00     0.029 A 
ATOM     58  C   UNL A   1      44.985  31.435  28.468  1.00  0.00     0.049 A 
ATOM     59  H   UNL A   1      43.865  29.653  28.302  1.00  0.00     0.167 HD
ATOM     60  C   UNL A   1      42.854  31.959  29.628  1.00  0.00     0.074 A 
ATOM     61  C   UNL A   1      41.969  32.844  30.358  1.00  0.00     0.031 C 
ATOM     62  C   UNL A   1      44.097  32.303  29.204  1.00  0.00     0.034 A 
BRANCH  49  63
ATOM     63  C   UNL A   1      47.085  27.782  26.177  1.00  0.00     0.023 A 
ATOM     64  C   UNL A   1      47.327  28.033  24.814  1.00  0.00     0.031 A 
ATOM     65  C   UNL A   1      48.052  27.054  26.890  1.00  0.00     0.131 A 
ATOM     66  C   UNL A   1      48.461  27.491  24.191  1.00  0.00     0.055 A 
ATOM     67  C   UNL A   1      49.225  26.594  26.286  1.00  0.00     0.041 A 
ATOM     68  F   UNL A   1      47.869  26.762  28.188  1.00  0.00    -0.206 F 
ATOM     69  C   UNL A   1      49.427  26.797  24.924  1.00  0.00     0.022 A 
BRANCH  66  70
ATOM     70  S   UNL A   1      48.576  27.572  22.383  1.00  0.00     0.124 S 
ATOM     71  O   UNL A   1      47.350  28.291  22.043  1.00  0.00    -0.237 OA
ATOM     72  O   UNL A   1      49.822  28.301  22.178  1.00  0.00    -0.237 OA
ATOM     73  O   UNL A   1      48.598  26.168  21.978  1.00  0.00    -0.744 OA
ENDBRANCH  66  70
ENDBRANCH  49  63
BRANCH  50  74
ATOM     74  C   UNL A   1      38.619  30.335  30.924  1.00  0.00     0.023 A 
ATOM     75  C   UNL A   1      37.580  31.043  30.298  1.00  0.00     0.031 A 
ATOM     76  C   UNL A   1      38.478  30.033  32.291  1.00  0.00     0.131 A 
ATOM     77  C   UNL A   1      36.473  31.470  31.047  1.00  0.00     0.055 A 
ATOM     78  C   UNL A   1      37.346  30.407  33.017  1.00  0.00     0.041 A 
ATOM     79  F   UNL A   1      39.438  29.356  32.939  1.00  0.00    -0.206 F 
ATOM     80  C   UNL A   1      36.341  31.143  32.399  1.00  0.00     0.022 A 
BRANCH  77  81
ATOM     81  S   UNL A   1      35.250  32.548  30.251  1.00  0.00     0.124 S 
ATOM     82  O   UNL A   1      34.781  31.705  29.157  1.00  0.00    -0.237 OA
ATOM     83  O   UNL A   1      34.302  32.782  31.335  1.00  0.00    -0.237 OA
ATOM     84  O   UNL A   1      36.035  33.714  29.850  1.00  0.00    -0.744 OA
ENDBRANCH  77  81
ENDBRANCH  50  74
BRANCH  62  85
ATOM     85  C   UNL A   1      44.550  33.718  29.480  1.00  0.00     0.023 A 
ATOM     86  C   UNL A   1      44.346  34.756  28.554  1.00  0.00     0.031 A 
ATOM     87  C   UNL A   1      45.203  34.027  30.686  1.00  0.00     0.131 A 
ATOM     88  C   UNL A   1      44.845  36.040  28.824  1.00  0.00     0.055 A 
ATOM     89  C   UNL A   1      45.634  35.321  30.979  1.00  0.00     0.041 A 
ATOM     90  F   UNL A   1      45.429  33.074  31.605  1.00  0.00    -0.206 F 
ATOM     91  C   UNL A   1      45.469  36.334  30.038  1.00  0.00     0.022 A 
BRANCH  88  92
ATOM     92  S   UNL A   1      44.761  37.297  27.519  1.00  0.00     0.124 S 
ATOM     93  O   UNL A   1      45.025  38.523  28.263  1.00  0.00    -0.237 OA
ATOM     94  O   UNL A   1      45.812  36.867  26.603  1.00  0.00    -0.237 OA
ATOM     95  O   UNL A   1      43.399  37.164  27.004  1.00  0.00    -0.744 OA
ENDBRANCH  88  92
ENDBRANCH  62  85
ENDBRANCH  36  37
ENDBRANCH  28  31
ENDBRANCH  26  27
ENDBRANCH   1  26
TORSDOF 16
ENDMDL
