MODEL 1
REMARK VINA RESULT:     -11.9      0.000      0.000
REMARK SMILES O=C(C[N@@H+]1C[C@@]2([N+](=O)[O-])CC=C(Cl)[C@@]([N+](=O)[O-])(C1)C2)NCCCNC(=O)c1ccc(-c2c3nc(c(-c4cc(S(=O)(=O)[O-])ccc4F)c4ccc([nH]4)c(-c4cc(S(=O)(=O)[O-])ccc4F)c4nc(c(-c5cc(S(=O)(=O)[O-])ccc5F)c5ccc2[nH]5)C=C4)C=C3)cc1
REMARK SMILES IDX 22 1 21 2 20 3 1 4 2 5 3 7 4 8 5 9 18 10 6 12 14 13 10 14
REMARK SMILES IDX 19 15 12 16 11 17 13 18 7 19 8 20 9 21 15 22 16 23 17 24
REMARK SMILES IDX 23 25 24 26 25 27 26 29 27 30 28 31 89 32 29 33 88 34 30 35
REMARK SMILES IDX 31 36 32 37 82 38 33 39 87 40 81 41 83 42 34 43 86 44 80 45
REMARK SMILES IDX 79 46 35 48 67 49 47 50 66 51 48 52 51 53 65 54 84 55 49 56
REMARK SMILES IDX 50 57 64 59 85 60 52 61 36 62 37 63 45 64 38 65 44 66 46 67
REMARK SMILES IDX 43 68 39 69 40 70 41 71 42 72 68 73 69 74 77 75 70 76 76 77
REMARK SMILES IDX 78 78 75 79 71 80 72 81 73 82 74 83 53 84 54 85 62 86 55 87
REMARK SMILES IDX 61 88 63 89 60 90 56 91 57 92 58 93 59 94
REMARK H PARENT 20 6 4 11 24 28 83 47 51 58
REMARK Flexibility Score: inf
ROOT
ATOM      1  C   UNL A   1      31.971  28.341  26.852  1.00  0.00     0.042 C 
ENDROOT
BRANCH   1   2
ATOM      2  C   UNL A   1      31.459  27.151  26.052  1.00  0.00     0.118 C 
BRANCH   2   3
ATOM      3  N   UNL A   1      31.942  25.888  26.570  1.00  0.00    -0.351 N 
ATOM      4  O   UNL A   1      29.935  24.766  26.417  1.00  0.00    -0.269 OA
ATOM      5  C   UNL A   1      31.140  24.764  26.645  1.00  0.00     0.275 C 
ATOM      6  H   UNL A   1      32.875  25.827  26.880  1.00  0.00     0.163 HD
BRANCH   5   7
ATOM      7  C   UNL A   1      31.936  23.486  26.948  1.00  0.00     0.363 C 
BRANCH   7   8
ATOM      8  N   UNL A   1      32.499  22.891  25.710  1.00  0.00    -0.315 N 
ATOM      9  C   UNL A   1      32.508  21.417  25.803  1.00  0.00     0.350 C 
ATOM     10  C   UNL A   1      33.837  23.434  25.350  1.00  0.00     0.356 C 
ATOM     11  H   UNL A   1      31.884  23.163  24.944  1.00  0.00     0.348 HD
ATOM     12  C   UNL A   1      33.112  20.728  24.556  1.00  0.00     0.280 C 
ATOM     13  C   UNL A   1      34.418  22.780  24.069  1.00  0.00     0.311 C 
ATOM     14  C   UNL A   1      32.274  20.918  23.262  1.00  0.00     0.121 C 
ATOM     15  C   UNL A   1      34.535  21.261  24.314  1.00  0.00     0.191 C 
ATOM     16  C   UNL A   1      33.514  23.061  22.878  1.00  0.00     0.097 C 
ATOM     17  C   UNL A   1      32.540  22.206  22.520  1.00  0.00     0.004 C 
ATOM     18  Cl  UNL A   1      33.660  24.567  22.040  1.00  0.00    -0.081 Cl
BRANCH  12  19
ATOM     19  N   UNL A   1      33.159  19.244  24.890  1.00  0.00     0.032 N 
ATOM     20  O   UNL A   1      34.187  18.621  24.597  1.00  0.00    -0.264 OA
ATOM     21  O   UNL A   1      32.142  18.738  25.383  1.00  0.00    -0.264 OA
ENDBRANCH  12  19
BRANCH  13  22
ATOM     22  N   UNL A   1      35.820  23.315  23.801  1.00  0.00     0.038 N 
ATOM     23  O   UNL A   1      36.328  24.062  24.650  1.00  0.00    -0.263 OA
ATOM     24  O   UNL A   1      36.380  22.942  22.760  1.00  0.00    -0.263 OA
ENDBRANCH  13  22
ENDBRANCH   7   8
ENDBRANCH   5   7
ENDBRANCH   2   3
ENDBRANCH   1   2
BRANCH   1  25
ATOM     25  C   UNL A   1      32.712  29.397  26.036  1.00  0.00     0.118 C 
BRANCH  25  26
ATOM     26  N   UNL A   1      32.348  30.766  26.369  1.00  0.00    -0.352 N 
ATOM     27  C   UNL A   1      33.047  31.665  27.144  1.00  0.00     0.251 C 
ATOM     28  H   UNL A   1      31.497  31.089  25.995  1.00  0.00     0.163 HD
ATOM     29  O   UNL A   1      32.548  32.744  27.447  1.00  0.00    -0.269 OA
BRANCH  27  30
ATOM     30  C   UNL A   1      34.392  31.297  27.644  1.00  0.00     0.039 A 
ATOM     31  C   UNL A   1      35.386  32.276  27.704  1.00  0.00     0.014 A 
ATOM     32  C   UNL A   1      34.646  30.004  28.107  1.00  0.00     0.014 A 
ATOM     33  C   UNL A   1      36.610  31.983  28.314  1.00  0.00     0.010 A 
ATOM     34  C   UNL A   1      35.840  29.734  28.773  1.00  0.00     0.010 A 
ATOM     35  C   UNL A   1      36.828  30.725  28.898  1.00  0.00    -0.014 A 
BRANCH  35  36
ATOM     36  C   UNL A   1      38.069  30.415  29.660  1.00  0.00     0.031 A 
ATOM     37  C   UNL A   1      39.065  29.439  29.098  1.00  0.00     0.074 A 
ATOM     38  C   UNL A   1      38.247  30.926  30.893  1.00  0.00     0.049 A 
ATOM     39  N   UNL A   1      40.108  28.896  29.670  1.00  0.00    -0.248 NA
ATOM     40  C   UNL A   1      38.832  28.991  27.717  1.00  0.00     0.031 C 
ATOM     41  C   UNL A   1      37.343  31.865  31.561  1.00  0.00     0.029 A 
ATOM     42  N   UNL A   1      39.240  30.711  31.819  1.00  0.00    -0.354 N 
ATOM     43  C   UNL A   1      40.644  28.022  28.730  1.00  0.00     0.074 A 
ATOM     44  C   UNL A   1      39.778  28.075  27.570  1.00  0.00     0.031 C 
ATOM     45  C   UNL A   1      37.825  32.149  32.782  1.00  0.00     0.029 A 
ATOM     46  C   UNL A   1      39.041  31.374  33.008  1.00  0.00     0.049 A 
ATOM     47  H   UNL A   1      40.019  30.135  31.648  1.00  0.00     0.167 HD
ATOM     48  C   UNL A   1      41.761  27.258  28.821  1.00  0.00     0.034 A 
ATOM     49  C   UNL A   1      39.741  31.342  34.161  1.00  0.00     0.034 A 
ATOM     50  C   UNL A   1      42.626  27.233  29.976  1.00  0.00     0.049 A 
ATOM     51  C   UNL A   1      40.968  30.471  34.248  1.00  0.00     0.074 A 
ATOM     52  C   UNL A   1      43.806  26.531  30.155  1.00  0.00     0.029 A 
ATOM     53  N   UNL A   1      42.403  27.938  31.151  1.00  0.00    -0.354 N 
ATOM     54  N   UNL A   1      41.473  29.664  33.344  1.00  0.00    -0.248 NA
ATOM     55  C   UNL A   1      41.723  30.508  35.508  1.00  0.00     0.031 C 
ATOM     56  C   UNL A   1      44.264  26.766  31.456  1.00  0.00     0.029 A 
ATOM     57  C   UNL A   1      43.411  27.671  32.065  1.00  0.00     0.049 A 
ATOM     58  H   UNL A   1      41.641  28.541  31.312  1.00  0.00     0.167 HD
ATOM     59  C   UNL A   1      42.627  29.131  33.912  1.00  0.00     0.074 A 
ATOM     60  C   UNL A   1      42.742  29.705  35.236  1.00  0.00     0.031 C 
ATOM     61  C   UNL A   1      43.517  28.256  33.381  1.00  0.00     0.034 A 
BRANCH  48  62
ATOM     62  C   UNL A   1      42.090  26.368  27.647  1.00  0.00     0.023 A 
ATOM     63  C   UNL A   1      41.623  25.043  27.571  1.00  0.00     0.031 A 
ATOM     64  C   UNL A   1      42.907  26.837  26.603  1.00  0.00     0.131 A 
ATOM     65  C   UNL A   1      42.042  24.212  26.523  1.00  0.00     0.055 A 
ATOM     66  C   UNL A   1      43.252  26.029  25.518  1.00  0.00     0.041 A 
ATOM     67  F   UNL A   1      43.401  28.086  26.629  1.00  0.00    -0.206 F 
ATOM     68  C   UNL A   1      42.832  24.703  25.480  1.00  0.00     0.022 A 
BRANCH  65  69
ATOM     69  S   UNL A   1      41.663  22.441  26.620  1.00  0.00     0.124 S 
ATOM     70  O   UNL A   1      42.341  21.931  25.430  1.00  0.00    -0.237 OA
ATOM     71  O   UNL A   1      42.250  22.063  27.900  1.00  0.00    -0.237 OA
ATOM     72  O   UNL A   1      40.204  22.399  26.563  1.00  0.00    -0.744 OA
ENDBRANCH  65  69
ENDBRANCH  48  62
BRANCH  49  73
ATOM     73  C   UNL A   1      39.294  32.142  35.337  1.00  0.00     0.023 A 
ATOM     74  C   UNL A   1      39.739  33.460  35.523  1.00  0.00     0.031 A 
ATOM     75  C   UNL A   1      38.448  31.587  36.313  1.00  0.00     0.131 A 
ATOM     76  C   UNL A   1      39.371  34.165  36.681  1.00  0.00     0.055 A 
ATOM     77  C   UNL A   1      38.044  32.309  37.437  1.00  0.00     0.041 A 
ATOM     78  F   UNL A   1      37.990  30.331  36.179  1.00  0.00    -0.206 F 
ATOM     79  C   UNL A   1      38.518  33.603  37.632  1.00  0.00     0.022 A 
BRANCH  76  80
ATOM     80  S   UNL A   1      40.094  35.804  36.964  1.00  0.00     0.124 S 
ATOM     81  O   UNL A   1      39.601  36.547  35.809  1.00  0.00    -0.237 OA
ATOM     82  O   UNL A   1      39.522  36.169  38.255  1.00  0.00    -0.237 OA
ATOM     83  O   UNL A   1      41.533  35.544  36.972  1.00  0.00    -0.744 OA
ENDBRANCH  76  80
ENDBRANCH  49  73
BRANCH  61  84
ATOM     84  C   UNL A   1      44.734  27.922  34.206  1.00  0.00     0.023 A 
ATOM     85  C   UNL A   1      44.757  26.833  35.095  1.00  0.00     0.031 A 
ATOM     86  C   UNL A   1      45.895  28.706  34.085  1.00  0.00     0.131 A 
ATOM     87  C   UNL A   1      45.908  26.582  35.858  1.00  0.00     0.055 A 
ATOM     88  C   UNL A   1      47.053  28.421  34.809  1.00  0.00     0.041 A 
ATOM     89  F   UNL A   1      45.924  29.757  33.251  1.00  0.00    -0.206 F 
ATOM     90  C   UNL A   1      47.060  27.359  35.709  1.00  0.00     0.022 A 
BRANCH  87  91
ATOM     91  S   UNL A   1      45.864  25.256  37.095  1.00  0.00     0.124 S 
ATOM     92  O   UNL A   1      45.305  25.941  38.256  1.00  0.00    -0.237 OA
ATOM     93  O   UNL A   1      44.999  24.265  36.462  1.00  0.00    -0.237 OA
ATOM     94  O   UNL A   1      47.265  24.860  37.223  1.00  0.00    -0.744 OA
ENDBRANCH  87  91
ENDBRANCH  61  84
ENDBRANCH  35  36
ENDBRANCH  27  30
ENDBRANCH  25  26
ENDBRANCH   1  25
TORSDOF 16
ENDMDL
MODEL 2
REMARK VINA RESULT:     -11.9      5.070     10.030
REMARK SMILES O=C(C[N@@H+]1C[C@@]2([N+](=O)[O-])CC=C(Cl)[C@@]([N+](=O)[O-])(C1)C2)NCCCNC(=O)c1ccc(-c2c3nc(c(-c4cc(S(=O)(=O)[O-])ccc4F)c4ccc([nH]4)c(-c4cc(S(=O)(=O)[O-])ccc4F)c4nc(c(-c5cc(S(=O)(=O)[O-])ccc5F)c5ccc2[nH]5)C=C4)C=C3)cc1
REMARK SMILES IDX 22 1 21 2 20 3 1 4 2 5 3 7 4 8 5 9 18 10 6 12 14 13 10 14
REMARK SMILES IDX 19 15 12 16 11 17 13 18 7 19 8 20 9 21 15 22 16 23 17 24
REMARK SMILES IDX 23 25 24 26 25 27 26 29 27 30 28 31 89 32 29 33 88 34 30 35
REMARK SMILES IDX 31 36 32 37 82 38 33 39 87 40 81 41 83 42 34 43 86 44 80 45
REMARK SMILES IDX 79 46 35 48 67 49 47 50 66 51 48 52 51 53 65 54 84 55 49 56
REMARK SMILES IDX 50 57 64 59 85 60 52 61 36 62 37 63 45 64 38 65 44 66 46 67
REMARK SMILES IDX 43 68 39 69 40 70 41 71 42 72 68 73 69 74 77 75 70 76 76 77
REMARK SMILES IDX 78 78 75 79 71 80 72 81 73 82 74 83 53 84 54 85 62 86 55 87
REMARK SMILES IDX 61 88 63 89 60 90 56 91 57 92 58 93 59 94
REMARK H PARENT 20 6 4 11 24 28 83 47 51 58
REMARK Flexibility Score: inf
ROOT
ATOM      1  C   UNL A   1      34.838  22.222  24.845  1.00  0.00     0.042 C 
ENDROOT
BRANCH   1   2
ATOM      2  C   UNL A   1      33.631  22.045  25.755  1.00  0.00     0.118 C 
BRANCH   2   3
ATOM      3  N   UNL A   1      32.858  23.263  25.891  1.00  0.00    -0.351 N 
ATOM      4  O   UNL A   1      30.789  22.249  25.903  1.00  0.00    -0.269 OA
ATOM      5  C   UNL A   1      31.482  23.254  26.025  1.00  0.00     0.275 C 
ATOM      6  H   UNL A   1      33.329  24.128  25.888  1.00  0.00     0.163 HD
BRANCH   5   7
ATOM      7  C   UNL A   1      30.917  24.619  26.441  1.00  0.00     0.363 C 
BRANCH   7   8
ATOM      8  N   UNL A   1      31.402  25.702  25.549  1.00  0.00    -0.315 N 
ATOM      9  C   UNL A   1      32.035  26.778  26.339  1.00  0.00     0.350 C 
ATOM     10  C   UNL A   1      30.353  26.228  24.633  1.00  0.00     0.356 C 
ATOM     11  H   UNL A   1      32.108  25.290  24.939  1.00  0.00     0.348 HD
ATOM     12  C   UNL A   1      32.539  27.958  25.473  1.00  0.00     0.280 C 
ATOM     13  C   UNL A   1      30.874  27.374  23.729  1.00  0.00     0.311 C 
ATOM     14  C   UNL A   1      33.709  27.588  24.523  1.00  0.00     0.121 C 
ATOM     15  C   UNL A   1      31.373  28.517  24.639  1.00  0.00     0.191 C 
ATOM     16  C   UNL A   1      31.999  26.872  22.837  1.00  0.00     0.097 C 
ATOM     17  C   UNL A   1      33.287  26.974  23.209  1.00  0.00     0.004 C 
ATOM     18  Cl  UNL A   1      31.611  26.043  21.370  1.00  0.00    -0.081 Cl
BRANCH  12  19
ATOM     19  N   UNL A   1      33.028  29.008  26.459  1.00  0.00     0.032 N 
ATOM     20  O   UNL A   1      33.538  28.612  27.515  1.00  0.00    -0.264 OA
ATOM     21  O   UNL A   1      32.832  30.196  26.172  1.00  0.00    -0.264 OA
ENDBRANCH  12  19
BRANCH  13  22
ATOM     22  N   UNL A   1      29.736  27.925  22.878  1.00  0.00     0.038 N 
ATOM     23  O   UNL A   1      28.586  27.533  23.123  1.00  0.00    -0.263 OA
ATOM     24  O   UNL A   1      30.029  28.759  22.009  1.00  0.00    -0.263 OA
ENDBRANCH  13  22
ENDBRANCH   7   8
ENDBRANCH   5   7
ENDBRANCH   2   3
ENDBRANCH   1   2
BRANCH   1  25
ATOM     25  C   UNL A   1      36.166  22.437  25.567  1.00  0.00     0.118 C 
BRANCH  25  26
ATOM     26  N   UNL A   1      37.088  21.317  25.457  1.00  0.00    -0.352 N 
ATOM     27  C   UNL A   1      38.434  21.294  25.751  1.00  0.00     0.251 C 
ATOM     28  H   UNL A   1      36.703  20.472  25.131  1.00  0.00     0.163 HD
ATOM     29  O   UNL A   1      39.112  20.308  25.479  1.00  0.00    -0.269 OA
BRANCH  27  30
ATOM     30  C   UNL A   1      39.063  22.489  26.357  1.00  0.00     0.039 A 
ATOM     31  C   UNL A   1      40.138  22.322  27.233  1.00  0.00     0.014 A 
ATOM     32  C   UNL A   1      38.627  23.772  26.013  1.00  0.00     0.014 A 
ATOM     33  C   UNL A   1      40.838  23.443  27.692  1.00  0.00     0.010 A 
ATOM     34  C   UNL A   1      39.365  24.881  26.418  1.00  0.00     0.010 A 
ATOM     35  C   UNL A   1      40.487  24.728  27.249  1.00  0.00    -0.014 A 
BRANCH  35  36
ATOM     36  C   UNL A   1      41.280  25.932  27.621  1.00  0.00     0.031 A 
ATOM     37  C   UNL A   1      40.639  27.030  28.423  1.00  0.00     0.074 A 
ATOM     38  C   UNL A   1      42.534  26.083  27.151  1.00  0.00     0.049 A 
ATOM     39  N   UNL A   1      41.086  28.228  28.696  1.00  0.00    -0.248 NA
ATOM     40  C   UNL A   1      39.300  26.749  28.959  1.00  0.00     0.031 C 
ATOM     41  C   UNL A   1      43.261  25.103  26.343  1.00  0.00     0.029 A 
ATOM     42  N   UNL A   1      43.414  27.132  27.266  1.00  0.00    -0.354 N 
ATOM     43  C   UNL A   1      40.074  28.856  29.415  1.00  0.00     0.074 A 
ATOM     44  C   UNL A   1      38.973  27.917  29.490  1.00  0.00     0.031 C 
ATOM     45  C   UNL A   1      44.475  25.592  26.041  1.00  0.00     0.029 A 
ATOM     46  C   UNL A   1      44.596  26.940  26.586  1.00  0.00     0.049 A 
ATOM     47  H   UNL A   1      43.218  27.945  27.784  1.00  0.00     0.167 HD
ATOM     48  C   UNL A   1      40.070  30.092  29.971  1.00  0.00     0.034 A 
ATOM     49  C   UNL A   1      45.646  27.766  26.398  1.00  0.00     0.034 A 
ATOM     50  C   UNL A   1      41.184  31.008  29.905  1.00  0.00     0.049 A 
ATOM     51  C   UNL A   1      45.613  29.144  27.008  1.00  0.00     0.074 A 
ATOM     52  C   UNL A   1      41.302  32.265  30.473  1.00  0.00     0.029 A 
ATOM     53  N   UNL A   1      42.373  30.765  29.229  1.00  0.00    -0.354 N 
ATOM     54  N   UNL A   1      44.656  29.717  27.701  1.00  0.00    -0.248 NA
ATOM     55  C   UNL A   1      46.801  29.986  26.816  1.00  0.00     0.031 C 
ATOM     56  C   UNL A   1      42.536  32.805  30.092  1.00  0.00     0.029 A 
ATOM     57  C   UNL A   1      43.218  31.858  29.347  1.00  0.00     0.049 A 
ATOM     58  H   UNL A   1      42.584  29.939  28.737  1.00  0.00     0.167 HD
ATOM     59  C   UNL A   1      45.146  30.969  28.062  1.00  0.00     0.074 A 
ATOM     60  C   UNL A   1      46.480  31.070  27.508  1.00  0.00     0.031 C 
ATOM     61  C   UNL A   1      44.550  31.942  28.795  1.00  0.00     0.034 A 
BRANCH  48  62
ATOM     62  C   UNL A   1      38.808  30.533  30.673  1.00  0.00     0.023 A 
ATOM     63  C   UNL A   1      37.715  31.061  29.964  1.00  0.00     0.031 A 
ATOM     64  C   UNL A   1      38.706  30.453  32.073  1.00  0.00     0.131 A 
ATOM     65  C   UNL A   1      36.606  31.564  30.660  1.00  0.00     0.055 A 
ATOM     66  C   UNL A   1      37.564  30.878  32.754  1.00  0.00     0.041 A 
ATOM     67  F   UNL A   1      39.725  29.977  32.807  1.00  0.00    -0.206 F 
ATOM     68  C   UNL A   1      36.510  31.453  32.049  1.00  0.00     0.022 A 
BRANCH  65  69
ATOM     69  S   UNL A   1      35.359  32.501  29.735  1.00  0.00     0.124 S 
ATOM     70  O   UNL A   1      34.993  31.549  28.688  1.00  0.00    -0.237 OA
ATOM     71  O   UNL A   1      34.341  32.757  30.748  1.00  0.00    -0.237 OA
ATOM     72  O   UNL A   1      36.089  33.678  29.269  1.00  0.00    -0.744 OA
ENDBRANCH  65  69
ENDBRANCH  48  62
BRANCH  49  73
ATOM     73  C   UNL A   1      46.813  27.326  25.581  1.00  0.00     0.023 A 
ATOM     74  C   UNL A   1      46.997  27.801  24.273  1.00  0.00     0.031 A 
ATOM     75  C   UNL A   1      47.740  26.394  26.081  1.00  0.00     0.131 A 
ATOM     76  C   UNL A   1      48.057  27.309  23.493  1.00  0.00     0.055 A 
ATOM     77  C   UNL A   1      48.821  25.947  25.320  1.00  0.00     0.041 A 
ATOM     78  F   UNL A   1      47.612  25.914  27.329  1.00  0.00    -0.206 F 
ATOM     79  C   UNL A   1      48.976  26.395  24.012  1.00  0.00     0.022 A 
BRANCH  76  80
ATOM     80  S   UNL A   1      48.167  27.824  21.758  1.00  0.00     0.124 S 
ATOM     81  O   UNL A   1      49.365  28.657  21.772  1.00  0.00    -0.237 OA
ATOM     82  O   UNL A   1      48.284  26.544  21.069  1.00  0.00    -0.237 OA
ATOM     83  O   UNL A   1      46.911  28.538  21.534  1.00  0.00    -0.744 OA
ENDBRANCH  76  80
ENDBRANCH  49  73
BRANCH  61  84
ATOM     84  C   UNL A   1      45.366  33.173  29.103  1.00  0.00     0.023 A 
ATOM     85  C   UNL A   1      45.360  34.301  28.265  1.00  0.00     0.031 A 
ATOM     86  C   UNL A   1      46.151  33.214  30.269  1.00  0.00     0.131 A 
ATOM     87  C   UNL A   1      46.157  35.410  28.586  1.00  0.00     0.055 A 
ATOM     88  C   UNL A   1      46.904  34.338  30.608  1.00  0.00     0.041 A 
ATOM     89  F   UNL A   1      46.192  32.162  31.101  1.00  0.00    -0.206 F 
ATOM     90  C   UNL A   1      46.916  35.442  29.759  1.00  0.00     0.022 A 
BRANCH  87  91
ATOM     91  S   UNL A   1      46.236  36.797  27.419  1.00  0.00     0.124 S 
ATOM     92  O   UNL A   1      47.154  37.709  28.093  1.00  0.00    -0.237 OA
ATOM     93  O   UNL A   1      46.745  36.160  26.209  1.00  0.00    -0.237 OA
ATOM     94  O   UNL A   1      44.851  37.257  27.339  1.00  0.00    -0.744 OA
ENDBRANCH  87  91
ENDBRANCH  61  84
ENDBRANCH  35  36
ENDBRANCH  27  30
ENDBRANCH  25  26
ENDBRANCH   1  25
TORSDOF 16
ENDMDL
MODEL 3
REMARK VINA RESULT:     -11.9      2.642      3.814
REMARK SMILES O=C(C[N@@H+]1C[C@@]2([N+](=O)[O-])CC=C(Cl)[C@@]([N+](=O)[O-])(C1)C2)NCCCNC(=O)c1ccc(-c2c3nc(c(-c4cc(S(=O)(=O)[O-])ccc4F)c4ccc([nH]4)c(-c4cc(S(=O)(=O)[O-])ccc4F)c4nc(c(-c5cc(S(=O)(=O)[O-])ccc5F)c5ccc2[nH]5)C=C4)C=C3)cc1
REMARK SMILES IDX 22 1 21 2 20 3 1 4 2 5 3 7 4 8 5 9 18 10 6 12 14 13 10 14
REMARK SMILES IDX 19 15 12 16 11 17 13 18 7 19 8 20 9 21 15 22 16 23 17 24
REMARK SMILES IDX 23 25 24 26 25 27 26 29 27 30 28 31 89 32 29 33 88 34 30 35
REMARK SMILES IDX 31 36 32 37 82 38 33 39 87 40 81 41 83 42 34 43 86 44 80 45
REMARK SMILES IDX 79 46 35 48 67 49 47 50 66 51 48 52 51 53 65 54 84 55 49 56
REMARK SMILES IDX 50 57 64 59 85 60 52 61 36 62 37 63 45 64 38 65 44 66 46 67
REMARK SMILES IDX 43 68 39 69 40 70 41 71 42 72 68 73 69 74 77 75 70 76 76 77
REMARK SMILES IDX 78 78 75 79 71 80 72 81 73 82 74 83 53 84 54 85 62 86 55 87
REMARK SMILES IDX 61 88 63 89 60 90 56 91 57 92 58 93 59 94
REMARK H PARENT 20 6 4 11 24 28 83 47 51 58
REMARK Flexibility Score: inf
ROOT
ATOM      1  C   UNL A   1      32.211  30.764  26.979  1.00  0.00     0.042 C 
ENDROOT
BRANCH   1   2
ATOM      2  C   UNL A   1      31.345  31.144  25.787  1.00  0.00     0.118 C 
BRANCH   2   3
ATOM      3  N   UNL A   1      31.185  30.051  24.849  1.00  0.00    -0.351 N 
ATOM      4  O   UNL A   1      29.283  30.864  23.834  1.00  0.00    -0.269 OA
ATOM      5  C   UNL A   1      30.188  30.040  23.890  1.00  0.00     0.275 C 
ATOM      6  H   UNL A   1      31.807  29.290  24.896  1.00  0.00     0.163 HD
BRANCH   5   7
ATOM      7  C   UNL A   1      30.390  28.940  22.838  1.00  0.00     0.363 C 
BRANCH   7   8
ATOM      8  N   UNL A   1      31.199  27.817  23.375  1.00  0.00    -0.315 N 
ATOM      9  C   UNL A   1      31.798  27.038  22.272  1.00  0.00     0.350 C 
ATOM     10  C   UNL A   1      30.449  26.950  24.325  1.00  0.00     0.356 C 
ATOM     11  H   UNL A   1      31.951  28.230  23.926  1.00  0.00     0.348 HD
ATOM     12  C   UNL A   1      32.633  25.829  22.759  1.00  0.00     0.280 C 
ATOM     13  C   UNL A   1      31.304  25.770  24.853  1.00  0.00     0.311 C 
ATOM     14  C   UNL A   1      33.912  26.223  23.547  1.00  0.00     0.121 C 
ATOM     15  C   UNL A   1      31.758  24.925  23.644  1.00  0.00     0.191 C 
ATOM     16  C   UNL A   1      32.508  26.294  25.621  1.00  0.00     0.097 C 
ATOM     17  C   UNL A   1      33.691  26.497  25.016  1.00  0.00     0.004 C 
ATOM     18  Cl  UNL A   1      32.321  26.753  27.278  1.00  0.00    -0.081 Cl
BRANCH  12  19
ATOM     19  N   UNL A   1      33.049  25.086  21.499  1.00  0.00     0.032 N 
ATOM     20  O   UNL A   1      32.987  25.696  20.424  1.00  0.00    -0.264 OA
ATOM     21  O   UNL A   1      33.370  23.896  21.618  1.00  0.00    -0.264 OA
ENDBRANCH  12  19
BRANCH  13  22
ATOM     22  N   UNL A   1      30.458  24.874  25.751  1.00  0.00     0.038 N 
ATOM     23  O   UNL A   1      29.522  25.396  26.373  1.00  0.00    -0.263 OA
ATOM     24  O   UNL A   1      30.742  23.668  25.779  1.00  0.00    -0.263 OA
ENDBRANCH  13  22
ENDBRANCH   7   8
ENDBRANCH   5   7
ENDBRANCH   2   3
ENDBRANCH   1   2
BRANCH   1  25
ATOM     25  C   UNL A   1      33.324  31.754  27.311  1.00  0.00     0.118 C 
BRANCH  25  26
ATOM     26  N   UNL A   1      32.864  33.121  27.500  1.00  0.00    -0.352 N 
ATOM     27  C   UNL A   1      33.308  34.047  28.419  1.00  0.00     0.251 C 
ATOM     28  H   UNL A   1      32.145  33.421  26.899  1.00  0.00     0.163 HD
ATOM     29  O   UNL A   1      32.729  35.121  28.549  1.00  0.00    -0.269 OA
BRANCH  27  30
ATOM     30  C   UNL A   1      34.466  33.713  29.280  1.00  0.00     0.039 A 
ATOM     31  C   UNL A   1      34.279  32.865  30.373  1.00  0.00     0.014 A 
ATOM     32  C   UNL A   1      35.742  34.191  28.968  1.00  0.00     0.014 A 
ATOM     33  C   UNL A   1      35.387  32.419  31.101  1.00  0.00     0.010 A 
ATOM     34  C   UNL A   1      36.849  33.695  29.653  1.00  0.00     0.010 A 
ATOM     35  C   UNL A   1      36.685  32.792  30.717  1.00  0.00    -0.014 A 
BRANCH  35  36
ATOM     36  C   UNL A   1      37.893  32.244  31.392  1.00  0.00     0.031 A 
ATOM     37  C   UNL A   1      38.661  31.121  30.752  1.00  0.00     0.074 A 
ATOM     38  C   UNL A   1      38.236  32.683  32.619  1.00  0.00     0.049 A 
ATOM     39  N   UNL A   1      39.622  30.385  31.247  1.00  0.00    -0.248 NA
ATOM     40  C   UNL A   1      38.267  30.759  29.383  1.00  0.00     0.031 C 
ATOM     41  C   UNL A   1      37.559  33.751  33.357  1.00  0.00     0.029 A 
ATOM     42  N   UNL A   1      39.228  32.269  33.475  1.00  0.00    -0.354 N 
ATOM     43  C   UNL A   1      39.933  29.454  30.261  1.00  0.00     0.074 A 
ATOM     44  C   UNL A   1      39.021  29.692  29.161  1.00  0.00     0.031 C 
ATOM     45  C   UNL A   1      38.157  33.912  34.549  1.00  0.00     0.029 A 
ATOM     46  C   UNL A   1      39.225  32.926  34.684  1.00  0.00     0.049 A 
ATOM     47  H   UNL A   1      39.879  31.568  33.245  1.00  0.00     0.167 HD
ATOM     48  C   UNL A   1      40.897  28.500  30.268  1.00  0.00     0.034 A 
ATOM     49  C   UNL A   1      39.977  32.738  35.789  1.00  0.00     0.034 A 
ATOM     50  C   UNL A   1      41.811  28.290  31.365  1.00  0.00     0.049 A 
ATOM     51  C   UNL A   1      41.030  31.659  35.783  1.00  0.00     0.074 A 
ATOM     52  C   UNL A   1      42.854  27.383  31.456  1.00  0.00     0.029 A 
ATOM     53  N   UNL A   1      41.792  28.993  32.562  1.00  0.00    -0.354 N 
ATOM     54  N   UNL A   1      41.324  30.799  34.836  1.00  0.00    -0.248 NA
ATOM     55  C   UNL A   1      41.854  31.527  36.992  1.00  0.00     0.031 C 
ATOM     56  C   UNL A   1      43.426  27.498  32.728  1.00  0.00     0.029 A 
ATOM     57  C   UNL A   1      42.789  28.525  33.405  1.00  0.00     0.049 A 
ATOM     58  H   UNL A   1      41.163  29.718  32.781  1.00  0.00     0.167 HD
ATOM     59  C   UNL A   1      42.396  30.053  35.320  1.00  0.00     0.074 A 
ATOM     60  C   UNL A   1      42.694  30.562  36.642  1.00  0.00     0.031 C 
ATOM     61  C   UNL A   1      43.079  29.047  34.720  1.00  0.00     0.034 A 
BRANCH  48  62
ATOM     62  C   UNL A   1      40.987  27.597  29.063  1.00  0.00     0.023 A 
ATOM     63  C   UNL A   1      41.981  27.769  28.083  1.00  0.00     0.031 A 
ATOM     64  C   UNL A   1      40.048  26.568  28.871  1.00  0.00     0.131 A 
ATOM     65  C   UNL A   1      41.964  26.983  26.922  1.00  0.00     0.055 A 
ATOM     66  C   UNL A   1      40.088  25.733  27.753  1.00  0.00     0.041 A 
ATOM     67  F   UNL A   1      39.062  26.368  29.761  1.00  0.00    -0.206 F 
ATOM     68  C   UNL A   1      41.040  25.948  26.761  1.00  0.00     0.022 A 
BRANCH  65  69
ATOM     69  S   UNL A   1      43.073  27.432  25.559  1.00  0.00     0.124 S 
ATOM     70  O   UNL A   1      43.421  26.118  25.020  1.00  0.00    -0.237 OA
ATOM     71  O   UNL A   1      42.219  28.261  24.717  1.00  0.00    -0.237 OA
ATOM     72  O   UNL A   1      44.169  28.134  26.224  1.00  0.00    -0.744 OA
ENDBRANCH  65  69
ENDBRANCH  48  62
BRANCH  49  73
ATOM     73  C   UNL A   1      39.754  33.574  37.003  1.00  0.00     0.023 A 
ATOM     74  C   UNL A   1      40.571  34.684  37.274  1.00  0.00     0.031 A 
ATOM     75  C   UNL A   1      38.749  33.252  37.931  1.00  0.00     0.131 A 
ATOM     76  C   UNL A   1      40.396  35.405  38.466  1.00  0.00     0.055 A 
ATOM     77  C   UNL A   1      38.546  34.004  39.090  1.00  0.00     0.041 A 
ATOM     78  F   UNL A   1      37.937  32.204  37.716  1.00  0.00    -0.206 F 
ATOM     79  C   UNL A   1      39.382  35.081  39.368  1.00  0.00     0.022 A 
BRANCH  76  80
ATOM     80  S   UNL A   1      41.571  36.731  38.856  1.00  0.00     0.124 S 
ATOM     81  O   UNL A   1      40.679  37.793  39.307  1.00  0.00    -0.237 OA
ATOM     82  O   UNL A   1      42.399  36.108  39.882  1.00  0.00    -0.237 OA
ATOM     83  O   UNL A   1      42.241  36.977  37.581  1.00  0.00    -0.744 OA
ENDBRANCH  76  80
ENDBRANCH  49  73
BRANCH  61  84
ATOM     84  C   UNL A   1      44.264  28.478  35.459  1.00  0.00     0.023 A 
ATOM     85  C   UNL A   1      44.126  27.464  36.423  1.00  0.00     0.031 A 
ATOM     86  C   UNL A   1      45.556  28.957  35.179  1.00  0.00     0.131 A 
ATOM     87  C   UNL A   1      45.259  26.989  37.100  1.00  0.00     0.055 A 
ATOM     88  C   UNL A   1      46.684  28.445  35.820  1.00  0.00     0.041 A 
ATOM     89  F   UNL A   1      45.741  29.925  34.268  1.00  0.00    -0.206 F 
ATOM     90  C   UNL A   1      46.537  27.461  36.793  1.00  0.00     0.022 A 
BRANCH  87  91
ATOM     91  S   UNL A   1      45.037  25.778  38.433  1.00  0.00     0.124 S 
ATOM     92  O   UNL A   1      44.343  24.694  37.746  1.00  0.00    -0.237 OA
ATOM     93  O   UNL A   1      46.412  25.499  38.836  1.00  0.00    -0.237 OA
ATOM     94  O   UNL A   1      44.237  26.499  39.421  1.00  0.00    -0.744 OA
ENDBRANCH  87  91
ENDBRANCH  61  84
ENDBRANCH  35  36
ENDBRANCH  27  30
ENDBRANCH  25  26
ENDBRANCH   1  25
TORSDOF 16
ENDMDL
