MODEL 1
REMARK VINA RESULT:     -11.9      0.000      0.000
REMARK SMILES Cc1ccc(F)cc1NC(=O)c1nn(C)cc1C(=O)NCCCNC(=O)c1ccc(-c2c3nc(c(-c4cc(S(=O)(=O)[O-])ccc4F)c4ccc([nH]4)c(-c4cc(S(=O)(=O)[O-])ccc4F)c4nc(c(-c5cc(S(=O)(=O)[O-])ccc5F)c5ccc2[nH]5)C=C4)C=C3)cc1
REMARK SMILES IDX 22 1 21 2 20 3 18 4 19 5 17 7 12 8 13 9 14 10 16 11 15 12
REMARK SMILES IDX 10 13 9 14 11 16 8 17 1 18 2 19 3 20 4 21 7 22 5 23 6 24
REMARK SMILES IDX 23 25 24 26 25 27 26 29 27 30 28 31 89 32 29 33 88 34 30 35
REMARK SMILES IDX 31 36 32 37 82 38 33 39 87 40 81 41 83 42 34 43 86 44 80 45
REMARK SMILES IDX 79 46 35 48 67 49 47 50 66 51 48 52 51 53 65 54 84 55 49 56
REMARK SMILES IDX 50 57 64 59 85 60 52 61 36 62 37 63 45 64 38 65 44 66 46 67
REMARK SMILES IDX 43 68 39 69 40 70 41 71 42 72 68 73 69 74 77 75 70 76 76 77
REMARK SMILES IDX 78 78 75 79 71 80 72 81 73 82 74 83 53 84 54 85 62 86 55 87
REMARK SMILES IDX 61 88 63 89 60 90 56 91 57 92 58 93 59 94
REMARK H PARENT 20 6 9 15 24 28 83 47 51 58
REMARK Flexibility Score: inf
ROOT
ATOM      1  C   UNL A   1      34.852  22.246  26.074  1.00  0.00     0.042 C 
ENDROOT
BRANCH   1   2
ATOM      2  C   UNL A   1      34.148  23.601  26.057  1.00  0.00     0.118 C 
BRANCH   2   3
ATOM      3  N   UNL A   1      32.817  23.584  26.637  1.00  0.00    -0.352 N 
ATOM      4  C   UNL A   1      31.792  24.494  26.707  1.00  0.00     0.255 C 
ATOM      5  O   UNL A   1      30.753  24.093  27.237  1.00  0.00    -0.269 OA
ATOM      6  H   UNL A   1      32.603  22.731  27.080  1.00  0.00     0.163 HD
BRANCH   4   7
ATOM      7  C   UNL A   1      31.898  25.864  26.224  1.00  0.00     0.090 A 
ATOM      8  C   UNL A   1      31.024  26.475  25.250  1.00  0.00     0.163 A 
ATOM      9  N   UNL A   1      31.376  27.752  25.001  1.00  0.00    -0.167 NA
ATOM     10  N   UNL A   1      32.431  27.964  25.789  1.00  0.00    -0.274 N 
ATOM     11  C   UNL A   1      32.806  26.868  26.508  1.00  0.00     0.123 A 
ATOM     12  C   UNL A   1      33.042  29.271  25.818  1.00  0.00     0.173 C 
BRANCH   8  13
ATOM     13  C   UNL A   1      29.874  25.894  24.547  1.00  0.00     0.277 C 
ATOM     14  N   UNL A   1      30.032  24.915  23.584  1.00  0.00    -0.320 N 
ATOM     15  H   UNL A   1      29.190  24.670  23.137  1.00  0.00     0.170 HD
ATOM     16  O   UNL A   1      28.720  26.265  24.786  1.00  0.00    -0.267 OA
BRANCH  14  17
ATOM     17  C   UNL A   1      31.144  24.193  23.109  1.00  0.00     0.047 A 
ATOM     18  C   UNL A   1      31.900  26.218  21.681  1.00  0.00     0.046 C 
ATOM     19  C   UNL A   1      32.070  24.833  22.253  1.00  0.00    -0.027 A 
ATOM     20  C   UNL A   1      33.247  24.151  21.874  1.00  0.00     0.008 A 
ATOM     21  C   UNL A   1      33.498  22.854  22.310  1.00  0.00     0.039 A 
ATOM     22  C   UNL A   1      31.372  22.858  23.456  1.00  0.00     0.065 A 
ATOM     23  C   UNL A   1      32.545  22.213  23.080  1.00  0.00     0.125 A 
ATOM     24  F   UNL A   1      32.757  20.953  23.480  1.00  0.00    -0.207 F 
ENDBRANCH  14  17
ENDBRANCH   8  13
ENDBRANCH   4   7
ENDBRANCH   2   3
ENDBRANCH   1   2
BRANCH   1  25
ATOM     25  C   UNL A   1      35.931  22.068  25.004  1.00  0.00     0.118 C 
BRANCH  25  26
ATOM     26  N   UNL A   1      36.917  21.057  25.364  1.00  0.00    -0.352 N 
ATOM     27  C   UNL A   1      38.238  21.142  25.720  1.00  0.00     0.251 C 
ATOM     28  H   UNL A   1      36.566  20.137  25.347  1.00  0.00     0.163 HD
ATOM     29  O   UNL A   1      38.898  20.103  25.732  1.00  0.00    -0.269 OA
BRANCH  27  30
ATOM     30  C   UNL A   1      38.887  22.424  26.084  1.00  0.00     0.039 A 
ATOM     31  C   UNL A   1      40.143  22.378  26.704  1.00  0.00     0.014 A 
ATOM     32  C   UNL A   1      38.252  23.658  25.923  1.00  0.00     0.014 A 
ATOM     33  C   UNL A   1      40.772  23.557  27.114  1.00  0.00     0.010 A 
ATOM     34  C   UNL A   1      38.910  24.841  26.271  1.00  0.00     0.010 A 
ATOM     35  C   UNL A   1      40.176  24.805  26.876  1.00  0.00    -0.014 A 
BRANCH  35  36
ATOM     36  C   UNL A   1      40.876  26.067  27.248  1.00  0.00     0.031 A 
ATOM     37  C   UNL A   1      42.271  26.348  26.753  1.00  0.00     0.074 A 
ATOM     38  C   UNL A   1      40.264  26.941  28.071  1.00  0.00     0.049 A 
ATOM     39  N   UNL A   1      43.042  27.379  26.995  1.00  0.00    -0.248 NA
ATOM     40  C   UNL A   1      42.892  25.327  25.897  1.00  0.00     0.031 C 
ATOM     41  C   UNL A   1      38.935  26.755  28.662  1.00  0.00     0.029 A 
ATOM     42  N   UNL A   1      40.674  28.156  28.562  1.00  0.00    -0.354 N 
ATOM     43  C   UNL A   1      44.242  27.124  26.340  1.00  0.00     0.074 A 
ATOM     44  C   UNL A   1      44.111  25.819  25.727  1.00  0.00     0.031 C 
ATOM     45  C   UNL A   1      38.634  27.823  29.417  1.00  0.00     0.029 A 
ATOM     46  C   UNL A   1      39.758  28.755  29.397  1.00  0.00     0.049 A 
ATOM     47  H   UNL A   1      41.543  28.561  28.337  1.00  0.00     0.167 HD
ATOM     48  C   UNL A   1      45.343  27.911  26.246  1.00  0.00     0.034 A 
ATOM     49  C   UNL A   1      39.817  29.916  30.077  1.00  0.00     0.034 A 
ATOM     50  C   UNL A   1      45.449  29.223  26.840  1.00  0.00     0.049 A 
ATOM     51  C   UNL A   1      41.040  30.785  29.931  1.00  0.00     0.074 A 
ATOM     52  C   UNL A   1      46.485  30.136  26.732  1.00  0.00     0.029 A 
ATOM     53  N   UNL A   1      44.492  29.807  27.658  1.00  0.00    -0.354 N 
ATOM     54  N   UNL A   1      42.135  30.559  29.241  1.00  0.00    -0.248 NA
ATOM     55  C   UNL A   1      41.027  32.071  30.639  1.00  0.00     0.031 C 
ATOM     56  C   UNL A   1      46.183  31.242  27.535  1.00  0.00     0.029 A 
ATOM     57  C   UNL A   1      44.927  31.053  28.089  1.00  0.00     0.049 A 
ATOM     58  H   UNL A   1      43.629  29.398  27.898  1.00  0.00     0.167 HD
ATOM     59  C   UNL A   1      42.931  31.687  29.418  1.00  0.00     0.074 A 
ATOM     60  C   UNL A   1      42.178  32.600  30.253  1.00  0.00     0.031 C 
ATOM     61  C   UNL A   1      44.175  31.946  28.938  1.00  0.00     0.034 A 
BRANCH  48  62
ATOM     62  C   UNL A   1      46.534  27.367  25.493  1.00  0.00     0.023 A 
ATOM     63  C   UNL A   1      46.885  27.838  24.215  1.00  0.00     0.031 A 
ATOM     64  C   UNL A   1      47.337  26.364  26.067  1.00  0.00     0.131 A 
ATOM     65  C   UNL A   1      47.969  27.266  23.530  1.00  0.00     0.055 A 
ATOM     66  C   UNL A   1      48.457  25.849  25.410  1.00  0.00     0.041 A 
ATOM     67  F   UNL A   1      47.042  25.861  27.276  1.00  0.00    -0.206 F 
ATOM     68  C   UNL A   1      48.772  26.292  24.129  1.00  0.00     0.022 A 
BRANCH  65  69
ATOM     69  S   UNL A   1      48.248  27.733  21.800  1.00  0.00     0.124 S 
ATOM     70  O   UNL A   1      47.022  28.467  21.493  1.00  0.00    -0.237 OA
ATOM     71  O   UNL A   1      49.467  28.530  21.881  1.00  0.00    -0.237 OA
ATOM     72  O   UNL A   1      48.385  26.449  21.116  1.00  0.00    -0.744 OA
ENDBRANCH  65  69
ENDBRANCH  48  62
BRANCH  49  73
ATOM     73  C   UNL A   1      38.694  30.330  30.968  1.00  0.00     0.023 A 
ATOM     74  C   UNL A   1      37.604  31.060  30.472  1.00  0.00     0.031 A 
ATOM     75  C   UNL A   1      38.724  30.041  32.344  1.00  0.00     0.131 A 
ATOM     76  C   UNL A   1      36.614  31.526  31.353  1.00  0.00     0.055 A 
ATOM     77  C   UNL A   1      37.709  30.460  33.207  1.00  0.00     0.041 A 
ATOM     78  F   UNL A   1      39.739  29.339  32.870  1.00  0.00    -0.206 F 
ATOM     79  C   UNL A   1      36.654  31.221  32.715  1.00  0.00     0.022 A 
BRANCH  76  80
ATOM     80  S   UNL A   1      35.321  32.621  30.704  1.00  0.00     0.124 S 
ATOM     81  O   UNL A   1      36.065  33.851  30.463  1.00  0.00    -0.237 OA
ATOM     82  O   UNL A   1      34.879  31.895  29.519  1.00  0.00    -0.237 OA
ATOM     83  O   UNL A   1      34.349  32.681  31.794  1.00  0.00    -0.744 OA
ENDBRANCH  76  80
ENDBRANCH  49  73
BRANCH  61  84
ATOM     84  C   UNL A   1      44.773  33.285  29.289  1.00  0.00     0.023 A 
ATOM     85  C   UNL A   1      44.583  34.413  28.471  1.00  0.00     0.031 A 
ATOM     86  C   UNL A   1      45.575  33.427  30.435  1.00  0.00     0.131 A 
ATOM     87  C   UNL A   1      45.242  35.614  28.771  1.00  0.00     0.055 A 
ATOM     88  C   UNL A   1      46.177  34.643  30.763  1.00  0.00     0.041 A 
ATOM     89  F   UNL A   1      45.792  32.384  31.252  1.00  0.00    -0.206 F 
ATOM     90  C   UNL A   1      46.026  35.740  29.921  1.00  0.00     0.022 A 
BRANCH  87  91
ATOM     91  S   UNL A   1      45.152  36.977  27.577  1.00  0.00     0.124 S 
ATOM     92  O   UNL A   1      45.399  38.139  28.425  1.00  0.00    -0.237 OA
ATOM     93  O   UNL A   1      46.212  36.637  26.636  1.00  0.00    -0.237 OA
ATOM     94  O   UNL A   1      43.794  36.877  27.045  1.00  0.00    -0.744 OA
ENDBRANCH  87  91
ENDBRANCH  61  84
ENDBRANCH  35  36
ENDBRANCH  27  30
ENDBRANCH  25  26
ENDBRANCH   1  25
TORSDOF 15
ENDMDL
MODEL 2
REMARK VINA RESULT:     -11.9      5.043      9.476
REMARK SMILES Cc1ccc(F)cc1NC(=O)c1nn(C)cc1C(=O)NCCCNC(=O)c1ccc(-c2c3nc(c(-c4cc(S(=O)(=O)[O-])ccc4F)c4ccc([nH]4)c(-c4cc(S(=O)(=O)[O-])ccc4F)c4nc(c(-c5cc(S(=O)(=O)[O-])ccc5F)c5ccc2[nH]5)C=C4)C=C3)cc1
REMARK SMILES IDX 22 1 21 2 20 3 18 4 19 5 17 7 12 8 13 9 14 10 16 11 15 12
REMARK SMILES IDX 10 13 9 14 11 16 8 17 1 18 2 19 3 20 4 21 7 22 5 23 6 24
REMARK SMILES IDX 23 25 24 26 25 27 26 29 27 30 28 31 89 32 29 33 88 34 30 35
REMARK SMILES IDX 31 36 32 37 82 38 33 39 87 40 81 41 83 42 34 43 86 44 80 45
REMARK SMILES IDX 79 46 35 48 67 49 47 50 66 51 48 52 51 53 65 54 84 55 49 56
REMARK SMILES IDX 50 57 64 59 85 60 52 61 36 62 37 63 45 64 38 65 44 66 46 67
REMARK SMILES IDX 43 68 39 69 40 70 41 71 42 72 68 73 69 74 77 75 70 76 76 77
REMARK SMILES IDX 78 78 75 79 71 80 72 81 73 82 74 83 53 84 54 85 62 86 55 87
REMARK SMILES IDX 61 88 63 89 60 90 56 91 57 92 58 93 59 94
REMARK H PARENT 20 6 9 15 24 28 83 47 51 58
REMARK Flexibility Score: inf
ROOT
ATOM      1  C   UNL A   1      32.982  27.866  26.892  1.00  0.00     0.042 C 
ENDROOT
BRANCH   1   2
ATOM      2  C   UNL A   1      31.735  27.340  26.184  1.00  0.00     0.118 C 
BRANCH   2   3
ATOM      3  N   UNL A   1      31.276  26.052  26.670  1.00  0.00    -0.352 N 
ATOM      4  C   UNL A   1      31.743  24.765  26.559  1.00  0.00     0.255 C 
ATOM      5  O   UNL A   1      31.108  23.908  27.178  1.00  0.00    -0.269 OA
ATOM      6  H   UNL A   1      30.446  26.113  27.195  1.00  0.00     0.163 HD
BRANCH   4   7
ATOM      7  C   UNL A   1      32.892  24.394  25.745  1.00  0.00     0.090 A 
ATOM      8  C   UNL A   1      32.838  24.003  24.355  1.00  0.00     0.163 A 
ATOM      9  N   UNL A   1      34.063  23.713  23.874  1.00  0.00    -0.167 NA
ATOM     10  N   UNL A   1      34.881  23.915  24.909  1.00  0.00    -0.274 N 
ATOM     11  C   UNL A   1      34.236  24.284  26.051  1.00  0.00     0.123 A 
ATOM     12  C   UNL A   1      36.303  23.746  24.730  1.00  0.00     0.173 C 
BRANCH   8  13
ATOM     13  C   UNL A   1      31.671  23.893  23.471  1.00  0.00     0.277 C 
ATOM     14  N   UNL A   1      31.159  24.991  22.807  1.00  0.00    -0.320 N 
ATOM     15  H   UNL A   1      30.331  24.795  22.312  1.00  0.00     0.170 HD
ATOM     16  O   UNL A   1      31.098  22.814  23.295  1.00  0.00    -0.267 OA
BRANCH  14  17
ATOM     17  C   UNL A   1      31.573  26.333  22.688  1.00  0.00     0.047 A 
ATOM     18  C   UNL A   1      29.220  27.163  23.385  1.00  0.00     0.046 C 
ATOM     19  C   UNL A   1      30.670  27.368  23.025  1.00  0.00    -0.027 A 
ATOM     20  C   UNL A   1      31.122  28.706  23.023  1.00  0.00     0.008 A 
ATOM     21  C   UNL A   1      32.430  29.023  22.673  1.00  0.00     0.039 A 
ATOM     22  C   UNL A   1      32.853  26.683  22.249  1.00  0.00     0.065 A 
ATOM     23  C   UNL A   1      33.276  28.008  22.269  1.00  0.00     0.125 A 
ATOM     24  F   UNL A   1      34.529  28.300  21.897  1.00  0.00    -0.207 F 
ENDBRANCH  14  17
ENDBRANCH   8  13
ENDBRANCH   4   7
ENDBRANCH   2   3
ENDBRANCH   1   2
BRANCH   1  25
ATOM     25  C   UNL A   1      33.815  28.858  26.079  1.00  0.00     0.118 C 
BRANCH  25  26
ATOM     26  N   UNL A   1      33.742  30.215  26.603  1.00  0.00    -0.352 N 
ATOM     27  C   UNL A   1      34.457  30.869  27.574  1.00  0.00     0.251 C 
ATOM     28  H   UNL A   1      33.046  30.768  26.180  1.00  0.00     0.163 HD
ATOM     29  O   UNL A   1      34.017  31.942  27.986  1.00  0.00    -0.269 OA
BRANCH  27  30
ATOM     30  C   UNL A   1      35.721  30.333  28.133  1.00  0.00     0.039 A 
ATOM     31  C   UNL A   1      36.874  30.393  27.338  1.00  0.00     0.014 A 
ATOM     32  C   UNL A   1      35.779  29.687  29.369  1.00  0.00     0.014 A 
ATOM     33  C   UNL A   1      38.079  29.853  27.799  1.00  0.00     0.010 A 
ATOM     34  C   UNL A   1      36.998  29.208  29.859  1.00  0.00     0.010 A 
ATOM     35  C   UNL A   1      38.161  29.280  29.077  1.00  0.00    -0.014 A 
BRANCH  35  36
ATOM     36  C   UNL A   1      39.459  28.768  29.600  1.00  0.00     0.031 A 
ATOM     37  C   UNL A   1      40.159  29.462  30.740  1.00  0.00     0.074 A 
ATOM     38  C   UNL A   1      40.029  27.698  29.012  1.00  0.00     0.049 A 
ATOM     39  N   UNL A   1      41.304  29.173  31.306  1.00  0.00    -0.248 NA
ATOM     40  C   UNL A   1      39.498  30.650  31.301  1.00  0.00     0.031 C 
ATOM     41  C   UNL A   1      39.479  26.974  27.862  1.00  0.00     0.029 A 
ATOM     42  N   UNL A   1      41.199  27.033  29.288  1.00  0.00    -0.354 N 
ATOM     43  C   UNL A   1      41.512  30.152  32.274  1.00  0.00     0.074 A 
ATOM     44  C   UNL A   1      40.393  31.067  32.186  1.00  0.00     0.031 C 
ATOM     45  C   UNL A   1      40.297  25.958  27.546  1.00  0.00     0.029 A 
ATOM     46  C   UNL A   1      41.449  25.976  28.442  1.00  0.00     0.049 A 
ATOM     47  H   UNL A   1      41.802  27.289  30.023  1.00  0.00     0.167 HD
ATOM     48  C   UNL A   1      42.531  30.266  33.162  1.00  0.00     0.034 A 
ATOM     49  C   UNL A   1      42.490  25.122  28.387  1.00  0.00     0.034 A 
ATOM     50  C   UNL A   1      43.626  29.328  33.256  1.00  0.00     0.049 A 
ATOM     51  C   UNL A   1      43.595  25.255  29.404  1.00  0.00     0.074 A 
ATOM     52  C   UNL A   1      44.662  29.305  34.175  1.00  0.00     0.029 A 
ATOM     53  N   UNL A   1      43.834  28.255  32.400  1.00  0.00    -0.354 N 
ATOM     54  N   UNL A   1      43.732  26.142  30.363  1.00  0.00    -0.248 NA
ATOM     55  C   UNL A   1      44.673  24.259  29.344  1.00  0.00     0.031 C 
ATOM     56  C   UNL A   1      45.529  28.259  33.835  1.00  0.00     0.029 A 
ATOM     57  C   UNL A   1      44.998  27.585  32.748  1.00  0.00     0.049 A 
ATOM     58  H   UNL A   1      43.241  28.006  31.654  1.00  0.00     0.167 HD
ATOM     59  C   UNL A   1      44.903  25.796  31.031  1.00  0.00     0.074 A 
ATOM     60  C   UNL A   1      45.414  24.605  30.385  1.00  0.00     0.031 C 
ATOM     61  C   UNL A   1      45.507  26.409  32.082  1.00  0.00     0.034 A 
BRANCH  48  62
ATOM     62  C   UNL A   1      42.527  31.459  34.088  1.00  0.00     0.023 A 
ATOM     63  C   UNL A   1      41.819  31.454  35.303  1.00  0.00     0.031 A 
ATOM     64  C   UNL A   1      43.250  32.618  33.752  1.00  0.00     0.131 A 
ATOM     65  C   UNL A   1      41.799  32.604  36.107  1.00  0.00     0.055 A 
ATOM     66  C   UNL A   1      43.285  33.734  34.592  1.00  0.00     0.041 A 
ATOM     67  F   UNL A   1      43.930  32.688  32.598  1.00  0.00    -0.206 F 
ATOM     68  C   UNL A   1      42.548  33.735  35.772  1.00  0.00     0.022 A 
BRANCH  65  69
ATOM     69  S   UNL A   1      40.692  32.642  37.543  1.00  0.00     0.124 S 
ATOM     70  O   UNL A   1      39.601  31.780  37.095  1.00  0.00    -0.237 OA
ATOM     71  O   UNL A   1      41.534  32.107  38.606  1.00  0.00    -0.237 OA
ATOM     72  O   UNL A   1      40.346  34.057  37.672  1.00  0.00    -0.744 OA
ENDBRANCH  65  69
ENDBRANCH  48  62
BRANCH  49  73
ATOM     73  C   UNL A   1      42.553  24.072  27.330  1.00  0.00     0.023 A 
ATOM     74  C   UNL A   1      41.746  22.926  27.396  1.00  0.00     0.031 A 
ATOM     75  C   UNL A   1      43.463  24.179  26.263  1.00  0.00     0.131 A 
ATOM     76  C   UNL A   1      41.901  21.906  26.443  1.00  0.00     0.055 A 
ATOM     77  C   UNL A   1      43.574  23.186  25.288  1.00  0.00     0.041 A 
ATOM     78  F   UNL A   1      44.252  25.258  26.147  1.00  0.00    -0.206 F 
ATOM     79  C   UNL A   1      42.802  22.033  25.384  1.00  0.00     0.022 A 
BRANCH  76  80
ATOM     80  S   UNL A   1      40.973  20.362  26.667  1.00  0.00     0.124 S 
ATOM     81  O   UNL A   1      39.714  20.672  26.001  1.00  0.00    -0.237 OA
ATOM     82  O   UNL A   1      41.834  19.395  25.996  1.00  0.00    -0.237 OA
ATOM     83  O   UNL A   1      40.894  20.222  28.120  1.00  0.00    -0.744 OA
ENDBRANCH  76  80
ENDBRANCH  49  73
BRANCH  61  84
ATOM     84  C   UNL A   1      46.770  25.773  32.605  1.00  0.00     0.023 A 
ATOM     85  C   UNL A   1      46.740  24.807  33.627  1.00  0.00     0.031 A 
ATOM     86  C   UNL A   1      48.024  26.164  32.103  1.00  0.00     0.131 A 
ATOM     87  C   UNL A   1      47.939  24.316  34.163  1.00  0.00     0.055 A 
ATOM     88  C   UNL A   1      49.214  25.624  32.596  1.00  0.00     0.041 A 
ATOM     89  F   UNL A   1      48.114  27.082  31.128  1.00  0.00    -0.206 F 
ATOM     90  C   UNL A   1      49.176  24.708  33.643  1.00  0.00     0.022 A 
BRANCH  87  91
ATOM     91  S   UNL A   1      47.865  23.244  35.624  1.00  0.00     0.124 S 
ATOM     92  O   UNL A   1      46.527  23.522  36.137  1.00  0.00    -0.237 OA
ATOM     93  O   UNL A   1      48.063  21.919  35.048  1.00  0.00    -0.237 OA
ATOM     94  O   UNL A   1      48.962  23.728  36.460  1.00  0.00    -0.744 OA
ENDBRANCH  87  91
ENDBRANCH  61  84
ENDBRANCH  35  36
ENDBRANCH  27  30
ENDBRANCH  25  26
ENDBRANCH   1  25
TORSDOF 15
ENDMDL
MODEL 3
REMARK VINA RESULT:     -11.8      2.209      2.891
REMARK SMILES Cc1ccc(F)cc1NC(=O)c1nn(C)cc1C(=O)NCCCNC(=O)c1ccc(-c2c3nc(c(-c4cc(S(=O)(=O)[O-])ccc4F)c4ccc([nH]4)c(-c4cc(S(=O)(=O)[O-])ccc4F)c4nc(c(-c5cc(S(=O)(=O)[O-])ccc5F)c5ccc2[nH]5)C=C4)C=C3)cc1
REMARK SMILES IDX 22 1 21 2 20 3 18 4 19 5 17 7 12 8 13 9 14 10 16 11 15 12
REMARK SMILES IDX 10 13 9 14 11 16 8 17 1 18 2 19 3 20 4 21 7 22 5 23 6 24
REMARK SMILES IDX 23 25 24 26 25 27 26 29 27 30 28 31 89 32 29 33 88 34 30 35
REMARK SMILES IDX 31 36 32 37 82 38 33 39 87 40 81 41 83 42 34 43 86 44 80 45
REMARK SMILES IDX 79 46 35 48 67 49 47 50 66 51 48 52 51 53 65 54 84 55 49 56
REMARK SMILES IDX 50 57 64 59 85 60 52 61 36 62 37 63 45 64 38 65 44 66 46 67
REMARK SMILES IDX 43 68 39 69 40 70 41 71 42 72 68 73 69 74 77 75 70 76 76 77
REMARK SMILES IDX 78 78 75 79 71 80 72 81 73 82 74 83 53 84 54 85 62 86 55 87
REMARK SMILES IDX 61 88 63 89 60 90 56 91 57 92 58 93 59 94
REMARK H PARENT 20 6 9 15 24 28 83 47 51 58
REMARK Flexibility Score: inf
ROOT
ATOM      1  C   UNL A   1      35.390  23.258  26.161  1.00  0.00     0.042 C 
ENDROOT
BRANCH   1   2
ATOM      2  C   UNL A   1      34.395  24.387  25.907  1.00  0.00     0.118 C 
BRANCH   2   3
ATOM      3  N   UNL A   1      33.093  24.178  26.515  1.00  0.00    -0.352 N 
ATOM      4  C   UNL A   1      31.935  24.912  26.573  1.00  0.00     0.255 C 
ATOM      5  O   UNL A   1      30.983  24.369  27.139  1.00  0.00    -0.269 OA
ATOM      6  H   UNL A   1      33.027  23.319  26.992  1.00  0.00     0.163 HD
BRANCH   4   7
ATOM      7  C   UNL A   1      31.810  26.262  26.039  1.00  0.00     0.090 A 
ATOM      8  C   UNL A   1      30.828  26.688  25.071  1.00  0.00     0.163 A 
ATOM      9  N   UNL A   1      30.965  27.993  24.766  1.00  0.00    -0.167 NA
ATOM     10  N   UNL A   1      31.992  28.400  25.515  1.00  0.00    -0.274 N 
ATOM     11  C   UNL A   1      32.553  27.407  26.260  1.00  0.00     0.123 A 
ATOM     12  C   UNL A   1      32.387  29.788  25.480  1.00  0.00     0.173 C 
BRANCH   8  13
ATOM     13  C   UNL A   1      29.768  25.904  24.423  1.00  0.00     0.277 C 
ATOM     14  N   UNL A   1      30.060  24.859  23.568  1.00  0.00    -0.320 N 
ATOM     15  H   UNL A   1      29.262  24.471  23.142  1.00  0.00     0.170 HD
ATOM     16  O   UNL A   1      28.574  26.157  24.613  1.00  0.00    -0.267 OA
BRANCH  14  17
ATOM     17  C   UNL A   1      31.259  24.230  23.179  1.00  0.00     0.047 A 
ATOM     18  C   UNL A   1      31.883  26.253  21.686  1.00  0.00     0.046 C 
ATOM     19  C   UNL A   1      32.159  24.919  22.333  1.00  0.00    -0.027 A 
ATOM     20  C   UNL A   1      33.413  24.341  22.041  1.00  0.00     0.008 A 
ATOM     21  C   UNL A   1      33.768  23.096  22.552  1.00  0.00     0.039 A 
ATOM     22  C   UNL A   1      31.598  22.941  23.602  1.00  0.00     0.065 A 
ATOM     23  C   UNL A   1      32.846  22.400  23.310  1.00  0.00     0.125 A 
ATOM     24  F   UNL A   1      33.159  21.187  23.782  1.00  0.00    -0.207 F 
ENDBRANCH  14  17
ENDBRANCH   8  13
ENDBRANCH   4   7
ENDBRANCH   2   3
ENDBRANCH   1   2
BRANCH   1  25
ATOM     25  C   UNL A   1      36.687  23.348  25.355  1.00  0.00     0.118 C 
BRANCH  25  26
ATOM     26  N   UNL A   1      37.713  22.433  25.838  1.00  0.00    -0.352 N 
ATOM     27  C   UNL A   1      38.960  22.643  26.369  1.00  0.00     0.251 C 
ATOM     28  H   UNL A   1      37.464  21.483  25.769  1.00  0.00     0.163 HD
ATOM     29  O   UNL A   1      39.714  21.674  26.463  1.00  0.00    -0.269 OA
BRANCH  27  30
ATOM     30  C   UNL A   1      39.421  23.976  26.825  1.00  0.00     0.039 A 
ATOM     31  C   UNL A   1      39.149  24.355  28.146  1.00  0.00     0.014 A 
ATOM     32  C   UNL A   1      40.021  24.896  25.962  1.00  0.00     0.014 A 
ATOM     33  C   UNL A   1      39.516  25.622  28.608  1.00  0.00     0.010 A 
ATOM     34  C   UNL A   1      40.449  26.138  26.442  1.00  0.00     0.010 A 
ATOM     35  C   UNL A   1      40.196  26.518  27.770  1.00  0.00    -0.014 A 
BRANCH  35  36
ATOM     36  C   UNL A   1      40.652  27.842  28.280  1.00  0.00     0.031 A 
ATOM     37  C   UNL A   1      42.120  28.150  28.419  1.00  0.00     0.074 A 
ATOM     38  C   UNL A   1      39.734  28.752  28.660  1.00  0.00     0.049 A 
ATOM     39  N   UNL A   1      42.698  29.236  28.868  1.00  0.00    -0.248 NA
ATOM     40  C   UNL A   1      43.062  27.091  28.027  1.00  0.00     0.031 C 
ATOM     41  C   UNL A   1      38.282  28.550  28.627  1.00  0.00     0.029 A 
ATOM     42  N   UNL A   1      39.876  30.025  29.156  1.00  0.00    -0.354 N 
ATOM     43  C   UNL A   1      44.067  28.987  28.832  1.00  0.00     0.074 A 
ATOM     44  C   UNL A   1      44.228  27.628  28.358  1.00  0.00     0.031 C 
ATOM     45  C   UNL A   1      37.672  29.663  29.063  1.00  0.00     0.029 A 
ATOM     46  C   UNL A   1      38.682  30.646  29.442  1.00  0.00     0.049 A 
ATOM     47  H   UNL A   1      40.753  30.453  29.293  1.00  0.00     0.167 HD
ATOM     48  C   UNL A   1      45.091  29.818  29.149  1.00  0.00     0.034 A 
ATOM     49  C   UNL A   1      38.427  31.864  29.958  1.00  0.00     0.034 A 
ATOM     50  C   UNL A   1      44.914  31.181  29.594  1.00  0.00     0.049 A 
ATOM     51  C   UNL A   1      39.583  32.778  30.274  1.00  0.00     0.074 A 
ATOM     52  C   UNL A   1      45.885  32.133  29.858  1.00  0.00     0.029 A 
ATOM     53  N   UNL A   1      43.690  31.785  29.848  1.00  0.00    -0.354 N 
ATOM     54  N   UNL A   1      40.872  32.549  30.158  1.00  0.00    -0.248 NA
ATOM     55  C   UNL A   1      39.251  34.119  30.771  1.00  0.00     0.031 C 
ATOM     56  C   UNL A   1      45.252  33.288  30.332  1.00  0.00     0.029 A 
ATOM     57  C   UNL A   1      43.882  33.084  30.297  1.00  0.00     0.049 A 
ATOM     58  H   UNL A   1      42.813  31.354  29.727  1.00  0.00     0.167 HD
ATOM     59  C   UNL A   1      41.500  33.728  30.550  1.00  0.00     0.074 A 
ATOM     60  C   UNL A   1      40.450  34.671  30.875  1.00  0.00     0.031 C 
ATOM     61  C   UNL A   1      42.826  34.007  30.638  1.00  0.00     0.034 A 
BRANCH  48  62
ATOM     62  C   UNL A   1      46.496  29.272  29.052  1.00  0.00     0.023 A 
ATOM     63  C   UNL A   1      47.184  29.204  27.827  1.00  0.00     0.031 A 
ATOM     64  C   UNL A   1      47.160  28.818  30.205  1.00  0.00     0.131 A 
ATOM     65  C   UNL A   1      48.468  28.640  27.775  1.00  0.00     0.055 A 
ATOM     66  C   UNL A   1      48.466  28.324  30.158  1.00  0.00     0.041 A 
ATOM     67  F   UNL A   1      46.549  28.841  31.400  1.00  0.00    -0.206 F 
ATOM     68  C   UNL A   1      49.123  28.223  28.936  1.00  0.00     0.022 A 
BRANCH  65  69
ATOM     69  S   UNL A   1      49.227  28.357  26.152  1.00  0.00     0.124 S 
ATOM     70  O   UNL A   1      49.773  27.012  26.314  1.00  0.00    -0.237 OA
ATOM     71  O   UNL A   1      48.092  28.482  25.246  1.00  0.00    -0.237 OA
ATOM     72  O   UNL A   1      50.227  29.419  26.052  1.00  0.00    -0.744 OA
ENDBRANCH  65  69
ENDBRANCH  48  62
BRANCH  49  73
ATOM     73  C   UNL A   1      37.024  32.295  30.222  1.00  0.00     0.023 A 
ATOM     74  C   UNL A   1      36.279  32.980  29.250  1.00  0.00     0.031 A 
ATOM     75  C   UNL A   1      36.426  32.073  31.476  1.00  0.00     0.131 A 
ATOM     76  C   UNL A   1      34.998  33.465  29.563  1.00  0.00     0.055 A 
ATOM     77  C   UNL A   1      35.132  32.510  31.764  1.00  0.00     0.041 A 
ATOM     78  F   UNL A   1      37.092  31.416  32.439  1.00  0.00    -0.206 F 
ATOM     79  C   UNL A   1      34.416  33.225  30.810  1.00  0.00     0.022 A 
BRANCH  76  80
ATOM     80  S   UNL A   1      34.143  34.502  28.344  1.00  0.00     0.124 S 
ATOM     81  O   UNL A   1      34.085  35.786  29.033  1.00  0.00    -0.237 OA
ATOM     82  O   UNL A   1      35.044  34.427  27.200  1.00  0.00    -0.237 OA
ATOM     83  O   UNL A   1      32.857  33.828  28.169  1.00  0.00    -0.744 OA
ENDBRANCH  76  80
ENDBRANCH  49  73
BRANCH  61  84
ATOM     84  C   UNL A   1      43.199  35.401  31.078  1.00  0.00     0.023 A 
ATOM     85  C   UNL A   1      43.442  36.426  30.147  1.00  0.00     0.031 A 
ATOM     86  C   UNL A   1      43.349  35.699  32.444  1.00  0.00     0.131 A 
ATOM     87  C   UNL A   1      43.891  37.680  30.587  1.00  0.00     0.055 A 
ATOM     88  C   UNL A   1      43.735  36.968  32.880  1.00  0.00     0.041 A 
ATOM     89  F   UNL A   1      43.131  34.759  33.377  1.00  0.00    -0.206 F 
ATOM     90  C   UNL A   1      44.025  37.961  31.949  1.00  0.00     0.022 A 
BRANCH  87  91
ATOM     91  S   UNL A   1      44.407  38.902  29.350  1.00  0.00     0.124 S 
ATOM     92  O   UNL A   1      43.134  39.512  28.977  1.00  0.00    -0.237 OA
ATOM     93  O   UNL A   1      45.321  39.748  30.110  1.00  0.00    -0.237 OA
ATOM     94  O   UNL A   1      45.034  38.092  28.307  1.00  0.00    -0.744 OA
ENDBRANCH  87  91
ENDBRANCH  61  84
ENDBRANCH  35  36
ENDBRANCH  27  30
ENDBRANCH  25  26
ENDBRANCH   1  25
TORSDOF 15
ENDMDL
