MODEL 1
REMARK VINA RESULT:     -11.3      0.000      0.000
REMARK SMILES CC[C@H](C)[C@H](NC(=O)N1CCCCC1)C(=O)NCCCNC(=O)c1ccc(-c2c3nc(c(-c4cc(S(=O)(=O)[O-])ccc4F)c4ccc([nH]4)c(-c4cc(S(=O)(=O)[O-])ccc4F)c4nc(c(-c5cc(S(=O)(=O)[O-])ccc5F)c5ccc2[nH]5)C=C4)C=C3)cc1
REMARK SMILES IDX 19 1 18 2 17 3 15 4 16 5 5 7 3 8 4 9 2 10 1 11 6 12 7 13
REMARK SMILES IDX 8 15 9 16 10 17 14 18 11 19 13 20 12 21 20 22 21 23 22 24
REMARK SMILES IDX 23 26 24 27 25 28 86 29 26 30 85 31 27 32 28 33 29 34 79 35
REMARK SMILES IDX 30 36 84 37 78 38 80 39 31 40 83 41 77 42 76 43 32 45 64 46
REMARK SMILES IDX 44 47 63 48 45 49 48 50 62 51 81 52 46 53 47 54 61 56 82 57
REMARK SMILES IDX 49 58 33 59 34 60 42 61 35 62 41 63 43 64 40 65 36 66 37 67
REMARK SMILES IDX 38 68 39 69 65 70 66 71 74 72 67 73 73 74 75 75 72 76 68 77
REMARK SMILES IDX 69 78 70 79 71 80 50 81 51 82 59 83 52 84 58 85 60 86 57 87
REMARK SMILES IDX 53 88 54 89 55 90 56 91
REMARK H PARENT 17 6 6 14 21 25 80 44 48 55
REMARK Flexibility Score: inf
ROOT
ATOM      1  C   UNL A   1      33.229  27.777  26.606  1.00  0.00     0.042 C 
ENDROOT
BRANCH   1   2
ATOM      2  C   UNL A   1      31.723  27.691  26.400  1.00  0.00     0.117 C 
BRANCH   2   3
ATOM      3  N   UNL A   1      31.092  26.449  26.784  1.00  0.00    -0.354 N 
ATOM      4  C   UNL A   1      31.028  25.252  26.133  1.00  0.00     0.242 C 
ATOM      5  O   UNL A   1      30.650  24.278  26.795  1.00  0.00    -0.273 OA
ATOM      6  H   UNL A   1      30.634  26.470  27.655  1.00  0.00     0.163 HD
BRANCH   4   7
ATOM      7  C   UNL A   1      31.458  25.070  24.658  1.00  0.00     0.176 C 
BRANCH   7   8
ATOM      8  C   UNL A   1      30.470  25.772  23.627  1.00  0.00     0.018 C 
ATOM      9  C   UNL A   1      29.146  26.332  24.180  1.00  0.00     0.010 C 
BRANCH   8  10
ATOM     10  C   UNL A   1      31.185  26.728  22.612  1.00  0.00     0.002 C 
ATOM     11  C   UNL A   1      32.650  27.061  22.866  1.00  0.00     0.004 C 
ENDBRANCH   8  10
ENDBRANCH   7   8
BRANCH   7  12
ATOM     12  N   UNL A   1      31.894  23.700  24.285  1.00  0.00    -0.326 N 
ATOM     13  C   UNL A   1      33.014  23.354  23.578  1.00  0.00     0.318 C 
ATOM     14  H   UNL A   1      31.314  22.961  24.578  1.00  0.00     0.166 HD
ATOM     15  O   UNL A   1      32.815  22.793  22.498  1.00  0.00    -0.249 OA
ATOM     16  N   UNL A   1      34.275  23.556  24.089  1.00  0.00    -0.325 N 
ATOM     17  C   UNL A   1      35.430  23.374  23.200  1.00  0.00     0.121 C 
ATOM     18  C   UNL A   1      34.557  24.100  25.400  1.00  0.00     0.121 C 
ATOM     19  C   UNL A   1      36.716  22.917  23.900  1.00  0.00     0.022 C 
ATOM     20  C   UNL A   1      35.805  23.574  26.086  1.00  0.00     0.022 C 
ATOM     21  C   UNL A   1      36.998  23.712  25.167  1.00  0.00     0.004 C 
ENDBRANCH   7  12
ENDBRANCH   4   7
ENDBRANCH   2   3
ENDBRANCH   1   2
BRANCH   1  22
ATOM     22  C   UNL A   1      33.929  28.907  25.859  1.00  0.00     0.118 C 
BRANCH  22  23
ATOM     23  N   UNL A   1      33.710  30.216  26.440  1.00  0.00    -0.352 N 
ATOM     24  C   UNL A   1      34.447  30.893  27.381  1.00  0.00     0.251 C 
ATOM     25  H   UNL A   1      32.913  30.692  26.111  1.00  0.00     0.163 HD
ATOM     26  O   UNL A   1      34.051  31.979  27.773  1.00  0.00    -0.269 OA
BRANCH  24  27
ATOM     27  C   UNL A   1      35.674  30.290  27.950  1.00  0.00     0.039 A 
ATOM     28  C   UNL A   1      36.857  30.421  27.219  1.00  0.00     0.014 A 
ATOM     29  C   UNL A   1      35.673  29.592  29.162  1.00  0.00     0.014 A 
ATOM     30  C   UNL A   1      38.046  29.896  27.724  1.00  0.00     0.010 A 
ATOM     31  C   UNL A   1      36.875  29.119  29.694  1.00  0.00     0.010 A 
ATOM     32  C   UNL A   1      38.073  29.263  28.977  1.00  0.00    -0.014 A 
BRANCH  32  33
ATOM     33  C   UNL A   1      39.359  28.751  29.517  1.00  0.00     0.031 A 
ATOM     34  C   UNL A   1      39.960  29.351  30.758  1.00  0.00     0.074 A 
ATOM     35  C   UNL A   1      39.979  27.730  28.892  1.00  0.00     0.049 A 
ATOM     36  N   UNL A   1      41.033  28.989  31.415  1.00  0.00    -0.248 NA
ATOM     37  C   UNL A   1      39.278  30.524  31.322  1.00  0.00     0.031 C 
ATOM     38  C   UNL A   1      39.517  27.099  27.653  1.00  0.00     0.029 A 
ATOM     39  N   UNL A   1      41.117  27.036  29.213  1.00  0.00    -0.354 N 
ATOM     40  C   UNL A   1      41.146  29.877  32.478  1.00  0.00     0.074 A 
ATOM     41  C   UNL A   1      40.076  30.841  32.331  1.00  0.00     0.031 C 
ATOM     42  C   UNL A   1      40.347  26.090  27.338  1.00  0.00     0.029 A 
ATOM     43  C   UNL A   1      41.412  26.020  28.333  1.00  0.00     0.049 A 
ATOM     44  H   UNL A   1      41.671  27.245  29.999  1.00  0.00     0.167 HD
ATOM     45  C   UNL A   1      42.041  29.872  33.498  1.00  0.00     0.034 A 
ATOM     46  C   UNL A   1      42.425  25.129  28.329  1.00  0.00     0.034 A 
ATOM     47  C   UNL A   1      43.110  28.910  33.626  1.00  0.00     0.049 A 
ATOM     48  C   UNL A   1      43.419  25.154  29.463  1.00  0.00     0.074 A 
ATOM     49  C   UNL A   1      44.053  28.795  34.631  1.00  0.00     0.029 A 
ATOM     50  N   UNL A   1      43.385  27.901  32.710  1.00  0.00    -0.354 N 
ATOM     51  N   UNL A   1      43.473  25.963  30.496  1.00  0.00    -0.248 NA
ATOM     52  C   UNL A   1      44.473  24.134  29.441  1.00  0.00     0.031 C 
ATOM     53  C   UNL A   1      44.934  27.761  34.294  1.00  0.00     0.029 A 
ATOM     54  C   UNL A   1      44.498  27.179  33.115  1.00  0.00     0.049 A 
ATOM     55  H   UNL A   1      42.865  27.724  31.893  1.00  0.00     0.167 HD
ATOM     56  C   UNL A   1      44.554  25.530  31.260  1.00  0.00     0.074 A 
ATOM     57  C   UNL A   1      45.104  24.375  30.580  1.00  0.00     0.031 C 
ATOM     58  C   UNL A   1      45.047  26.038  32.419  1.00  0.00     0.034 A 
BRANCH  45  59
ATOM     59  C   UNL A   1      41.904  30.957  34.542  1.00  0.00     0.023 A 
ATOM     60  C   UNL A   1      40.795  31.007  35.406  1.00  0.00     0.031 A 
ATOM     61  C   UNL A   1      42.872  31.969  34.657  1.00  0.00     0.131 A 
ATOM     62  C   UNL A   1      40.643  32.085  36.291  1.00  0.00     0.055 A 
ATOM     63  C   UNL A   1      42.756  32.995  35.598  1.00  0.00     0.041 A 
ATOM     64  F   UNL A   1      43.942  31.987  33.846  1.00  0.00    -0.206 F 
ATOM     65  C   UNL A   1      41.628  33.067  36.411  1.00  0.00     0.022 A 
BRANCH  62  66
ATOM     66  S   UNL A   1      39.069  32.264  37.175  1.00  0.00     0.124 S 
ATOM     67  O   UNL A   1      39.524  32.492  38.544  1.00  0.00    -0.237 OA
ATOM     68  O   UNL A   1      38.458  33.406  36.505  1.00  0.00    -0.237 OA
ATOM     69  O   UNL A   1      38.404  30.981  36.953  1.00  0.00    -0.744 OA
ENDBRANCH  62  66
ENDBRANCH  45  59
BRANCH  46  70
ATOM     70  C   UNL A   1      42.556  24.141  27.221  1.00  0.00     0.023 A 
ATOM     71  C   UNL A   1      41.897  22.901  27.265  1.00  0.00     0.031 A 
ATOM     72  C   UNL A   1      43.386  24.406  26.117  1.00  0.00     0.131 A 
ATOM     73  C   UNL A   1      42.117  21.955  26.252  1.00  0.00     0.055 A 
ATOM     74  C   UNL A   1      43.560  23.483  25.085  1.00  0.00     0.041 A 
ATOM     75  F   UNL A   1      44.035  25.578  26.022  1.00  0.00    -0.206 F 
ATOM     76  C   UNL A   1      42.935  22.242  25.157  1.00  0.00     0.022 A 
BRANCH  73  77
ATOM     77  S   UNL A   1      41.389  20.303  26.431  1.00  0.00     0.124 S 
ATOM     78  O   UNL A   1      39.974  20.576  26.206  1.00  0.00    -0.237 OA
ATOM     79  O   UNL A   1      42.073  19.556  25.382  1.00  0.00    -0.237 OA
ATOM     80  O   UNL A   1      41.742  19.922  27.797  1.00  0.00    -0.744 OA
ENDBRANCH  73  77
ENDBRANCH  46  70
BRANCH  58  81
ATOM     81  C   UNL A   1      46.222  25.317  33.036  1.00  0.00     0.023 A 
ATOM     82  C   UNL A   1      46.046  24.253  33.939  1.00  0.00     0.031 A 
ATOM     83  C   UNL A   1      47.536  25.719  32.736  1.00  0.00     0.131 A 
ATOM     84  C   UNL A   1      47.162  23.671  34.559  1.00  0.00     0.055 A 
ATOM     85  C   UNL A   1      48.645  25.093  33.307  1.00  0.00     0.041 A 
ATOM     86  F   UNL A   1      47.764  26.730  31.883  1.00  0.00    -0.206 F 
ATOM     87  C   UNL A   1      48.460  24.073  34.237  1.00  0.00     0.022 A 
BRANCH  84  88
ATOM     88  S   UNL A   1      46.889  22.450  35.873  1.00  0.00     0.124 S 
ATOM     89  O   UNL A   1      47.533  21.263  35.323  1.00  0.00    -0.237 OA
ATOM     90  O   UNL A   1      47.556  23.067  37.015  1.00  0.00    -0.237 OA
ATOM     91  O   UNL A   1      45.433  22.375  35.974  1.00  0.00    -0.744 OA
ENDBRANCH  84  88
ENDBRANCH  58  81
ENDBRANCH  32  33
ENDBRANCH  24  27
ENDBRANCH  22  23
ENDBRANCH   1  22
TORSDOF 16
ENDMDL
MODEL 2
REMARK VINA RESULT:     -11.3      1.448      1.806
REMARK SMILES CC[C@H](C)[C@H](NC(=O)N1CCCCC1)C(=O)NCCCNC(=O)c1ccc(-c2c3nc(c(-c4cc(S(=O)(=O)[O-])ccc4F)c4ccc([nH]4)c(-c4cc(S(=O)(=O)[O-])ccc4F)c4nc(c(-c5cc(S(=O)(=O)[O-])ccc5F)c5ccc2[nH]5)C=C4)C=C3)cc1
REMARK SMILES IDX 19 1 18 2 17 3 15 4 16 5 5 7 3 8 4 9 2 10 1 11 6 12 7 13
REMARK SMILES IDX 8 15 9 16 10 17 14 18 11 19 13 20 12 21 20 22 21 23 22 24
REMARK SMILES IDX 23 26 24 27 25 28 86 29 26 30 85 31 27 32 28 33 29 34 79 35
REMARK SMILES IDX 30 36 84 37 78 38 80 39 31 40 83 41 77 42 76 43 32 45 64 46
REMARK SMILES IDX 44 47 63 48 45 49 48 50 62 51 81 52 46 53 47 54 61 56 82 57
REMARK SMILES IDX 49 58 33 59 34 60 42 61 35 62 41 63 43 64 40 65 36 66 37 67
REMARK SMILES IDX 38 68 39 69 65 70 66 71 74 72 67 73 73 74 75 75 72 76 68 77
REMARK SMILES IDX 69 78 70 79 71 80 50 81 51 82 59 83 52 84 58 85 60 86 57 87
REMARK SMILES IDX 53 88 54 89 55 90 56 91
REMARK H PARENT 17 6 6 14 21 25 80 44 48 55
REMARK Flexibility Score: inf
ROOT
ATOM      1  C   UNL A   1      33.222  27.594  26.508  1.00  0.00     0.042 C 
ENDROOT
BRANCH   1   2
ATOM      2  C   UNL A   1      31.716  27.714  26.316  1.00  0.00     0.117 C 
BRANCH   2   3
ATOM      3  N   UNL A   1      30.928  26.558  26.677  1.00  0.00    -0.354 N 
ATOM      4  C   UNL A   1      30.808  25.344  26.067  1.00  0.00     0.242 C 
ATOM      5  O   UNL A   1      30.271  24.442  26.721  1.00  0.00    -0.273 OA
ATOM      6  H   UNL A   1      30.391  26.663  27.496  1.00  0.00     0.163 HD
BRANCH   4   7
ATOM      7  C   UNL A   1      31.360  25.055  24.651  1.00  0.00     0.176 C 
BRANCH   7   8
ATOM      8  C   UNL A   1      30.507  25.737  23.494  1.00  0.00     0.018 C 
ATOM      9  C   UNL A   1      29.147  26.348  23.880  1.00  0.00     0.010 C 
BRANCH   8  10
ATOM     10  C   UNL A   1      31.352  26.637  22.529  1.00  0.00     0.002 C 
ATOM     11  C   UNL A   1      32.839  26.794  22.827  1.00  0.00     0.004 C 
ENDBRANCH   8  10
ENDBRANCH   7   8
BRANCH   7  12
ATOM     12  N   UNL A   1      31.758  23.646  24.397  1.00  0.00    -0.326 N 
ATOM     13  C   UNL A   1      32.819  23.209  23.652  1.00  0.00     0.318 C 
ATOM     14  H   UNL A   1      31.196  22.951  24.810  1.00  0.00     0.166 HD
ATOM     15  O   UNL A   1      32.538  22.539  22.657  1.00  0.00    -0.249 OA
ATOM     16  N   UNL A   1      34.117  23.446  24.045  1.00  0.00    -0.325 N 
ATOM     17  C   UNL A   1      35.202  23.153  23.098  1.00  0.00     0.121 C 
ATOM     18  C   UNL A   1      34.499  24.123  25.265  1.00  0.00     0.121 C 
ATOM     19  C   UNL A   1      36.533  22.754  23.748  1.00  0.00     0.022 C 
ATOM     20  C   UNL A   1      35.790  23.655  25.911  1.00  0.00     0.022 C 
ATOM     21  C   UNL A   1      36.913  23.676  24.898  1.00  0.00     0.004 C 
ENDBRANCH   7  12
ENDBRANCH   4   7
ENDBRANCH   2   3
ENDBRANCH   1   2
BRANCH   1  22
ATOM     22  C   UNL A   1      34.039  28.793  26.042  1.00  0.00     0.118 C 
BRANCH  22  23
ATOM     23  N   UNL A   1      33.655  30.042  26.669  1.00  0.00    -0.352 N 
ATOM     24  C   UNL A   1      34.333  30.810  27.585  1.00  0.00     0.251 C 
ATOM     25  H   UNL A   1      32.776  30.393  26.399  1.00  0.00     0.163 HD
ATOM     26  O   UNL A   1      33.799  31.814  28.028  1.00  0.00    -0.269 OA
BRANCH  24  27
ATOM     27  C   UNL A   1      35.672  30.396  28.067  1.00  0.00     0.039 A 
ATOM     28  C   UNL A   1      35.743  29.739  29.297  1.00  0.00     0.014 A 
ATOM     29  C   UNL A   1      36.841  30.660  27.345  1.00  0.00     0.014 A 
ATOM     30  C   UNL A   1      36.976  29.304  29.781  1.00  0.00     0.010 A 
ATOM     31  C   UNL A   1      38.067  30.171  27.803  1.00  0.00     0.010 A 
ATOM     32  C   UNL A   1      38.146  29.492  29.028  1.00  0.00    -0.014 A 
BRANCH  32  33
ATOM     33  C   UNL A   1      39.443  28.980  29.542  1.00  0.00     0.031 A 
ATOM     34  C   UNL A   1      40.110  29.632  30.721  1.00  0.00     0.074 A 
ATOM     35  C   UNL A   1      40.013  27.912  28.949  1.00  0.00     0.049 A 
ATOM     36  N   UNL A   1      41.201  29.281  31.352  1.00  0.00    -0.248 NA
ATOM     37  C   UNL A   1      39.478  30.850  31.247  1.00  0.00     0.031 C 
ATOM     38  C   UNL A   1      39.485  27.225  27.767  1.00  0.00     0.029 A 
ATOM     39  N   UNL A   1      41.149  27.209  29.261  1.00  0.00    -0.354 N 
ATOM     40  C   UNL A   1      41.379  30.223  32.358  1.00  0.00     0.074 A 
ATOM     41  C   UNL A   1      40.325  31.203  32.202  1.00  0.00     0.031 C 
ATOM     42  C   UNL A   1      40.278  26.180  27.475  1.00  0.00     0.029 A 
ATOM     43  C   UNL A   1      41.384  26.139  28.427  1.00  0.00     0.049 A 
ATOM     44  H   UNL A   1      41.741  27.447  30.010  1.00  0.00     0.167 HD
ATOM     45  C   UNL A   1      42.316  30.253  33.339  1.00  0.00     0.034 A 
ATOM     46  C   UNL A   1      42.376  25.226  28.431  1.00  0.00     0.034 A 
ATOM     47  C   UNL A   1      43.369  29.273  33.476  1.00  0.00     0.049 A 
ATOM     48  C   UNL A   1      43.418  25.289  29.519  1.00  0.00     0.074 A 
ATOM     49  C   UNL A   1      44.352  29.191  34.446  1.00  0.00     0.029 A 
ATOM     50  N   UNL A   1      43.582  28.209  32.607  1.00  0.00    -0.354 N 
ATOM     51  N   UNL A   1      43.534  26.152  30.503  1.00  0.00    -0.248 NA
ATOM     52  C   UNL A   1      44.448  24.244  29.511  1.00  0.00     0.031 C 
ATOM     53  C   UNL A   1      45.195  28.119  34.131  1.00  0.00     0.029 A 
ATOM     54  C   UNL A   1      44.696  27.484  33.005  1.00  0.00     0.049 A 
ATOM     55  H   UNL A   1      43.024  28.001  31.824  1.00  0.00     0.167 HD
ATOM     56  C   UNL A   1      44.637  25.736  31.244  1.00  0.00     0.074 A 
ATOM     57  C   UNL A   1      45.132  24.532  30.607  1.00  0.00     0.031 C 
ATOM     58  C   UNL A   1      45.189  26.294  32.351  1.00  0.00     0.034 A 
BRANCH  45  59
ATOM     59  C   UNL A   1      42.248  31.396  34.325  1.00  0.00     0.023 A 
ATOM     60  C   UNL A   1      41.305  31.408  35.369  1.00  0.00     0.031 A 
ATOM     61  C   UNL A   1      43.110  32.499  34.207  1.00  0.00     0.131 A 
ATOM     62  C   UNL A   1      41.195  32.531  36.203  1.00  0.00     0.055 A 
ATOM     63  C   UNL A   1      43.050  33.579  35.092  1.00  0.00     0.041 A 
ATOM     64  F   UNL A   1      44.017  32.556  33.218  1.00  0.00    -0.206 F 
ATOM     65  C   UNL A   1      42.078  33.607  36.088  1.00  0.00     0.022 A 
BRANCH  62  66
ATOM     66  S   UNL A   1      39.787  32.629  37.342  1.00  0.00     0.124 S 
ATOM     67  O   UNL A   1      39.265  33.962  37.052  1.00  0.00    -0.237 OA
ATOM     68  O   UNL A   1      38.957  31.508  36.915  1.00  0.00    -0.237 OA
ATOM     69  O   UNL A   1      40.402  32.482  38.661  1.00  0.00    -0.744 OA
ENDBRANCH  62  66
ENDBRANCH  45  59
BRANCH  46  70
ATOM     70  C   UNL A   1      42.438  24.175  27.375  1.00  0.00     0.023 A 
ATOM     71  C   UNL A   1      41.741  22.963  27.508  1.00  0.00     0.031 A 
ATOM     72  C   UNL A   1      43.238  24.352  26.232  1.00  0.00     0.131 A 
ATOM     73  C   UNL A   1      41.897  21.957  26.542  1.00  0.00     0.055 A 
ATOM     74  C   UNL A   1      43.347  23.370  25.247  1.00  0.00     0.041 A 
ATOM     75  F   UNL A   1      43.920  25.496  26.052  1.00  0.00    -0.206 F 
ATOM     76  C   UNL A   1      42.686  22.157  25.408  1.00  0.00     0.022 A 
BRANCH  73  77
ATOM     77  S   UNL A   1      41.122  20.342  26.835  1.00  0.00     0.124 S 
ATOM     78  O   UNL A   1      42.179  19.425  26.422  1.00  0.00    -0.237 OA
ATOM     79  O   UNL A   1      40.843  20.396  28.266  1.00  0.00    -0.237 OA
ATOM     80  O   UNL A   1      39.944  20.369  25.971  1.00  0.00    -0.744 OA
ENDBRANCH  73  77
ENDBRANCH  46  70
BRANCH  58  81
ATOM     81  C   UNL A   1      46.375  25.580  32.958  1.00  0.00     0.023 A 
ATOM     82  C   UNL A   1      47.691  25.848  32.542  1.00  0.00     0.031 A 
ATOM     83  C   UNL A   1      46.180  24.599  33.947  1.00  0.00     0.131 A 
ATOM     84  C   UNL A   1      48.756  25.098  33.065  1.00  0.00     0.055 A 
ATOM     85  C   UNL A   1      47.249  23.901  34.510  1.00  0.00     0.041 A 
ATOM     86  F   UNL A   1      44.945  24.301  34.381  1.00  0.00    -0.206 F 
ATOM     87  C   UNL A   1      48.545  24.138  34.058  1.00  0.00     0.022 A 
BRANCH  84  88
ATOM     88  S   UNL A   1      50.409  25.321  32.355  1.00  0.00     0.124 S 
ATOM     89  O   UNL A   1      50.229  26.512  31.532  1.00  0.00    -0.237 OA
ATOM     90  O   UNL A   1      51.240  25.486  33.543  1.00  0.00    -0.237 OA
ATOM     91  O   UNL A   1      50.633  24.082  31.611  1.00  0.00    -0.744 OA
ENDBRANCH  84  88
ENDBRANCH  58  81
ENDBRANCH  32  33
ENDBRANCH  24  27
ENDBRANCH  22  23
ENDBRANCH   1  22
TORSDOF 16
ENDMDL
MODEL 3
REMARK VINA RESULT:     -11.3      1.947      2.636
REMARK SMILES CC[C@H](C)[C@H](NC(=O)N1CCCCC1)C(=O)NCCCNC(=O)c1ccc(-c2c3nc(c(-c4cc(S(=O)(=O)[O-])ccc4F)c4ccc([nH]4)c(-c4cc(S(=O)(=O)[O-])ccc4F)c4nc(c(-c5cc(S(=O)(=O)[O-])ccc5F)c5ccc2[nH]5)C=C4)C=C3)cc1
REMARK SMILES IDX 19 1 18 2 17 3 15 4 16 5 5 7 3 8 4 9 2 10 1 11 6 12 7 13
REMARK SMILES IDX 8 15 9 16 10 17 14 18 11 19 13 20 12 21 20 22 21 23 22 24
REMARK SMILES IDX 23 26 24 27 25 28 86 29 26 30 85 31 27 32 28 33 29 34 79 35
REMARK SMILES IDX 30 36 84 37 78 38 80 39 31 40 83 41 77 42 76 43 32 45 64 46
REMARK SMILES IDX 44 47 63 48 45 49 48 50 62 51 81 52 46 53 47 54 61 56 82 57
REMARK SMILES IDX 49 58 33 59 34 60 42 61 35 62 41 63 43 64 40 65 36 66 37 67
REMARK SMILES IDX 38 68 39 69 65 70 66 71 74 72 67 73 73 74 75 75 72 76 68 77
REMARK SMILES IDX 69 78 70 79 71 80 50 81 51 82 59 83 52 84 58 85 60 86 57 87
REMARK SMILES IDX 53 88 54 89 55 90 56 91
REMARK H PARENT 17 6 6 14 21 25 80 44 48 55
REMARK Flexibility Score: inf
ROOT
ATOM      1  C   UNL A   1      31.787  28.918  26.743  1.00  0.00     0.042 C 
ENDROOT
BRANCH   1   2
ATOM      2  C   UNL A   1      32.200  27.461  26.585  1.00  0.00     0.117 C 
BRANCH   2   3
ATOM      3  N   UNL A   1      31.175  26.473  26.825  1.00  0.00    -0.354 N 
ATOM      4  C   UNL A   1      30.860  25.339  26.135  1.00  0.00     0.242 C 
ATOM      5  O   UNL A   1      30.108  24.535  26.699  1.00  0.00    -0.273 OA
ATOM      6  H   UNL A   1      30.612  26.645  27.614  1.00  0.00     0.163 HD
BRANCH   4   7
ATOM      7  C   UNL A   1      31.444  25.012  24.740  1.00  0.00     0.176 C 
BRANCH   7   8
ATOM      8  C   UNL A   1      30.649  25.706  23.550  1.00  0.00     0.018 C 
ATOM      9  C   UNL A   1      29.292  26.353  23.883  1.00  0.00     0.010 C 
BRANCH   8  10
ATOM     10  C   UNL A   1      31.549  26.575  22.607  1.00  0.00     0.002 C 
ATOM     11  C   UNL A   1      32.004  25.953  21.291  1.00  0.00     0.004 C 
ENDBRANCH   8  10
ENDBRANCH   7   8
BRANCH   7  12
ATOM     12  N   UNL A   1      31.803  23.588  24.517  1.00  0.00    -0.326 N 
ATOM     13  C   UNL A   1      32.850  23.106  23.780  1.00  0.00     0.318 C 
ATOM     14  H   UNL A   1      31.224  22.918  24.946  1.00  0.00     0.166 HD
ATOM     15  O   UNL A   1      32.548  22.422  22.800  1.00  0.00    -0.249 OA
ATOM     16  N   UNL A   1      34.155  23.316  24.165  1.00  0.00    -0.325 N 
ATOM     17  C   UNL A   1      35.229  22.972  23.223  1.00  0.00     0.121 C 
ATOM     18  C   UNL A   1      34.558  24.009  25.369  1.00  0.00     0.121 C 
ATOM     19  C   UNL A   1      36.550  22.552  23.879  1.00  0.00     0.022 C 
ATOM     20  C   UNL A   1      35.838  23.520  26.023  1.00  0.00     0.022 C 
ATOM     21  C   UNL A   1      36.958  23.489  25.008  1.00  0.00     0.004 C 
ENDBRANCH   7  12
ENDBRANCH   4   7
ENDBRANCH   2   3
ENDBRANCH   1   2
BRANCH   1  22
ATOM     22  C   UNL A   1      32.653  29.929  26.000  1.00  0.00     0.118 C 
BRANCH  22  23
ATOM     23  N   UNL A   1      32.425  31.302  26.404  1.00  0.00    -0.352 N 
ATOM     24  C   UNL A   1      33.158  32.104  27.246  1.00  0.00     0.251 C 
ATOM     25  H   UNL A   1      31.624  31.724  26.017  1.00  0.00     0.163 HD
ATOM     26  O   UNL A   1      32.756  33.229  27.491  1.00  0.00    -0.269 OA
BRANCH  24  27
ATOM     27  C   UNL A   1      34.392  31.590  27.885  1.00  0.00     0.039 A 
ATOM     28  C   UNL A   1      35.462  32.475  28.031  1.00  0.00     0.014 A 
ATOM     29  C   UNL A   1      34.514  30.265  28.318  1.00  0.00     0.014 A 
ATOM     30  C   UNL A   1      36.635  32.049  28.652  1.00  0.00     0.010 A 
ATOM     31  C   UNL A   1      35.667  29.857  28.993  1.00  0.00     0.010 A 
ATOM     32  C   UNL A   1      36.741  30.745  29.163  1.00  0.00    -0.014 A 
BRANCH  32  33
ATOM     33  C   UNL A   1      37.983  30.325  29.862  1.00  0.00     0.031 A 
ATOM     34  C   UNL A   1      38.268  30.795  31.261  1.00  0.00     0.074 A 
ATOM     35  C   UNL A   1      38.849  29.505  29.235  1.00  0.00     0.049 A 
ATOM     36  N   UNL A   1      39.259  30.476  32.054  1.00  0.00    -0.248 NA
ATOM     37  C   UNL A   1      37.327  31.766  31.837  1.00  0.00     0.031 C 
ATOM     38  C   UNL A   1      38.704  29.022  27.859  1.00  0.00     0.029 A 
ATOM     39  N   UNL A   1      40.012  28.922  29.669  1.00  0.00    -0.354 N 
ATOM     40  C   UNL A   1      39.054  31.192  33.227  1.00  0.00     0.074 A 
ATOM     41  C   UNL A   1      37.887  32.020  33.010  1.00  0.00     0.031 C 
ATOM     42  C   UNL A   1      39.722  28.191  27.575  1.00  0.00     0.029 A 
ATOM     43  C   UNL A   1      40.605  28.104  28.734  1.00  0.00     0.049 A 
ATOM     44  H   UNL A   1      40.389  29.075  30.566  1.00  0.00     0.167 HD
ATOM     45  C   UNL A   1      39.756  31.143  34.387  1.00  0.00     0.034 A 
ATOM     46  C   UNL A   1      41.730  27.364  28.803  1.00  0.00     0.034 A 
ATOM     47  C   UNL A   1      40.926  30.319  34.585  1.00  0.00     0.049 A 
ATOM     48  C   UNL A   1      42.505  27.339  30.096  1.00  0.00     0.074 A 
ATOM     49  C   UNL A   1      41.695  30.171  35.726  1.00  0.00     0.029 A 
ATOM     50  N   UNL A   1      41.503  29.511  33.613  1.00  0.00    -0.354 N 
ATOM     51  N   UNL A   1      42.260  27.975  31.219  1.00  0.00    -0.248 NA
ATOM     52  C   UNL A   1      43.694  26.480  30.138  1.00  0.00     0.031 C 
ATOM     53  C   UNL A   1      42.770  29.326  35.427  1.00  0.00     0.029 A 
ATOM     54  C   UNL A   1      42.632  28.885  34.121  1.00  0.00     0.049 A 
ATOM     55  H   UNL A   1      41.160  29.400  32.697  1.00  0.00     0.167 HD
ATOM     56  C   UNL A   1      43.252  27.571  32.108  1.00  0.00     0.074 A 
ATOM     57  C   UNL A   1      44.081  26.618  31.397  1.00  0.00     0.031 C 
ATOM     58  C   UNL A   1      43.460  27.949  33.395  1.00  0.00     0.034 A 
BRANCH  45  59
ATOM     59  C   UNL A   1      39.280  32.023  35.520  1.00  0.00     0.023 A 
ATOM     60  C   UNL A   1      39.707  33.357  35.642  1.00  0.00     0.031 A 
ATOM     61  C   UNL A   1      38.415  31.518  36.506  1.00  0.00     0.131 A 
ATOM     62  C   UNL A   1      39.333  34.115  36.762  1.00  0.00     0.055 A 
ATOM     63  C   UNL A   1      37.980  32.304  37.576  1.00  0.00     0.041 A 
ATOM     64  F   UNL A   1      37.989  30.246  36.457  1.00  0.00    -0.206 F 
ATOM     65  C   UNL A   1      38.452  33.606  37.718  1.00  0.00     0.022 A 
BRANCH  62  66
ATOM     66  S   UNL A   1      40.134  35.721  37.027  1.00  0.00     0.124 S 
ATOM     67  O   UNL A   1      39.654  36.483  35.877  1.00  0.00    -0.237 OA
ATOM     68  O   UNL A   1      39.610  36.125  38.327  1.00  0.00    -0.237 OA
ATOM     69  O   UNL A   1      41.560  35.401  37.002  1.00  0.00    -0.744 OA
ENDBRANCH  62  66
ENDBRANCH  45  59
BRANCH  46  70
ATOM     70  C   UNL A   1      42.196  26.588  27.618  1.00  0.00     0.023 A 
ATOM     71  C   UNL A   1      41.849  25.238  27.446  1.00  0.00     0.031 A 
ATOM     72  C   UNL A   1      43.039  27.178  26.660  1.00  0.00     0.131 A 
ATOM     73  C   UNL A   1      42.383  24.510  26.372  1.00  0.00     0.055 A 
ATOM     74  C   UNL A   1      43.524  26.465  25.563  1.00  0.00     0.041 A 
ATOM     75  F   UNL A   1      43.397  28.468  26.773  1.00  0.00    -0.206 F 
ATOM     76  C   UNL A   1      43.208  25.117  25.423  1.00  0.00     0.022 A 
BRANCH  73  77
ATOM     77  S   UNL A   1      42.054  22.728  26.279  1.00  0.00     0.124 S 
ATOM     78  O   UNL A   1      42.741  22.236  27.469  1.00  0.00    -0.237 OA
ATOM     79  O   UNL A   1      40.597  22.688  26.317  1.00  0.00    -0.237 OA
ATOM     80  O   UNL A   1      42.654  22.338  25.005  1.00  0.00    -0.744 OA
ENDBRANCH  73  77
ENDBRANCH  46  70
BRANCH  58  81
ATOM     81  C   UNL A   1      44.614  27.298  34.121  1.00  0.00     0.023 A 
ATOM     82  C   UNL A   1      44.448  26.115  34.863  1.00  0.00     0.031 A 
ATOM     83  C   UNL A   1      45.891  27.886  34.092  1.00  0.00     0.131 A 
ATOM     84  C   UNL A   1      45.525  25.593  35.597  1.00  0.00     0.055 A 
ATOM     85  C   UNL A   1      46.974  27.328  34.772  1.00  0.00     0.041 A 
ATOM     86  F   UNL A   1      46.107  29.018  33.402  1.00  0.00    -0.206 F 
ATOM     87  C   UNL A   1      46.790  26.183  35.543  1.00  0.00     0.022 A 
BRANCH  84  88
ATOM     88  S   UNL A   1      45.222  24.192  36.708  1.00  0.00     0.124 S 
ATOM     89  O   UNL A   1      46.573  23.843  37.132  1.00  0.00    -0.237 OA
ATOM     90  O   UNL A   1      44.366  24.784  37.730  1.00  0.00    -0.237 OA
ATOM     91  O   UNL A   1      44.569  23.207  35.848  1.00  0.00    -0.744 OA
ENDBRANCH  84  88
ENDBRANCH  58  81
ENDBRANCH  32  33
ENDBRANCH  24  27
ENDBRANCH  22  23
ENDBRANCH   1  22
TORSDOF 16
ENDMDL
