MODEL 1
REMARK VINA RESULT:     -12.0      0.000      0.000
REMARK SMILES [NH3+][C@H]([C@@H](C(=O)NCCCNC(=O)c1ccc(-c2c3nc(c(-c4cc(S(=O)(=O)[O-])ccc4F)c4ccc([nH]4)c(-c4cc(S(=O)(=O)[O-])ccc4F)c4nc(c(-c5cc(S(=O)(=O)[O-])ccc5F)c5ccc2[nH]5)C=C4)C=C3)cc1)C(=O)OCC1c2ccccc2-c2ccccc21)C(F)(F)F
REMARK SMILES IDX 7 1 6 2 4 3 5 4 3 6 2 7 1 8 93 12 94 13 95 14 96 15 76 16
REMARK SMILES IDX 77 17 78 18 79 19 80 20 81 21 92 22 82 23 86 24 87 25 91 26
REMARK SMILES IDX 83 27 85 28 88 29 90 30 84 31 89 32 8 33 9 34 10 35 11 36
REMARK SMILES IDX 12 38 13 39 14 40 75 41 15 42 74 43 16 44 17 45 18 46 68 47
REMARK SMILES IDX 19 48 73 49 67 50 69 51 20 52 72 53 66 54 65 55 21 57 53 58
REMARK SMILES IDX 33 59 52 60 34 61 37 62 51 63 70 64 35 65 36 66 50 68 71 69
REMARK SMILES IDX 38 70 22 71 23 72 31 73 24 74 30 75 32 76 29 77 25 78 26 79
REMARK SMILES IDX 27 80 28 81 54 82 55 83 63 84 56 85 62 86 64 87 61 88 57 89
REMARK SMILES IDX 58 90 59 91 60 92 39 93 40 94 48 95 41 96 47 97 49 98 46 99
REMARK SMILES IDX 42 100 43 101 44 102 45 103
REMARK H PARENT 6 5 1 9 1 10 1 11 10 37 69 56 37 67
REMARK Flexibility Score: inf
ROOT
ATOM      1  C   UNL A   1      31.793  27.717  26.980  1.00  0.00     0.117 C 
ENDROOT
BRANCH   1   2
ATOM      2  N   UNL A   1      31.333  26.340  26.862  1.00  0.00    -0.355 N 
ATOM      3  C   UNL A   1      31.165  25.537  25.773  1.00  0.00     0.240 C 
ATOM      4  O   UNL A   1      30.783  24.383  25.983  1.00  0.00    -0.274 OA
ATOM      5  H   UNL A   1      31.102  25.915  27.720  1.00  0.00     0.163 HD
BRANCH   3   6
ATOM      6  C   UNL A   1      31.375  26.059  24.362  1.00  0.00     0.255 C 
BRANCH   6   7
ATOM      7  C   UNL A   1      30.066  26.396  23.602  1.00  0.00     0.311 C 
BRANCH   7   8
ATOM      8  N   UNL A   1      28.807  26.015  24.306  1.00  0.00    -0.346 N 
ATOM      9  H   UNL A   1      28.787  25.004  24.442  1.00  0.00     0.345 HD
ATOM     10  H   UNL A   1      28.004  26.300  23.745  1.00  0.00     0.345 HD
ATOM     11  H   UNL A   1      28.771  26.481  25.213  1.00  0.00     0.345 HD
ENDBRANCH   7   8
BRANCH   7  12
ATOM     12  C   UNL A   1      30.167  27.867  23.123  1.00  0.00     0.442 C 
ATOM     13  F   UNL A   1      28.960  28.290  22.674  1.00  0.00    -0.165 F 
ATOM     14  F   UNL A   1      30.543  28.699  24.114  1.00  0.00    -0.165 F 
ATOM     15  F   UNL A   1      31.042  28.003  22.105  1.00  0.00    -0.165 F 
ENDBRANCH   7  12
ENDBRANCH   6   7
BRANCH   6  16
ATOM     16  C   UNL A   1      32.243  25.086  23.590  1.00  0.00     0.325 C 
ATOM     17  O   UNL A   1      31.791  24.343  22.725  1.00  0.00    -0.251 OA
BRANCH  16  18
ATOM     18  O   UNL A   1      33.578  25.253  23.836  1.00  0.00    -0.464 OA
BRANCH  18  19
ATOM     19  C   UNL A   1      34.261  23.999  23.793  1.00  0.00     0.246 C 
BRANCH  19  20
ATOM     20  C   UNL A   1      34.139  23.183  25.097  1.00  0.00     0.088 C 
ATOM     21  C   UNL A   1      33.704  21.742  24.828  1.00  0.00    -0.029 A 
ATOM     22  C   UNL A   1      35.582  22.966  25.559  1.00  0.00    -0.029 A 
ATOM     23  C   UNL A   1      32.433  21.247  24.580  1.00  0.00     0.005 A 
ATOM     24  C   UNL A   1      34.825  20.881  24.891  1.00  0.00    -0.014 A 
ATOM     25  C   UNL A   1      35.996  21.662  25.227  1.00  0.00    -0.014 A 
ATOM     26  C   UNL A   1      36.473  23.931  26.007  1.00  0.00     0.005 A 
ATOM     27  C   UNL A   1      32.287  19.864  24.420  1.00  0.00     0.000 A 
ATOM     28  C   UNL A   1      34.679  19.514  24.727  1.00  0.00     0.009 A 
ATOM     29  C   UNL A   1      37.343  21.358  25.184  1.00  0.00     0.009 A 
ATOM     30  C   UNL A   1      37.828  23.616  25.985  1.00  0.00     0.000 A 
ATOM     31  C   UNL A   1      33.398  19.006  24.498  1.00  0.00     0.001 A 
ATOM     32  C   UNL A   1      38.261  22.355  25.538  1.00  0.00     0.001 A 
ENDBRANCH  19  20
ENDBRANCH  18  19
ENDBRANCH  16  18
ENDBRANCH   6  16
ENDBRANCH   3   6
ENDBRANCH   1   2
BRANCH   1  33
ATOM     33  C   UNL A   1      33.315  27.836  26.958  1.00  0.00     0.042 C 
BRANCH  33  34
ATOM     34  C   UNL A   1      33.854  28.857  25.958  1.00  0.00     0.118 C 
BRANCH  34  35
ATOM     35  N   UNL A   1      33.685  30.219  26.434  1.00  0.00    -0.352 N 
ATOM     36  C   UNL A   1      34.357  30.892  27.428  1.00  0.00     0.251 C 
ATOM     37  H   UNL A   1      32.985  30.738  25.976  1.00  0.00     0.163 HD
ATOM     38  O   UNL A   1      33.882  31.940  27.856  1.00  0.00    -0.269 OA
BRANCH  36  39
ATOM     39  C   UNL A   1      35.626  30.366  27.987  1.00  0.00     0.039 A 
ATOM     40  C   UNL A   1      35.603  29.742  29.238  1.00  0.00     0.014 A 
ATOM     41  C   UNL A   1      36.843  30.535  27.321  1.00  0.00     0.014 A 
ATOM     42  C   UNL A   1      36.786  29.247  29.796  1.00  0.00     0.010 A 
ATOM     43  C   UNL A   1      38.012  29.981  27.847  1.00  0.00     0.010 A 
ATOM     44  C   UNL A   1      37.999  29.336  29.093  1.00  0.00    -0.014 A 
BRANCH  44  45
ATOM     45  C   UNL A   1      39.257  28.765  29.651  1.00  0.00     0.031 A 
ATOM     46  C   UNL A   1      39.943  29.429  30.818  1.00  0.00     0.074 A 
ATOM     47  C   UNL A   1      39.812  27.680  29.072  1.00  0.00     0.049 A 
ATOM     48  N   UNL A   1      41.077  29.123  31.395  1.00  0.00    -0.248 NA
ATOM     49  C   UNL A   1      39.279  30.609  31.392  1.00  0.00     0.031 C 
ATOM     50  C   UNL A   1      39.264  26.970  27.914  1.00  0.00     0.029 A 
ATOM     51  N   UNL A   1      40.964  26.991  29.364  1.00  0.00    -0.354 N 
ATOM     52  C   UNL A   1      41.273  30.081  32.385  1.00  0.00     0.074 A 
ATOM     53  C   UNL A   1      40.162  31.005  32.298  1.00  0.00     0.031 C 
ATOM     54  C   UNL A   1      40.068  25.941  27.606  1.00  0.00     0.029 A 
ATOM     55  C   UNL A   1      41.216  25.943  28.508  1.00  0.00     0.049 A 
ATOM     56  H   UNL A   1      41.553  27.224  30.117  1.00  0.00     0.167 HD
ATOM     57  C   UNL A   1      42.279  30.172  33.291  1.00  0.00     0.034 A 
ATOM     58  C   UNL A   1      42.262  25.093  28.440  1.00  0.00     0.034 A 
ATOM     59  C   UNL A   1      43.368  29.229  33.379  1.00  0.00     0.049 A 
ATOM     60  C   UNL A   1      43.374  25.224  29.452  1.00  0.00     0.074 A 
ATOM     61  C   UNL A   1      44.393  29.183  34.309  1.00  0.00     0.029 A 
ATOM     62  N   UNL A   1      43.586  28.175  32.500  1.00  0.00    -0.354 N 
ATOM     63  N   UNL A   1      43.505  26.095  30.428  1.00  0.00    -0.248 NA
ATOM     64  C   UNL A   1      44.470  24.253  29.365  1.00  0.00     0.031 C 
ATOM     65  C   UNL A   1      45.271  28.157  33.946  1.00  0.00     0.029 A 
ATOM     66  C   UNL A   1      44.749  27.502  32.842  1.00  0.00     0.049 A 
ATOM     67  H   UNL A   1      43.000  27.940  31.745  1.00  0.00     0.167 HD
ATOM     68  C   UNL A   1      44.682  25.751  31.087  1.00  0.00     0.074 A 
ATOM     69  C   UNL A   1      45.210  24.584  30.412  1.00  0.00     0.031 C 
ATOM     70  C   UNL A   1      45.271  26.343  32.158  1.00  0.00     0.034 A 
BRANCH  57  71
ATOM     71  C   UNL A   1      42.273  31.350  34.238  1.00  0.00     0.023 A 
ATOM     72  C   UNL A   1      41.393  31.424  35.331  1.00  0.00     0.031 A 
ATOM     73  C   UNL A   1      43.174  32.413  34.046  1.00  0.00     0.131 A 
ATOM     74  C   UNL A   1      41.392  32.563  36.153  1.00  0.00     0.055 A 
ATOM     75  C   UNL A   1      43.222  33.506  34.914  1.00  0.00     0.041 A 
ATOM     76  F   UNL A   1      44.026  32.410  33.008  1.00  0.00    -0.206 F 
ATOM     77  C   UNL A   1      42.318  33.592  35.969  1.00  0.00     0.022 A 
BRANCH  74  78
ATOM     78  S   UNL A   1      40.078  32.738  37.392  1.00  0.00     0.124 S 
ATOM     79  O   UNL A   1      39.571  34.076  37.096  1.00  0.00    -0.237 OA
ATOM     80  O   UNL A   1      39.188  31.631  37.066  1.00  0.00    -0.237 OA
ATOM     81  O   UNL A   1      40.787  32.616  38.664  1.00  0.00    -0.744 OA
ENDBRANCH  74  78
ENDBRANCH  57  71
BRANCH  58  82
ATOM     82  C   UNL A   1      42.334  24.061  27.364  1.00  0.00     0.023 A 
ATOM     83  C   UNL A   1      41.779  22.783  27.541  1.00  0.00     0.031 A 
ATOM     84  C   UNL A   1      43.021  24.316  26.163  1.00  0.00     0.131 A 
ATOM     85  C   UNL A   1      41.972  21.792  26.565  1.00  0.00     0.055 A 
ATOM     86  C   UNL A   1      43.154  23.347  25.165  1.00  0.00     0.041 A 
ATOM     87  F   UNL A   1      43.572  25.520  25.937  1.00  0.00    -0.206 F 
ATOM     88  C   UNL A   1      42.643  22.071  25.372  1.00  0.00     0.022 A 
BRANCH  85  89
ATOM     89  S   UNL A   1      41.436  20.098  26.930  1.00  0.00     0.124 S 
ATOM     90  O   UNL A   1      42.706  19.383  26.951  1.00  0.00    -0.237 OA
ATOM     91  O   UNL A   1      40.771  20.263  28.217  1.00  0.00    -0.237 OA
ATOM     92  O   UNL A   1      40.553  19.772  25.811  1.00  0.00    -0.744 OA
ENDBRANCH  85  89
ENDBRANCH  58  82
BRANCH  70  93
ATOM     93  C   UNL A   1      46.529  25.702  32.693  1.00  0.00     0.023 A 
ATOM     94  C   UNL A   1      47.796  25.981  32.150  1.00  0.00     0.031 A 
ATOM     95  C   UNL A   1      46.456  24.788  33.760  1.00  0.00     0.131 A 
ATOM     96  C   UNL A   1      48.928  25.308  32.634  1.00  0.00     0.055 A 
ATOM     97  C   UNL A   1      47.595  24.174  34.283  1.00  0.00     0.041 A 
ATOM     98  F   UNL A   1      45.273  24.480  34.316  1.00  0.00    -0.206 F 
ATOM     99  C   UNL A   1      48.838  24.421  33.710  1.00  0.00     0.022 A 
BRANCH  96 100
ATOM    100  S   UNL A   1      50.509  25.532  31.774  1.00  0.00     0.124 S 
ATOM    101  O   UNL A   1      51.381  25.978  32.856  1.00  0.00    -0.237 OA
ATOM    102  O   UNL A   1      50.774  24.195  31.253  1.00  0.00    -0.237 OA
ATOM    103  O   UNL A   1      50.209  26.543  30.762  1.00  0.00    -0.744 OA
ENDBRANCH  96 100
ENDBRANCH  70  93
ENDBRANCH  44  45
ENDBRANCH  36  39
ENDBRANCH  34  35
ENDBRANCH  33  34
ENDBRANCH   1  33
TORSDOF 20
ENDMDL
MODEL 2
REMARK VINA RESULT:     -11.9      1.238      2.305
REMARK SMILES [NH3+][C@H]([C@@H](C(=O)NCCCNC(=O)c1ccc(-c2c3nc(c(-c4cc(S(=O)(=O)[O-])ccc4F)c4ccc([nH]4)c(-c4cc(S(=O)(=O)[O-])ccc4F)c4nc(c(-c5cc(S(=O)(=O)[O-])ccc5F)c5ccc2[nH]5)C=C4)C=C3)cc1)C(=O)OCC1c2ccccc2-c2ccccc21)C(F)(F)F
REMARK SMILES IDX 7 1 6 2 4 3 5 4 3 6 2 7 1 8 93 12 94 13 95 14 96 15 76 16
REMARK SMILES IDX 77 17 78 18 79 19 80 20 81 21 92 22 82 23 86 24 87 25 91 26
REMARK SMILES IDX 83 27 85 28 88 29 90 30 84 31 89 32 8 33 9 34 10 35 11 36
REMARK SMILES IDX 12 38 13 39 14 40 75 41 15 42 74 43 16 44 17 45 18 46 68 47
REMARK SMILES IDX 19 48 73 49 67 50 69 51 20 52 72 53 66 54 65 55 21 57 53 58
REMARK SMILES IDX 33 59 52 60 34 61 37 62 51 63 70 64 35 65 36 66 50 68 71 69
REMARK SMILES IDX 38 70 22 71 23 72 31 73 24 74 30 75 32 76 29 77 25 78 26 79
REMARK SMILES IDX 27 80 28 81 54 82 55 83 63 84 56 85 62 86 64 87 61 88 57 89
REMARK SMILES IDX 58 90 59 91 60 92 39 93 40 94 48 95 41 96 47 97 49 98 46 99
REMARK SMILES IDX 42 100 43 101 44 102 45 103
REMARK H PARENT 6 5 1 9 1 10 1 11 10 37 69 56 37 67
REMARK Flexibility Score: inf
ROOT
ATOM      1  C   UNL A   1      33.428  26.861  25.892  1.00  0.00     0.117 C 
ENDROOT
BRANCH   1   2
ATOM      2  N   UNL A   1      32.028  26.706  26.262  1.00  0.00    -0.355 N 
ATOM      3  C   UNL A   1      31.176  25.648  26.138  1.00  0.00     0.240 C 
ATOM      4  O   UNL A   1      30.033  25.797  26.576  1.00  0.00    -0.274 OA
ATOM      5  H   UNL A   1      31.626  27.505  26.673  1.00  0.00     0.163 HD
BRANCH   3   6
ATOM      6  C   UNL A   1      31.597  24.369  25.435  1.00  0.00     0.255 C 
BRANCH   6   7
ATOM      7  C   UNL A   1      30.946  24.159  24.043  1.00  0.00     0.311 C 
BRANCH   7   8
ATOM      8  N   UNL A   1      29.755  25.013  23.764  1.00  0.00    -0.346 N 
ATOM      9  H   UNL A   1      28.907  24.452  23.850  1.00  0.00     0.345 HD
ATOM     10  H   UNL A   1      29.820  25.389  22.819  1.00  0.00     0.345 HD
ATOM     11  H   UNL A   1      29.723  25.781  24.435  1.00  0.00     0.345 HD
ENDBRANCH   7   8
BRANCH   7  12
ATOM     12  C   UNL A   1      32.079  24.193  22.986  1.00  0.00     0.442 C 
ATOM     13  F   UNL A   1      32.292  22.947  22.497  1.00  0.00    -0.165 F 
ATOM     14  F   UNL A   1      31.776  24.989  21.942  1.00  0.00    -0.165 F 
ATOM     15  F   UNL A   1      33.245  24.620  23.514  1.00  0.00    -0.165 F 
ENDBRANCH   7  12
ENDBRANCH   6   7
BRANCH   6  16
ATOM     16  C   UNL A   1      31.359  23.188  26.354  1.00  0.00     0.325 C 
ATOM     17  O   UNL A   1      30.417  22.416  26.206  1.00  0.00    -0.251 OA
BRANCH  16  18
ATOM     18  O   UNL A   1      32.386  22.984  27.235  1.00  0.00    -0.464 OA
BRANCH  18  19
ATOM     19  C   UNL A   1      33.214  21.903  26.804  1.00  0.00     0.246 C 
BRANCH  19  20
ATOM     20  C   UNL A   1      33.900  22.152  25.444  1.00  0.00     0.088 C 
ATOM     21  C   UNL A   1      35.398  22.417  25.602  1.00  0.00    -0.029 A 
ATOM     22  C   UNL A   1      33.920  20.784  24.759  1.00  0.00    -0.029 A 
ATOM     23  C   UNL A   1      36.042  23.589  25.969  1.00  0.00     0.005 A 
ATOM     24  C   UNL A   1      36.129  21.250  25.280  1.00  0.00    -0.014 A 
ATOM     25  C   UNL A   1      35.203  20.215  24.875  1.00  0.00    -0.014 A 
ATOM     26  C   UNL A   1      32.829  20.057  24.305  1.00  0.00     0.005 A 
ATOM     27  C   UNL A   1      37.441  23.590  25.985  1.00  0.00     0.000 A 
ATOM     28  C   UNL A   1      37.514  21.251  25.302  1.00  0.00     0.009 A 
ATOM     29  C   UNL A   1      35.371  18.856  24.689  1.00  0.00     0.009 A 
ATOM     30  C   UNL A   1      33.005  18.693  24.097  1.00  0.00     0.000 A 
ATOM     31  C   UNL A   1      38.170  22.435  25.651  1.00  0.00     0.001 A 
ATOM     32  C   UNL A   1      34.255  18.091  24.327  1.00  0.00     0.001 A 
ENDBRANCH  19  20
ENDBRANCH  18  19
ENDBRANCH  16  18
ENDBRANCH   6  16
ENDBRANCH   3   6
ENDBRANCH   1   2
BRANCH   1  33
ATOM     33  C   UNL A   1      33.963  28.263  26.177  1.00  0.00     0.042 C 
BRANCH  33  34
ATOM     34  C   UNL A   1      33.289  28.968  27.353  1.00  0.00     0.118 C 
BRANCH  34  35
ATOM     35  N   UNL A   1      33.486  30.407  27.305  1.00  0.00    -0.352 N 
ATOM     36  C   UNL A   1      34.485  31.175  27.855  1.00  0.00     0.251 C 
ATOM     37  H   UNL A   1      32.802  30.906  26.804  1.00  0.00     0.163 HD
ATOM     38  O   UNL A   1      34.323  32.390  27.930  1.00  0.00    -0.269 OA
BRANCH  36  39
ATOM     39  C   UNL A   1      35.736  30.559  28.361  1.00  0.00     0.039 A 
ATOM     40  C   UNL A   1      36.893  30.647  27.580  1.00  0.00     0.014 A 
ATOM     41  C   UNL A   1      35.765  29.845  29.561  1.00  0.00     0.014 A 
ATOM     42  C   UNL A   1      38.084  30.064  28.026  1.00  0.00     0.010 A 
ATOM     43  C   UNL A   1      36.970  29.322  30.037  1.00  0.00     0.010 A 
ATOM     44  C   UNL A   1      38.142  29.420  29.272  1.00  0.00    -0.014 A 
BRANCH  44  45
ATOM     45  C   UNL A   1      39.417  28.842  29.783  1.00  0.00     0.031 A 
ATOM     46  C   UNL A   1      40.151  29.505  30.920  1.00  0.00     0.074 A 
ATOM     47  C   UNL A   1      39.942  27.752  29.187  1.00  0.00     0.049 A 
ATOM     48  N   UNL A   1      41.304  29.194  31.456  1.00  0.00    -0.248 NA
ATOM     49  C   UNL A   1      39.517  30.692  31.516  1.00  0.00     0.031 C 
ATOM     50  C   UNL A   1      39.345  27.042  28.053  1.00  0.00     0.029 A 
ATOM     51  N   UNL A   1      41.100  27.056  29.438  1.00  0.00    -0.354 N 
ATOM     52  C   UNL A   1      41.544  30.154  32.434  1.00  0.00     0.074 A 
ATOM     53  C   UNL A   1      40.437  31.085  32.385  1.00  0.00     0.031 C 
ATOM     54  C   UNL A   1      40.131  26.006  27.719  1.00  0.00     0.029 A 
ATOM     55  C   UNL A   1      41.313  26.004  28.576  1.00  0.00     0.049 A 
ATOM     56  H   UNL A   1      41.719  27.288  30.167  1.00  0.00     0.167 HD
ATOM     57  C   UNL A   1      42.585  30.242  33.300  1.00  0.00     0.034 A 
ATOM     58  C   UNL A   1      42.349  25.147  28.471  1.00  0.00     0.034 A 
ATOM     59  C   UNL A   1      43.670  29.291  33.349  1.00  0.00     0.049 A 
ATOM     60  C   UNL A   1      43.500  25.274  29.440  1.00  0.00     0.074 A 
ATOM     61  C   UNL A   1      44.729  29.242  34.240  1.00  0.00     0.029 A 
ATOM     62  N   UNL A   1      43.847  28.233  32.467  1.00  0.00    -0.354 N 
ATOM     63  N   UNL A   1      43.673  26.147  30.407  1.00  0.00    -0.248 NA
ATOM     64  C   UNL A   1      44.586  24.295  29.314  1.00  0.00     0.031 C 
ATOM     65  C   UNL A   1      45.587  28.209  33.848  1.00  0.00     0.029 A 
ATOM     66  C   UNL A   1      45.018  27.553  32.767  1.00  0.00     0.049 A 
ATOM     67  H   UNL A   1      43.231  28.000  31.736  1.00  0.00     0.167 HD
ATOM     68  C   UNL A   1      44.872  25.797  31.022  1.00  0.00     0.074 A 
ATOM     69  C   UNL A   1      45.367  24.625  30.332  1.00  0.00     0.031 C 
ATOM     70  C   UNL A   1      45.506  26.389  32.067  1.00  0.00     0.034 A 
BRANCH  57  71
ATOM     71  C   UNL A   1      42.622  31.422  34.243  1.00  0.00     0.023 A 
ATOM     72  C   UNL A   1      41.865  31.458  35.426  1.00  0.00     0.031 A 
ATOM     73  C   UNL A   1      43.442  32.529  33.953  1.00  0.00     0.131 A 
ATOM     74  C   UNL A   1      41.896  32.599  36.243  1.00  0.00     0.055 A 
ATOM     75  C   UNL A   1      43.529  33.628  34.811  1.00  0.00     0.041 A 
ATOM     76  F   UNL A   1      44.174  32.563  32.829  1.00  0.00    -0.206 F 
ATOM     77  C   UNL A   1      42.743  33.673  35.959  1.00  0.00     0.022 A 
BRANCH  74  78
ATOM     78  S   UNL A   1      40.717  32.714  37.618  1.00  0.00     0.124 S 
ATOM     79  O   UNL A   1      39.673  31.788  37.188  1.00  0.00    -0.237 OA
ATOM     80  O   UNL A   1      41.520  32.290  38.757  1.00  0.00    -0.237 OA
ATOM     81  O   UNL A   1      40.328  34.124  37.618  1.00  0.00    -0.744 OA
ENDBRANCH  74  78
ENDBRANCH  57  71
BRANCH  58  82
ATOM     82  C   UNL A   1      42.374  24.110  27.397  1.00  0.00     0.023 A 
ATOM     83  C   UNL A   1      41.812  22.839  27.598  1.00  0.00     0.031 A 
ATOM     84  C   UNL A   1      43.020  24.355  26.172  1.00  0.00     0.131 A 
ATOM     85  C   UNL A   1      41.962  21.843  26.619  1.00  0.00     0.055 A 
ATOM     86  C   UNL A   1      43.109  23.382  25.174  1.00  0.00     0.041 A 
ATOM     87  F   UNL A   1      43.574  25.552  25.923  1.00  0.00    -0.206 F 
ATOM     88  C   UNL A   1      42.593  22.111  25.403  1.00  0.00     0.022 A 
BRANCH  85  89
ATOM     89  S   UNL A   1      41.422  20.155  27.008  1.00  0.00     0.124 S 
ATOM     90  O   UNL A   1      40.558  19.851  25.874  1.00  0.00    -0.237 OA
ATOM     91  O   UNL A   1      42.691  19.437  27.059  1.00  0.00    -0.237 OA
ATOM     92  O   UNL A   1      40.739  20.303  28.292  1.00  0.00    -0.744 OA
ENDBRANCH  85  89
ENDBRANCH  58  82
BRANCH  70  93
ATOM     93  C   UNL A   1      46.780  25.741  32.557  1.00  0.00     0.023 A 
ATOM     94  C   UNL A   1      48.016  25.958  31.923  1.00  0.00     0.031 A 
ATOM     95  C   UNL A   1      46.752  24.884  33.672  1.00  0.00     0.131 A 
ATOM     96  C   UNL A   1      49.160  25.280  32.371  1.00  0.00     0.055 A 
ATOM     97  C   UNL A   1      47.906  24.266  34.155  1.00  0.00     0.041 A 
ATOM     98  F   UNL A   1      45.599  24.636  34.314  1.00  0.00    -0.206 F 
ATOM     99  C   UNL A   1      49.116  24.450  33.494  1.00  0.00     0.022 A 
BRANCH  96 100
ATOM    100  S   UNL A   1      50.689  25.418  31.404  1.00  0.00     0.124 S 
ATOM    101  O   UNL A   1      51.082  26.800  31.656  1.00  0.00    -0.237 OA
ATOM    102  O   UNL A   1      51.535  24.395  32.010  1.00  0.00    -0.237 OA
ATOM    103  O   UNL A   1      50.257  25.134  30.037  1.00  0.00    -0.744 OA
ENDBRANCH  96 100
ENDBRANCH  70  93
ENDBRANCH  44  45
ENDBRANCH  36  39
ENDBRANCH  34  35
ENDBRANCH  33  34
ENDBRANCH   1  33
TORSDOF 20
ENDMDL
MODEL 3
REMARK VINA RESULT:     -11.8      1.564      2.018
REMARK SMILES [NH3+][C@H]([C@@H](C(=O)NCCCNC(=O)c1ccc(-c2c3nc(c(-c4cc(S(=O)(=O)[O-])ccc4F)c4ccc([nH]4)c(-c4cc(S(=O)(=O)[O-])ccc4F)c4nc(c(-c5cc(S(=O)(=O)[O-])ccc5F)c5ccc2[nH]5)C=C4)C=C3)cc1)C(=O)OCC1c2ccccc2-c2ccccc21)C(F)(F)F
REMARK SMILES IDX 7 1 6 2 4 3 5 4 3 6 2 7 1 8 93 12 94 13 95 14 96 15 76 16
REMARK SMILES IDX 77 17 78 18 79 19 80 20 81 21 92 22 82 23 86 24 87 25 91 26
REMARK SMILES IDX 83 27 85 28 88 29 90 30 84 31 89 32 8 33 9 34 10 35 11 36
REMARK SMILES IDX 12 38 13 39 14 40 75 41 15 42 74 43 16 44 17 45 18 46 68 47
REMARK SMILES IDX 19 48 73 49 67 50 69 51 20 52 72 53 66 54 65 55 21 57 53 58
REMARK SMILES IDX 33 59 52 60 34 61 37 62 51 63 70 64 35 65 36 66 50 68 71 69
REMARK SMILES IDX 38 70 22 71 23 72 31 73 24 74 30 75 32 76 29 77 25 78 26 79
REMARK SMILES IDX 27 80 28 81 54 82 55 83 63 84 56 85 62 86 64 87 61 88 57 89
REMARK SMILES IDX 58 90 59 91 60 92 39 93 40 94 48 95 41 96 47 97 49 98 46 99
REMARK SMILES IDX 42 100 43 101 44 102 45 103
REMARK H PARENT 6 5 1 9 1 10 1 11 10 37 69 56 37 67
REMARK Flexibility Score: inf
ROOT
ATOM      1  C   UNL A   1      31.787  26.680  26.471  1.00  0.00     0.117 C 
ENDROOT
BRANCH   1   2
ATOM      2  N   UNL A   1      30.881  26.307  25.393  1.00  0.00    -0.355 N 
ATOM      3  C   UNL A   1      31.106  26.069  24.069  1.00  0.00     0.240 C 
ATOM      4  O   UNL A   1      30.134  25.734  23.388  1.00  0.00    -0.274 OA
ATOM      5  H   UNL A   1      29.941  26.209  25.669  1.00  0.00     0.163 HD
BRANCH   3   6
ATOM      6  C   UNL A   1      32.479  26.271  23.449  1.00  0.00     0.255 C 
BRANCH   6   7
ATOM      7  C   UNL A   1      32.622  27.573  22.620  1.00  0.00     0.311 C 
BRANCH   7   8
ATOM      8  N   UNL A   1      31.341  28.270  22.306  1.00  0.00    -0.346 N 
ATOM      9  H   UNL A   1      30.811  27.718  21.631  1.00  0.00     0.345 HD
ATOM     10  H   UNL A   1      31.540  29.189  21.914  1.00  0.00     0.345 HD
ATOM     11  H   UNL A   1      30.793  28.376  23.161  1.00  0.00     0.345 HD
ENDBRANCH   7   8
BRANCH   7  12
ATOM     12  C   UNL A   1      33.726  28.434  23.286  1.00  0.00     0.442 C 
ATOM     13  F   UNL A   1      34.327  27.729  24.275  1.00  0.00    -0.165 F 
ATOM     14  F   UNL A   1      34.683  28.799  22.412  1.00  0.00    -0.165 F 
ATOM     15  F   UNL A   1      33.219  29.553  23.846  1.00  0.00    -0.165 F 
ENDBRANCH   7  12
ENDBRANCH   6   7
BRANCH   6  16
ATOM     16  C   UNL A   1      32.851  25.043  22.643  1.00  0.00     0.325 C 
ATOM     17  O   UNL A   1      33.498  25.109  21.603  1.00  0.00    -0.251 OA
BRANCH  16  18
ATOM     18  O   UNL A   1      32.545  23.874  23.283  1.00  0.00    -0.464 OA
BRANCH  18  19
ATOM     19  C   UNL A   1      33.725  23.103  23.519  1.00  0.00     0.246 C 
BRANCH  19  20
ATOM     20  C   UNL A   1      33.702  22.329  24.854  1.00  0.00     0.088 C 
ATOM     21  C   UNL A   1      33.570  20.821  24.635  1.00  0.00    -0.029 A 
ATOM     22  C   UNL A   1      35.134  22.420  25.384  1.00  0.00    -0.029 A 
ATOM     23  C   UNL A   1      32.435  20.076  24.359  1.00  0.00     0.005 A 
ATOM     24  C   UNL A   1      34.834  20.202  24.784  1.00  0.00    -0.014 A 
ATOM     25  C   UNL A   1      35.811  21.211  25.131  1.00  0.00    -0.014 A 
ATOM     26  C   UNL A   1      35.796  23.558  25.822  1.00  0.00     0.005 A 
ATOM     27  C   UNL A   1      32.570  18.687  24.258  1.00  0.00     0.000 A 
ATOM     28  C   UNL A   1      34.967  18.828  24.678  1.00  0.00     0.009 A 
ATOM     29  C   UNL A   1      37.192  21.178  25.157  1.00  0.00     0.009 A 
ATOM     30  C   UNL A   1      37.186  23.516  25.870  1.00  0.00     0.000 A 
ATOM     31  C   UNL A   1      33.823  18.068  24.421  1.00  0.00     0.001 A 
ATOM     32  C   UNL A   1      37.879  22.350  25.501  1.00  0.00     0.001 A 
ENDBRANCH  19  20
ENDBRANCH  18  19
ENDBRANCH  16  18
ENDBRANCH   6  16
ENDBRANCH   3   6
ENDBRANCH   1   2
BRANCH   1  33
ATOM     33  C   UNL A   1      31.906  28.193  26.647  1.00  0.00     0.042 C 
BRANCH  33  34
ATOM     34  C   UNL A   1      33.222  28.654  27.268  1.00  0.00     0.118 C 
BRANCH  34  35
ATOM     35  N   UNL A   1      33.381  30.096  27.188  1.00  0.00    -0.352 N 
ATOM     36  C   UNL A   1      34.363  30.902  27.715  1.00  0.00     0.251 C 
ATOM     37  H   UNL A   1      32.680  30.566  26.681  1.00  0.00     0.163 HD
ATOM     38  O   UNL A   1      34.168  32.113  27.765  1.00  0.00    -0.269 OA
BRANCH  36  39
ATOM     39  C   UNL A   1      35.632  30.330  28.225  1.00  0.00     0.039 A 
ATOM     40  C   UNL A   1      36.745  30.302  27.379  1.00  0.00     0.014 A 
ATOM     41  C   UNL A   1      35.720  29.767  29.501  1.00  0.00     0.014 A 
ATOM     42  C   UNL A   1      37.953  29.756  27.829  1.00  0.00     0.010 A 
ATOM     43  C   UNL A   1      36.943  29.285  29.973  1.00  0.00     0.010 A 
ATOM     44  C   UNL A   1      38.073  29.268  29.140  1.00  0.00    -0.014 A 
BRANCH  44  45
ATOM     45  C   UNL A   1      39.367  28.734  29.649  1.00  0.00     0.031 A 
ATOM     46  C   UNL A   1      40.094  29.439  30.765  1.00  0.00     0.074 A 
ATOM     47  C   UNL A   1      39.915  27.646  29.070  1.00  0.00     0.049 A 
ATOM     48  N   UNL A   1      41.260  29.169  31.294  1.00  0.00    -0.248 NA
ATOM     49  C   UNL A   1      39.435  30.621  31.343  1.00  0.00     0.031 C 
ATOM     50  C   UNL A   1      39.325  26.897  27.957  1.00  0.00     0.029 A 
ATOM     51  N   UNL A   1      41.092  26.985  29.323  1.00  0.00    -0.354 N 
ATOM     52  C   UNL A   1      41.485  30.155  32.250  1.00  0.00     0.074 A 
ATOM     53  C   UNL A   1      40.353  31.055  32.195  1.00  0.00     0.031 C 
ATOM     54  C   UNL A   1      40.134  25.876  27.635  1.00  0.00     0.029 A 
ATOM     55  C   UNL A   1      41.325  25.922  28.480  1.00  0.00     0.049 A 
ATOM     56  H   UNL A   1      41.713  27.248  30.040  1.00  0.00     0.167 HD
ATOM     57  C   UNL A   1      42.531  30.287  33.104  1.00  0.00     0.034 A 
ATOM     58  C   UNL A   1      42.382  25.090  28.381  1.00  0.00     0.034 A 
ATOM     59  C   UNL A   1      43.642  29.367  33.161  1.00  0.00     0.049 A 
ATOM     60  C   UNL A   1      43.538  25.267  29.335  1.00  0.00     0.074 A 
ATOM     61  C   UNL A   1      44.711  29.363  34.042  1.00  0.00     0.029 A 
ATOM     62  N   UNL A   1      43.838  28.296  32.298  1.00  0.00    -0.354 N 
ATOM     63  N   UNL A   1      43.699  26.164  30.282  1.00  0.00    -0.248 NA
ATOM     64  C   UNL A   1      44.648  24.314  29.218  1.00  0.00     0.031 C 
ATOM     65  C   UNL A   1      45.591  28.345  33.661  1.00  0.00     0.029 A 
ATOM     66  C   UNL A   1      45.029  27.653  32.600  1.00  0.00     0.049 A 
ATOM     67  H   UNL A   1      43.221  28.031  31.578  1.00  0.00     0.167 HD
ATOM     68  C   UNL A   1      44.912  25.858  30.892  1.00  0.00     0.074 A 
ATOM     69  C   UNL A   1      45.431  24.685  30.220  1.00  0.00     0.031 C 
ATOM     70  C   UNL A   1      45.541  26.487  31.919  1.00  0.00     0.034 A 
BRANCH  57  71
ATOM     71  C   UNL A   1      42.547  31.487  34.022  1.00  0.00     0.023 A 
ATOM     72  C   UNL A   1      41.925  31.472  35.282  1.00  0.00     0.031 A 
ATOM     73  C   UNL A   1      43.209  32.666  33.630  1.00  0.00     0.131 A 
ATOM     74  C   UNL A   1      41.925  32.630  36.076  1.00  0.00     0.055 A 
ATOM     75  C   UNL A   1      43.273  33.788  34.459  1.00  0.00     0.041 A 
ATOM     76  F   UNL A   1      43.805  32.749  32.430  1.00  0.00    -0.206 F 
ATOM     77  C   UNL A   1      42.617  33.778  35.687  1.00  0.00     0.022 A 
BRANCH  74  78
ATOM     78  S   UNL A   1      40.899  32.655  37.573  1.00  0.00     0.124 S 
ATOM     79  O   UNL A   1      41.789  32.034  38.551  1.00  0.00    -0.237 OA
ATOM     80  O   UNL A   1      40.641  34.077  37.755  1.00  0.00    -0.237 OA
ATOM     81  O   UNL A   1      39.734  31.851  37.204  1.00  0.00    -0.744 OA
ENDBRANCH  74  78
ENDBRANCH  57  71
BRANCH  58  82
ATOM     82  C   UNL A   1      42.423  24.033  27.328  1.00  0.00     0.023 A 
ATOM     83  C   UNL A   1      41.818  22.781  27.527  1.00  0.00     0.031 A 
ATOM     84  C   UNL A   1      43.128  24.236  26.128  1.00  0.00     0.131 A 
ATOM     85  C   UNL A   1      41.981  21.763  26.574  1.00  0.00     0.055 A 
ATOM     86  C   UNL A   1      43.232  23.242  25.152  1.00  0.00     0.041 A 
ATOM     87  F   UNL A   1      43.726  25.413  25.881  1.00  0.00    -0.206 F 
ATOM     88  C   UNL A   1      42.671  21.991  25.381  1.00  0.00     0.022 A 
BRANCH  85  89
ATOM     89  S   UNL A   1      41.378  20.099  26.970  1.00  0.00     0.124 S 
ATOM     90  O   UNL A   1      40.419  19.868  25.896  1.00  0.00    -0.237 OA
ATOM     91  O   UNL A   1      42.605  19.312  26.914  1.00  0.00    -0.237 OA
ATOM     92  O   UNL A   1      40.799  20.254  28.302  1.00  0.00    -0.744 OA
ENDBRANCH  85  89
ENDBRANCH  58  82
BRANCH  70  93
ATOM     93  C   UNL A   1      46.836  25.883  32.408  1.00  0.00     0.023 A 
ATOM     94  C   UNL A   1      46.875  24.977  33.483  1.00  0.00     0.031 A 
ATOM     95  C   UNL A   1      48.052  26.228  31.791  1.00  0.00     0.131 A 
ATOM     96  C   UNL A   1      48.109  24.496  33.946  1.00  0.00     0.055 A 
ATOM     97  C   UNL A   1      49.270  25.693  32.213  1.00  0.00     0.041 A 
ATOM     98  F   UNL A   1      48.076  27.092  30.763  1.00  0.00    -0.206 F 
ATOM     99  C   UNL A   1      49.304  24.833  33.306  1.00  0.00     0.022 A 
BRANCH  96 100
ATOM    100  S   UNL A   1      48.141  23.500  35.462  1.00  0.00     0.124 S 
ATOM    101  O   UNL A   1      49.117  22.469  35.125  1.00  0.00    -0.237 OA
ATOM    102  O   UNL A   1      48.561  24.472  36.466  1.00  0.00    -0.237 OA
ATOM    103  O   UNL A   1      46.763  23.030  35.594  1.00  0.00    -0.744 OA
ENDBRANCH  96 100
ENDBRANCH  70  93
ENDBRANCH  44  45
ENDBRANCH  36  39
ENDBRANCH  34  35
ENDBRANCH  33  34
ENDBRANCH   1  33
TORSDOF 20
ENDMDL
