MODEL 1
REMARK VINA RESULT:     -11.6      0.000      0.000
REMARK SMILES C[C@@H]1[C@H](C)CC[C@@H]1NC(=O)N1CCO[C@H](CC(=O)NCCCNC(=O)c2ccc(-c3c4nc(c(-c5cc(S(=O)(=O)[O-])ccc5F)c5ccc([nH]5)c(-c5cc(S(=O)(=O)[O-])ccc5F)c5nc(c(-c6cc(S(=O)(=O)[O-])ccc6F)c6ccc3[nH]6)C=C5)C=C4)cc2)C1
REMARK SMILES IDX 21 1 20 2 19 3 17 4 18 5 16 7 15 8 11 9 12 10 89 11 13 12
REMARK SMILES IDX 14 13 9 14 8 15 10 17 7 18 1 19 2 20 3 21 4 22 5 23 6 24
REMARK SMILES IDX 22 25 23 26 24 27 25 29 26 30 27 31 88 32 28 33 87 34 29 35
REMARK SMILES IDX 30 36 31 37 81 38 32 39 86 40 80 41 82 42 33 43 85 44 79 45
REMARK SMILES IDX 78 46 34 48 66 49 46 50 65 51 47 52 50 53 64 54 83 55 48 56
REMARK SMILES IDX 49 57 63 59 84 60 51 61 35 62 36 63 44 64 37 65 43 66 45 67
REMARK SMILES IDX 42 68 38 69 39 70 40 71 41 72 67 73 68 74 76 75 69 76 75 77
REMARK SMILES IDX 77 78 74 79 70 80 71 81 72 82 73 83 52 84 53 85 61 86 54 87
REMARK SMILES IDX 60 88 62 89 59 90 55 91 56 92 57 93 58 94
REMARK H PARENT 19 6 8 16 23 28 82 47 50 58
REMARK Flexibility Score: inf
ROOT
ATOM      1  C   UNL A   1      32.140  31.365  26.695  1.00  0.00     0.042 C 
ENDROOT
BRANCH   1   2
ATOM      2  C   UNL A   1      31.952  29.942  27.259  1.00  0.00     0.117 C 
BRANCH   2   3
ATOM      3  N   UNL A   1      32.956  28.913  27.050  1.00  0.00    -0.356 N 
ATOM      4  C   UNL A   1      32.945  27.676  26.470  1.00  0.00     0.222 C 
ATOM      5  O   UNL A   1      34.015  27.246  26.035  1.00  0.00    -0.275 OA
ATOM      6  H   UNL A   1      33.840  29.163  27.405  1.00  0.00     0.163 HD
BRANCH   4   7
ATOM      7  C   UNL A   1      31.693  26.824  26.372  1.00  0.00     0.133 C 
BRANCH   7   8
ATOM      8  C   UNL A   1      30.903  26.949  25.044  1.00  0.00     0.147 C 
ATOM      9  N   UNL A   1      31.874  25.838  23.083  1.00  0.00    -0.320 N 
ATOM     10  C   UNL A   1      31.322  26.774  22.136  1.00  0.00     0.150 C 
ATOM     11  C   UNL A   1      30.952  25.681  24.193  1.00  0.00     0.154 C 
ATOM     12  C   UNL A   1      30.868  28.053  22.881  1.00  0.00     0.182 C 
ATOM     13  O   UNL A   1      31.296  28.112  24.269  1.00  0.00    -0.374 OA
BRANCH   9  14
ATOM     14  C   UNL A   1      33.085  25.207  23.058  1.00  0.00     0.317 C 
ATOM     15  N   UNL A   1      33.730  24.882  24.201  1.00  0.00    -0.335 N 
ATOM     16  H   UNL A   1      34.474  25.487  24.422  1.00  0.00     0.165 HD
ATOM     17  O   UNL A   1      33.729  25.059  22.017  1.00  0.00    -0.249 OA
BRANCH  15  18
ATOM     18  C   UNL A   1      33.536  23.797  25.178  1.00  0.00     0.087 C 
ATOM     19  C   UNL A   1      36.111  23.944  25.740  1.00  0.00     0.010 C 
ATOM     20  C   UNL A   1      34.813  23.159  25.832  1.00  0.00     0.011 C 
ATOM     21  C   UNL A   1      34.828  21.669  25.375  1.00  0.00    -0.009 C 
ATOM     22  C   UNL A   1      36.139  20.990  25.002  1.00  0.00     0.008 C 
ATOM     23  C   UNL A   1      33.792  21.611  24.257  1.00  0.00     0.006 C 
ATOM     24  C   UNL A   1      32.733  22.576  24.751  1.00  0.00     0.025 C 
ENDBRANCH  15  18
ENDBRANCH   9  14
ENDBRANCH   7   8
ENDBRANCH   4   7
ENDBRANCH   2   3
ENDBRANCH   1   2
BRANCH   1  25
ATOM     25  C   UNL A   1      33.130  32.395  27.261  1.00  0.00     0.118 C 
BRANCH  25  26
ATOM     26  N   UNL A   1      32.617  33.695  27.624  1.00  0.00    -0.352 N 
ATOM     27  C   UNL A   1      33.186  34.550  28.547  1.00  0.00     0.251 C 
ATOM     28  H   UNL A   1      31.794  33.997  27.176  1.00  0.00     0.163 HD
ATOM     29  O   UNL A   1      32.764  35.691  28.707  1.00  0.00    -0.269 OA
BRANCH  27  30
ATOM     30  C   UNL A   1      34.321  34.060  29.364  1.00  0.00     0.039 A 
ATOM     31  C   UNL A   1      34.057  33.264  30.480  1.00  0.00     0.014 A 
ATOM     32  C   UNL A   1      35.639  34.341  28.989  1.00  0.00     0.014 A 
ATOM     33  C   UNL A   1      35.120  32.707  31.199  1.00  0.00     0.010 A 
ATOM     34  C   UNL A   1      36.700  33.759  29.696  1.00  0.00     0.010 A 
ATOM     35  C   UNL A   1      36.452  32.924  30.799  1.00  0.00    -0.014 A 
BRANCH  35  36
ATOM     36  C   UNL A   1      37.569  32.236  31.508  1.00  0.00     0.031 A 
ATOM     37  C   UNL A   1      38.319  31.105  30.858  1.00  0.00     0.074 A 
ATOM     38  C   UNL A   1      37.898  32.623  32.758  1.00  0.00     0.049 A 
ATOM     39  N   UNL A   1      39.330  30.409  31.316  1.00  0.00    -0.248 NA
ATOM     40  C   UNL A   1      37.858  30.691  29.526  1.00  0.00     0.031 C 
ATOM     41  C   UNL A   1      37.224  33.682  33.513  1.00  0.00     0.029 A 
ATOM     42  N   UNL A   1      38.876  32.179  33.615  1.00  0.00    -0.354 N 
ATOM     43  C   UNL A   1      39.633  29.477  30.328  1.00  0.00     0.074 A 
ATOM     44  C   UNL A   1      38.656  29.663  29.273  1.00  0.00     0.031 C 
ATOM     45  C   UNL A   1      37.823  33.822  34.707  1.00  0.00     0.029 A 
ATOM     46  C   UNL A   1      38.902  32.844  34.820  1.00  0.00     0.049 A 
ATOM     47  H   UNL A   1      39.501  31.453  33.387  1.00  0.00     0.167 HD
ATOM     48  C   UNL A   1      40.639  28.566  30.295  1.00  0.00     0.034 A 
ATOM     49  C   UNL A   1      39.700  32.686  35.896  1.00  0.00     0.034 A 
ATOM     50  C   UNL A   1      41.601  28.386  31.360  1.00  0.00     0.049 A 
ATOM     51  C   UNL A   1      40.795  31.649  35.848  1.00  0.00     0.074 A 
ATOM     52  C   UNL A   1      42.683  27.524  31.409  1.00  0.00     0.029 A 
ATOM     53  N   UNL A   1      41.587  29.068  32.571  1.00  0.00    -0.354 N 
ATOM     54  N   UNL A   1      41.106  30.820  34.878  1.00  0.00    -0.248 NA
ATOM     55  C   UNL A   1      41.657  31.539  37.032  1.00  0.00     0.031 C 
ATOM     56  C   UNL A   1      43.281  27.635  32.670  1.00  0.00     0.029 A 
ATOM     57  C   UNL A   1      42.620  28.622  33.383  1.00  0.00     0.049 A 
ATOM     58  H   UNL A   1      40.938  29.767  32.816  1.00  0.00     0.167 HD
ATOM     59  C   UNL A   1      42.217  30.111  35.328  1.00  0.00     0.074 A 
ATOM     60  C   UNL A   1      42.532  30.624  36.644  1.00  0.00     0.031 C 
ATOM     61  C   UNL A   1      42.917  29.128  34.704  1.00  0.00     0.034 A 
BRANCH  48  62
ATOM     62  C   UNL A   1      40.731  27.675  29.077  1.00  0.00     0.023 A 
ATOM     63  C   UNL A   1      41.674  27.910  28.061  1.00  0.00     0.031 A 
ATOM     64  C   UNL A   1      39.852  26.589  28.916  1.00  0.00     0.131 A 
ATOM     65  C   UNL A   1      41.665  27.125  26.897  1.00  0.00     0.055 A 
ATOM     66  C   UNL A   1      39.902  25.760  27.793  1.00  0.00     0.041 A 
ATOM     67  F   UNL A   1      38.919  26.322  29.843  1.00  0.00    -0.206 F 
ATOM     68  C   UNL A   1      40.801  26.036  26.767  1.00  0.00     0.022 A 
BRANCH  65  69
ATOM     69  S   UNL A   1      42.697  27.639  25.497  1.00  0.00     0.124 S 
ATOM     70  O   UNL A   1      43.978  27.891  26.153  1.00  0.00    -0.237 OA
ATOM     71  O   UNL A   1      42.645  26.474  24.623  1.00  0.00    -0.237 OA
ATOM     72  O   UNL A   1      42.019  28.830  24.991  1.00  0.00    -0.744 OA
ENDBRANCH  65  69
ENDBRANCH  48  62
BRANCH  49  73
ATOM     73  C   UNL A   1      39.499  33.521  37.117  1.00  0.00     0.023 A 
ATOM     74  C   UNL A   1      40.277  34.666  37.351  1.00  0.00     0.031 A 
ATOM     75  C   UNL A   1      38.552  33.159  38.092  1.00  0.00     0.131 A 
ATOM     76  C   UNL A   1      40.129  35.381  38.550  1.00  0.00     0.055 A 
ATOM     77  C   UNL A   1      38.372  33.903  39.259  1.00  0.00     0.041 A 
ATOM     78  F   UNL A   1      37.777  32.076  37.917  1.00  0.00    -0.206 F 
ATOM     79  C   UNL A   1      39.172  35.016  39.500  1.00  0.00     0.022 A 
BRANCH  76  80
ATOM     80  S   UNL A   1      41.264  36.755  38.891  1.00  0.00     0.124 S 
ATOM     81  O   UNL A   1      40.338  37.831  39.222  1.00  0.00    -0.237 OA
ATOM     82  O   UNL A   1      42.055  36.225  39.996  1.00  0.00    -0.237 OA
ATOM     83  O   UNL A   1      41.987  36.918  37.631  1.00  0.00    -0.744 OA
ENDBRANCH  76  80
ENDBRANCH  49  73
BRANCH  61  84
ATOM     84  C   UNL A   1      44.117  28.573  35.435  1.00  0.00     0.023 A 
ATOM     85  C   UNL A   1      43.998  27.526  36.365  1.00  0.00     0.031 A 
ATOM     86  C   UNL A   1      45.396  29.113  35.208  1.00  0.00     0.131 A 
ATOM     87  C   UNL A   1      45.126  27.092  37.078  1.00  0.00     0.055 A 
ATOM     88  C   UNL A   1      46.525  28.635  35.874  1.00  0.00     0.041 A 
ATOM     89  F   UNL A   1      45.569  30.116  34.333  1.00  0.00    -0.206 F 
ATOM     90  C   UNL A   1      46.391  27.628  36.826  1.00  0.00     0.022 A 
BRANCH  87  91
ATOM     91  S   UNL A   1      44.903  25.879  38.409  1.00  0.00     0.124 S 
ATOM     92  O   UNL A   1      44.150  26.648  39.396  1.00  0.00    -0.237 OA
ATOM     93  O   UNL A   1      44.171  24.810  37.740  1.00  0.00    -0.237 OA
ATOM     94  O   UNL A   1      46.271  25.542  38.799  1.00  0.00    -0.744 OA
ENDBRANCH  87  91
ENDBRANCH  61  84
ENDBRANCH  35  36
ENDBRANCH  27  30
ENDBRANCH  25  26
ENDBRANCH   1  25
TORSDOF 16
ENDMDL
MODEL 2
REMARK VINA RESULT:     -11.4      1.483      1.830
REMARK SMILES C[C@@H]1[C@H](C)CC[C@@H]1NC(=O)N1CCO[C@H](CC(=O)NCCCNC(=O)c2ccc(-c3c4nc(c(-c5cc(S(=O)(=O)[O-])ccc5F)c5ccc([nH]5)c(-c5cc(S(=O)(=O)[O-])ccc5F)c5nc(c(-c6cc(S(=O)(=O)[O-])ccc6F)c6ccc3[nH]6)C=C5)C=C4)cc2)C1
REMARK SMILES IDX 21 1 20 2 19 3 17 4 18 5 16 7 15 8 11 9 12 10 89 11 13 12
REMARK SMILES IDX 14 13 9 14 8 15 10 17 7 18 1 19 2 20 3 21 4 22 5 23 6 24
REMARK SMILES IDX 22 25 23 26 24 27 25 29 26 30 27 31 88 32 28 33 87 34 29 35
REMARK SMILES IDX 30 36 31 37 81 38 32 39 86 40 80 41 82 42 33 43 85 44 79 45
REMARK SMILES IDX 78 46 34 48 66 49 46 50 65 51 47 52 50 53 64 54 83 55 48 56
REMARK SMILES IDX 49 57 63 59 84 60 51 61 35 62 36 63 44 64 37 65 43 66 45 67
REMARK SMILES IDX 42 68 38 69 39 70 40 71 41 72 67 73 68 74 76 75 69 76 75 77
REMARK SMILES IDX 77 78 74 79 70 80 71 81 72 82 73 83 52 84 53 85 61 86 54 87
REMARK SMILES IDX 60 88 62 89 59 90 55 91 56 92 57 93 58 94
REMARK H PARENT 19 6 8 16 23 28 82 47 50 58
REMARK Flexibility Score: inf
ROOT
ATOM      1  C   UNL A   1      31.894  31.628  27.008  1.00  0.00     0.042 C 
ENDROOT
BRANCH   1   2
ATOM      2  C   UNL A   1      32.194  30.439  26.072  1.00  0.00     0.117 C 
BRANCH   2   3
ATOM      3  N   UNL A   1      32.682  29.175  26.597  1.00  0.00    -0.356 N 
ATOM      4  C   UNL A   1      32.587  27.875  26.189  1.00  0.00     0.222 C 
ATOM      5  O   UNL A   1      33.468  27.098  26.565  1.00  0.00    -0.275 OA
ATOM      6  H   UNL A   1      33.195  29.279  27.431  1.00  0.00     0.163 HD
BRANCH   4   7
ATOM      7  C   UNL A   1      31.444  27.362  25.333  1.00  0.00     0.133 C 
BRANCH   7   8
ATOM      8  C   UNL A   1      31.679  27.421  23.802  1.00  0.00     0.147 C 
ATOM      9  N   UNL A   1      31.758  25.271  22.621  1.00  0.00    -0.320 N 
ATOM     10  C   UNL A   1      32.656  25.737  21.594  1.00  0.00     0.150 C 
ATOM     11  C   UNL A   1      30.893  26.362  23.031  1.00  0.00     0.154 C 
ATOM     12  C   UNL A   1      33.328  27.054  22.057  1.00  0.00     0.182 C 
ATOM     13  O   UNL A   1      33.088  27.382  23.452  1.00  0.00    -0.374 OA
BRANCH   9  14
ATOM     14  C   UNL A   1      31.703  24.045  23.220  1.00  0.00     0.317 C 
ATOM     15  N   UNL A   1      32.708  23.152  23.081  1.00  0.00    -0.335 N 
ATOM     16  H   UNL A   1      32.511  22.429  22.441  1.00  0.00     0.165 HD
ATOM     17  O   UNL A   1      30.680  23.623  23.763  1.00  0.00    -0.249 OA
BRANCH  15  18
ATOM     18  C   UNL A   1      34.040  23.047  23.701  1.00  0.00     0.087 C 
ATOM     19  C   UNL A   1      33.417  20.595  24.453  1.00  0.00     0.010 C 
ATOM     20  C   UNL A   1      34.338  21.796  24.600  1.00  0.00     0.011 C 
ATOM     21  C   UNL A   1      34.589  22.349  26.035  1.00  0.00    -0.009 C 
ATOM     22  C   UNL A   1      34.052  21.608  27.253  1.00  0.00     0.008 C 
ATOM     23  C   UNL A   1      34.112  23.797  25.965  1.00  0.00     0.006 C 
ATOM     24  C   UNL A   1      34.525  24.203  24.566  1.00  0.00     0.025 C 
ENDBRANCH  15  18
ENDBRANCH   9  14
ENDBRANCH   7   8
ENDBRANCH   4   7
ENDBRANCH   2   3
ENDBRANCH   1   2
BRANCH   1  25
ATOM     25  C   UNL A   1      32.954  32.621  27.510  1.00  0.00     0.118 C 
BRANCH  25  26
ATOM     26  N   UNL A   1      32.533  33.974  27.786  1.00  0.00    -0.352 N 
ATOM     27  C   UNL A   1      33.188  34.861  28.618  1.00  0.00     0.251 C 
ATOM     28  H   UNL A   1      31.712  34.290  27.345  1.00  0.00     0.163 HD
ATOM     29  O   UNL A   1      32.840  36.035  28.702  1.00  0.00    -0.269 OA
BRANCH  27  30
ATOM     30  C   UNL A   1      34.325  34.367  29.430  1.00  0.00     0.039 A 
ATOM     31  C   UNL A   1      34.062  33.587  30.557  1.00  0.00     0.014 A 
ATOM     32  C   UNL A   1      35.643  34.628  29.040  1.00  0.00     0.014 A 
ATOM     33  C   UNL A   1      35.125  33.026  31.273  1.00  0.00     0.010 A 
ATOM     34  C   UNL A   1      36.703  34.041  29.743  1.00  0.00     0.010 A 
ATOM     35  C   UNL A   1      36.455  33.222  30.858  1.00  0.00    -0.014 A 
BRANCH  35  36
ATOM     36  C   UNL A   1      37.571  32.529  31.565  1.00  0.00     0.031 A 
ATOM     37  C   UNL A   1      38.292  31.373  30.926  1.00  0.00     0.074 A 
ATOM     38  C   UNL A   1      37.924  32.934  32.802  1.00  0.00     0.049 A 
ATOM     39  N   UNL A   1      39.298  30.669  31.384  1.00  0.00    -0.248 NA
ATOM     40  C   UNL A   1      37.806  30.942  29.610  1.00  0.00     0.031 C 
ATOM     41  C   UNL A   1      37.278  34.018  33.547  1.00  0.00     0.029 A 
ATOM     42  N   UNL A   1      38.906  32.490  33.654  1.00  0.00    -0.354 N 
ATOM     43  C   UNL A   1      39.571  29.714  30.411  1.00  0.00     0.074 A 
ATOM     44  C   UNL A   1      38.584  29.896  29.365  1.00  0.00     0.031 C 
ATOM     45  C   UNL A   1      37.896  34.171  34.729  1.00  0.00     0.029 A 
ATOM     46  C   UNL A   1      38.960  33.177  34.846  1.00  0.00     0.049 A 
ATOM     47  H   UNL A   1      39.516  31.749  33.433  1.00  0.00     0.167 HD
ATOM     48  C   UNL A   1      40.562  28.786  30.381  1.00  0.00     0.034 A 
ATOM     49  C   UNL A   1      39.770  33.027  35.914  1.00  0.00     0.034 A 
ATOM     50  C   UNL A   1      41.535  28.609  31.436  1.00  0.00     0.049 A 
ATOM     51  C   UNL A   1      40.847  31.971  35.871  1.00  0.00     0.074 A 
ATOM     52  C   UNL A   1      42.604  27.731  31.487  1.00  0.00     0.029 A 
ATOM     53  N   UNL A   1      41.550  29.315  32.633  1.00  0.00    -0.354 N 
ATOM     54  N   UNL A   1      41.130  31.118  34.913  1.00  0.00    -0.248 NA
ATOM     55  C   UNL A   1      41.724  31.869  37.045  1.00  0.00     0.031 C 
ATOM     56  C   UNL A   1      43.221  27.855  32.737  1.00  0.00     0.029 A 
ATOM     57  C   UNL A   1      42.587  28.867  33.440  1.00  0.00     0.049 A 
ATOM     58  H   UNL A   1      40.916  30.029  32.874  1.00  0.00     0.167 HD
ATOM     59  C   UNL A   1      42.235  30.399  35.361  1.00  0.00     0.074 A 
ATOM     60  C   UNL A   1      42.577  30.932  36.663  1.00  0.00     0.031 C 
ATOM     61  C   UNL A   1      42.911  29.393  34.747  1.00  0.00     0.034 A 
BRANCH  48  62
ATOM     62  C   UNL A   1      40.622  27.870  29.180  1.00  0.00     0.023 A 
ATOM     63  C   UNL A   1      41.550  28.074  28.143  1.00  0.00     0.031 A 
ATOM     64  C   UNL A   1      39.728  26.792  29.055  1.00  0.00     0.131 A 
ATOM     65  C   UNL A   1      41.510  27.267  26.995  1.00  0.00     0.055 A 
ATOM     66  C   UNL A   1      39.748  25.940  27.948  1.00  0.00     0.041 A 
ATOM     67  F   UNL A   1      38.809  26.553  30.003  1.00  0.00    -0.206 F 
ATOM     68  C   UNL A   1      40.632  26.185  26.901  1.00  0.00     0.022 A 
BRANCH  65  69
ATOM     69  S   UNL A   1      42.523  27.741  25.567  1.00  0.00     0.124 S 
ATOM     70  O   UNL A   1      43.843  27.885  26.176  1.00  0.00    -0.237 OA
ATOM     71  O   UNL A   1      42.354  26.606  24.669  1.00  0.00    -0.237 OA
ATOM     72  O   UNL A   1      41.914  28.991  25.115  1.00  0.00    -0.744 OA
ENDBRANCH  65  69
ENDBRANCH  48  62
BRANCH  49  73
ATOM     73  C   UNL A   1      39.600  33.888  37.121  1.00  0.00     0.023 A 
ATOM     74  C   UNL A   1      38.935  33.415  38.263  1.00  0.00     0.031 A 
ATOM     75  C   UNL A   1      40.063  35.217  37.132  1.00  0.00     0.131 A 
ATOM     76  C   UNL A   1      38.709  34.275  39.350  1.00  0.00     0.055 A 
ATOM     77  C   UNL A   1      39.883  36.052  38.236  1.00  0.00     0.041 A 
ATOM     78  F   UNL A   1      40.710  35.719  36.069  1.00  0.00    -0.206 F 
ATOM     79  C   UNL A   1      39.191  35.586  39.350  1.00  0.00     0.022 A 
BRANCH  76  80
ATOM     80  S   UNL A   1      37.704  33.679  40.738  1.00  0.00     0.124 S 
ATOM     81  O   UNL A   1      37.405  34.921  41.443  1.00  0.00    -0.237 OA
ATOM     82  O   UNL A   1      36.585  33.046  40.049  1.00  0.00    -0.237 OA
ATOM     83  O   UNL A   1      38.601  32.763  41.439  1.00  0.00    -0.744 OA
ENDBRANCH  76  80
ENDBRANCH  49  73
BRANCH  61  84
ATOM     84  C   UNL A   1      44.111  28.832  35.471  1.00  0.00     0.023 A 
ATOM     85  C   UNL A   1      43.996  27.766  36.381  1.00  0.00     0.031 A 
ATOM     86  C   UNL A   1      45.388  29.384  35.259  1.00  0.00     0.131 A 
ATOM     87  C   UNL A   1      45.124  27.326  37.090  1.00  0.00     0.055 A 
ATOM     88  C   UNL A   1      46.518  28.900  35.921  1.00  0.00     0.041 A 
ATOM     89  F   UNL A   1      45.558  30.405  34.404  1.00  0.00    -0.206 F 
ATOM     90  C   UNL A   1      46.387  27.875  36.854  1.00  0.00     0.022 A 
BRANCH  87  91
ATOM     91  S   UNL A   1      44.904  26.087  38.398  1.00  0.00     0.124 S 
ATOM     92  O   UNL A   1      46.217  26.085  39.037  1.00  0.00    -0.237 OA
ATOM     93  O   UNL A   1      43.814  26.653  39.184  1.00  0.00    -0.237 OA
ATOM     94  O   UNL A   1      44.569  24.869  37.663  1.00  0.00    -0.744 OA
ENDBRANCH  87  91
ENDBRANCH  61  84
ENDBRANCH  35  36
ENDBRANCH  27  30
ENDBRANCH  25  26
ENDBRANCH   1  25
TORSDOF 16
ENDMDL
MODEL 3
REMARK VINA RESULT:     -11.3      1.814      3.283
REMARK SMILES C[C@@H]1[C@H](C)CC[C@@H]1NC(=O)N1CCO[C@H](CC(=O)NCCCNC(=O)c2ccc(-c3c4nc(c(-c5cc(S(=O)(=O)[O-])ccc5F)c5ccc([nH]5)c(-c5cc(S(=O)(=O)[O-])ccc5F)c5nc(c(-c6cc(S(=O)(=O)[O-])ccc6F)c6ccc3[nH]6)C=C5)C=C4)cc2)C1
REMARK SMILES IDX 21 1 20 2 19 3 17 4 18 5 16 7 15 8 11 9 12 10 89 11 13 12
REMARK SMILES IDX 14 13 9 14 8 15 10 17 7 18 1 19 2 20 3 21 4 22 5 23 6 24
REMARK SMILES IDX 22 25 23 26 24 27 25 29 26 30 27 31 88 32 28 33 87 34 29 35
REMARK SMILES IDX 30 36 31 37 81 38 32 39 86 40 80 41 82 42 33 43 85 44 79 45
REMARK SMILES IDX 78 46 34 48 66 49 46 50 65 51 47 52 50 53 64 54 83 55 48 56
REMARK SMILES IDX 49 57 63 59 84 60 51 61 35 62 36 63 44 64 37 65 43 66 45 67
REMARK SMILES IDX 42 68 38 69 39 70 40 71 41 72 67 73 68 74 76 75 69 76 75 77
REMARK SMILES IDX 77 78 74 79 70 80 71 81 72 82 73 83 52 84 53 85 61 86 54 87
REMARK SMILES IDX 60 88 62 89 59 90 55 91 56 92 57 93 58 94
REMARK H PARENT 19 6 8 16 23 28 82 47 50 58
REMARK Flexibility Score: inf
ROOT
ATOM      1  C   UNL A   1      31.549  32.435  26.723  1.00  0.00     0.042 C 
ENDROOT
BRANCH   1   2
ATOM      2  C   UNL A   1      31.468  30.923  26.428  1.00  0.00     0.117 C 
BRANCH   2   3
ATOM      3  N   UNL A   1      32.394  29.988  27.043  1.00  0.00    -0.356 N 
ATOM      4  C   UNL A   1      32.569  28.635  26.970  1.00  0.00     0.222 C 
ATOM      5  O   UNL A   1      33.692  28.195  27.226  1.00  0.00    -0.275 OA
ATOM      6  H   UNL A   1      33.037  30.426  27.646  1.00  0.00     0.163 HD
BRANCH   4   7
ATOM      7  C   UNL A   1      31.445  27.677  26.620  1.00  0.00     0.133 C 
BRANCH   7   8
ATOM      8  C   UNL A   1      31.853  26.186  26.496  1.00  0.00     0.147 C 
ATOM      9  N   UNL A   1      31.640  25.173  24.272  1.00  0.00    -0.320 N 
ATOM     10  C   UNL A   1      31.384  23.846  24.774  1.00  0.00     0.150 C 
ATOM     11  C   UNL A   1      32.546  25.860  25.174  1.00  0.00     0.154 C 
ATOM     12  C   UNL A   1      30.985  23.930  26.268  1.00  0.00     0.182 C 
ATOM     13  O   UNL A   1      30.743  25.282  26.740  1.00  0.00    -0.374 OA
BRANCH   9  14
ATOM     14  C   UNL A   1      31.111  25.792  23.176  1.00  0.00     0.317 C 
ATOM     15  N   UNL A   1      30.118  26.701  23.295  1.00  0.00    -0.335 N 
ATOM     16  H   UNL A   1      29.228  26.351  23.058  1.00  0.00     0.165 HD
ATOM     17  O   UNL A   1      31.378  25.436  22.026  1.00  0.00    -0.249 OA
BRANCH  15  18
ATOM     18  C   UNL A   1      30.108  28.115  23.708  1.00  0.00     0.087 C 
ATOM     19  C   UNL A   1      27.525  28.178  23.172  1.00  0.00     0.010 C 
ATOM     20  C   UNL A   1      28.805  28.950  23.447  1.00  0.00     0.011 C 
ATOM     21  C   UNL A   1      29.209  30.072  22.444  1.00  0.00    -0.009 C 
ATOM     22  C   UNL A   1      28.265  30.477  21.319  1.00  0.00     0.008 C 
ATOM     23  C   UNL A   1      30.582  29.642  21.938  1.00  0.00     0.006 C 
ATOM     24  C   UNL A   1      31.204  29.030  23.176  1.00  0.00     0.025 C 
ENDBRANCH  15  18
ENDBRANCH   9  14
ENDBRANCH   7   8
ENDBRANCH   4   7
ENDBRANCH   2   3
ENDBRANCH   1   2
BRANCH   1  25
ATOM     25  C   UNL A   1      32.799  33.143  27.269  1.00  0.00     0.118 C 
BRANCH  25  26
ATOM     26  N   UNL A   1      32.628  34.443  27.873  1.00  0.00    -0.352 N 
ATOM     27  C   UNL A   1      33.471  35.007  28.810  1.00  0.00     0.251 C 
ATOM     28  H   UNL A   1      31.845  34.971  27.593  1.00  0.00     0.163 HD
ATOM     29  O   UNL A   1      33.329  36.168  29.182  1.00  0.00    -0.269 OA
BRANCH  27  30
ATOM     30  C   UNL A   1      34.555  34.175  29.381  1.00  0.00     0.039 A 
ATOM     31  C   UNL A   1      35.880  34.481  29.066  1.00  0.00     0.014 A 
ATOM     32  C   UNL A   1      34.260  33.135  30.269  1.00  0.00     0.014 A 
ATOM     33  C   UNL A   1      36.919  33.772  29.680  1.00  0.00     0.010 A 
ATOM     34  C   UNL A   1      35.303  32.446  30.902  1.00  0.00     0.010 A 
ATOM     35  C   UNL A   1      36.644  32.767  30.625  1.00  0.00    -0.014 A 
BRANCH  35  36
ATOM     36  C   UNL A   1      37.759  32.096  31.353  1.00  0.00     0.031 A 
ATOM     37  C   UNL A   1      38.536  30.975  30.716  1.00  0.00     0.074 A 
ATOM     38  C   UNL A   1      38.063  32.490  32.607  1.00  0.00     0.049 A 
ATOM     39  N   UNL A   1      39.550  30.295  31.192  1.00  0.00    -0.248 NA
ATOM     40  C   UNL A   1      38.103  30.554  29.378  1.00  0.00     0.031 C 
ATOM     41  C   UNL A   1      37.361  33.539  33.351  1.00  0.00     0.029 A 
ATOM     42  N   UNL A   1      39.033  32.061  33.480  1.00  0.00    -0.354 N 
ATOM     43  C   UNL A   1      39.882  29.367  30.210  1.00  0.00     0.074 A 
ATOM     44  C   UNL A   1      38.920  29.537  29.139  1.00  0.00     0.031 C 
ATOM     45  C   UNL A   1      37.939  33.689  34.553  1.00  0.00     0.029 A 
ATOM     46  C   UNL A   1      39.031  32.727  34.685  1.00  0.00     0.049 A 
ATOM     47  H   UNL A   1      39.672  31.344  33.264  1.00  0.00     0.167 HD
ATOM     48  C   UNL A   1      40.902  28.471  30.194  1.00  0.00     0.034 A 
ATOM     49  C   UNL A   1      39.813  32.583  35.774  1.00  0.00     0.034 A 
ATOM     50  C   UNL A   1      41.849  28.306  31.275  1.00  0.00     0.049 A 
ATOM     51  C   UNL A   1      40.924  31.562  35.745  1.00  0.00     0.074 A 
ATOM     52  C   UNL A   1      42.943  27.460  31.343  1.00  0.00     0.029 A 
ATOM     53  N   UNL A   1      41.806  28.989  32.484  1.00  0.00    -0.354 N 
ATOM     54  N   UNL A   1      41.262  30.736  34.781  1.00  0.00    -0.248 NA
ATOM     55  C   UNL A   1      41.768  31.466  36.943  1.00  0.00     0.031 C 
ATOM     56  C   UNL A   1      43.519  27.581  32.612  1.00  0.00     0.029 A 
ATOM     57  C   UNL A   1      42.832  28.559  33.314  1.00  0.00     0.049 A 
ATOM     58  H   UNL A   1      41.143  29.679  32.718  1.00  0.00     0.167 HD
ATOM     59  C   UNL A   1      42.376  30.044  35.249  1.00  0.00     0.074 A 
ATOM     60  C   UNL A   1      42.662  30.563  36.570  1.00  0.00     0.031 C 
ATOM     61  C   UNL A   1      43.101  29.072  34.638  1.00  0.00     0.034 A 
BRANCH  48  62
ATOM     62  C   UNL A   1      41.027  27.580  28.979  1.00  0.00     0.023 A 
ATOM     63  C   UNL A   1      42.020  27.793  28.007  1.00  0.00     0.031 A 
ATOM     64  C   UNL A   1      40.129  26.516  28.775  1.00  0.00     0.131 A 
ATOM     65  C   UNL A   1      42.044  27.011  26.842  1.00  0.00     0.055 A 
ATOM     66  C   UNL A   1      40.209  25.687  27.653  1.00  0.00     0.041 A 
ATOM     67  F   UNL A   1      39.150  26.270  29.659  1.00  0.00    -0.206 F 
ATOM     68  C   UNL A   1      41.160  25.943  26.670  1.00  0.00     0.022 A 
BRANCH  65  69
ATOM     69  S   UNL A   1      43.150  27.501  25.491  1.00  0.00     0.124 S 
ATOM     70  O   UNL A   1      42.231  28.202  24.597  1.00  0.00    -0.237 OA
ATOM     71  O   UNL A   1      44.134  28.331  26.174  1.00  0.00    -0.237 OA
ATOM     72  O   UNL A   1      43.653  26.227  24.981  1.00  0.00    -0.744 OA
ENDBRANCH  65  69
ENDBRANCH  48  62
BRANCH  49  73
ATOM     73  C   UNL A   1      39.580  33.416  36.990  1.00  0.00     0.023 A 
ATOM     74  C   UNL A   1      38.958  32.880  38.129  1.00  0.00     0.031 A 
ATOM     75  C   UNL A   1      39.937  34.776  37.014  1.00  0.00     0.131 A 
ATOM     76  C   UNL A   1      38.670  33.709  39.226  1.00  0.00     0.055 A 
ATOM     77  C   UNL A   1      39.696  35.584  38.127  1.00  0.00     0.041 A 
ATOM     78  F   UNL A   1      40.539  35.339  35.954  1.00  0.00    -0.206 F 
ATOM     79  C   UNL A   1      39.046  35.054  39.237  1.00  0.00     0.022 A 
BRANCH  76  80
ATOM     80  S   UNL A   1      37.719  33.023  40.610  1.00  0.00     0.124 S 
ATOM     81  O   UNL A   1      38.049  33.950  41.686  1.00  0.00    -0.237 OA
ATOM     82  O   UNL A   1      36.354  33.089  40.100  1.00  0.00    -0.237 OA
ATOM     83  O   UNL A   1      38.262  31.674  40.759  1.00  0.00    -0.744 OA
ENDBRANCH  76  80
ENDBRANCH  49  73
BRANCH  61  84
ATOM     84  C   UNL A   1      44.297  28.535  35.389  1.00  0.00     0.023 A 
ATOM     85  C   UNL A   1      44.174  27.507  36.340  1.00  0.00     0.031 A 
ATOM     86  C   UNL A   1      45.576  29.073  35.159  1.00  0.00     0.131 A 
ATOM     87  C   UNL A   1      45.298  27.091  37.070  1.00  0.00     0.055 A 
ATOM     88  C   UNL A   1      46.702  28.611  35.843  1.00  0.00     0.041 A 
ATOM     89  F   UNL A   1      45.753  30.057  34.264  1.00  0.00    -0.206 F 
ATOM     90  C   UNL A   1      46.564  27.625  36.816  1.00  0.00     0.022 A 
BRANCH  87  91
ATOM     91  S   UNL A   1      45.069  25.907  38.426  1.00  0.00     0.124 S 
ATOM     92  O   UNL A   1      44.448  26.739  39.453  1.00  0.00    -0.237 OA
ATOM     93  O   UNL A   1      44.209  24.898  37.817  1.00  0.00    -0.237 OA
ATOM     94  O   UNL A   1      46.428  25.462  38.727  1.00  0.00    -0.744 OA
ENDBRANCH  87  91
ENDBRANCH  61  84
ENDBRANCH  35  36
ENDBRANCH  27  30
ENDBRANCH  25  26
ENDBRANCH   1  25
TORSDOF 16
ENDMDL
