MODEL 1
REMARK VINA RESULT:     -13.0      0.000      0.000
REMARK SMILES O=C(NCCCNC(=O)c1cccc(COc2ccccc2C=C2C(=O)c3ccccc3C2=O)c1)c1ccc(-c2c3nc(c(-c4cc(S(=O)(=O)[O-])ccc4F)c4ccc([nH]4)c(-c4cc(S(=O)(=O)[O-])ccc4F)c4nc(c(-c5cc(S(=O)(=O)[O-])ccc5F)c5ccc2[nH]5)C=C4)C=C3)cc1
REMARK SMILES IDX 5 1 4 2 3 3 1 4 2 5 36 7 37 8 98 9 38 10 97 11 39 12 40 13
REMARK SMILES IDX 41 14 91 15 42 16 96 17 90 18 92 19 43 20 95 21 89 22 88 23
REMARK SMILES IDX 44 25 76 26 56 27 75 28 57 29 60 30 74 31 93 32 58 33 59 34
REMARK SMILES IDX 73 36 94 37 61 38 45 39 46 40 54 41 47 42 53 43 55 44 52 45
REMARK SMILES IDX 48 46 49 47 50 48 51 49 77 50 78 51 86 52 79 53 85 54 87 55
REMARK SMILES IDX 84 56 80 57 81 58 82 59 83 60 62 61 63 62 71 63 64 64 70 65
REMARK SMILES IDX 72 66 69 67 65 68 66 69 67 70 68 71 6 72 7 73 8 74 9 76
REMARK SMILES IDX 10 77 11 78 35 79 12 80 14 81 13 82 15 83 16 84 17 85 18 86
REMARK SMILES IDX 22 87 19 88 21 89 20 90 23 91 24 92 25 93 33 94 26 95 27 96
REMARK SMILES IDX 32 97 34 98 28 99 31 100 29 101 30 102
REMARK H PARENT 3 6 92 24 60 35 7 75
REMARK Flexibility Score: inf
ROOT
ATOM      1  C   UNL A   1      31.511  31.956  26.749  1.00  0.00     0.042 C 
ENDROOT
BRANCH   1   2
ATOM      2  C   UNL A   1      32.826  32.552  27.219  1.00  0.00     0.118 C 
BRANCH   2   3
ATOM      3  N   UNL A   1      32.658  33.934  27.663  1.00  0.00    -0.352 N 
ATOM      4  O   UNL A   1      32.770  35.628  29.150  1.00  0.00    -0.269 OA
ATOM      5  C   UNL A   1      33.241  34.577  28.728  1.00  0.00     0.251 C 
ATOM      6  H   UNL A   1      32.042  34.481  27.123  1.00  0.00     0.163 HD
BRANCH   5   7
ATOM      7  C   UNL A   1      34.435  33.976  29.352  1.00  0.00     0.039 A 
ATOM      8  C   UNL A   1      34.266  32.996  30.329  1.00  0.00     0.014 A 
ATOM      9  C   UNL A   1      35.715  34.384  28.973  1.00  0.00     0.014 A 
ATOM     10  C   UNL A   1      35.353  32.566  31.064  1.00  0.00     0.010 A 
ATOM     11  C   UNL A   1      36.827  33.828  29.614  1.00  0.00     0.010 A 
ATOM     12  C   UNL A   1      36.650  32.926  30.674  1.00  0.00    -0.014 A 
BRANCH  12  13
ATOM     13  C   UNL A   1      37.786  32.223  31.317  1.00  0.00     0.031 A 
ATOM     14  C   UNL A   1      38.517  31.113  30.623  1.00  0.00     0.074 A 
ATOM     15  C   UNL A   1      38.170  32.650  32.538  1.00  0.00     0.049 A 
ATOM     16  N   UNL A   1      39.527  30.405  31.057  1.00  0.00    -0.248 NA
ATOM     17  C   UNL A   1      38.057  30.741  29.276  1.00  0.00     0.031 C 
ATOM     18  C   UNL A   1      37.521  33.731  33.293  1.00  0.00     0.029 A 
ATOM     19  N   UNL A   1      39.201  32.262  33.352  1.00  0.00    -0.354 N 
ATOM     20  C   UNL A   1      39.813  29.488  30.052  1.00  0.00     0.074 A 
ATOM     21  C   UNL A   1      38.854  29.719  28.990  1.00  0.00     0.031 C 
ATOM     22  C   UNL A   1      38.206  33.960  34.420  1.00  0.00     0.029 A 
ATOM     23  C   UNL A   1      39.268  32.972  34.529  1.00  0.00     0.049 A 
ATOM     24  H   UNL A   1      39.832  31.544  33.117  1.00  0.00     0.167 HD
ATOM     25  C   UNL A   1      40.785  28.545  30.031  1.00  0.00     0.034 A 
ATOM     26  C   UNL A   1      40.064  32.817  35.602  1.00  0.00     0.034 A 
ATOM     27  C   UNL A   1      41.729  28.345  31.105  1.00  0.00     0.049 A 
ATOM     28  C   UNL A   1      41.093  31.721  35.566  1.00  0.00     0.074 A 
ATOM     29  C   UNL A   1      42.780  27.445  31.169  1.00  0.00     0.029 A 
ATOM     30  N   UNL A   1      41.733  29.042  32.308  1.00  0.00    -0.354 N 
ATOM     31  N   UNL A   1      41.364  30.878  34.595  1.00  0.00    -0.248 NA
ATOM     32  C   UNL A   1      41.920  31.553  36.763  1.00  0.00     0.031 C 
ATOM     33  C   UNL A   1      43.359  27.536  32.439  1.00  0.00     0.029 A 
ATOM     34  C   UNL A   1      42.736  28.559  33.136  1.00  0.00     0.049 A 
ATOM     35  H   UNL A   1      41.113  29.771  32.540  1.00  0.00     0.167 HD
ATOM     36  C   UNL A   1      42.412  30.094  35.062  1.00  0.00     0.074 A 
ATOM     37  C   UNL A   1      42.742  30.588  36.383  1.00  0.00     0.031 C 
ATOM     38  C   UNL A   1      43.042  29.055  34.456  1.00  0.00     0.034 A 
BRANCH  25  39
ATOM     39  C   UNL A   1      40.851  27.618  28.842  1.00  0.00     0.023 A 
ATOM     40  C   UNL A   1      41.829  27.750  27.841  1.00  0.00     0.031 A 
ATOM     41  C   UNL A   1      39.936  26.554  28.732  1.00  0.00     0.131 A 
ATOM     42  C   UNL A   1      41.846  26.857  26.757  1.00  0.00     0.055 A 
ATOM     43  C   UNL A   1      40.001  25.628  27.688  1.00  0.00     0.041 A 
ATOM     44  F   UNL A   1      38.965  26.392  29.644  1.00  0.00    -0.206 F 
ATOM     45  C   UNL A   1      40.955  25.782  26.689  1.00  0.00     0.022 A 
BRANCH  42  46
ATOM     46  S   UNL A   1      42.983  27.178  25.380  1.00  0.00     0.124 S 
ATOM     47  O   UNL A   1      43.061  25.863  24.748  1.00  0.00    -0.237 OA
ATOM     48  O   UNL A   1      42.281  28.209  24.625  1.00  0.00    -0.237 OA
ATOM     49  O   UNL A   1      44.209  27.616  26.044  1.00  0.00    -0.744 OA
ENDBRANCH  42  46
ENDBRANCH  25  39
BRANCH  26  50
ATOM     50  C   UNL A   1      39.878  33.664  36.815  1.00  0.00     0.023 A 
ATOM     51  C   UNL A   1      39.282  33.147  37.974  1.00  0.00     0.031 A 
ATOM     52  C   UNL A   1      40.234  35.027  36.810  1.00  0.00     0.131 A 
ATOM     53  C   UNL A   1      38.996  33.999  39.051  1.00  0.00     0.055 A 
ATOM     54  C   UNL A   1      40.020  35.852  37.914  1.00  0.00     0.041 A 
ATOM     55  F   UNL A   1      40.806  35.578  35.728  1.00  0.00    -0.206 F 
ATOM     56  C   UNL A   1      39.377  35.343  39.037  1.00  0.00     0.022 A 
BRANCH  53  57
ATOM     57  S   UNL A   1      37.988  33.356  40.414  1.00  0.00     0.124 S 
ATOM     58  O   UNL A   1      38.783  32.215  40.855  1.00  0.00    -0.237 OA
ATOM     59  O   UNL A   1      37.945  34.497  41.322  1.00  0.00    -0.237 OA
ATOM     60  O   UNL A   1      36.720  33.024  39.770  1.00  0.00    -0.744 OA
ENDBRANCH  53  57
ENDBRANCH  26  50
BRANCH  38  61
ATOM     61  C   UNL A   1      44.180  28.422  35.216  1.00  0.00     0.023 A 
ATOM     62  C   UNL A   1      43.974  27.338  36.087  1.00  0.00     0.031 A 
ATOM     63  C   UNL A   1      45.485  28.931  35.090  1.00  0.00     0.131 A 
ATOM     64  C   UNL A   1      45.041  26.843  36.849  1.00  0.00     0.055 A 
ATOM     65  C   UNL A   1      46.558  28.384  35.795  1.00  0.00     0.041 A 
ATOM     66  F   UNL A   1      45.739  29.970  34.278  1.00  0.00    -0.206 F 
ATOM     67  C   UNL A   1      46.335  27.344  36.693  1.00  0.00     0.022 A 
BRANCH  64  68
ATOM     68  S   UNL A   1      44.692  25.608  38.131  1.00  0.00     0.124 S 
ATOM     69  O   UNL A   1      43.768  26.328  39.001  1.00  0.00    -0.237 OA
ATOM     70  O   UNL A   1      44.119  24.511  37.360  1.00  0.00    -0.237 OA
ATOM     71  O   UNL A   1      46.007  25.338  38.712  1.00  0.00    -0.744 OA
ENDBRANCH  64  68
ENDBRANCH  38  61
ENDBRANCH  12  13
ENDBRANCH   5   7
ENDBRANCH   2   3
ENDBRANCH   1   2
BRANCH   1  72
ATOM     72  C   UNL A   1      31.717  30.576  26.154  1.00  0.00     0.118 C 
BRANCH  72  73
ATOM     73  N   UNL A   1      31.595  29.553  27.187  1.00  0.00    -0.352 N 
ATOM     74  C   UNL A   1      31.880  28.219  27.064  1.00  0.00     0.251 C 
ATOM     75  H   UNL A   1      31.274  29.854  28.068  1.00  0.00     0.163 HD
ATOM     76  O   UNL A   1      31.493  27.396  27.885  1.00  0.00    -0.269 OA
BRANCH  74  77
ATOM     77  C   UNL A   1      32.761  27.819  25.959  1.00  0.00     0.040 A 
ATOM     78  C   UNL A   1      32.830  28.546  24.774  1.00  0.00     0.014 A 
ATOM     79  C   UNL A   1      33.452  26.614  26.107  1.00  0.00     0.021 A 
ATOM     80  C   UNL A   1      33.649  28.085  23.745  1.00  0.00     0.001 A 
ATOM     81  C   UNL A   1      34.242  26.134  25.071  1.00  0.00    -0.010 A 
ATOM     82  C   UNL A   1      34.363  26.893  23.897  1.00  0.00     0.007 A 
BRANCH  81  83
ATOM     83  C   UNL A   1      34.757  24.728  25.148  1.00  0.00     0.265 C 
BRANCH  83  84
ATOM     84  O   UNL A   1      34.128  24.148  26.293  1.00  0.00    -0.488 OA
BRANCH  84  85
ATOM     85  C   UNL A   1      33.705  22.855  26.109  1.00  0.00     0.127 A 
ATOM     86  C   UNL A   1      34.718  21.896  25.973  1.00  0.00     0.047 A 
ATOM     87  C   UNL A   1      32.361  22.537  25.822  1.00  0.00     0.017 A 
ATOM     88  C   UNL A   1      34.422  20.626  25.487  1.00  0.00     0.004 A 
ATOM     89  C   UNL A   1      32.113  21.276  25.257  1.00  0.00     0.012 A 
ATOM     90  C   UNL A   1      33.123  20.328  25.099  1.00  0.00     0.001 A 
BRANCH  87  91
ATOM     91  C   UNL A   1      31.231  23.486  25.959  1.00  0.00     0.028 C 
ATOM     92  C   UNL A   1      30.794  24.375  25.045  1.00  0.00     0.071 C 
ATOM     93  C   UNL A   1      31.263  24.633  23.651  1.00  0.00     0.197 C 
ATOM     94  C   UNL A   1      29.780  25.426  25.377  1.00  0.00     0.197 C 
ATOM     95  O   UNL A   1      31.988  23.968  22.936  1.00  0.00    -0.288 OA
ATOM     96  C   UNL A   1      30.693  25.927  23.274  1.00  0.00     0.034 A 
ATOM     97  C   UNL A   1      29.799  26.365  24.244  1.00  0.00     0.034 A 
ATOM     98  O   UNL A   1      29.164  25.578  26.415  1.00  0.00    -0.288 OA
ATOM     99  C   UNL A   1      31.026  26.708  22.179  1.00  0.00     0.013 A 
ATOM    100  C   UNL A   1      29.163  27.589  24.131  1.00  0.00     0.013 A 
ATOM    101  C   UNL A   1      30.418  27.962  22.068  1.00  0.00     0.001 A 
ATOM    102  C   UNL A   1      29.483  28.392  23.029  1.00  0.00     0.001 A 
ENDBRANCH  87  91
ENDBRANCH  84  85
ENDBRANCH  83  84
ENDBRANCH  81  83
ENDBRANCH  74  77
ENDBRANCH  72  73
ENDBRANCH   1  72
TORSDOF 17
ENDMDL
MODEL 2
REMARK VINA RESULT:     -12.8      0.548      7.422
REMARK SMILES O=C(NCCCNC(=O)c1cccc(COc2ccccc2C=C2C(=O)c3ccccc3C2=O)c1)c1ccc(-c2c3nc(c(-c4cc(S(=O)(=O)[O-])ccc4F)c4ccc([nH]4)c(-c4cc(S(=O)(=O)[O-])ccc4F)c4nc(c(-c5cc(S(=O)(=O)[O-])ccc5F)c5ccc2[nH]5)C=C4)C=C3)cc1
REMARK SMILES IDX 5 1 4 2 3 3 1 4 2 5 36 7 37 8 98 9 38 10 97 11 39 12 40 13
REMARK SMILES IDX 41 14 91 15 42 16 96 17 90 18 92 19 43 20 95 21 89 22 88 23
REMARK SMILES IDX 44 25 76 26 56 27 75 28 57 29 60 30 74 31 93 32 58 33 59 34
REMARK SMILES IDX 73 36 94 37 61 38 45 39 46 40 54 41 47 42 53 43 55 44 52 45
REMARK SMILES IDX 48 46 49 47 50 48 51 49 77 50 78 51 86 52 79 53 85 54 87 55
REMARK SMILES IDX 84 56 80 57 81 58 82 59 83 60 62 61 63 62 71 63 64 64 70 65
REMARK SMILES IDX 72 66 69 67 65 68 66 69 67 70 68 71 6 72 7 73 8 74 9 76
REMARK SMILES IDX 10 77 11 78 35 79 12 80 14 81 13 82 15 83 16 84 17 85 18 86
REMARK SMILES IDX 22 87 19 88 21 89 20 90 23 91 24 92 25 93 33 94 26 95 27 96
REMARK SMILES IDX 32 97 34 98 28 99 31 100 29 101 30 102
REMARK H PARENT 3 6 92 24 60 35 7 75
REMARK Flexibility Score: inf
ROOT
ATOM      1  C   UNL A   1      31.501  32.017  26.828  1.00  0.00     0.042 C 
ENDROOT
BRANCH   1   2
ATOM      2  C   UNL A   1      32.789  32.699  27.253  1.00  0.00     0.118 C 
BRANCH   2   3
ATOM      3  N   UNL A   1      32.550  34.077  27.674  1.00  0.00    -0.352 N 
ATOM      4  O   UNL A   1      32.528  35.787  29.148  1.00  0.00    -0.269 OA
ATOM      5  C   UNL A   1      33.057  34.751  28.760  1.00  0.00     0.251 C 
ATOM      6  H   UNL A   1      31.941  34.597  27.100  1.00  0.00     0.163 HD
BRANCH   5   7
ATOM      7  C   UNL A   1      34.240  34.199  29.446  1.00  0.00     0.039 A 
ATOM      8  C   UNL A   1      34.054  33.305  30.500  1.00  0.00     0.014 A 
ATOM      9  C   UNL A   1      35.527  34.568  29.050  1.00  0.00     0.014 A 
ATOM     10  C   UNL A   1      35.131  32.933  31.282  1.00  0.00     0.010 A 
ATOM     11  C   UNL A   1      36.628  34.063  29.749  1.00  0.00     0.010 A 
ATOM     12  C   UNL A   1      36.434  33.254  30.879  1.00  0.00    -0.014 A 
BRANCH  12  13
ATOM     13  C   UNL A   1      37.558  32.602  31.592  1.00  0.00     0.031 A 
ATOM     14  C   UNL A   1      37.973  33.036  32.966  1.00  0.00     0.074 A 
ATOM     15  C   UNL A   1      38.169  31.567  30.977  1.00  0.00     0.049 A 
ATOM     16  N   UNL A   1      38.935  32.563  33.715  1.00  0.00    -0.248 NA
ATOM     17  C   UNL A   1      37.225  34.145  33.579  1.00  0.00     0.031 C 
ATOM     18  C   UNL A   1      37.829  31.067  29.638  1.00  0.00     0.029 A 
ATOM     19  N   UNL A   1      39.173  30.732  31.389  1.00  0.00    -0.354 N 
ATOM     20  C   UNL A   1      38.927  33.326  34.877  1.00  0.00     0.074 A 
ATOM     21  C   UNL A   1      37.873  34.308  34.725  1.00  0.00     0.031 C 
ATOM     22  C   UNL A   1      38.562  29.979  29.370  1.00  0.00     0.029 A 
ATOM     23  C   UNL A   1      39.503  29.771  30.460  1.00  0.00     0.049 A 
ATOM     24  H   UNL A   1      39.616  30.812  32.264  1.00  0.00     0.167 HD
ATOM     25  C   UNL A   1      39.732  33.210  35.961  1.00  0.00     0.034 A 
ATOM     26  C   UNL A   1      40.485  28.852  30.460  1.00  0.00     0.034 A 
ATOM     27  C   UNL A   1      40.771  32.214  36.083  1.00  0.00     0.049 A 
ATOM     28  C   UNL A   1      41.396  28.793  31.655  1.00  0.00     0.074 A 
ATOM     29  C   UNL A   1      41.617  31.982  37.154  1.00  0.00     0.029 A 
ATOM     30  N   UNL A   1      41.118  31.294  35.100  1.00  0.00    -0.354 N 
ATOM     31  N   UNL A   1      41.357  29.508  32.756  1.00  0.00    -0.248 NA
ATOM     32  C   UNL A   1      42.479  27.807  31.610  1.00  0.00     0.031 C 
ATOM     33  C   UNL A   1      42.528  30.987  36.786  1.00  0.00     0.029 A 
ATOM     34  C   UNL A   1      42.193  30.527  35.523  1.00  0.00     0.049 A 
ATOM     35  H   UNL A   1      40.666  31.201  34.230  1.00  0.00     0.167 HD
ATOM     36  C   UNL A   1      42.401  29.039  33.544  1.00  0.00     0.074 A 
ATOM     37  C   UNL A   1      43.025  27.960  32.806  1.00  0.00     0.031 C 
ATOM     38  C   UNL A   1      42.811  29.464  34.767  1.00  0.00     0.034 A 
BRANCH  25  39
ATOM     39  C   UNL A   1      39.568  34.209  37.080  1.00  0.00     0.023 A 
ATOM     40  C   UNL A   1      39.090  33.842  38.350  1.00  0.00     0.031 A 
ATOM     41  C   UNL A   1      39.935  35.553  36.878  1.00  0.00     0.131 A 
ATOM     42  C   UNL A   1      38.959  34.814  39.356  1.00  0.00     0.055 A 
ATOM     43  C   UNL A   1      39.868  36.499  37.902  1.00  0.00     0.041 A 
ATOM     44  F   UNL A   1      40.374  35.967  35.679  1.00  0.00    -0.206 F 
ATOM     45  C   UNL A   1      39.371  36.133  39.148  1.00  0.00     0.022 A 
BRANCH  42  46
ATOM     46  S   UNL A   1      38.148  34.354  40.911  1.00  0.00     0.124 S 
ATOM     47  O   UNL A   1      39.218  33.640  41.604  1.00  0.00    -0.237 OA
ATOM     48  O   UNL A   1      37.778  35.649  41.470  1.00  0.00    -0.237 OA
ATOM     49  O   UNL A   1      37.029  33.518  40.480  1.00  0.00    -0.744 OA
ENDBRANCH  42  46
ENDBRANCH  25  39
BRANCH  26  50
ATOM     50  C   UNL A   1      40.703  27.972  29.276  1.00  0.00     0.023 A 
ATOM     51  C   UNL A   1      41.693  28.267  28.328  1.00  0.00     0.031 A 
ATOM     52  C   UNL A   1      39.877  26.857  29.040  1.00  0.00     0.131 A 
ATOM     53  C   UNL A   1      41.787  27.501  27.157  1.00  0.00     0.055 A 
ATOM     54  C   UNL A   1      40.027  26.050  27.912  1.00  0.00     0.041 A 
ATOM     55  F   UNL A   1      38.910  26.527  29.912  1.00  0.00    -0.206 F 
ATOM     56  C   UNL A   1      40.973  26.384  26.951  1.00  0.00     0.022 A 
BRANCH  53  57
ATOM     57  S   UNL A   1      42.892  28.074  25.840  1.00  0.00     0.124 S 
ATOM     58  O   UNL A   1      42.813  29.523  25.997  1.00  0.00    -0.237 OA
ATOM     59  O   UNL A   1      44.159  27.456  26.218  1.00  0.00    -0.237 OA
ATOM     60  O   UNL A   1      42.278  27.542  24.626  1.00  0.00    -0.744 OA
ENDBRANCH  53  57
ENDBRANCH  26  50
BRANCH  38  61
ATOM     61  C   UNL A   1      43.968  28.720  35.386  1.00  0.00     0.023 A 
ATOM     62  C   UNL A   1      43.766  27.631  36.250  1.00  0.00     0.031 A 
ATOM     63  C   UNL A   1      45.289  29.129  35.133  1.00  0.00     0.131 A 
ATOM     64  C   UNL A   1      44.865  27.030  36.883  1.00  0.00     0.055 A 
ATOM     65  C   UNL A   1      46.382  28.479  35.706  1.00  0.00     0.041 A 
ATOM     66  F   UNL A   1      45.539  30.170  34.322  1.00  0.00    -0.206 F 
ATOM     67  C   UNL A   1      46.171  27.433  36.600  1.00  0.00     0.022 A 
BRANCH  64  68
ATOM     68  S   UNL A   1      44.553  25.788  38.168  1.00  0.00     0.124 S 
ATOM     69  O   UNL A   1      44.281  24.593  37.375  1.00  0.00    -0.237 OA
ATOM     70  O   UNL A   1      45.807  25.788  38.913  1.00  0.00    -0.237 OA
ATOM     71  O   UNL A   1      43.402  26.327  38.891  1.00  0.00    -0.744 OA
ENDBRANCH  64  68
ENDBRANCH  38  61
ENDBRANCH  12  13
ENDBRANCH   5   7
ENDBRANCH   2   3
ENDBRANCH   1   2
BRANCH   1  72
ATOM     72  C   UNL A   1      31.777  30.653  26.225  1.00  0.00     0.118 C 
BRANCH  72  73
ATOM     73  N   UNL A   1      31.703  29.618  27.251  1.00  0.00    -0.352 N 
ATOM     74  C   UNL A   1      31.989  28.287  27.101  1.00  0.00     0.251 C 
ATOM     75  H   UNL A   1      31.418  29.908  28.147  1.00  0.00     0.163 HD
ATOM     76  O   UNL A   1      31.641  27.453  27.929  1.00  0.00    -0.269 OA
BRANCH  74  77
ATOM     77  C   UNL A   1      32.826  27.903  25.956  1.00  0.00     0.040 A 
ATOM     78  C   UNL A   1      32.857  28.655  24.785  1.00  0.00     0.014 A 
ATOM     79  C   UNL A   1      33.511  26.691  26.054  1.00  0.00     0.021 A 
ATOM     80  C   UNL A   1      33.634  28.210  23.717  1.00  0.00     0.001 A 
ATOM     81  C   UNL A   1      34.258  26.227  24.979  1.00  0.00    -0.010 A 
ATOM     82  C   UNL A   1      34.342  27.009  23.817  1.00  0.00     0.007 A 
BRANCH  81  83
ATOM     83  C   UNL A   1      34.763  24.815  25.007  1.00  0.00     0.265 C 
BRANCH  83  84
ATOM     84  O   UNL A   1      34.252  24.245  26.215  1.00  0.00    -0.488 OA
BRANCH  84  85
ATOM     85  C   UNL A   1      33.848  22.938  26.095  1.00  0.00     0.127 A 
ATOM     86  C   UNL A   1      34.875  21.995  25.951  1.00  0.00     0.047 A 
ATOM     87  C   UNL A   1      32.501  22.585  25.875  1.00  0.00     0.017 A 
ATOM     88  C   UNL A   1      34.586  20.703  25.523  1.00  0.00     0.004 A 
ATOM     89  C   UNL A   1      32.256  21.300  25.366  1.00  0.00     0.012 A 
ATOM     90  C   UNL A   1      33.279  20.366  25.200  1.00  0.00     0.001 A 
BRANCH  87  91
ATOM     91  C   UNL A   1      31.358  23.515  26.025  1.00  0.00     0.028 C 
ATOM     92  C   UNL A   1      30.888  24.388  25.111  1.00  0.00     0.071 C 
ATOM     93  C   UNL A   1      31.325  24.639  23.705  1.00  0.00     0.197 C 
ATOM     94  C   UNL A   1      29.863  25.425  25.453  1.00  0.00     0.197 C 
ATOM     95  O   UNL A   1      32.047  23.978  22.983  1.00  0.00    -0.288 OA
ATOM     96  C   UNL A   1      30.726  25.920  23.327  1.00  0.00     0.034 A 
ATOM     97  C   UNL A   1      29.844  26.352  24.310  1.00  0.00     0.034 A 
ATOM     98  O   UNL A   1      29.266  25.578  26.501  1.00  0.00    -0.288 OA
ATOM     99  C   UNL A   1      31.024  26.694  22.217  1.00  0.00     0.013 A 
ATOM    100  C   UNL A   1      29.185  27.564  24.197  1.00  0.00     0.013 A 
ATOM    101  C   UNL A   1      30.392  27.936  22.105  1.00  0.00     0.001 A 
ATOM    102  C   UNL A   1      29.470  28.360  23.081  1.00  0.00     0.001 A 
ENDBRANCH  87  91
ENDBRANCH  84  85
ENDBRANCH  83  84
ENDBRANCH  81  83
ENDBRANCH  74  77
ENDBRANCH  72  73
ENDBRANCH   1  72
TORSDOF 17
ENDMDL
MODEL 3
REMARK VINA RESULT:     -12.7      1.519      7.569
REMARK SMILES O=C(NCCCNC(=O)c1cccc(COc2ccccc2C=C2C(=O)c3ccccc3C2=O)c1)c1ccc(-c2c3nc(c(-c4cc(S(=O)(=O)[O-])ccc4F)c4ccc([nH]4)c(-c4cc(S(=O)(=O)[O-])ccc4F)c4nc(c(-c5cc(S(=O)(=O)[O-])ccc5F)c5ccc2[nH]5)C=C4)C=C3)cc1
REMARK SMILES IDX 5 1 4 2 3 3 1 4 2 5 36 7 37 8 98 9 38 10 97 11 39 12 40 13
REMARK SMILES IDX 41 14 91 15 42 16 96 17 90 18 92 19 43 20 95 21 89 22 88 23
REMARK SMILES IDX 44 25 76 26 56 27 75 28 57 29 60 30 74 31 93 32 58 33 59 34
REMARK SMILES IDX 73 36 94 37 61 38 45 39 46 40 54 41 47 42 53 43 55 44 52 45
REMARK SMILES IDX 48 46 49 47 50 48 51 49 77 50 78 51 86 52 79 53 85 54 87 55
REMARK SMILES IDX 84 56 80 57 81 58 82 59 83 60 62 61 63 62 71 63 64 64 70 65
REMARK SMILES IDX 72 66 69 67 65 68 66 69 67 70 68 71 6 72 7 73 8 74 9 76
REMARK SMILES IDX 10 77 11 78 35 79 12 80 14 81 13 82 15 83 16 84 17 85 18 86
REMARK SMILES IDX 22 87 19 88 21 89 20 90 23 91 24 92 25 93 33 94 26 95 27 96
REMARK SMILES IDX 32 97 34 98 28 99 31 100 29 101 30 102
REMARK H PARENT 3 6 92 24 60 35 7 75
REMARK Flexibility Score: inf
ROOT
ATOM      1  C   UNL A   1      31.346  31.544  26.164  1.00  0.00     0.042 C 
ENDROOT
BRANCH   1   2
ATOM      2  C   UNL A   1      32.532  32.037  26.973  1.00  0.00     0.118 C 
BRANCH   2   3
ATOM      3  N   UNL A   1      32.431  33.468  27.251  1.00  0.00    -0.352 N 
ATOM      4  O   UNL A   1      32.672  35.324  28.512  1.00  0.00    -0.269 OA
ATOM      5  C   UNL A   1      33.086  34.213  28.203  1.00  0.00     0.251 C 
ATOM      6  H   UNL A   1      31.809  33.969  26.676  1.00  0.00     0.163 HD
BRANCH   5   7
ATOM      7  C   UNL A   1      34.289  33.646  28.842  1.00  0.00     0.039 A 
ATOM      8  C   UNL A   1      34.156  32.517  29.650  1.00  0.00     0.014 A 
ATOM      9  C   UNL A   1      35.541  34.231  28.646  1.00  0.00     0.014 A 
ATOM     10  C   UNL A   1      35.224  32.090  30.414  1.00  0.00     0.010 A 
ATOM     11  C   UNL A   1      36.655  33.698  29.300  1.00  0.00     0.010 A 
ATOM     12  C   UNL A   1      36.500  32.632  30.201  1.00  0.00    -0.014 A 
BRANCH  12  13
ATOM     13  C   UNL A   1      37.654  31.956  30.839  1.00  0.00     0.031 A 
ATOM     14  C   UNL A   1      38.076  32.280  32.241  1.00  0.00     0.074 A 
ATOM     15  C   UNL A   1      38.286  31.000  30.127  1.00  0.00     0.049 A 
ATOM     16  N   UNL A   1      39.063  31.773  32.933  1.00  0.00    -0.248 NA
ATOM     17  C   UNL A   1      37.304  33.306  32.959  1.00  0.00     0.031 C 
ATOM     18  C   UNL A   1      37.941  30.610  28.753  1.00  0.00     0.029 A 
ATOM     19  N   UNL A   1      39.321  30.164  30.450  1.00  0.00    -0.354 N 
ATOM     20  C   UNL A   1      39.050  32.430  34.159  1.00  0.00     0.074 A 
ATOM     21  C   UNL A   1      37.964  33.388  34.107  1.00  0.00     0.031 C 
ATOM     22  C   UNL A   1      38.703  29.574  28.381  1.00  0.00     0.029 A 
ATOM     23  C   UNL A   1      39.666  29.300  29.436  1.00  0.00     0.049 A 
ATOM     24  H   UNL A   1      39.775  30.180  31.324  1.00  0.00     0.167 HD
ATOM     25  C   UNL A   1      39.874  32.243  35.218  1.00  0.00     0.034 A 
ATOM     26  C   UNL A   1      40.676  28.416  29.341  1.00  0.00     0.034 A 
ATOM     27  C   UNL A   1      40.945  31.274  35.237  1.00  0.00     0.049 A 
ATOM     28  C   UNL A   1      41.606  28.280  30.515  1.00  0.00     0.074 A 
ATOM     29  C   UNL A   1      41.813  30.975  36.273  1.00  0.00     0.029 A 
ATOM     30  N   UNL A   1      41.304  30.456  34.172  1.00  0.00    -0.354 N 
ATOM     31  N   UNL A   1      41.562  28.893  31.676  1.00  0.00    -0.248 NA
ATOM     32  C   UNL A   1      42.718  27.337  30.369  1.00  0.00     0.031 C 
ATOM     33  C   UNL A   1      42.749  30.046  35.807  1.00  0.00     0.029 A 
ATOM     34  C   UNL A   1      42.409  29.690  34.512  1.00  0.00     0.049 A 
ATOM     35  H   UNL A   1      40.843  30.426  33.303  1.00  0.00     0.167 HD
ATOM     36  C   UNL A   1      42.632  28.390  32.406  1.00  0.00     0.074 A 
ATOM     37  C   UNL A   1      43.277  27.401  31.567  1.00  0.00     0.031 C 
ATOM     38  C   UNL A   1      43.047  28.718  33.656  1.00  0.00     0.034 A 
BRANCH  25  39
ATOM     39  C   UNL A   1      39.696  33.134  36.423  1.00  0.00     0.023 A 
ATOM     40  C   UNL A   1      39.025  32.705  37.580  1.00  0.00     0.031 A 
ATOM     41  C   UNL A   1      40.248  34.429  36.424  1.00  0.00     0.131 A 
ATOM     42  C   UNL A   1      38.891  33.576  38.675  1.00  0.00     0.055 A 
ATOM     43  C   UNL A   1      40.171  35.264  37.539  1.00  0.00     0.041 A 
ATOM     44  F   UNL A   1      40.879  34.903  35.337  1.00  0.00    -0.206 F 
ATOM     45  C   UNL A   1      39.482  34.841  38.671  1.00  0.00     0.022 A 
BRANCH  42  46
ATOM     46  S   UNL A   1      37.843  33.071  40.067  1.00  0.00     0.124 S 
ATOM     47  O   UNL A   1      37.881  34.261  40.913  1.00  0.00    -0.237 OA
ATOM     48  O   UNL A   1      36.568  32.789  39.417  1.00  0.00    -0.237 OA
ATOM     49  O   UNL A   1      38.536  31.905  40.612  1.00  0.00    -0.744 OA
ENDBRANCH  42  46
ENDBRANCH  25  39
BRANCH  26  50
ATOM     50  C   UNL A   1      40.902  27.652  28.082  1.00  0.00     0.023 A 
ATOM     51  C   UNL A   1      40.573  26.292  27.992  1.00  0.00     0.031 A 
ATOM     52  C   UNL A   1      41.514  28.255  26.966  1.00  0.00     0.131 A 
ATOM     53  C   UNL A   1      40.919  25.565  26.843  1.00  0.00     0.055 A 
ATOM     54  C   UNL A   1      41.785  27.546  25.796  1.00  0.00     0.041 A 
ATOM     55  F   UNL A   1      41.854  29.554  26.995  1.00  0.00    -0.206 F 
ATOM     56  C   UNL A   1      41.506  26.186  25.739  1.00  0.00     0.022 A 
BRANCH  53  57
ATOM     57  S   UNL A   1      40.722  23.763  26.873  1.00  0.00     0.124 S 
ATOM     58  O   UNL A   1      41.130  23.444  28.238  1.00  0.00    -0.237 OA
ATOM     59  O   UNL A   1      39.302  23.609  26.577  1.00  0.00    -0.237 OA
ATOM     60  O   UNL A   1      41.631  23.305  25.826  1.00  0.00    -0.744 OA
ENDBRANCH  53  57
ENDBRANCH  26  50
BRANCH  38  61
ATOM     61  C   UNL A   1      44.235  27.959  34.193  1.00  0.00     0.023 A 
ATOM     62  C   UNL A   1      44.090  26.714  34.829  1.00  0.00     0.031 A 
ATOM     63  C   UNL A   1      45.527  28.505  34.093  1.00  0.00     0.131 A 
ATOM     64  C   UNL A   1      45.207  26.089  35.401  1.00  0.00     0.055 A 
ATOM     65  C   UNL A   1      46.646  27.842  34.598  1.00  0.00     0.041 A 
ATOM     66  F   UNL A   1      45.723  29.695  33.502  1.00  0.00    -0.206 F 
ATOM     67  C   UNL A   1      46.487  26.634  35.272  1.00  0.00     0.022 A 
BRANCH  64  68
ATOM     68  S   UNL A   1      44.948  24.609  36.417  1.00  0.00     0.124 S 
ATOM     69  O   UNL A   1      44.172  25.140  37.533  1.00  0.00    -0.237 OA
ATOM     70  O   UNL A   1      44.229  23.726  35.504  1.00  0.00    -0.237 OA
ATOM     71  O   UNL A   1      46.306  24.182  36.752  1.00  0.00    -0.744 OA
ENDBRANCH  64  68
ENDBRANCH  38  61
ENDBRANCH  12  13
ENDBRANCH   5   7
ENDBRANCH   2   3
ENDBRANCH   1   2
BRANCH   1  72
ATOM     72  C   UNL A   1      31.466  30.062  25.865  1.00  0.00     0.118 C 
BRANCH  72  73
ATOM     73  N   UNL A   1      31.855  29.331  27.066  1.00  0.00    -0.352 N 
ATOM     74  C   UNL A   1      31.563  28.027  27.367  1.00  0.00     0.251 C 
ATOM     75  H   UNL A   1      32.385  29.827  27.730  1.00  0.00     0.163 HD
ATOM     76  O   UNL A   1      31.690  27.581  28.502  1.00  0.00    -0.269 OA
BRANCH  74  77
ATOM     77  C   UNL A   1      31.188  27.146  26.253  1.00  0.00     0.040 A 
ATOM     78  C   UNL A   1      30.614  27.642  25.087  1.00  0.00     0.014 A 
ATOM     79  C   UNL A   1      31.339  25.773  26.457  1.00  0.00     0.021 A 
ATOM     80  C   UNL A   1      30.235  26.748  24.087  1.00  0.00     0.001 A 
ATOM     81  C   UNL A   1      30.931  24.877  25.477  1.00  0.00    -0.010 A 
ATOM     82  C   UNL A   1      30.406  25.372  24.274  1.00  0.00     0.007 A 
BRANCH  81  83
ATOM     83  C   UNL A   1      30.856  23.419  25.819  1.00  0.00     0.265 C 
BRANCH  83  84
ATOM     84  O   UNL A   1      30.938  22.725  24.571  1.00  0.00    -0.488 OA
BRANCH  84  85
ATOM     85  C   UNL A   1      31.980  21.834  24.489  1.00  0.00     0.127 A 
ATOM     86  C   UNL A   1      31.959  20.786  25.419  1.00  0.00     0.047 A 
ATOM     87  C   UNL A   1      33.123  22.085  23.702  1.00  0.00     0.017 A 
ATOM     88  C   UNL A   1      33.096  20.012  25.629  1.00  0.00     0.004 A 
ATOM     89  C   UNL A   1      34.275  21.339  23.999  1.00  0.00     0.012 A 
ATOM     90  C   UNL A   1      34.264  20.310  24.941  1.00  0.00     0.001 A 
BRANCH  87  91
ATOM     91  C   UNL A   1      33.218  23.158  22.685  1.00  0.00     0.028 C 
ATOM     92  C   UNL A   1      33.623  24.430  22.873  1.00  0.00     0.071 C 
ATOM     93  C   UNL A   1      34.127  25.109  24.104  1.00  0.00     0.197 C 
ATOM     94  C   UNL A   1      33.473  25.479  21.815  1.00  0.00     0.197 C 
ATOM     95  O   UNL A   1      34.500  24.632  25.160  1.00  0.00    -0.288 OA
ATOM     96  C   UNL A   1      34.060  26.543  23.822  1.00  0.00     0.034 A 
ATOM     97  C   UNL A   1      33.732  26.761  22.489  1.00  0.00     0.034 A 
ATOM     98  O   UNL A   1      33.081  25.345  20.671  1.00  0.00    -0.288 OA
ATOM     99  C   UNL A   1      34.190  27.587  24.725  1.00  0.00     0.013 A 
ATOM    100  C   UNL A   1      33.566  28.042  21.993  1.00  0.00     0.013 A 
ATOM    101  C   UNL A   1      33.993  28.885  24.247  1.00  0.00     0.001 A 
ATOM    102  C   UNL A   1      33.698  29.111  22.889  1.00  0.00     0.001 A 
ENDBRANCH  87  91
ENDBRANCH  84  85
ENDBRANCH  83  84
ENDBRANCH  81  83
ENDBRANCH  74  77
ENDBRANCH  72  73
ENDBRANCH   1  72
TORSDOF 17
ENDMDL
