MODEL 1
REMARK VINA RESULT:     -13.2      0.000      0.000
REMARK SMILES O=C(NCCCNC(=O)c1ccc([C@H]2CCCN(C(=O)c3ccc4[nH]ccc4c3)C2)cc1)c1ccc(-c2c3nc(c(-c4cc(S(=O)(=O)[O-])ccc4F)c4ccc([nH]4)c(-c4cc(S(=O)(=O)[O-])ccc4F)c4nc(c(-c5cc(S(=O)(=O)[O-])ccc5F)c5ccc2[nH]5)C=C4)C=C3)cc1
REMARK SMILES IDX 5 1 4 2 3 3 1 4 2 5 33 7 34 8 95 9 35 10 94 11 36 12 37 13
REMARK SMILES IDX 38 14 88 15 39 16 93 17 87 18 89 19 40 20 92 21 86 22 85 23
REMARK SMILES IDX 41 25 73 26 53 27 72 28 54 29 57 30 71 31 90 32 55 33 56 34
REMARK SMILES IDX 70 36 91 37 58 38 42 39 43 40 51 41 44 42 50 43 52 44 49 45
REMARK SMILES IDX 45 46 46 47 47 48 48 49 74 50 75 51 83 52 76 53 82 54 84 55
REMARK SMILES IDX 81 56 77 57 78 58 79 59 80 60 59 61 60 62 68 63 61 64 67 65
REMARK SMILES IDX 69 66 66 67 62 68 63 69 64 70 65 71 6 72 7 73 8 74 9 76
REMARK SMILES IDX 10 77 11 78 32 79 12 80 31 81 13 82 14 83 15 84 30 85 16 86
REMARK SMILES IDX 18 87 17 88 19 89 20 90 21 91 22 92 29 93 23 94 28 95 24 96
REMARK SMILES IDX 27 97 25 98 26 99
REMARK H PARENT 3 6 89 24 57 35 7 75 25 100
REMARK Flexibility Score: inf
ROOT
ATOM      1  C   UNL A   1      31.388  32.282  26.522  1.00  0.00     0.042 C 
ENDROOT
BRANCH   1   2
ATOM      2  C   UNL A   1      32.657  32.654  27.265  1.00  0.00     0.118 C 
BRANCH   2   3
ATOM      3  N   UNL A   1      32.664  34.037  27.738  1.00  0.00    -0.352 N 
ATOM      4  O   UNL A   1      33.195  35.789  29.051  1.00  0.00    -0.269 OA
ATOM      5  C   UNL A   1      33.450  34.644  28.691  1.00  0.00     0.251 C 
ATOM      6  H   UNL A   1      32.003  34.625  27.307  1.00  0.00     0.163 HD
BRANCH   5   7
ATOM      7  C   UNL A   1      34.583  33.907  29.293  1.00  0.00     0.039 A 
ATOM      8  C   UNL A   1      34.340  32.850  30.166  1.00  0.00     0.014 A 
ATOM      9  C   UNL A   1      35.898  34.280  28.999  1.00  0.00     0.014 A 
ATOM     10  C   UNL A   1      35.382  32.322  30.910  1.00  0.00     0.010 A 
ATOM     11  C   UNL A   1      36.963  33.640  29.644  1.00  0.00     0.010 A 
ATOM     12  C   UNL A   1      36.713  32.680  30.636  1.00  0.00    -0.014 A 
BRANCH  12  13
ATOM     13  C   UNL A   1      37.793  31.957  31.361  1.00  0.00     0.031 A 
ATOM     14  C   UNL A   1      38.623  30.895  30.693  1.00  0.00     0.074 A 
ATOM     15  C   UNL A   1      38.072  32.345  32.623  1.00  0.00     0.049 A 
ATOM     16  N   UNL A   1      39.648  30.234  31.171  1.00  0.00    -0.248 NA
ATOM     17  C   UNL A   1      38.254  30.516  29.321  1.00  0.00     0.031 C 
ATOM     18  C   UNL A   1      37.319  33.358  33.374  1.00  0.00     0.029 A 
ATOM     19  N   UNL A   1      39.076  31.982  33.482  1.00  0.00    -0.354 N 
ATOM     20  C   UNL A   1      40.047  29.361  30.165  1.00  0.00     0.074 A 
ATOM     21  C   UNL A   1      39.121  29.545  29.066  1.00  0.00     0.031 C 
ATOM     22  C   UNL A   1      37.933  33.591  34.540  1.00  0.00     0.029 A 
ATOM     23  C   UNL A   1      39.060  32.679  34.669  1.00  0.00     0.049 A 
ATOM     24  H   UNL A   1      39.744  31.290  33.271  1.00  0.00     0.167 HD
ATOM     25  C   UNL A   1      41.094  28.498  30.158  1.00  0.00     0.034 A 
ATOM     26  C   UNL A   1      39.847  32.581  35.757  1.00  0.00     0.034 A 
ATOM     27  C   UNL A   1      42.000  28.324  31.271  1.00  0.00     0.049 A 
ATOM     28  C   UNL A   1      40.975  31.587  35.734  1.00  0.00     0.074 A 
ATOM     29  C   UNL A   1      43.090  27.475  31.372  1.00  0.00     0.029 A 
ATOM     30  N   UNL A   1      41.923  29.007  32.480  1.00  0.00    -0.354 N 
ATOM     31  N   UNL A   1      41.338  30.774  34.768  1.00  0.00    -0.248 NA
ATOM     32  C   UNL A   1      41.804  31.504  36.940  1.00  0.00     0.031 C 
ATOM     33  C   UNL A   1      43.627  27.596  32.659  1.00  0.00     0.029 A 
ATOM     34  C   UNL A   1      42.928  28.580  33.337  1.00  0.00     0.049 A 
ATOM     35  H   UNL A   1      41.252  29.694  32.696  1.00  0.00     0.167 HD
ATOM     36  C   UNL A   1      42.446  30.088  35.251  1.00  0.00     0.074 A 
ATOM     37  C   UNL A   1      42.716  30.619  36.573  1.00  0.00     0.031 C 
ATOM     38  C   UNL A   1      43.171  29.101  34.663  1.00  0.00     0.034 A 
BRANCH  25  39
ATOM     39  C   UNL A   1      41.297  27.652  28.921  1.00  0.00     0.023 A 
ATOM     40  C   UNL A   1      42.303  27.943  27.982  1.00  0.00     0.031 A 
ATOM     41  C   UNL A   1      40.475  26.536  28.677  1.00  0.00     0.131 A 
ATOM     42  C   UNL A   1      42.425  27.165  26.820  1.00  0.00     0.055 A 
ATOM     43  C   UNL A   1      40.651  25.721  27.557  1.00  0.00     0.041 A 
ATOM     44  F   UNL A   1      39.485  26.219  29.525  1.00  0.00    -0.206 F 
ATOM     45  C   UNL A   1      41.624  26.040  26.614  1.00  0.00     0.022 A 
BRANCH  42  46
ATOM     46  S   UNL A   1      43.564  27.717  25.520  1.00  0.00     0.124 S 
ATOM     47  O   UNL A   1      44.543  26.632  25.503  1.00  0.00    -0.237 OA
ATOM     48  O   UNL A   1      42.694  27.809  24.354  1.00  0.00    -0.237 OA
ATOM     49  O   UNL A   1      44.070  28.993  26.023  1.00  0.00    -0.744 OA
ENDBRANCH  42  46
ENDBRANCH  25  39
BRANCH  26  50
ATOM     50  C   UNL A   1      39.559  33.400  36.971  1.00  0.00     0.023 A 
ATOM     51  C   UNL A   1      38.920  32.848  38.091  1.00  0.00     0.031 A 
ATOM     52  C   UNL A   1      39.880  34.770  37.004  1.00  0.00     0.131 A 
ATOM     53  C   UNL A   1      38.575  33.672  39.173  1.00  0.00     0.055 A 
ATOM     54  C   UNL A   1      39.601  35.569  38.112  1.00  0.00     0.041 A 
ATOM     55  F   UNL A   1      40.491  35.352  35.959  1.00  0.00    -0.206 F 
ATOM     56  C   UNL A   1      38.927  35.024  39.200  1.00  0.00     0.022 A 
BRANCH  53  57
ATOM     57  S   UNL A   1      37.552  32.978  40.500  1.00  0.00     0.124 S 
ATOM     58  O   UNL A   1      37.668  34.003  41.532  1.00  0.00    -0.237 OA
ATOM     59  O   UNL A   1      36.250  32.867  39.850  1.00  0.00    -0.237 OA
ATOM     60  O   UNL A   1      38.207  31.708  40.805  1.00  0.00    -0.744 OA
ENDBRANCH  53  57
ENDBRANCH  26  50
BRANCH  38  61
ATOM     61  C   UNL A   1      44.339  28.563  35.453  1.00  0.00     0.023 A 
ATOM     62  C   UNL A   1      44.186  27.497  36.359  1.00  0.00     0.031 A 
ATOM     63  C   UNL A   1      45.607  29.160  35.343  1.00  0.00     0.131 A 
ATOM     64  C   UNL A   1      45.259  27.117  37.178  1.00  0.00     0.055 A 
ATOM     65  C   UNL A   1      46.691  28.727  36.108  1.00  0.00     0.041 A 
ATOM     66  F   UNL A   1      45.811  30.184  34.499  1.00  0.00    -0.206 F 
ATOM     67  C   UNL A   1      46.516  27.714  37.047  1.00  0.00     0.022 A 
BRANCH  64  68
ATOM     68  S   UNL A   1      44.952  25.927  38.512  1.00  0.00     0.124 S 
ATOM     69  O   UNL A   1      44.196  24.888  37.822  1.00  0.00    -0.237 OA
ATOM     70  O   UNL A   1      46.305  25.566  38.923  1.00  0.00    -0.237 OA
ATOM     71  O   UNL A   1      44.193  26.700  39.493  1.00  0.00    -0.744 OA
ENDBRANCH  64  68
ENDBRANCH  38  61
ENDBRANCH  12  13
ENDBRANCH   5   7
ENDBRANCH   2   3
ENDBRANCH   1   2
BRANCH   1  72
ATOM     72  C   UNL A   1      31.443  30.908  25.879  1.00  0.00     0.118 C 
BRANCH  72  73
ATOM     73  N   UNL A   1      30.516  30.774  24.760  1.00  0.00    -0.352 N 
ATOM     74  C   UNL A   1      30.414  29.781  23.814  1.00  0.00     0.251 C 
ATOM     75  H   UNL A   1      29.864  31.507  24.669  1.00  0.00     0.163 HD
ATOM     76  O   UNL A   1      29.690  29.919  22.841  1.00  0.00    -0.269 OA
BRANCH  74  77
ATOM     77  C   UNL A   1      31.207  28.546  23.981  1.00  0.00     0.039 A 
ATOM     78  C   UNL A   1      32.562  28.557  23.663  1.00  0.00     0.014 A 
ATOM     79  C   UNL A   1      30.609  27.386  24.468  1.00  0.00     0.014 A 
ATOM     80  C   UNL A   1      33.344  27.438  23.961  1.00  0.00     0.005 A 
ATOM     81  C   UNL A   1      31.399  26.290  24.801  1.00  0.00     0.005 A 
ATOM     82  C   UNL A   1      32.790  26.315  24.603  1.00  0.00    -0.043 A 
BRANCH  82  83
ATOM     83  C   UNL A   1      33.695  25.170  25.056  1.00  0.00     0.039 C 
ATOM     84  C   UNL A   1      33.083  24.410  26.262  1.00  0.00     0.012 C 
ATOM     85  C   UNL A   1      34.022  24.147  23.944  1.00  0.00     0.128 C 
ATOM     86  C   UNL A   1      33.954  23.231  26.706  1.00  0.00     0.022 C 
ATOM     87  N   UNL A   1      34.852  23.060  24.442  1.00  0.00    -0.338 N 
ATOM     88  C   UNL A   1      34.265  22.297  25.543  1.00  0.00     0.120 C 
BRANCH  87  89
ATOM     89  C   UNL A   1      36.127  22.899  23.920  1.00  0.00     0.253 C 
ATOM     90  O   UNL A   1      36.399  22.949  22.723  1.00  0.00    -0.269 OA
BRANCH  89  91
ATOM     91  C   UNL A   1      37.244  22.695  24.852  1.00  0.00     0.040 A 
ATOM     92  C   UNL A   1      37.634  23.765  25.658  1.00  0.00     0.016 A 
ATOM     93  C   UNL A   1      37.912  21.464  24.875  1.00  0.00     0.024 A 
ATOM     94  C   UNL A   1      38.691  23.621  26.556  1.00  0.00     0.027 A 
ATOM     95  C   UNL A   1      38.996  21.314  25.759  1.00  0.00     0.000 A 
ATOM     96  C   UNL A   1      39.348  22.384  26.586  1.00  0.00     0.045 A 
ATOM     97  C   UNL A   1      39.905  20.256  26.034  1.00  0.00     0.028 A 
ATOM     98  N   UNL A   1      40.407  21.963  27.360  1.00  0.00    -0.361 N 
ATOM     99  C   UNL A   1      40.769  20.689  27.014  1.00  0.00     0.083 A 
ATOM    100  H   UNL A   1      40.841  22.502  28.060  1.00  0.00     0.166 HD
ENDBRANCH  89  91
ENDBRANCH  87  89
ENDBRANCH  82  83
ENDBRANCH  74  77
ENDBRANCH  72  73
ENDBRANCH   1  72
TORSDOF 16
ENDMDL
MODEL 2
REMARK VINA RESULT:     -13.2      0.732      7.552
REMARK SMILES O=C(NCCCNC(=O)c1ccc([C@H]2CCCN(C(=O)c3ccc4[nH]ccc4c3)C2)cc1)c1ccc(-c2c3nc(c(-c4cc(S(=O)(=O)[O-])ccc4F)c4ccc([nH]4)c(-c4cc(S(=O)(=O)[O-])ccc4F)c4nc(c(-c5cc(S(=O)(=O)[O-])ccc5F)c5ccc2[nH]5)C=C4)C=C3)cc1
REMARK SMILES IDX 5 1 4 2 3 3 1 4 2 5 33 7 34 8 95 9 35 10 94 11 36 12 37 13
REMARK SMILES IDX 38 14 88 15 39 16 93 17 87 18 89 19 40 20 92 21 86 22 85 23
REMARK SMILES IDX 41 25 73 26 53 27 72 28 54 29 57 30 71 31 90 32 55 33 56 34
REMARK SMILES IDX 70 36 91 37 58 38 42 39 43 40 51 41 44 42 50 43 52 44 49 45
REMARK SMILES IDX 45 46 46 47 47 48 48 49 74 50 75 51 83 52 76 53 82 54 84 55
REMARK SMILES IDX 81 56 77 57 78 58 79 59 80 60 59 61 60 62 68 63 61 64 67 65
REMARK SMILES IDX 69 66 66 67 62 68 63 69 64 70 65 71 6 72 7 73 8 74 9 76
REMARK SMILES IDX 10 77 11 78 32 79 12 80 31 81 13 82 14 83 15 84 30 85 16 86
REMARK SMILES IDX 18 87 17 88 19 89 20 90 21 91 22 92 29 93 23 94 28 95 24 96
REMARK SMILES IDX 27 97 25 98 26 99
REMARK H PARENT 3 6 89 24 57 35 7 75 25 100
REMARK Flexibility Score: inf
ROOT
ATOM      1  C   UNL A   1      31.534  32.409  26.854  1.00  0.00     0.042 C 
ENDROOT
BRANCH   1   2
ATOM      2  C   UNL A   1      32.796  33.136  27.278  1.00  0.00     0.118 C 
BRANCH   2   3
ATOM      3  N   UNL A   1      32.530  34.388  27.984  1.00  0.00    -0.352 N 
ATOM      4  O   UNL A   1      32.679  35.933  29.617  1.00  0.00    -0.269 OA
ATOM      5  C   UNL A   1      33.154  34.937  29.082  1.00  0.00     0.251 C 
ATOM      6  H   UNL A   1      31.789  34.921  27.617  1.00  0.00     0.163 HD
BRANCH   5   7
ATOM      7  C   UNL A   1      34.380  34.310  29.624  1.00  0.00     0.039 A 
ATOM      8  C   UNL A   1      34.289  33.395  30.670  1.00  0.00     0.014 A 
ATOM      9  C   UNL A   1      35.631  34.647  29.100  1.00  0.00     0.014 A 
ATOM     10  C   UNL A   1      35.438  32.995  31.333  1.00  0.00     0.010 A 
ATOM     11  C   UNL A   1      36.793  34.122  29.680  1.00  0.00     0.010 A 
ATOM     12  C   UNL A   1      36.708  33.320  30.828  1.00  0.00    -0.014 A 
BRANCH  12  13
ATOM     13  C   UNL A   1      37.898  32.726  31.496  1.00  0.00     0.031 A 
ATOM     14  C   UNL A   1      38.334  33.159  32.868  1.00  0.00     0.074 A 
ATOM     15  C   UNL A   1      38.531  31.713  30.869  1.00  0.00     0.049 A 
ATOM     16  N   UNL A   1      39.302  32.680  33.610  1.00  0.00    -0.248 NA
ATOM     17  C   UNL A   1      37.604  34.276  33.486  1.00  0.00     0.031 C 
ATOM     18  C   UNL A   1      38.199  31.221  29.525  1.00  0.00     0.029 A 
ATOM     19  N   UNL A   1      39.543  30.886  31.277  1.00  0.00    -0.354 N 
ATOM     20  C   UNL A   1      39.301  33.434  34.779  1.00  0.00     0.074 A 
ATOM     21  C   UNL A   1      38.264  34.434  34.626  1.00  0.00     0.031 C 
ATOM     22  C   UNL A   1      38.932  30.135  29.258  1.00  0.00     0.029 A 
ATOM     23  C   UNL A   1      39.857  29.908  30.359  1.00  0.00     0.049 A 
ATOM     24  H   UNL A   1      40.002  30.980  32.143  1.00  0.00     0.167 HD
ATOM     25  C   UNL A   1      40.085  33.293  35.878  1.00  0.00     0.034 A 
ATOM     26  C   UNL A   1      40.802  28.950  30.383  1.00  0.00     0.034 A 
ATOM     27  C   UNL A   1      41.120  32.293  36.005  1.00  0.00     0.049 A 
ATOM     28  C   UNL A   1      41.680  28.845  31.599  1.00  0.00     0.074 A 
ATOM     29  C   UNL A   1      41.975  32.065  37.071  1.00  0.00     0.029 A 
ATOM     30  N   UNL A   1      41.448  31.353  35.034  1.00  0.00    -0.354 N 
ATOM     31  N   UNL A   1      41.659  29.567  32.696  1.00  0.00    -0.248 NA
ATOM     32  C   UNL A   1      42.702  27.794  31.584  1.00  0.00     0.031 C 
ATOM     33  C   UNL A   1      42.858  31.038  36.719  1.00  0.00     0.029 A 
ATOM     34  C   UNL A   1      42.505  30.564  35.467  1.00  0.00     0.049 A 
ATOM     35  H   UNL A   1      40.996  31.261  34.164  1.00  0.00     0.167 HD
ATOM     36  C   UNL A   1      42.662  29.047  33.507  1.00  0.00     0.074 A 
ATOM     37  C   UNL A   1      43.233  27.924  32.789  1.00  0.00     0.031 C 
ATOM     38  C   UNL A   1      43.082  29.464  34.730  1.00  0.00     0.034 A 
BRANCH  25  39
ATOM     39  C   UNL A   1      39.875  34.266  37.017  1.00  0.00     0.023 A 
ATOM     40  C   UNL A   1      39.350  33.852  38.256  1.00  0.00     0.031 A 
ATOM     41  C   UNL A   1      40.205  35.625  36.866  1.00  0.00     0.131 A 
ATOM     42  C   UNL A   1      39.121  34.794  39.270  1.00  0.00     0.055 A 
ATOM     43  C   UNL A   1      40.044  36.543  37.905  1.00  0.00     0.041 A 
ATOM     44  F   UNL A   1      40.689  36.084  35.702  1.00  0.00    -0.206 F 
ATOM     45  C   UNL A   1      39.489  36.132  39.114  1.00  0.00     0.022 A 
BRANCH  42  46
ATOM     46  S   UNL A   1      38.219  34.270  40.755  1.00  0.00     0.124 S 
ATOM     47  O   UNL A   1      37.195  33.396  40.188  1.00  0.00    -0.237 OA
ATOM     48  O   UNL A   1      39.257  33.611  41.540  1.00  0.00    -0.237 OA
ATOM     49  O   UNL A   1      37.718  35.524  41.314  1.00  0.00    -0.744 OA
ENDBRANCH  42  46
ENDBRANCH  25  39
BRANCH  26  50
ATOM     50  C   UNL A   1      41.001  28.060  29.202  1.00  0.00     0.023 A 
ATOM     51  C   UNL A   1      41.991  28.326  28.244  1.00  0.00     0.031 A 
ATOM     52  C   UNL A   1      40.164  26.948  28.992  1.00  0.00     0.131 A 
ATOM     53  C   UNL A   1      42.082  27.525  27.095  1.00  0.00     0.055 A 
ATOM     54  C   UNL A   1      40.307  26.112  27.886  1.00  0.00     0.041 A 
ATOM     55  F   UNL A   1      39.199  26.646  29.876  1.00  0.00    -0.206 F 
ATOM     56  C   UNL A   1      41.260  26.409  26.919  1.00  0.00     0.022 A 
BRANCH  53  57
ATOM     57  S   UNL A   1      43.216  28.031  25.774  1.00  0.00     0.124 S 
ATOM     58  O   UNL A   1      42.295  28.280  24.671  1.00  0.00    -0.237 OA
ATOM     59  O   UNL A   1      43.852  29.209  26.356  1.00  0.00    -0.237 OA
ATOM     60  O   UNL A   1      44.087  26.870  25.610  1.00  0.00    -0.744 OA
ENDBRANCH  53  57
ENDBRANCH  26  50
BRANCH  38  61
ATOM     61  C   UNL A   1      44.199  28.670  35.362  1.00  0.00     0.023 A 
ATOM     62  C   UNL A   1      43.937  27.594  36.230  1.00  0.00     0.031 A 
ATOM     63  C   UNL A   1      45.540  29.029  35.141  1.00  0.00     0.131 A 
ATOM     64  C   UNL A   1      44.994  26.970  36.909  1.00  0.00     0.055 A 
ATOM     65  C   UNL A   1      46.593  28.355  35.762  1.00  0.00     0.041 A 
ATOM     66  F   UNL A   1      45.850  30.050  34.327  1.00  0.00    -0.206 F 
ATOM     67  C   UNL A   1      46.322  27.332  36.668  1.00  0.00     0.022 A 
BRANCH  64  68
ATOM     68  S   UNL A   1      44.600  25.773  38.213  1.00  0.00     0.124 S 
ATOM     69  O   UNL A   1      43.776  26.569  39.116  1.00  0.00    -0.237 OA
ATOM     70  O   UNL A   1      43.906  24.724  37.473  1.00  0.00    -0.237 OA
ATOM     71  O   UNL A   1      45.911  25.395  38.738  1.00  0.00    -0.744 OA
ENDBRANCH  64  68
ENDBRANCH  38  61
ENDBRANCH  12  13
ENDBRANCH   5   7
ENDBRANCH   2   3
ENDBRANCH   1   2
BRANCH   1  72
ATOM     72  C   UNL A   1      31.784  30.990  26.376  1.00  0.00     0.118 C 
BRANCH  72  73
ATOM     73  N   UNL A   1      30.975  30.638  25.214  1.00  0.00    -0.352 N 
ATOM     74  C   UNL A   1      31.006  29.509  24.429  1.00  0.00     0.251 C 
ATOM     75  H   UNL A   1      30.305  31.311  24.953  1.00  0.00     0.163 HD
ATOM     76  O   UNL A   1      30.373  29.458  23.385  1.00  0.00    -0.269 OA
BRANCH  74  77
ATOM     77  C   UNL A   1      31.829  28.360  24.854  1.00  0.00     0.039 A 
ATOM     78  C   UNL A   1      31.215  27.267  25.460  1.00  0.00     0.014 A 
ATOM     79  C   UNL A   1      33.204  28.359  24.635  1.00  0.00     0.014 A 
ATOM     80  C   UNL A   1      31.967  26.119  25.726  1.00  0.00     0.005 A 
ATOM     81  C   UNL A   1      33.940  27.200  24.863  1.00  0.00     0.005 A 
ATOM     82  C   UNL A   1      33.325  26.041  25.364  1.00  0.00    -0.043 A 
BRANCH  82  83
ATOM     83  C   UNL A   1      34.082  24.724  25.523  1.00  0.00     0.039 C 
ATOM     84  C   UNL A   1      33.311  23.735  26.436  1.00  0.00     0.012 C 
ATOM     85  C   UNL A   1      34.400  24.014  24.186  1.00  0.00     0.128 C 
ATOM     86  C   UNL A   1      34.032  22.391  26.575  1.00  0.00     0.022 C 
ATOM     87  N   UNL A   1      35.085  22.747  24.401  1.00  0.00    -0.338 N 
ATOM     88  C   UNL A   1      34.346  21.782  25.214  1.00  0.00     0.120 C 
BRANCH  87  89
ATOM     89  C   UNL A   1      36.376  22.596  23.918  1.00  0.00     0.253 C 
ATOM     90  O   UNL A   1      36.683  22.637  22.729  1.00  0.00    -0.269 OA
BRANCH  89  91
ATOM     91  C   UNL A   1      37.468  22.415  24.884  1.00  0.00     0.040 A 
ATOM     92  C   UNL A   1      37.821  23.498  25.691  1.00  0.00     0.016 A 
ATOM     93  C   UNL A   1      38.150  21.192  24.940  1.00  0.00     0.024 A 
ATOM     94  C   UNL A   1      38.852  23.376  26.622  1.00  0.00     0.027 A 
ATOM     95  C   UNL A   1      39.208  21.065  25.857  1.00  0.00     0.000 A 
ATOM     96  C   UNL A   1      39.523  22.147  26.683  1.00  0.00     0.045 A 
ATOM     97  C   UNL A   1      40.122  20.021  26.170  1.00  0.00     0.028 A 
ATOM     98  N   UNL A   1      40.563  21.747  27.492  1.00  0.00    -0.361 N 
ATOM     99  C   UNL A   1      40.950  20.474  27.171  1.00  0.00     0.083 A 
ATOM    100  H   UNL A   1      40.970  22.298  28.200  1.00  0.00     0.166 HD
ENDBRANCH  89  91
ENDBRANCH  87  89
ENDBRANCH  82  83
ENDBRANCH  74  77
ENDBRANCH  72  73
ENDBRANCH   1  72
TORSDOF 16
ENDMDL
MODEL 3
REMARK VINA RESULT:     -13.1      1.556      2.589
REMARK SMILES O=C(NCCCNC(=O)c1ccc([C@H]2CCCN(C(=O)c3ccc4[nH]ccc4c3)C2)cc1)c1ccc(-c2c3nc(c(-c4cc(S(=O)(=O)[O-])ccc4F)c4ccc([nH]4)c(-c4cc(S(=O)(=O)[O-])ccc4F)c4nc(c(-c5cc(S(=O)(=O)[O-])ccc5F)c5ccc2[nH]5)C=C4)C=C3)cc1
REMARK SMILES IDX 5 1 4 2 3 3 1 4 2 5 33 7 34 8 95 9 35 10 94 11 36 12 37 13
REMARK SMILES IDX 38 14 88 15 39 16 93 17 87 18 89 19 40 20 92 21 86 22 85 23
REMARK SMILES IDX 41 25 73 26 53 27 72 28 54 29 57 30 71 31 90 32 55 33 56 34
REMARK SMILES IDX 70 36 91 37 58 38 42 39 43 40 51 41 44 42 50 43 52 44 49 45
REMARK SMILES IDX 45 46 46 47 47 48 48 49 74 50 75 51 83 52 76 53 82 54 84 55
REMARK SMILES IDX 81 56 77 57 78 58 79 59 80 60 59 61 60 62 68 63 61 64 67 65
REMARK SMILES IDX 69 66 66 67 62 68 63 69 64 70 65 71 6 72 7 73 8 74 9 76
REMARK SMILES IDX 10 77 11 78 32 79 12 80 31 81 13 82 14 83 15 84 30 85 16 86
REMARK SMILES IDX 18 87 17 88 19 89 20 90 21 91 22 92 29 93 23 94 28 95 24 96
REMARK SMILES IDX 27 97 25 98 26 99
REMARK H PARENT 3 6 89 24 57 35 7 75 25 100
REMARK Flexibility Score: inf
ROOT
ATOM      1  C   UNL A   1      31.546  32.171  26.668  1.00  0.00     0.042 C 
ENDROOT
BRANCH   1   2
ATOM      2  C   UNL A   1      32.819  32.734  27.269  1.00  0.00     0.118 C 
BRANCH   2   3
ATOM      3  N   UNL A   1      32.689  34.125  27.698  1.00  0.00    -0.352 N 
ATOM      4  O   UNL A   1      32.931  35.930  29.024  1.00  0.00    -0.269 OA
ATOM      5  C   UNL A   1      33.293  34.793  28.739  1.00  0.00     0.251 C 
ATOM      6  H   UNL A   1      32.072  34.668  27.157  1.00  0.00     0.163 HD
BRANCH   5   7
ATOM      7  C   UNL A   1      34.357  34.128  29.523  1.00  0.00     0.039 A 
ATOM      8  C   UNL A   1      35.692  34.297  29.168  1.00  0.00     0.014 A 
ATOM      9  C   UNL A   1      34.023  33.316  30.611  1.00  0.00     0.014 A 
ATOM     10  C   UNL A   1      36.662  33.493  29.743  1.00  0.00     0.010 A 
ATOM     11  C   UNL A   1      35.028  32.615  31.290  1.00  0.00     0.010 A 
ATOM     12  C   UNL A   1      36.354  32.668  30.837  1.00  0.00    -0.014 A 
BRANCH  12  13
ATOM     13  C   UNL A   1      37.474  31.953  31.509  1.00  0.00     0.031 A 
ATOM     14  C   UNL A   1      38.252  30.870  30.815  1.00  0.00     0.074 A 
ATOM     15  C   UNL A   1      37.835  32.367  32.741  1.00  0.00     0.049 A 
ATOM     16  N   UNL A   1      39.301  30.212  31.242  1.00  0.00    -0.248 NA
ATOM     17  C   UNL A   1      37.794  30.463  29.478  1.00  0.00     0.031 C 
ATOM     18  C   UNL A   1      37.138  33.403  33.515  1.00  0.00     0.029 A 
ATOM     19  N   UNL A   1      38.889  32.017  33.543  1.00  0.00    -0.354 N 
ATOM     20  C   UNL A   1      39.629  29.313  30.233  1.00  0.00     0.074 A 
ATOM     21  C   UNL A   1      38.637  29.479  29.191  1.00  0.00     0.031 C 
ATOM     22  C   UNL A   1      37.826  33.658  34.633  1.00  0.00     0.029 A 
ATOM     23  C   UNL A   1      38.954  32.740  34.712  1.00  0.00     0.049 A 
ATOM     24  H   UNL A   1      39.537  31.314  33.306  1.00  0.00     0.167 HD
ATOM     25  C   UNL A   1      40.668  28.441  30.180  1.00  0.00     0.034 A 
ATOM     26  C   UNL A   1      39.807  32.660  35.750  1.00  0.00     0.034 A 
ATOM     27  C   UNL A   1      41.642  28.285  31.237  1.00  0.00     0.049 A 
ATOM     28  C   UNL A   1      40.925  31.658  35.678  1.00  0.00     0.074 A 
ATOM     29  C   UNL A   1      42.731  27.430  31.289  1.00  0.00     0.029 A 
ATOM     30  N   UNL A   1      41.646  28.996  32.432  1.00  0.00    -0.354 N 
ATOM     31  N   UNL A   1      41.220  30.819  34.711  1.00  0.00    -0.248 NA
ATOM     32  C   UNL A   1      41.828  31.595  36.831  1.00  0.00     0.031 C 
ATOM     33  C   UNL A   1      43.349  27.576  32.535  1.00  0.00     0.029 A 
ATOM     34  C   UNL A   1      42.702  28.581  33.234  1.00  0.00     0.049 A 
ATOM     35  H   UNL A   1      40.995  29.693  32.674  1.00  0.00     0.167 HD
ATOM     36  C   UNL A   1      42.352  30.135  35.139  1.00  0.00     0.074 A 
ATOM     37  C   UNL A   1      42.709  30.694  36.428  1.00  0.00     0.031 C 
ATOM     38  C   UNL A   1      43.031  29.130  34.529  1.00  0.00     0.034 A 
BRANCH  25  39
ATOM     39  C   UNL A   1      40.786  27.565  28.953  1.00  0.00     0.023 A 
ATOM     40  C   UNL A   1      41.745  27.816  27.954  1.00  0.00     0.031 A 
ATOM     41  C   UNL A   1      39.931  26.461  28.778  1.00  0.00     0.131 A 
ATOM     42  C   UNL A   1      41.788  27.012  26.805  1.00  0.00     0.055 A 
ATOM     43  C   UNL A   1      40.029  25.620  27.668  1.00  0.00     0.041 A 
ATOM     44  F   UNL A   1      38.982  26.183  29.686  1.00  0.00    -0.206 F 
ATOM     45  C   UNL A   1      40.955  25.899  26.667  1.00  0.00     0.022 A 
BRANCH  42  46
ATOM     46  S   UNL A   1      42.865  27.512  25.433  1.00  0.00     0.124 S 
ATOM     47  O   UNL A   1      42.087  28.587  24.821  1.00  0.00    -0.237 OA
ATOM     48  O   UNL A   1      44.084  27.920  26.121  1.00  0.00    -0.237 OA
ATOM     49  O   UNL A   1      42.981  26.300  24.626  1.00  0.00    -0.744 OA
ENDBRANCH  42  46
ENDBRANCH  25  39
BRANCH  26  50
ATOM     50  C   UNL A   1      39.602  33.509  36.960  1.00  0.00     0.023 A 
ATOM     51  C   UNL A   1      39.056  32.982  38.140  1.00  0.00     0.031 A 
ATOM     52  C   UNL A   1      39.909  34.883  36.933  1.00  0.00     0.131 A 
ATOM     53  C   UNL A   1      38.784  33.832  39.223  1.00  0.00     0.055 A 
ATOM     54  C   UNL A   1      39.705  35.708  38.038  1.00  0.00     0.041 A 
ATOM     55  F   UNL A   1      40.433  35.442  35.830  1.00  0.00    -0.206 F 
ATOM     56  C   UNL A   1      39.122  35.187  39.188  1.00  0.00     0.022 A 
BRANCH  53  57
ATOM     57  S   UNL A   1      37.872  33.164  40.641  1.00  0.00     0.124 S 
ATOM     58  O   UNL A   1      36.519  33.066  40.105  1.00  0.00    -0.237 OA
ATOM     59  O   UNL A   1      38.562  31.899  40.876  1.00  0.00    -0.237 OA
ATOM     60  O   UNL A   1      38.063  34.179  41.676  1.00  0.00    -0.744 OA
ENDBRANCH  53  57
ENDBRANCH  26  50
BRANCH  38  61
ATOM     61  C   UNL A   1      44.243  28.601  35.256  1.00  0.00     0.023 A 
ATOM     62  C   UNL A   1      44.138  27.577  36.216  1.00  0.00     0.031 A 
ATOM     63  C   UNL A   1      45.511  29.164  35.029  1.00  0.00     0.131 A 
ATOM     64  C   UNL A   1      45.259  27.209  36.972  1.00  0.00     0.055 A 
ATOM     65  C   UNL A   1      46.640  28.741  35.732  1.00  0.00     0.041 A 
ATOM     66  F   UNL A   1      45.672  30.147  34.128  1.00  0.00    -0.206 F 
ATOM     67  C   UNL A   1      46.514  27.772  36.724  1.00  0.00     0.022 A 
BRANCH  64  68
ATOM     68  S   UNL A   1      45.029  26.083  38.375  1.00  0.00     0.124 S 
ATOM     69  O   UNL A   1      43.631  26.315  38.722  1.00  0.00    -0.237 OA
ATOM     70  O   UNL A   1      45.332  24.784  37.783  1.00  0.00    -0.237 OA
ATOM     71  O   UNL A   1      46.000  26.557  39.358  1.00  0.00    -0.744 OA
ENDBRANCH  64  68
ENDBRANCH  38  61
ENDBRANCH  12  13
ENDBRANCH   5   7
ENDBRANCH   2   3
ENDBRANCH   1   2
BRANCH   1  72
ATOM     72  C   UNL A   1      31.719  30.787  26.069  1.00  0.00     0.118 C 
BRANCH  72  73
ATOM     73  N   UNL A   1      30.771  30.518  24.992  1.00  0.00    -0.352 N 
ATOM     74  C   UNL A   1      30.706  29.456  24.120  1.00  0.00     0.251 C 
ATOM     75  H   UNL A   1      30.072  31.201  24.872  1.00  0.00     0.163 HD
ATOM     76  O   UNL A   1      29.948  29.481  23.163  1.00  0.00    -0.269 OA
BRANCH  74  77
ATOM     77  C   UNL A   1      31.580  28.287  24.345  1.00  0.00     0.039 A 
ATOM     78  C   UNL A   1      31.147  27.263  25.182  1.00  0.00     0.014 A 
ATOM     79  C   UNL A   1      32.817  28.201  23.712  1.00  0.00     0.014 A 
ATOM     80  C   UNL A   1      31.903  26.091  25.277  1.00  0.00     0.005 A 
ATOM     81  C   UNL A   1      33.546  27.017  23.777  1.00  0.00     0.005 A 
ATOM     82  C   UNL A   1      33.076  25.920  24.518  1.00  0.00    -0.043 A 
BRANCH  82  83
ATOM     83  C   UNL A   1      33.799  24.574  24.522  1.00  0.00     0.039 C 
ATOM     84  C   UNL A   1      35.118  24.638  23.708  1.00  0.00     0.012 C 
ATOM     85  C   UNL A   1      34.118  24.035  25.936  1.00  0.00     0.128 C 
ATOM     86  C   UNL A   1      35.880  23.310  23.734  1.00  0.00     0.022 C 
ATOM     87  N   UNL A   1      34.842  22.772  25.878  1.00  0.00    -0.338 N 
ATOM     88  C   UNL A   1      36.115  22.829  25.161  1.00  0.00     0.120 C 
BRANCH  87  89
ATOM     89  C   UNL A   1      34.244  21.636  26.402  1.00  0.00     0.253 C 
ATOM     90  O   UNL A   1      34.019  21.456  27.596  1.00  0.00    -0.269 OA
BRANCH  89  91
ATOM     91  C   UNL A   1      33.808  20.583  25.474  1.00  0.00     0.040 A 
ATOM     92  C   UNL A   1      32.610  20.770  24.783  1.00  0.00     0.016 A 
ATOM     93  C   UNL A   1      34.569  19.415  25.343  1.00  0.00     0.024 A 
ATOM     94  C   UNL A   1      32.153  19.798  23.893  1.00  0.00     0.027 A 
ATOM     95  C   UNL A   1      34.106  18.417  24.467  1.00  0.00     0.000 A 
ATOM     96  C   UNL A   1      32.924  18.636  23.755  1.00  0.00     0.045 A 
ATOM     97  C   UNL A   1      34.578  17.124  24.107  1.00  0.00     0.028 A 
ATOM     98  N   UNL A   1      32.720  17.529  22.962  1.00  0.00    -0.361 N 
ATOM     99  C   UNL A   1      33.699  16.598  23.188  1.00  0.00     0.083 A 
ATOM    100  H   UNL A   1      31.978  17.421  22.324  1.00  0.00     0.166 HD
ENDBRANCH  89  91
ENDBRANCH  87  89
ENDBRANCH  82  83
ENDBRANCH  74  77
ENDBRANCH  72  73
ENDBRANCH   1  72
TORSDOF 16
ENDMDL
