MODEL 1
REMARK VINA RESULT:     -11.5      0.000      0.000
REMARK SMILES Cc1csc(C[N@H+]2CCC[C@@H](CC(=O)NCCCNC(=O)c3ccc(-c4c5nc(c(-c6cc(S(=O)(=O)[O-])ccc6F)c6ccc([nH]6)c(-c6cc(S(=O)(=O)[O-])ccc6F)c6nc(c(-c7cc(S(=O)(=O)[O-])ccc7F)c7ccc4[nH]7)C=C6)C=C5)cc3)C2)n1
REMARK SMILES IDX 17 1 16 2 15 3 13 4 14 5 12 7 11 8 7 9 8 10 85 11 9 13 10 14
REMARK SMILES IDX 6 15 5 16 1 17 2 18 3 19 86 20 4 21 18 22 19 23 20 24 21 26
REMARK SMILES IDX 22 27 23 28 84 29 24 30 83 31 25 32 26 33 27 34 77 35 28 36
REMARK SMILES IDX 82 37 76 38 78 39 29 40 81 41 75 42 74 43 30 45 62 46 42 47
REMARK SMILES IDX 61 48 43 49 46 50 60 51 79 52 44 53 45 54 59 56 80 57 47 58
REMARK SMILES IDX 31 59 32 60 40 61 33 62 39 63 41 64 38 65 34 66 35 67 36 68
REMARK SMILES IDX 37 69 63 70 64 71 72 72 65 73 71 74 73 75 70 76 66 77 67 78
REMARK SMILES IDX 68 79 69 80 48 81 49 82 57 83 50 84 56 85 58 86 55 87 51 88
REMARK SMILES IDX 52 89 53 90 54 91
REMARK H PARENT 15 6 7 12 19 25 78 44 46 55
REMARK Flexibility Score: inf
ROOT
ATOM      1  C   UNL A   1      31.410  31.913  26.626  1.00  0.00     0.042 C 
ENDROOT
BRANCH   1   2
ATOM      2  C   UNL A   1      31.545  30.584  25.880  1.00  0.00     0.117 C 
BRANCH   2   3
ATOM      3  N   UNL A   1      32.747  29.836  26.212  1.00  0.00    -0.356 N 
ATOM      4  C   UNL A   1      32.924  28.521  26.506  1.00  0.00     0.220 C 
ATOM      5  O   UNL A   1      34.065  28.118  26.733  1.00  0.00    -0.275 OA
ATOM      6  H   UNL A   1      33.572  30.374  26.226  1.00  0.00     0.163 HD
BRANCH   4   7
ATOM      7  C   UNL A   1      31.743  27.577  26.551  1.00  0.00     0.109 C 
BRANCH   7   8
ATOM      8  C   UNL A   1      31.738  26.441  25.509  1.00  0.00     0.054 C 
ATOM      9  N   UNL A   1      31.758  23.900  25.338  1.00  0.00    -0.329 N 
ATOM     10  C   UNL A   1      30.797  23.979  24.226  1.00  0.00     0.262 C 
ATOM     11  C   UNL A   1      31.765  25.074  26.230  1.00  0.00     0.266 C 
ATOM     12  H   UNL A   1      32.682  23.895  24.904  1.00  0.00     0.348 HD
ATOM     13  C   UNL A   1      30.778  25.331  23.524  1.00  0.00     0.062 C 
ATOM     14  C   UNL A   1      30.544  26.429  24.551  1.00  0.00     0.016 C 
BRANCH   9  15
ATOM     15  C   UNL A   1      31.556  22.637  26.111  1.00  0.00     0.331 C 
BRANCH  15  16
ATOM     16  C   UNL A   1      32.409  21.463  25.658  1.00  0.00     0.147 A 
ATOM     17  C   UNL A   1      32.609  18.545  23.576  1.00  0.00     0.067 C 
ATOM     18  C   UNL A   1      32.965  19.668  24.481  1.00  0.00     0.049 A 
ATOM     19  C   UNL A   1      34.231  20.122  24.796  1.00  0.00     0.090 A 
ATOM     20  N   UNL A   1      31.937  20.390  25.054  1.00  0.00    -0.240 NA
ATOM     21  S   UNL A   1      34.127  21.504  25.805  1.00  0.00    -0.121 S 
ENDBRANCH  15  16
ENDBRANCH   9  15
ENDBRANCH   7   8
ENDBRANCH   4   7
ENDBRANCH   2   3
ENDBRANCH   1   2
BRANCH   1  22
ATOM     22  C   UNL A   1      32.701  32.437  27.254  1.00  0.00     0.118 C 
BRANCH  22  23
ATOM     23  N   UNL A   1      32.602  33.847  27.594  1.00  0.00    -0.352 N 
ATOM     24  C   UNL A   1      33.235  34.538  28.596  1.00  0.00     0.251 C 
ATOM     25  H   UNL A   1      31.997  34.379  27.029  1.00  0.00     0.163 HD
ATOM     26  O   UNL A   1      32.824  35.662  28.901  1.00  0.00    -0.269 OA
BRANCH  24  27
ATOM     27  C   UNL A   1      34.388  33.952  29.317  1.00  0.00     0.039 A 
ATOM     28  C   UNL A   1      35.683  34.314  28.936  1.00  0.00     0.014 A 
ATOM     29  C   UNL A   1      34.202  33.003  30.329  1.00  0.00     0.014 A 
ATOM     30  C   UNL A   1      36.788  33.758  29.592  1.00  0.00     0.010 A 
ATOM     31  C   UNL A   1      35.304  32.488  31.016  1.00  0.00     0.010 A 
ATOM     32  C   UNL A   1      36.610  32.853  30.651  1.00  0.00    -0.014 A 
BRANCH  32  33
ATOM     33  C   UNL A   1      37.774  32.248  31.357  1.00  0.00     0.031 A 
ATOM     34  C   UNL A   1      38.538  31.120  30.712  1.00  0.00     0.074 A 
ATOM     35  C   UNL A   1      38.122  32.678  32.586  1.00  0.00     0.049 A 
ATOM     36  N   UNL A   1      39.503  30.385  31.204  1.00  0.00    -0.248 NA
ATOM     37  C   UNL A   1      38.147  30.760  29.342  1.00  0.00     0.031 C 
ATOM     38  C   UNL A   1      37.463  33.758  33.323  1.00  0.00     0.029 A 
ATOM     39  N   UNL A   1      39.111  32.252  33.439  1.00  0.00    -0.354 N 
ATOM     40  C   UNL A   1      39.833  29.472  30.205  1.00  0.00     0.074 A 
ATOM     41  C   UNL A   1      38.924  29.713  29.105  1.00  0.00     0.031 C 
ATOM     42  C   UNL A   1      38.071  33.915  34.511  1.00  0.00     0.029 A 
ATOM     43  C   UNL A   1      39.133  32.920  34.643  1.00  0.00     0.049 A 
ATOM     44  H   UNL A   1      39.747  31.535  33.212  1.00  0.00     0.167 HD
ATOM     45  C   UNL A   1      40.815  28.536  30.197  1.00  0.00     0.034 A 
ATOM     46  C   UNL A   1      39.905  32.741  35.734  1.00  0.00     0.034 A 
ATOM     47  C   UNL A   1      41.723  28.307  31.293  1.00  0.00     0.049 A 
ATOM     48  C   UNL A   1      40.962  31.662  35.715  1.00  0.00     0.074 A 
ATOM     49  C   UNL A   1      42.753  27.384  31.385  1.00  0.00     0.029 A 
ATOM     50  N   UNL A   1      41.719  29.013  32.489  1.00  0.00    -0.354 N 
ATOM     51  N   UNL A   1      41.260  30.813  34.759  1.00  0.00    -0.248 NA
ATOM     52  C   UNL A   1      41.796  31.527  36.918  1.00  0.00     0.031 C 
ATOM     53  C   UNL A   1      43.339  27.501  32.649  1.00  0.00     0.029 A 
ATOM     54  C   UNL A   1      42.719  28.539  33.325  1.00  0.00     0.049 A 
ATOM     55  H   UNL A   1      41.097  29.743  32.711  1.00  0.00     0.167 HD
ATOM     56  C   UNL A   1      42.342  30.075  35.234  1.00  0.00     0.074 A 
ATOM     57  C   UNL A   1      42.650  30.584  36.553  1.00  0.00     0.031 C 
ATOM     58  C   UNL A   1      43.023  29.068  34.632  1.00  0.00     0.034 A 
BRANCH  45  59
ATOM     59  C   UNL A   1      40.943  27.678  28.962  1.00  0.00     0.023 A 
ATOM     60  C   UNL A   1      41.937  27.927  27.998  1.00  0.00     0.031 A 
ATOM     61  C   UNL A   1      40.061  26.607  28.739  1.00  0.00     0.131 A 
ATOM     62  C   UNL A   1      41.983  27.157  26.828  1.00  0.00     0.055 A 
ATOM     63  C   UNL A   1      40.161  25.796  27.606  1.00  0.00     0.041 A 
ATOM     64  F   UNL A   1      39.081  26.334  29.616  1.00  0.00    -0.206 F 
ATOM     65  C   UNL A   1      41.119  26.077  26.636  1.00  0.00     0.022 A 
BRANCH  62  66
ATOM     66  S   UNL A   1      43.117  27.660  25.505  1.00  0.00     0.124 S 
ATOM     67  O   UNL A   1      43.594  26.367  25.021  1.00  0.00    -0.237 OA
ATOM     68  O   UNL A   1      42.243  28.398  24.601  1.00  0.00    -0.237 OA
ATOM     69  O   UNL A   1      44.119  28.466  26.200  1.00  0.00    -0.744 OA
ENDBRANCH  62  66
ENDBRANCH  45  59
BRANCH  46  70
ATOM     70  C   UNL A   1      39.708  33.576  36.955  1.00  0.00     0.023 A 
ATOM     71  C   UNL A   1      39.080  33.049  38.095  1.00  0.00     0.031 A 
ATOM     72  C   UNL A   1      40.067  34.935  36.971  1.00  0.00     0.131 A 
ATOM     73  C   UNL A   1      38.766  33.889  39.174  1.00  0.00     0.055 A 
ATOM     74  C   UNL A   1      39.809  35.753  38.073  1.00  0.00     0.041 A 
ATOM     75  F   UNL A   1      40.673  35.490  35.910  1.00  0.00    -0.206 F 
ATOM     76  C   UNL A   1      39.138  35.235  39.177  1.00  0.00     0.022 A 
BRANCH  73  77
ATOM     77  S   UNL A   1      37.752  33.225  40.525  1.00  0.00     0.124 S 
ATOM     78  O   UNL A   1      38.520  32.051  40.923  1.00  0.00    -0.237 OA
ATOM     79  O   UNL A   1      37.743  34.338  41.468  1.00  0.00    -0.237 OA
ATOM     80  O   UNL A   1      36.471  32.944  39.880  1.00  0.00    -0.744 OA
ENDBRANCH  73  77
ENDBRANCH  46  70
BRANCH  58  81
ATOM     81  C   UNL A   1      44.214  28.506  35.368  1.00  0.00     0.023 A 
ATOM     82  C   UNL A   1      44.079  27.498  36.338  1.00  0.00     0.031 A 
ATOM     83  C   UNL A   1      45.502  29.000  35.098  1.00  0.00     0.131 A 
ATOM     84  C   UNL A   1      45.209  27.050  37.040  1.00  0.00     0.055 A 
ATOM     85  C   UNL A   1      46.629  28.513  35.761  1.00  0.00     0.041 A 
ATOM     86  F   UNL A   1      45.686  29.963  34.180  1.00  0.00    -0.206 F 
ATOM     87  C   UNL A   1      46.485  27.541  36.747  1.00  0.00     0.022 A 
BRANCH  84  88
ATOM     88  S   UNL A   1      44.982  25.865  38.394  1.00  0.00     0.124 S 
ATOM     89  O   UNL A   1      44.184  26.635  39.342  1.00  0.00    -0.237 OA
ATOM     90  O   UNL A   1      44.295  24.761  37.731  1.00  0.00    -0.237 OA
ATOM     91  O   UNL A   1      46.347  25.571  38.826  1.00  0.00    -0.744 OA
ENDBRANCH  84  88
ENDBRANCH  58  81
ENDBRANCH  32  33
ENDBRANCH  24  27
ENDBRANCH  22  23
ENDBRANCH   1  22
TORSDOF 16
ENDMDL
MODEL 2
REMARK VINA RESULT:     -11.5      2.565      3.604
REMARK SMILES Cc1csc(C[N@H+]2CCC[C@@H](CC(=O)NCCCNC(=O)c3ccc(-c4c5nc(c(-c6cc(S(=O)(=O)[O-])ccc6F)c6ccc([nH]6)c(-c6cc(S(=O)(=O)[O-])ccc6F)c6nc(c(-c7cc(S(=O)(=O)[O-])ccc7F)c7ccc4[nH]7)C=C6)C=C5)cc3)C2)n1
REMARK SMILES IDX 17 1 16 2 15 3 13 4 14 5 12 7 11 8 7 9 8 10 85 11 9 13 10 14
REMARK SMILES IDX 6 15 5 16 1 17 2 18 3 19 86 20 4 21 18 22 19 23 20 24 21 26
REMARK SMILES IDX 22 27 23 28 84 29 24 30 83 31 25 32 26 33 27 34 77 35 28 36
REMARK SMILES IDX 82 37 76 38 78 39 29 40 81 41 75 42 74 43 30 45 62 46 42 47
REMARK SMILES IDX 61 48 43 49 46 50 60 51 79 52 44 53 45 54 59 56 80 57 47 58
REMARK SMILES IDX 31 59 32 60 40 61 33 62 39 63 41 64 38 65 34 66 35 67 36 68
REMARK SMILES IDX 37 69 63 70 64 71 72 72 65 73 71 74 73 75 70 76 66 77 67 78
REMARK SMILES IDX 68 79 69 80 48 81 49 82 57 83 50 84 56 85 58 86 55 87 51 88
REMARK SMILES IDX 52 89 53 90 54 91
REMARK H PARENT 15 6 7 12 19 25 78 44 46 55
REMARK Flexibility Score: inf
ROOT
ATOM      1  C   UNL A   1      31.648  32.381  26.863  1.00  0.00     0.042 C 
ENDROOT
BRANCH   1   2
ATOM      2  C   UNL A   1      31.734  30.853  26.870  1.00  0.00     0.117 C 
BRANCH   2   3
ATOM      3  N   UNL A   1      33.059  30.334  27.165  1.00  0.00    -0.356 N 
ATOM      4  C   UNL A   1      33.574  29.082  27.035  1.00  0.00     0.220 C 
ATOM      5  O   UNL A   1      34.754  28.898  27.335  1.00  0.00    -0.275 OA
ATOM      6  H   UNL A   1      33.690  31.002  27.520  1.00  0.00     0.163 HD
BRANCH   4   7
ATOM      7  C   UNL A   1      32.713  27.946  26.530  1.00  0.00     0.109 C 
BRANCH   7   8
ATOM      8  C   UNL A   1      32.522  27.862  25.003  1.00  0.00     0.054 C 
ATOM      9  N   UNL A   1      30.713  27.997  23.215  1.00  0.00    -0.329 N 
ATOM     10  C   UNL A   1      31.637  28.753  22.354  1.00  0.00     0.262 C 
ATOM     11  C   UNL A   1      31.028  28.053  24.654  1.00  0.00     0.266 C 
ATOM     12  H   UNL A   1      30.836  27.017  22.957  1.00  0.00     0.348 HD
ATOM     13  C   UNL A   1      33.106  28.559  22.708  1.00  0.00     0.062 C 
ATOM     14  C   UNL A   1      33.317  28.879  24.180  1.00  0.00     0.016 C 
BRANCH   9  15
ATOM     15  C   UNL A   1      29.302  28.415  22.956  1.00  0.00     0.331 C 
BRANCH  15  16
ATOM     16  C   UNL A   1      29.125  29.872  22.561  1.00  0.00     0.147 A 
ATOM     17  C   UNL A   1      27.913  32.170  20.083  1.00  0.00     0.067 C 
ATOM     18  C   UNL A   1      28.447  31.599  21.346  1.00  0.00     0.049 A 
ATOM     19  C   UNL A   1      28.531  32.219  22.577  1.00  0.00     0.090 A 
ATOM     20  N   UNL A   1      28.875  30.286  21.334  1.00  0.00    -0.240 NA
ATOM     21  S   UNL A   1      29.128  31.121  23.751  1.00  0.00    -0.121 S 
ENDBRANCH  15  16
ENDBRANCH   9  15
ENDBRANCH   7   8
ENDBRANCH   4   7
ENDBRANCH   2   3
ENDBRANCH   1   2
BRANCH   1  22
ATOM     22  C   UNL A   1      32.930  33.103  27.279  1.00  0.00     0.118 C 
BRANCH  22  23
ATOM     23  N   UNL A   1      32.653  34.418  27.834  1.00  0.00    -0.352 N 
ATOM     24  C   UNL A   1      33.132  34.984  28.988  1.00  0.00     0.251 C 
ATOM     25  H   UNL A   1      32.036  34.979  27.310  1.00  0.00     0.163 HD
ATOM     26  O   UNL A   1      32.580  35.996  29.433  1.00  0.00    -0.269 OA
BRANCH  24  27
ATOM     27  C   UNL A   1      34.286  34.395  29.705  1.00  0.00     0.039 A 
ATOM     28  C   UNL A   1      35.568  34.544  29.167  1.00  0.00     0.014 A 
ATOM     29  C   UNL A   1      34.107  33.647  30.874  1.00  0.00     0.014 A 
ATOM     30  C   UNL A   1      36.671  33.981  29.818  1.00  0.00     0.010 A 
ATOM     31  C   UNL A   1      35.215  33.129  31.550  1.00  0.00     0.010 A 
ATOM     32  C   UNL A   1      36.509  33.282  31.026  1.00  0.00    -0.014 A 
BRANCH  32  33
ATOM     33  C   UNL A   1      37.671  32.672  31.730  1.00  0.00     0.031 A 
ATOM     34  C   UNL A   1      38.405  31.514  31.102  1.00  0.00     0.074 A 
ATOM     35  C   UNL A   1      38.044  33.122  32.944  1.00  0.00     0.049 A 
ATOM     36  N   UNL A   1      39.363  30.773  31.597  1.00  0.00    -0.248 NA
ATOM     37  C   UNL A   1      37.988  31.131  29.745  1.00  0.00     0.031 C 
ATOM     38  C   UNL A   1      37.415  34.231  33.665  1.00  0.00     0.029 A 
ATOM     39  N   UNL A   1      39.036  32.697  33.794  1.00  0.00    -0.354 N 
ATOM     40  C   UNL A   1      39.662  29.831  30.616  1.00  0.00     0.074 A 
ATOM     41  C   UNL A   1      38.742  30.065  29.522  1.00  0.00     0.031 C 
ATOM     42  C   UNL A   1      38.042  34.403  34.841  1.00  0.00     0.029 A 
ATOM     43  C   UNL A   1      39.086  33.392  34.982  1.00  0.00     0.049 A 
ATOM     44  H   UNL A   1      39.655  31.963  33.575  1.00  0.00     0.167 HD
ATOM     45  C   UNL A   1      40.626  28.876  30.616  1.00  0.00     0.034 A 
ATOM     46  C   UNL A   1      39.870  33.223  36.067  1.00  0.00     0.034 A 
ATOM     47  C   UNL A   1      41.544  28.655  31.705  1.00  0.00     0.049 A 
ATOM     48  C   UNL A   1      40.906  32.124  36.059  1.00  0.00     0.074 A 
ATOM     49  C   UNL A   1      42.558  27.716  31.805  1.00  0.00     0.029 A 
ATOM     50  N   UNL A   1      41.569  29.388  32.884  1.00  0.00    -0.354 N 
ATOM     51  N   UNL A   1      41.175  31.248  35.119  1.00  0.00    -0.248 NA
ATOM     52  C   UNL A   1      41.753  32.000  37.254  1.00  0.00     0.031 C 
ATOM     53  C   UNL A   1      43.163  27.850  33.058  1.00  0.00     0.029 A 
ATOM     54  C   UNL A   1      42.571  28.915  33.718  1.00  0.00     0.049 A 
ATOM     55  H   UNL A   1      40.964  30.134  33.097  1.00  0.00     0.167 HD
ATOM     56  C   UNL A   1      42.249  30.500  35.596  1.00  0.00     0.074 A 
ATOM     57  C   UNL A   1      42.585  31.033  36.899  1.00  0.00     0.031 C 
ATOM     58  C   UNL A   1      42.904  29.467  35.008  1.00  0.00     0.034 A 
BRANCH  45  59
ATOM     59  C   UNL A   1      40.721  27.989  29.400  1.00  0.00     0.023 A 
ATOM     60  C   UNL A   1      41.664  28.235  28.386  1.00  0.00     0.031 A 
ATOM     61  C   UNL A   1      39.858  26.891  29.244  1.00  0.00     0.131 A 
ATOM     62  C   UNL A   1      41.679  27.435  27.235  1.00  0.00     0.055 A 
ATOM     63  C   UNL A   1      39.928  26.052  28.130  1.00  0.00     0.041 A 
ATOM     64  F   UNL A   1      38.925  26.618  30.171  1.00  0.00    -0.206 F 
ATOM     65  C   UNL A   1      40.835  26.329  27.111  1.00  0.00     0.022 A 
BRANCH  62  66
ATOM     66  S   UNL A   1      42.739  27.929  25.850  1.00  0.00     0.124 S 
ATOM     67  O   UNL A   1      42.183  27.134  24.757  1.00  0.00    -0.237 OA
ATOM     68  O   UNL A   1      42.513  29.368  25.773  1.00  0.00    -0.237 OA
ATOM     69  O   UNL A   1      44.077  27.531  26.283  1.00  0.00    -0.744 OA
ENDBRANCH  62  66
ENDBRANCH  45  59
BRANCH  46  70
ATOM     70  C   UNL A   1      39.705  34.089  37.271  1.00  0.00     0.023 A 
ATOM     71  C   UNL A   1      39.101  33.593  38.438  1.00  0.00     0.031 A 
ATOM     72  C   UNL A   1      40.070  35.446  37.245  1.00  0.00     0.131 A 
ATOM     73  C   UNL A   1      38.817  34.462  39.503  1.00  0.00     0.055 A 
ATOM     74  C   UNL A   1      39.842  36.293  38.331  1.00  0.00     0.041 A 
ATOM     75  F   UNL A   1      40.654  35.972  36.156  1.00  0.00    -0.206 F 
ATOM     76  C   UNL A   1      39.194  35.806  39.463  1.00  0.00     0.022 A 
BRANCH  73  77
ATOM     77  S   UNL A   1      37.832  33.836  40.892  1.00  0.00     0.124 S 
ATOM     78  O   UNL A   1      36.739  33.162  40.202  1.00  0.00    -0.237 OA
ATOM     79  O   UNL A   1      38.791  32.974  41.575  1.00  0.00    -0.237 OA
ATOM     80  O   UNL A   1      37.459  35.049  41.617  1.00  0.00    -0.744 OA
ENDBRANCH  73  77
ENDBRANCH  46  70
BRANCH  58  81
ATOM     81  C   UNL A   1      44.093  28.899  35.741  1.00  0.00     0.023 A 
ATOM     82  C   UNL A   1      43.971  27.818  36.631  1.00  0.00     0.031 A 
ATOM     83  C   UNL A   1      45.368  29.462  35.551  1.00  0.00     0.131 A 
ATOM     84  C   UNL A   1      45.097  27.364  37.336  1.00  0.00     0.055 A 
ATOM     85  C   UNL A   1      46.493  28.973  36.215  1.00  0.00     0.041 A 
ATOM     86  F   UNL A   1      45.540  30.497  34.712  1.00  0.00    -0.206 F 
ATOM     87  C   UNL A   1      46.359  27.926  37.122  1.00  0.00     0.022 A 
BRANCH  84  88
ATOM     88  S   UNL A   1      44.877  26.074  38.592  1.00  0.00     0.124 S 
ATOM     89  O   UNL A   1      43.843  25.239  37.993  1.00  0.00    -0.237 OA
ATOM     90  O   UNL A   1      46.209  25.484  38.670  1.00  0.00    -0.237 OA
ATOM     91  O   UNL A   1      44.462  26.820  39.780  1.00  0.00    -0.744 OA
ENDBRANCH  84  88
ENDBRANCH  58  81
ENDBRANCH  32  33
ENDBRANCH  24  27
ENDBRANCH  22  23
ENDBRANCH   1  22
TORSDOF 16
ENDMDL
MODEL 3
REMARK VINA RESULT:     -11.3      2.197      3.103
REMARK SMILES Cc1csc(C[N@H+]2CCC[C@@H](CC(=O)NCCCNC(=O)c3ccc(-c4c5nc(c(-c6cc(S(=O)(=O)[O-])ccc6F)c6ccc([nH]6)c(-c6cc(S(=O)(=O)[O-])ccc6F)c6nc(c(-c7cc(S(=O)(=O)[O-])ccc7F)c7ccc4[nH]7)C=C6)C=C5)cc3)C2)n1
REMARK SMILES IDX 17 1 16 2 15 3 13 4 14 5 12 7 11 8 7 9 8 10 85 11 9 13 10 14
REMARK SMILES IDX 6 15 5 16 1 17 2 18 3 19 86 20 4 21 18 22 19 23 20 24 21 26
REMARK SMILES IDX 22 27 23 28 84 29 24 30 83 31 25 32 26 33 27 34 77 35 28 36
REMARK SMILES IDX 82 37 76 38 78 39 29 40 81 41 75 42 74 43 30 45 62 46 42 47
REMARK SMILES IDX 61 48 43 49 46 50 60 51 79 52 44 53 45 54 59 56 80 57 47 58
REMARK SMILES IDX 31 59 32 60 40 61 33 62 39 63 41 64 38 65 34 66 35 67 36 68
REMARK SMILES IDX 37 69 63 70 64 71 72 72 65 73 71 74 73 75 70 76 66 77 67 78
REMARK SMILES IDX 68 79 69 80 48 81 49 82 57 83 50 84 56 85 58 86 55 87 51 88
REMARK SMILES IDX 52 89 53 90 54 91
REMARK H PARENT 15 6 7 12 19 25 78 44 46 55
REMARK Flexibility Score: inf
ROOT
ATOM      1  C   UNL A   1      31.948  28.465  25.685  1.00  0.00     0.042 C 
ENDROOT
BRANCH   1   2
ATOM      2  C   UNL A   1      32.165  27.096  26.332  1.00  0.00     0.117 C 
BRANCH   2   3
ATOM      3  N   UNL A   1      30.936  26.386  26.645  1.00  0.00    -0.356 N 
ATOM      4  C   UNL A   1      30.504  25.149  26.278  1.00  0.00     0.220 C 
ATOM      5  O   UNL A   1      29.416  24.758  26.701  1.00  0.00    -0.275 OA
ATOM      6  H   UNL A   1      30.310  26.884  27.219  1.00  0.00     0.163 HD
BRANCH   4   7
ATOM      7  C   UNL A   1      31.347  24.278  25.374  1.00  0.00     0.109 C 
BRANCH   7   8
ATOM      8  C   UNL A   1      31.925  22.996  26.006  1.00  0.00     0.054 C 
ATOM      9  N   UNL A   1      32.386  20.549  25.472  1.00  0.00    -0.329 N 
ATOM     10  C   UNL A   1      33.664  20.645  26.196  1.00  0.00     0.262 C 
ATOM     11  C   UNL A   1      31.857  21.836  24.986  1.00  0.00     0.266 C 
ATOM     12  H   UNL A   1      31.704  20.227  26.159  1.00  0.00     0.348 HD
ATOM     13  C   UNL A   1      33.720  21.792  27.197  1.00  0.00     0.062 C 
ATOM     14  C   UNL A   1      33.373  23.094  26.492  1.00  0.00     0.016 C 
BRANCH   9  15
ATOM     15  C   UNL A   1      32.492  19.557  24.360  1.00  0.00     0.331 C 
BRANCH  15  16
ATOM     16  C   UNL A   1      33.033  18.194  24.764  1.00  0.00     0.147 A 
ATOM     17  C   UNL A   1      32.238  14.869  25.859  1.00  0.00     0.067 C 
ATOM     18  C   UNL A   1      32.972  16.058  25.356  1.00  0.00     0.049 A 
ATOM     19  C   UNL A   1      34.223  16.086  24.772  1.00  0.00     0.090 A 
ATOM     20  N   UNL A   1      32.343  17.286  25.426  1.00  0.00    -0.240 NA
ATOM     21  S   UNL A   1      34.603  17.680  24.268  1.00  0.00    -0.121 S 
ENDBRANCH  15  16
ENDBRANCH   9  15
ENDBRANCH   7   8
ENDBRANCH   4   7
ENDBRANCH   2   3
ENDBRANCH   1   2
BRANCH   1  22
ATOM     22  C   UNL A   1      33.168  29.385  25.693  1.00  0.00     0.118 C 
BRANCH  22  23
ATOM     23  N   UNL A   1      32.802  30.764  25.974  1.00  0.00    -0.352 N 
ATOM     24  C   UNL A   1      33.254  31.590  26.972  1.00  0.00     0.251 C 
ATOM     25  H   UNL A   1      32.139  31.160  25.363  1.00  0.00     0.163 HD
ATOM     26  O   UNL A   1      32.635  32.630  27.215  1.00  0.00    -0.269 OA
BRANCH  24  27
ATOM     27  C   UNL A   1      34.458  31.244  27.762  1.00  0.00     0.039 A 
ATOM     28  C   UNL A   1      35.476  32.193  27.899  1.00  0.00     0.014 A 
ATOM     29  C   UNL A   1      34.617  29.971  28.319  1.00  0.00     0.014 A 
ATOM     30  C   UNL A   1      36.631  31.881  28.626  1.00  0.00     0.010 A 
ATOM     31  C   UNL A   1      35.748  29.679  29.087  1.00  0.00     0.010 A 
ATOM     32  C   UNL A   1      36.771  30.628  29.242  1.00  0.00    -0.014 A 
BRANCH  32  33
ATOM     33  C   UNL A   1      37.996  30.278  30.016  1.00  0.00     0.031 A 
ATOM     34  C   UNL A   1      39.000  29.315  29.435  1.00  0.00     0.074 A 
ATOM     35  C   UNL A   1      38.190  30.786  31.249  1.00  0.00     0.049 A 
ATOM     36  N   UNL A   1      40.066  28.795  29.988  1.00  0.00    -0.248 NA
ATOM     37  C   UNL A   1      38.757  28.864  28.057  1.00  0.00     0.031 C 
ATOM     38  C   UNL A   1      37.294  31.723  31.928  1.00  0.00     0.029 A 
ATOM     39  N   UNL A   1      39.200  30.578  32.157  1.00  0.00    -0.354 N 
ATOM     40  C   UNL A   1      40.620  27.951  29.028  1.00  0.00     0.074 A 
ATOM     41  C   UNL A   1      39.736  27.990  27.881  1.00  0.00     0.031 C 
ATOM     42  C   UNL A   1      37.798  32.016  33.139  1.00  0.00     0.029 A 
ATOM     43  C   UNL A   1      39.028  31.255  33.343  1.00  0.00     0.049 A 
ATOM     44  H   UNL A   1      39.976  29.999  31.976  1.00  0.00     0.167 HD
ATOM     45  C   UNL A   1      41.767  27.229  29.087  1.00  0.00     0.034 A 
ATOM     46  C   UNL A   1      39.766  31.249  34.473  1.00  0.00     0.034 A 
ATOM     47  C   UNL A   1      42.647  27.202  30.230  1.00  0.00     0.049 A 
ATOM     48  C   UNL A   1      41.015  30.403  34.529  1.00  0.00     0.074 A 
ATOM     49  C   UNL A   1      43.833  26.505  30.391  1.00  0.00     0.029 A 
ATOM     50  N   UNL A   1      42.442  27.910  31.406  1.00  0.00    -0.354 N 
ATOM     51  N   UNL A   1      41.523  29.616  33.609  1.00  0.00    -0.248 NA
ATOM     52  C   UNL A   1      41.798  30.454  35.772  1.00  0.00     0.031 C 
ATOM     53  C   UNL A   1      44.320  26.755  31.677  1.00  0.00     0.029 A 
ATOM     54  C   UNL A   1      43.474  27.658  32.299  1.00  0.00     0.049 A 
ATOM     55  H   UNL A   1      41.678  28.505  31.581  1.00  0.00     0.167 HD
ATOM     56  C   UNL A   1      42.705  29.116  34.150  1.00  0.00     0.074 A 
ATOM     57  C   UNL A   1      42.840  29.695  35.469  1.00  0.00     0.031 C 
ATOM     58  C   UNL A   1      43.602  28.256  33.605  1.00  0.00     0.034 A 
BRANCH  45  59
ATOM     59  C   UNL A   1      42.124  26.397  27.881  1.00  0.00     0.023 A 
ATOM     60  C   UNL A   1      41.685  25.067  27.752  1.00  0.00     0.031 A 
ATOM     61  C   UNL A   1      42.919  26.931  26.852  1.00  0.00     0.131 A 
ATOM     62  C   UNL A   1      42.094  24.298  26.654  1.00  0.00     0.055 A 
ATOM     63  C   UNL A   1      43.261  26.183  25.723  1.00  0.00     0.041 A 
ATOM     64  F   UNL A   1      43.383  28.189  26.929  1.00  0.00    -0.206 F 
ATOM     65  C   UNL A   1      42.858  24.855  25.625  1.00  0.00     0.022 A 
BRANCH  62  66
ATOM     66  S   UNL A   1      41.710  22.527  26.646  1.00  0.00     0.124 S 
ATOM     67  O   UNL A   1      42.251  22.116  25.352  1.00  0.00    -0.237 OA
ATOM     68  O   UNL A   1      42.423  22.041  27.821  1.00  0.00    -0.237 OA
ATOM     69  O   UNL A   1      40.252  22.491  26.743  1.00  0.00    -0.744 OA
ENDBRANCH  62  66
ENDBRANCH  45  59
BRANCH  46  70
ATOM     70  C   UNL A   1      39.346  32.046  35.663  1.00  0.00     0.023 A 
ATOM     71  C   UNL A   1      38.641  31.447  36.720  1.00  0.00     0.031 A 
ATOM     72  C   UNL A   1      39.568  33.433  35.724  1.00  0.00     0.131 A 
ATOM     73  C   UNL A   1      38.123  32.239  37.755  1.00  0.00     0.055 A 
ATOM     74  C   UNL A   1      39.105  34.209  36.788  1.00  0.00     0.041 A 
ATOM     75  F   UNL A   1      40.239  34.057  34.743  1.00  0.00    -0.206 F 
ATOM     76  C   UNL A   1      38.361  33.615  37.803  1.00  0.00     0.022 A 
BRANCH  73  77
ATOM     77  S   UNL A   1      37.025  31.464  38.974  1.00  0.00     0.124 S 
ATOM     78  O   UNL A   1      37.815  31.572  40.195  1.00  0.00    -0.237 OA
ATOM     79  O   UNL A   1      35.843  32.316  38.897  1.00  0.00    -0.237 OA
ATOM     80  O   UNL A   1      36.852  30.108  38.461  1.00  0.00    -0.744 OA
ENDBRANCH  73  77
ENDBRANCH  46  70
BRANCH  58  81
ATOM     81  C   UNL A   1      44.842  27.954  34.408  1.00  0.00     0.023 A 
ATOM     82  C   UNL A   1      44.887  26.899  35.337  1.00  0.00     0.031 A 
ATOM     83  C   UNL A   1      45.993  28.745  34.245  1.00  0.00     0.131 A 
ATOM     84  C   UNL A   1      46.044  26.695  36.105  1.00  0.00     0.055 A 
ATOM     85  C   UNL A   1      47.158  28.504  34.974  1.00  0.00     0.041 A 
ATOM     86  F   UNL A   1      46.004  29.764  33.372  1.00  0.00    -0.206 F 
ATOM     87  C   UNL A   1      47.184  27.482  35.919  1.00  0.00     0.022 A 
BRANCH  84  88
ATOM     88  S   UNL A   1      46.015  25.430  37.405  1.00  0.00     0.124 S 
ATOM     89  O   UNL A   1      44.832  25.807  38.170  1.00  0.00    -0.237 OA
ATOM     90  O   UNL A   1      45.912  24.194  36.636  1.00  0.00    -0.237 OA
ATOM     91  O   UNL A   1      47.289  25.621  38.097  1.00  0.00    -0.744 OA
ENDBRANCH  84  88
ENDBRANCH  58  81
ENDBRANCH  32  33
ENDBRANCH  24  27
ENDBRANCH  22  23
ENDBRANCH   1  22
TORSDOF 16
ENDMDL
