MODEL 1
REMARK VINA RESULT:     -12.5      0.000      0.000
REMARK SMILES O=C(NCCCNC(=O)c1cc(S[C@H]2CCOC3(CCC3)C2)ccn1)c1ccc(-c2c3nc(c(-c4cc(S(=O)(=O)[O-])ccc4F)c4ccc([nH]4)c(-c4cc(S(=O)(=O)[O-])ccc4F)c4nc(c(-c5cc(S(=O)(=O)[O-])ccc5F)c5ccc2[nH]5)C=C4)C=C3)cc1
REMARK SMILES IDX 4 1 3 2 1 3 2 4 26 6 27 7 88 8 28 9 87 10 29 11 30 12 31 13
REMARK SMILES IDX 81 14 32 15 86 16 80 17 82 18 33 19 85 20 79 21 78 22 34 24
REMARK SMILES IDX 66 25 46 26 65 27 47 28 50 29 64 30 83 31 48 32 49 33 63 35
REMARK SMILES IDX 84 36 51 37 35 38 36 39 44 40 37 41 43 42 45 43 42 44 38 45
REMARK SMILES IDX 39 46 40 47 41 48 67 49 68 50 76 51 69 52 75 53 77 54 74 55
REMARK SMILES IDX 70 56 71 57 72 58 73 59 52 60 53 61 61 62 54 63 60 64 62 65
REMARK SMILES IDX 59 66 55 67 56 68 57 69 58 70 5 71 6 72 7 73 8 74 9 76 10 77
REMARK SMILES IDX 11 78 25 79 12 80 24 81 23 82 13 83 14 84 15 85 22 86 16 87
REMARK SMILES IDX 18 88 17 89 19 90 21 91 20 92
REMARK H PARENT 3 5 82 23 50 34 7 75
REMARK Flexibility Score: inf
ROOT
ATOM      1  C   UNL A   1      32.070  30.268  26.724  1.00  0.00     0.118 C 
ENDROOT
BRANCH   1   2
ATOM      2  N   UNL A   1      32.056  31.723  26.836  1.00  0.00    -0.352 N 
ATOM      3  O   UNL A   1      32.650  33.774  27.538  1.00  0.00    -0.269 OA
ATOM      4  C   UNL A   1      32.951  32.588  27.425  1.00  0.00     0.251 C 
ATOM      5  H   UNL A   1      31.277  32.158  26.420  1.00  0.00     0.163 HD
BRANCH   4   6
ATOM      6  C   UNL A   1      34.246  32.098  27.946  1.00  0.00     0.039 A 
ATOM      7  C   UNL A   1      34.405  30.772  28.343  1.00  0.00     0.014 A 
ATOM      8  C   UNL A   1      35.330  32.978  28.037  1.00  0.00     0.014 A 
ATOM      9  C   UNL A   1      35.549  30.387  29.029  1.00  0.00     0.010 A 
ATOM     10  C   UNL A   1      36.533  32.550  28.613  1.00  0.00     0.010 A 
ATOM     11  C   UNL A   1      36.635  31.266  29.167  1.00  0.00    -0.014 A 
BRANCH  11  12
ATOM     12  C   UNL A   1      37.855  30.793  29.879  1.00  0.00     0.031 A 
ATOM     13  C   UNL A   1      38.115  31.171  31.315  1.00  0.00     0.074 A 
ATOM     14  C   UNL A   1      38.700  29.959  29.238  1.00  0.00     0.049 A 
ATOM     15  N   UNL A   1      39.095  30.801  32.101  1.00  0.00    -0.248 NA
ATOM     16  C   UNL A   1      37.162  32.096  31.945  1.00  0.00     0.031 C 
ATOM     17  C   UNL A   1      38.560  29.530  27.844  1.00  0.00     0.029 A 
ATOM     18  N   UNL A   1      39.815  29.293  29.676  1.00  0.00    -0.354 N 
ATOM     19  C   UNL A   1      38.894  31.467  33.307  1.00  0.00     0.074 A 
ATOM     20  C   UNL A   1      37.716  32.290  33.133  1.00  0.00     0.031 C 
ATOM     21  C   UNL A   1      39.500  28.617  27.566  1.00  0.00     0.029 A 
ATOM     22  C   UNL A   1      40.359  28.452  28.733  1.00  0.00     0.049 A 
ATOM     23  H   UNL A   1      40.191  29.406  30.579  1.00  0.00     0.167 HD
ATOM     24  C   UNL A   1      39.620  31.391  34.451  1.00  0.00     0.034 A 
ATOM     25  C   UNL A   1      41.434  27.644  28.790  1.00  0.00     0.034 A 
ATOM     26  C   UNL A   1      40.780  30.547  34.616  1.00  0.00     0.049 A 
ATOM     27  C   UNL A   1      42.224  27.583  30.069  1.00  0.00     0.074 A 
ATOM     28  C   UNL A   1      41.567  30.368  35.741  1.00  0.00     0.029 A 
ATOM     29  N   UNL A   1      41.327  29.741  33.623  1.00  0.00    -0.354 N 
ATOM     30  N   UNL A   1      42.011  28.213  31.202  1.00  0.00    -0.248 NA
ATOM     31  C   UNL A   1      43.397  26.702  30.076  1.00  0.00     0.031 C 
ATOM     32  C   UNL A   1      42.619  29.505  35.413  1.00  0.00     0.029 A 
ATOM     33  C   UNL A   1      42.453  29.088  34.102  1.00  0.00     0.049 A 
ATOM     34  H   UNL A   1      40.967  29.650  32.711  1.00  0.00     0.167 HD
ATOM     35  C   UNL A   1      43.015  27.786  32.064  1.00  0.00     0.074 A 
ATOM     36  C   UNL A   1      43.817  26.830  31.326  1.00  0.00     0.031 C 
ATOM     37  C   UNL A   1      43.254  28.151  33.349  1.00  0.00     0.034 A 
BRANCH  24  38
ATOM     38  C   UNL A   1      39.206  32.286  35.599  1.00  0.00     0.023 A 
ATOM     39  C   UNL A   1      39.643  33.618  35.703  1.00  0.00     0.031 A 
ATOM     40  C   UNL A   1      38.381  31.785  36.622  1.00  0.00     0.131 A 
ATOM     41  C   UNL A   1      39.315  34.378  36.837  1.00  0.00     0.055 A 
ATOM     42  C   UNL A   1      37.991  32.571  37.709  1.00  0.00     0.041 A 
ATOM     43  F   UNL A   1      37.947  30.515  36.590  1.00  0.00    -0.206 F 
ATOM     44  C   UNL A   1      38.472  33.871  37.830  1.00  0.00     0.022 A 
BRANCH  41  45
ATOM     45  S   UNL A   1      40.124  35.985  37.070  1.00  0.00     0.124 S 
ATOM     46  O   UNL A   1      39.752  36.685  35.843  1.00  0.00    -0.237 OA
ATOM     47  O   UNL A   1      39.507  36.475  38.297  1.00  0.00    -0.237 OA
ATOM     48  O   UNL A   1      41.541  35.644  37.176  1.00  0.00    -0.744 OA
ENDBRANCH  41  45
ENDBRANCH  24  38
BRANCH  25  49
ATOM     49  C   UNL A   1      41.839  26.844  27.599  1.00  0.00     0.023 A 
ATOM     50  C   UNL A   1      41.550  25.474  27.514  1.00  0.00     0.031 A 
ATOM     51  C   UNL A   1      42.543  27.440  26.537  1.00  0.00     0.131 A 
ATOM     52  C   UNL A   1      41.995  24.735  26.407  1.00  0.00     0.055 A 
ATOM     53  C   UNL A   1      42.936  26.712  25.414  1.00  0.00     0.041 A 
ATOM     54  F   UNL A   1      42.838  28.749  26.567  1.00  0.00    -0.206 F 
ATOM     55  C   UNL A   1      42.674  25.348  25.351  1.00  0.00     0.022 A 
BRANCH  52  56
ATOM     56  S   UNL A   1      41.739  22.940  26.402  1.00  0.00     0.124 S 
ATOM     57  O   UNL A   1      40.285  22.845  26.378  1.00  0.00    -0.237 OA
ATOM     58  O   UNL A   1      42.429  22.540  25.179  1.00  0.00    -0.237 OA
ATOM     59  O   UNL A   1      42.375  22.503  27.643  1.00  0.00    -0.744 OA
ENDBRANCH  52  56
ENDBRANCH  25  49
BRANCH  37  60
ATOM     60  C   UNL A   1      44.412  27.474  34.039  1.00  0.00     0.023 A 
ATOM     61  C   UNL A   1      44.252  26.261  34.733  1.00  0.00     0.031 A 
ATOM     62  C   UNL A   1      45.683  28.073  34.038  1.00  0.00     0.131 A 
ATOM     63  C   UNL A   1      45.327  25.720  35.453  1.00  0.00     0.055 A 
ATOM     64  C   UNL A   1      46.766  27.499  34.705  1.00  0.00     0.041 A 
ATOM     65  F   UNL A   1      45.892  29.232  33.393  1.00  0.00    -0.206 F 
ATOM     66  C   UNL A   1      46.587  26.324  35.432  1.00  0.00     0.022 A 
BRANCH  63  67
ATOM     67  S   UNL A   1      45.030  24.275  36.508  1.00  0.00     0.124 S 
ATOM     68  O   UNL A   1      44.201  23.436  35.646  1.00  0.00    -0.237 OA
ATOM     69  O   UNL A   1      46.383  23.790  36.759  1.00  0.00    -0.237 OA
ATOM     70  O   UNL A   1      44.345  24.833  37.672  1.00  0.00    -0.744 OA
ENDBRANCH  63  67
ENDBRANCH  37  60
ENDBRANCH  11  12
ENDBRANCH   4   6
ENDBRANCH   1   2
BRANCH   1  71
ATOM     71  C   UNL A   1      32.281  29.778  25.300  1.00  0.00     0.042 C 
BRANCH  71  72
ATOM     72  C   UNL A   1      33.538  28.946  25.117  1.00  0.00     0.118 C 
BRANCH  72  73
ATOM     73  N   UNL A   1      33.928  28.823  23.716  1.00  0.00    -0.351 N 
ATOM     74  C   UNL A   1      33.555  27.902  22.757  1.00  0.00     0.269 C 
ATOM     75  H   UNL A   1      34.561  29.509  23.403  1.00  0.00     0.163 HD
ATOM     76  O   UNL A   1      34.146  27.902  21.679  1.00  0.00    -0.268 OA
BRANCH  74  77
ATOM     77  C   UNL A   1      32.404  26.984  22.997  1.00  0.00     0.129 A 
ATOM     78  C   UNL A   1      32.662  25.653  23.285  1.00  0.00     0.049 A 
ATOM     79  N   UNL A   1      31.162  27.516  22.991  1.00  0.00    -0.251 NA
ATOM     80  C   UNL A   1      31.608  24.778  23.507  1.00  0.00     0.011 A 
ATOM     81  C   UNL A   1      30.147  26.660  23.233  1.00  0.00     0.113 A 
ATOM     82  C   UNL A   1      30.316  25.303  23.480  1.00  0.00     0.035 A 
BRANCH  80  83
ATOM     83  S   UNL A   1      31.819  23.022  23.816  1.00  0.00    -0.122 SA
BRANCH  83  84
ATOM     84  C   UNL A   1      33.467  22.913  24.634  1.00  0.00     0.057 C 
ATOM     85  C   UNL A   1      33.328  23.128  26.148  1.00  0.00     0.043 C 
ATOM     86  C   UNL A   1      34.125  21.547  24.385  1.00  0.00     0.050 C 
ATOM     87  C   UNL A   1      34.715  23.122  26.765  1.00  0.00     0.162 C 
ATOM     88  C   UNL A   1      35.486  21.507  25.096  1.00  0.00     0.069 C 
ATOM     89  O   UNL A   1      35.332  21.869  26.496  1.00  0.00    -0.375 OA
ATOM     90  C   UNL A   1      36.262  20.169  24.901  1.00  0.00     0.035 C 
ATOM     91  C   UNL A   1      36.680  22.184  24.350  1.00  0.00     0.035 C 
ATOM     92  C   UNL A   1      37.554  21.004  24.818  1.00  0.00     0.006 C 
ENDBRANCH  83  84
ENDBRANCH  80  83
ENDBRANCH  74  77
ENDBRANCH  72  73
ENDBRANCH  71  72
ENDBRANCH   1  71
TORSDOF 15
ENDMDL
MODEL 2
REMARK VINA RESULT:     -12.2      5.044     10.411
REMARK SMILES O=C(NCCCNC(=O)c1cc(S[C@H]2CCOC3(CCC3)C2)ccn1)c1ccc(-c2c3nc(c(-c4cc(S(=O)(=O)[O-])ccc4F)c4ccc([nH]4)c(-c4cc(S(=O)(=O)[O-])ccc4F)c4nc(c(-c5cc(S(=O)(=O)[O-])ccc5F)c5ccc2[nH]5)C=C4)C=C3)cc1
REMARK SMILES IDX 4 1 3 2 1 3 2 4 26 6 27 7 88 8 28 9 87 10 29 11 30 12 31 13
REMARK SMILES IDX 81 14 32 15 86 16 80 17 82 18 33 19 85 20 79 21 78 22 34 24
REMARK SMILES IDX 66 25 46 26 65 27 47 28 50 29 64 30 83 31 48 32 49 33 63 35
REMARK SMILES IDX 84 36 51 37 35 38 36 39 44 40 37 41 43 42 45 43 42 44 38 45
REMARK SMILES IDX 39 46 40 47 41 48 67 49 68 50 76 51 69 52 75 53 77 54 74 55
REMARK SMILES IDX 70 56 71 57 72 58 73 59 52 60 53 61 61 62 54 63 60 64 62 65
REMARK SMILES IDX 59 66 55 67 56 68 57 69 58 70 5 71 6 72 7 73 8 74 9 76 10 77
REMARK SMILES IDX 11 78 25 79 12 80 24 81 23 82 13 83 14 84 15 85 22 86 16 87
REMARK SMILES IDX 18 88 17 89 19 90 21 91 20 92
REMARK H PARENT 3 5 82 23 50 34 7 75
REMARK Flexibility Score: inf
ROOT
ATOM      1  C   UNL A   1      37.321  22.043  24.396  1.00  0.00     0.118 C 
ENDROOT
BRANCH   1   2
ATOM      2  N   UNL A   1      38.026  20.934  25.031  1.00  0.00    -0.352 N 
ATOM      3  O   UNL A   1      39.635  19.858  26.175  1.00  0.00    -0.269 OA
ATOM      4  C   UNL A   1      39.102  20.928  25.891  1.00  0.00     0.251 C 
ATOM      5  H   UNL A   1      37.674  20.043  24.808  1.00  0.00     0.163 HD
BRANCH   4   6
ATOM      6  C   UNL A   1      39.636  22.193  26.445  1.00  0.00     0.039 A 
ATOM      7  C   UNL A   1      39.018  23.412  26.174  1.00  0.00     0.014 A 
ATOM      8  C   UNL A   1      40.775  22.163  27.256  1.00  0.00     0.014 A 
ATOM      9  C   UNL A   1      39.652  24.599  26.516  1.00  0.00     0.010 A 
ATOM     10  C   UNL A   1      41.342  23.360  27.711  1.00  0.00     0.010 A 
ATOM     11  C   UNL A   1      40.818  24.594  27.297  1.00  0.00    -0.014 A 
BRANCH  11  12
ATOM     12  C   UNL A   1      41.440  25.895  27.668  1.00  0.00     0.031 A 
ATOM     13  C   UNL A   1      42.791  26.294  27.133  1.00  0.00     0.074 A 
ATOM     14  C   UNL A   1      40.743  26.752  28.444  1.00  0.00     0.049 A 
ATOM     15  N   UNL A   1      43.451  27.412  27.308  1.00  0.00    -0.248 NA
ATOM     16  C   UNL A   1      43.501  25.306  26.308  1.00  0.00     0.031 C 
ATOM     17  C   UNL A   1      39.429  26.473  29.031  1.00  0.00     0.029 A 
ATOM     18  N   UNL A   1      41.015  28.035  28.841  1.00  0.00    -0.354 N 
ATOM     19  C   UNL A   1      44.662  27.253  26.641  1.00  0.00     0.074 A 
ATOM     20  C   UNL A   1      44.657  25.916  26.087  1.00  0.00     0.031 C 
ATOM     21  C   UNL A   1      38.977  27.575  29.644  1.00  0.00     0.029 A 
ATOM     22  C   UNL A   1      39.997  28.614  29.564  1.00  0.00     0.049 A 
ATOM     23  H   UNL A   1      41.857  28.498  28.630  1.00  0.00     0.167 HD
ATOM     24  C   UNL A   1      45.678  28.143  26.499  1.00  0.00     0.034 A 
ATOM     25  C   UNL A   1      39.894  29.839  30.113  1.00  0.00     0.034 A 
ATOM     26  C   UNL A   1      45.658  29.482  27.039  1.00  0.00     0.049 A 
ATOM     27  C   UNL A   1      41.037  30.804  29.944  1.00  0.00     0.074 A 
ATOM     28  C   UNL A   1      46.616  30.475  26.924  1.00  0.00     0.029 A 
ATOM     29  N   UNL A   1      44.627  30.018  27.803  1.00  0.00    -0.354 N 
ATOM     30  N   UNL A   1      42.169  30.637  29.300  1.00  0.00    -0.248 NA
ATOM     31  C   UNL A   1      40.885  32.119  30.576  1.00  0.00     0.031 C 
ATOM     32  C   UNL A   1      46.195  31.585  27.666  1.00  0.00     0.029 A 
ATOM     33  C   UNL A   1      44.940  31.314  28.188  1.00  0.00     0.049 A 
ATOM     34  H   UNL A   1      43.796  29.545  28.039  1.00  0.00     0.167 HD
ATOM     35  C   UNL A   1      42.857  31.839  29.433  1.00  0.00     0.074 A 
ATOM     36  C   UNL A   1      42.001  32.724  30.198  1.00  0.00     0.031 C 
ATOM     37  C   UNL A   1      44.085  32.180  28.966  1.00  0.00     0.034 A 
BRANCH  24  38
ATOM     38  C   UNL A   1      46.917  27.673  25.770  1.00  0.00     0.023 A 
ATOM     39  C   UNL A   1      47.158  27.995  24.423  1.00  0.00     0.031 A 
ATOM     40  C   UNL A   1      47.862  26.866  26.430  1.00  0.00     0.131 A 
ATOM     41  C   UNL A   1      48.271  27.452  23.760  1.00  0.00     0.055 A 
ATOM     42  C   UNL A   1      49.009  26.395  25.788  1.00  0.00     0.041 A 
ATOM     43  F   UNL A   1      47.678  26.508  27.711  1.00  0.00    -0.206 F 
ATOM     44  C   UNL A   1      49.211  26.674  24.440  1.00  0.00     0.022 A 
BRANCH  41  45
ATOM     45  S   UNL A   1      48.395  27.656  21.961  1.00  0.00     0.124 S 
ATOM     46  O   UNL A   1      48.646  26.285  21.524  1.00  0.00    -0.237 OA
ATOM     47  O   UNL A   1      47.091  28.208  21.615  1.00  0.00    -0.237 OA
ATOM     48  O   UNL A   1      49.524  28.570  21.796  1.00  0.00    -0.744 OA
ENDBRANCH  41  45
ENDBRANCH  24  38
BRANCH  25  49
ATOM     49  C   UNL A   1      38.679  30.217  30.887  1.00  0.00     0.023 A 
ATOM     50  C   UNL A   1      37.647  30.964  30.298  1.00  0.00     0.031 A 
ATOM     51  C   UNL A   1      38.543  29.853  32.239  1.00  0.00     0.131 A 
ATOM     52  C   UNL A   1      36.541  31.355  31.068  1.00  0.00     0.055 A 
ATOM     53  C   UNL A   1      37.418  30.199  32.986  1.00  0.00     0.041 A 
ATOM     54  F   UNL A   1      39.499  29.134  32.848  1.00  0.00    -0.206 F 
ATOM     55  C   UNL A   1      36.413  30.966  32.404  1.00  0.00     0.022 A 
BRANCH  52  56
ATOM     56  S   UNL A   1      35.303  32.447  30.319  1.00  0.00     0.124 S 
ATOM     57  O   UNL A   1      34.807  31.628  29.221  1.00  0.00    -0.237 OA
ATOM     58  O   UNL A   1      34.380  32.662  31.428  1.00  0.00    -0.237 OA
ATOM     59  O   UNL A   1      36.080  33.620  29.923  1.00  0.00    -0.744 OA
ENDBRANCH  52  56
ENDBRANCH  25  49
BRANCH  37  60
ATOM     60  C   UNL A   1      44.545  33.588  29.245  1.00  0.00     0.023 A 
ATOM     61  C   UNL A   1      44.011  34.690  28.553  1.00  0.00     0.031 A 
ATOM     62  C   UNL A   1      45.563  33.827  30.185  1.00  0.00     0.131 A 
ATOM     63  C   UNL A   1      44.543  35.971  28.762  1.00  0.00     0.055 A 
ATOM     64  C   UNL A   1      46.047  35.112  30.434  1.00  0.00     0.041 A 
ATOM     65  F   UNL A   1      46.110  32.811  30.872  1.00  0.00    -0.206 F 
ATOM     66  C   UNL A   1      45.548  36.191  29.708  1.00  0.00     0.022 A 
BRANCH  63  67
ATOM     67  S   UNL A   1      43.980  37.332  27.702  1.00  0.00     0.124 S 
ATOM     68  O   UNL A   1      43.099  38.072  28.601  1.00  0.00    -0.237 OA
ATOM     69  O   UNL A   1      45.233  37.992  27.352  1.00  0.00    -0.237 OA
ATOM     70  O   UNL A   1      43.308  36.651  26.598  1.00  0.00    -0.744 OA
ENDBRANCH  63  67
ENDBRANCH  37  60
ENDBRANCH  11  12
ENDBRANCH   4   6
ENDBRANCH   1   2
BRANCH   1  71
ATOM     71  C   UNL A   1      35.808  21.935  24.511  1.00  0.00     0.042 C 
BRANCH  71  72
ATOM     72  C   UNL A   1      35.342  21.004  25.617  1.00  0.00     0.118 C 
BRANCH  72  73
ATOM     73  N   UNL A   1      34.204  20.183  25.215  1.00  0.00    -0.351 N 
ATOM     74  C   UNL A   1      32.850  20.452  25.235  1.00  0.00     0.269 C 
ATOM     75  H   UNL A   1      34.441  19.291  24.873  1.00  0.00     0.163 HD
ATOM     76  O   UNL A   1      32.064  19.537  24.997  1.00  0.00    -0.268 OA
BRANCH  74  77
ATOM     77  C   UNL A   1      32.359  21.844  25.455  1.00  0.00     0.129 A 
ATOM     78  C   UNL A   1      32.138  22.654  24.352  1.00  0.00     0.049 A 
ATOM     79  N   UNL A   1      32.085  22.223  26.723  1.00  0.00    -0.251 NA
ATOM     80  C   UNL A   1      31.687  23.954  24.531  1.00  0.00     0.011 A 
ATOM     81  C   UNL A   1      31.622  23.480  26.881  1.00  0.00     0.113 A 
ATOM     82  C   UNL A   1      31.421  24.372  25.835  1.00  0.00     0.035 A 
BRANCH  80  83
ATOM     83  S   UNL A   1      31.435  25.116  23.185  1.00  0.00    -0.122 SA
BRANCH  83  84
ATOM     84  C   UNL A   1      32.469  26.567  23.657  1.00  0.00     0.057 C 
ATOM     85  C   UNL A   1      33.095  27.206  22.409  1.00  0.00     0.043 C 
ATOM     86  C   UNL A   1      31.638  27.629  24.394  1.00  0.00     0.050 C 
ATOM     87  C   UNL A   1      34.007  28.335  22.852  1.00  0.00     0.162 C 
ATOM     88  C   UNL A   1      32.542  28.817  24.753  1.00  0.00     0.069 C 
ATOM     89  O   UNL A   1      33.238  29.294  23.568  1.00  0.00    -0.375 OA
ATOM     90  C   UNL A   1      31.811  29.958  25.524  1.00  0.00     0.035 C 
ATOM     91  C   UNL A   1      33.421  28.659  26.034  1.00  0.00     0.035 C 
ATOM     92  C   UNL A   1      33.095  30.130  26.357  1.00  0.00     0.006 C 
ENDBRANCH  83  84
ENDBRANCH  80  83
ENDBRANCH  74  77
ENDBRANCH  72  73
ENDBRANCH  71  72
ENDBRANCH   1  71
TORSDOF 15
ENDMDL
MODEL 3
REMARK VINA RESULT:     -12.2      1.973      2.407
REMARK SMILES O=C(NCCCNC(=O)c1cc(S[C@H]2CCOC3(CCC3)C2)ccn1)c1ccc(-c2c3nc(c(-c4cc(S(=O)(=O)[O-])ccc4F)c4ccc([nH]4)c(-c4cc(S(=O)(=O)[O-])ccc4F)c4nc(c(-c5cc(S(=O)(=O)[O-])ccc5F)c5ccc2[nH]5)C=C4)C=C3)cc1
REMARK SMILES IDX 4 1 3 2 1 3 2 4 26 6 27 7 88 8 28 9 87 10 29 11 30 12 31 13
REMARK SMILES IDX 81 14 32 15 86 16 80 17 82 18 33 19 85 20 79 21 78 22 34 24
REMARK SMILES IDX 66 25 46 26 65 27 47 28 50 29 64 30 83 31 48 32 49 33 63 35
REMARK SMILES IDX 84 36 51 37 35 38 36 39 44 40 37 41 43 42 45 43 42 44 38 45
REMARK SMILES IDX 39 46 40 47 41 48 67 49 68 50 76 51 69 52 75 53 77 54 74 55
REMARK SMILES IDX 70 56 71 57 72 58 73 59 52 60 53 61 61 62 54 63 60 64 62 65
REMARK SMILES IDX 59 66 55 67 56 68 57 69 58 70 5 71 6 72 7 73 8 74 9 76 10 77
REMARK SMILES IDX 11 78 25 79 12 80 24 81 23 82 13 83 14 84 15 85 22 86 16 87
REMARK SMILES IDX 18 88 17 89 19 90 21 91 20 92
REMARK H PARENT 3 5 82 23 50 34 7 75
REMARK Flexibility Score: inf
ROOT
ATOM      1  C   UNL A   1      32.906  29.167  25.635  1.00  0.00     0.118 C 
ENDROOT
BRANCH   1   2
ATOM      2  N   UNL A   1      32.539  30.497  26.111  1.00  0.00    -0.352 N 
ATOM      3  O   UNL A   1      32.559  32.337  27.402  1.00  0.00    -0.269 OA
ATOM      4  C   UNL A   1      33.140  31.316  27.040  1.00  0.00     0.251 C 
ATOM      5  H   UNL A   1      31.727  30.870  25.698  1.00  0.00     0.163 HD
BRANCH   4   6
ATOM      6  C   UNL A   1      34.453  30.963  27.624  1.00  0.00     0.039 A 
ATOM      7  C   UNL A   1      34.747  29.651  27.990  1.00  0.00     0.014 A 
ATOM      8  C   UNL A   1      35.417  31.961  27.807  1.00  0.00     0.014 A 
ATOM      9  C   UNL A   1      35.888  29.378  28.732  1.00  0.00     0.010 A 
ATOM     10  C   UNL A   1      36.627  31.656  28.441  1.00  0.00     0.010 A 
ATOM     11  C   UNL A   1      36.851  30.373  28.962  1.00  0.00    -0.014 A 
BRANCH  11  12
ATOM     12  C   UNL A   1      38.077  30.022  29.732  1.00  0.00     0.031 A 
ATOM     13  C   UNL A   1      38.249  30.459  31.164  1.00  0.00     0.074 A 
ATOM     14  C   UNL A   1      39.011  29.242  29.149  1.00  0.00     0.049 A 
ATOM     15  N   UNL A   1      39.225  30.192  31.997  1.00  0.00    -0.248 NA
ATOM     16  C   UNL A   1      37.201  31.320  31.731  1.00  0.00     0.031 C 
ATOM     17  C   UNL A   1      38.960  28.765  27.764  1.00  0.00     0.029 A 
ATOM     18  N   UNL A   1      40.158  28.682  29.647  1.00  0.00    -0.354 N 
ATOM     19  C   UNL A   1      38.924  30.872  33.174  1.00  0.00     0.074 A 
ATOM     20  C   UNL A   1      37.691  31.591  32.932  1.00  0.00     0.031 C 
ATOM     21  C   UNL A   1      39.981  27.925  27.548  1.00  0.00     0.029 A 
ATOM     22  C   UNL A   1      40.804  27.863  28.750  1.00  0.00     0.049 A 
ATOM     23  H   UNL A   1      40.488  28.850  30.559  1.00  0.00     0.167 HD
ATOM     24  C   UNL A   1      39.609  30.888  34.346  1.00  0.00     0.034 A 
ATOM     25  C   UNL A   1      41.938  27.147  28.872  1.00  0.00     0.034 A 
ATOM     26  C   UNL A   1      40.826  30.145  34.578  1.00  0.00     0.049 A 
ATOM     27  C   UNL A   1      42.680  27.186  30.180  1.00  0.00     0.074 A 
ATOM     28  C   UNL A   1      41.580  30.062  35.736  1.00  0.00     0.029 A 
ATOM     29  N   UNL A   1      41.474  29.360  33.631  1.00  0.00    -0.354 N 
ATOM     30  N   UNL A   1      42.372  27.827  31.284  1.00  0.00    -0.248 NA
ATOM     31  C   UNL A   1      43.919  26.404  30.257  1.00  0.00     0.031 C 
ATOM     32  C   UNL A   1      42.710  29.280  35.473  1.00  0.00     0.029 A 
ATOM     33  C   UNL A   1      42.630  28.814  34.171  1.00  0.00     0.049 A 
ATOM     34  H   UNL A   1      41.158  29.214  32.710  1.00  0.00     0.167 HD
ATOM     35  C   UNL A   1      43.374  27.507  32.196  1.00  0.00     0.074 A 
ATOM     36  C   UNL A   1      44.278  26.600  31.516  1.00  0.00     0.031 C 
ATOM     37  C   UNL A   1      43.532  27.926  33.476  1.00  0.00     0.034 A 
BRANCH  24  38
ATOM     38  C   UNL A   1      39.080  31.776  35.449  1.00  0.00     0.023 A 
ATOM     39  C   UNL A   1      38.476  31.252  36.606  1.00  0.00     0.031 A 
ATOM     40  C   UNL A   1      39.156  33.175  35.328  1.00  0.00     0.131 A 
ATOM     41  C   UNL A   1      37.909  32.117  37.556  1.00  0.00     0.055 A 
ATOM     42  C   UNL A   1      38.662  34.032  36.314  1.00  0.00     0.041 A 
ATOM     43  F   UNL A   1      39.703  33.737  34.238  1.00  0.00    -0.206 F 
ATOM     44  C   UNL A   1      38.019  33.504  37.429  1.00  0.00     0.022 A 
BRANCH  41  45
ATOM     45  S   UNL A   1      36.897  31.406  38.883  1.00  0.00     0.124 S 
ATOM     46  O   UNL A   1      37.784  31.540  40.037  1.00  0.00    -0.237 OA
ATOM     47  O   UNL A   1      35.720  32.267  38.880  1.00  0.00    -0.237 OA
ATOM     48  O   UNL A   1      36.667  30.032  38.441  1.00  0.00    -0.744 OA
ENDBRANCH  41  45
ENDBRANCH  24  38
BRANCH  25  49
ATOM     49  C   UNL A   1      42.452  26.351  27.721  1.00  0.00     0.023 A 
ATOM     50  C   UNL A   1      42.061  25.017  27.531  1.00  0.00     0.031 A 
ATOM     51  C   UNL A   1      43.363  26.910  26.807  1.00  0.00     0.131 A 
ATOM     52  C   UNL A   1      42.606  24.275  26.472  1.00  0.00     0.055 A 
ATOM     53  C   UNL A   1      43.861  26.185  25.726  1.00  0.00     0.041 A 
ATOM     54  F   UNL A   1      43.764  28.184  26.942  1.00  0.00    -0.206 F 
ATOM     55  C   UNL A   1      43.492  24.853  25.561  1.00  0.00     0.022 A 
BRANCH  52  56
ATOM     56  S   UNL A   1      42.198  22.512  26.346  1.00  0.00     0.124 S 
ATOM     57  O   UNL A   1      42.976  21.946  27.440  1.00  0.00    -0.237 OA
ATOM     58  O   UNL A   1      40.750  22.524  26.528  1.00  0.00    -0.237 OA
ATOM     59  O   UNL A   1      42.651  22.153  25.004  1.00  0.00    -0.744 OA
ENDBRANCH  52  56
ENDBRANCH  25  49
BRANCH  37  60
ATOM     60  C   UNL A   1      44.713  27.365  34.228  1.00  0.00     0.023 A 
ATOM     61  C   UNL A   1      44.618  26.175  34.971  1.00  0.00     0.031 A 
ATOM     62  C   UNL A   1      45.938  28.054  34.236  1.00  0.00     0.131 A 
ATOM     63  C   UNL A   1      45.706  25.745  35.746  1.00  0.00     0.055 A 
ATOM     64  C   UNL A   1      47.038  27.589  34.959  1.00  0.00     0.041 A 
ATOM     65  F   UNL A   1      46.084  29.196  33.546  1.00  0.00    -0.206 F 
ATOM     66  C   UNL A   1      46.920  26.436  35.733  1.00  0.00     0.022 A 
BRANCH  63  67
ATOM     67  S   UNL A   1      45.480  24.328  36.855  1.00  0.00     0.124 S 
ATOM     68  O   UNL A   1      44.255  23.727  36.335  1.00  0.00    -0.237 OA
ATOM     69  O   UNL A   1      46.705  23.565  36.640  1.00  0.00    -0.237 OA
ATOM     70  O   UNL A   1      45.355  24.942  38.176  1.00  0.00    -0.744 OA
ENDBRANCH  63  67
ENDBRANCH  37  60
ENDBRANCH  11  12
ENDBRANCH   4   6
ENDBRANCH   1   2
BRANCH   1  71
ATOM     71  C   UNL A   1      32.805  29.022  24.124  1.00  0.00     0.042 C 
BRANCH  71  72
ATOM     72  C   UNL A   1      34.014  28.358  23.489  1.00  0.00     0.118 C 
BRANCH  72  73
ATOM     73  N   UNL A   1      33.685  27.666  22.247  1.00  0.00    -0.351 N 
ATOM     74  C   UNL A   1      33.308  26.356  22.022  1.00  0.00     0.269 C 
ATOM     75  H   UNL A   1      33.740  28.223  21.438  1.00  0.00     0.163 HD
ATOM     76  O   UNL A   1      33.239  25.954  20.862  1.00  0.00    -0.268 OA
BRANCH  74  77
ATOM     77  C   UNL A   1      32.912  25.476  23.160  1.00  0.00     0.129 A 
ATOM     78  C   UNL A   1      33.818  24.533  23.619  1.00  0.00     0.049 A 
ATOM     79  N   UNL A   1      31.709  25.692  23.735  1.00  0.00    -0.251 NA
ATOM     80  C   UNL A   1      33.472  23.698  24.672  1.00  0.00     0.011 A 
ATOM     81  C   UNL A   1      31.394  24.891  24.775  1.00  0.00     0.113 A 
ATOM     82  C   UNL A   1      32.224  23.890  25.264  1.00  0.00     0.035 A 
BRANCH  80  83
ATOM     83  S   UNL A   1      34.534  22.395  25.302  1.00  0.00    -0.122 SA
BRANCH  83  84
ATOM     84  C   UNL A   1      33.613  20.848  24.910  1.00  0.00     0.057 C 
ATOM     85  C   UNL A   1      32.975  20.943  23.517  1.00  0.00     0.043 C 
ATOM     86  C   UNL A   1      34.537  19.621  24.950  1.00  0.00     0.050 C 
ATOM     87  C   UNL A   1      32.153  19.690  23.276  1.00  0.00     0.162 C 
ATOM     88  C   UNL A   1      33.723  18.365  24.606  1.00  0.00     0.069 C 
ATOM     89  O   UNL A   1      33.009  18.557  23.354  1.00  0.00    -0.375 OA
ATOM     90  C   UNL A   1      34.554  17.047  24.632  1.00  0.00     0.035 C 
ATOM     91  C   UNL A   1      32.890  17.738  25.770  1.00  0.00     0.035 C 
ATOM     92  C   UNL A   1      33.318  16.355  25.240  1.00  0.00     0.006 C 
ENDBRANCH  83  84
ENDBRANCH  80  83
ENDBRANCH  74  77
ENDBRANCH  72  73
ENDBRANCH  71  72
ENDBRANCH   1  71
TORSDOF 15
ENDMDL
