MODEL 1
REMARK VINA RESULT:      -9.8      0.000      0.000
REMARK SMILES C[C@@H](C(=O)NCCCNC(=O)c1ccc(-c2c3nc(c(-c4cc(S(=O)(=O)[O-])ccc4F)c4ccc([nH]4)c(-c4cc(S(=O)(=O)[O-])ccc4F)c4nc(c(-c5cc(S(=O)(=O)[O-])ccc5F)c5ccc2[nH]5)C=C4)C=C3)cc1)c1ccc(-c2cccc(OC(=O)NC3CC3)c2)c(F)c1
REMARK SMILES IDX 6 1 5 2 3 3 4 4 2 6 1 7 75 8 76 9 94 10 77 11 92 12 78 13
REMARK SMILES IDX 93 14 79 15 80 16 91 17 81 18 83 19 82 20 84 21 85 22 86 23
REMARK SMILES IDX 87 24 88 26 89 27 90 28 7 29 8 30 9 31 10 32 11 34 12 35
REMARK SMILES IDX 13 36 74 37 14 38 73 39 15 40 16 41 17 42 67 43 18 44 72 45
REMARK SMILES IDX 66 46 68 47 19 48 71 49 65 50 64 51 20 53 52 54 32 55 51 56
REMARK SMILES IDX 33 57 36 58 50 59 69 60 34 61 35 62 49 64 70 65 37 66 21 67
REMARK SMILES IDX 22 68 30 69 23 70 29 71 31 72 28 73 24 74 25 75 26 76 27 77
REMARK SMILES IDX 53 78 54 79 62 80 55 81 61 82 63 83 60 84 56 85 57 86 58 87
REMARK SMILES IDX 59 88 38 89 39 90 47 91 40 92 46 93 48 94 45 95 41 96 42 97
REMARK SMILES IDX 43 98 44 99
REMARK H PARENT 5 5 87 25 9 33 68 52 36 63
REMARK Flexibility Score: inf
ROOT
ATOM      1  C   UNL A   1      33.808  34.587  29.884  1.00  0.00     0.117 C 
ENDROOT
BRANCH   1   2
ATOM      2  N   UNL A   1      34.214  35.264  31.098  1.00  0.00    -0.356 N 
ATOM      3  C   UNL A   1      35.143  34.931  32.033  1.00  0.00     0.227 C 
ATOM      4  O   UNL A   1      35.275  35.733  32.961  1.00  0.00    -0.274 OA
ATOM      5  H   UNL A   1      33.737  36.108  31.275  1.00  0.00     0.163 HD
BRANCH   3   6
ATOM      6  C   UNL A   1      35.991  33.654  31.869  1.00  0.00     0.105 C 
ATOM      7  C   UNL A   1      36.088  32.822  33.151  1.00  0.00     0.023 C 
BRANCH   6   8
ATOM      8  C   UNL A   1      37.415  33.904  31.380  1.00  0.00    -0.033 A 
ATOM      9  C   UNL A   1      37.764  33.590  30.057  1.00  0.00     0.005 A 
ATOM     10  C   UNL A   1      38.425  34.332  32.251  1.00  0.00     0.044 A 
ATOM     11  C   UNL A   1      39.091  33.693  29.623  1.00  0.00     0.012 A 
ATOM     12  C   UNL A   1      39.733  34.458  31.806  1.00  0.00     0.131 A 
ATOM     13  C   UNL A   1      40.102  34.116  30.498  1.00  0.00     0.018 A 
ATOM     14  F   UNL A   1      40.659  34.884  32.681  1.00  0.00    -0.206 F 
BRANCH  13  15
ATOM     15  C   UNL A   1      41.513  34.100  30.099  1.00  0.00    -0.012 A 
ATOM     16  C   UNL A   1      42.257  35.274  29.917  1.00  0.00     0.009 A 
ATOM     17  C   UNL A   1      42.144  32.863  29.880  1.00  0.00     0.056 A 
ATOM     18  C   UNL A   1      43.602  35.210  29.539  1.00  0.00     0.004 A 
ATOM     19  C   UNL A   1      43.479  32.800  29.508  1.00  0.00     0.133 A 
ATOM     20  C   UNL A   1      44.213  33.973  29.336  1.00  0.00     0.047 A 
BRANCH  19  21
ATOM     21  O   UNL A   1      44.181  31.592  29.281  1.00  0.00    -0.410 OA
BRANCH  21  22
ATOM     22  C   UNL A   1      43.620  30.377  28.893  1.00  0.00     0.412 C 
ATOM     23  O   UNL A   1      42.440  30.170  28.626  1.00  0.00    -0.224 OA
ATOM     24  N   UNL A   1      44.515  29.342  28.831  1.00  0.00    -0.318 N 
ATOM     25  H   UNL A   1      44.127  28.466  28.603  1.00  0.00     0.167 HD
BRANCH  24  26
ATOM     26  C   UNL A   1      45.922  29.341  29.046  1.00  0.00     0.085 C 
ATOM     27  C   UNL A   1      46.636  29.065  30.338  1.00  0.00     0.027 C 
ATOM     28  C   UNL A   1      46.610  28.018  29.268  1.00  0.00     0.027 C 
ENDBRANCH  24  26
ENDBRANCH  21  22
ENDBRANCH  19  21
ENDBRANCH  13  15
ENDBRANCH   6   8
ENDBRANCH   3   6
ENDBRANCH   1   2
BRANCH   1  29
ATOM     29  C   UNL A   1      34.737  34.912  28.719  1.00  0.00     0.042 C 
BRANCH  29  30
ATOM     30  C   UNL A   1      35.247  33.689  27.963  1.00  0.00     0.118 C 
BRANCH  30  31
ATOM     31  N   UNL A   1      34.245  32.641  27.862  1.00  0.00    -0.352 N 
ATOM     32  C   UNL A   1      34.372  31.279  27.950  1.00  0.00     0.251 C 
ATOM     33  H   UNL A   1      33.327  32.962  27.707  1.00  0.00     0.163 HD
ATOM     34  O   UNL A   1      33.428  30.575  27.599  1.00  0.00    -0.269 OA
BRANCH  32  35
ATOM     35  C   UNL A   1      35.625  30.659  28.436  1.00  0.00     0.039 A 
ATOM     36  C   UNL A   1      36.797  30.873  27.708  1.00  0.00     0.014 A 
ATOM     37  C   UNL A   1      35.651  29.838  29.568  1.00  0.00     0.014 A 
ATOM     38  C   UNL A   1      37.997  30.307  28.142  1.00  0.00     0.010 A 
ATOM     39  C   UNL A   1      36.865  29.349  30.050  1.00  0.00     0.010 A 
ATOM     40  C   UNL A   1      38.051  29.569  29.337  1.00  0.00    -0.014 A 
BRANCH  40  41
ATOM     41  C   UNL A   1      39.349  29.039  29.835  1.00  0.00     0.031 A 
ATOM     42  C   UNL A   1      40.016  29.643  31.042  1.00  0.00     0.074 A 
ATOM     43  C   UNL A   1      39.931  28.010  29.186  1.00  0.00     0.049 A 
ATOM     44  N   UNL A   1      41.129  29.290  31.633  1.00  0.00    -0.248 NA
ATOM     45  C   UNL A   1      39.360  30.811  31.648  1.00  0.00     0.031 C 
ATOM     46  C   UNL A   1      39.405  27.376  27.973  1.00  0.00     0.029 A 
ATOM     47  N   UNL A   1      41.080  27.310  29.453  1.00  0.00    -0.354 N 
ATOM     48  C   UNL A   1      41.305  30.188  32.681  1.00  0.00     0.074 A 
ATOM     49  C   UNL A   1      40.223  31.146  32.595  1.00  0.00     0.031 C 
ATOM     50  C   UNL A   1      40.202  26.351  27.633  1.00  0.00     0.029 A 
ATOM     51  C   UNL A   1      41.321  26.284  28.566  1.00  0.00     0.049 A 
ATOM     52  H   UNL A   1      41.676  27.521  30.207  1.00  0.00     0.167 HD
ATOM     53  C   UNL A   1      42.264  30.197  33.641  1.00  0.00     0.034 A 
ATOM     54  C   UNL A   1      42.329  25.393  28.509  1.00  0.00     0.034 A 
ATOM     55  C   UNL A   1      43.339  29.235  33.709  1.00  0.00     0.049 A 
ATOM     56  C   UNL A   1      43.399  25.441  29.570  1.00  0.00     0.074 A 
ATOM     57  C   UNL A   1      44.338  29.125  34.660  1.00  0.00     0.029 A 
ATOM     58  N   UNL A   1      43.565  28.224  32.782  1.00  0.00    -0.354 N 
ATOM     59  N   UNL A   1      43.515  26.259  30.591  1.00  0.00    -0.248 NA
ATOM     60  C   UNL A   1      44.462  24.434  29.480  1.00  0.00     0.031 C 
ATOM     61  C   UNL A   1      45.212  28.105  34.266  1.00  0.00     0.029 A 
ATOM     62  C   UNL A   1      44.708  27.512  33.119  1.00  0.00     0.049 A 
ATOM     63  H   UNL A   1      42.998  28.040  31.999  1.00  0.00     0.167 HD
ATOM     64  C   UNL A   1      44.652  25.845  31.280  1.00  0.00     0.074 A 
ATOM     65  C   UNL A   1      45.163  24.689  30.574  1.00  0.00     0.031 C 
ATOM     66  C   UNL A   1      45.223  26.373  32.394  1.00  0.00     0.034 A 
BRANCH  53  67
ATOM     67  C   UNL A   1      42.201  31.294  34.679  1.00  0.00     0.023 A 
ATOM     68  C   UNL A   1      41.184  31.337  35.651  1.00  0.00     0.031 A 
ATOM     69  C   UNL A   1      43.158  32.325  34.691  1.00  0.00     0.131 A 
ATOM     70  C   UNL A   1      41.103  32.421  36.538  1.00  0.00     0.055 A 
ATOM     71  C   UNL A   1      43.123  33.355  35.632  1.00  0.00     0.041 A 
ATOM     72  F   UNL A   1      44.140  32.355  33.776  1.00  0.00    -0.206 F 
ATOM     73  C   UNL A   1      42.082  33.416  36.555  1.00  0.00     0.022 A 
BRANCH  70  74
ATOM     74  S   UNL A   1      39.618  32.590  37.567  1.00  0.00     0.124 S 
ATOM     75  O   UNL A   1      40.177  32.467  38.912  1.00  0.00    -0.237 OA
ATOM     76  O   UNL A   1      39.128  33.913  37.198  1.00  0.00    -0.237 OA
ATOM     77  O   UNL A   1      38.779  31.471  37.143  1.00  0.00    -0.744 OA
ENDBRANCH  70  74
ENDBRANCH  53  67
BRANCH  54  78
ATOM     78  C   UNL A   1      42.387  24.385  27.409  1.00  0.00     0.023 A 
ATOM     79  C   UNL A   1      41.554  23.255  27.412  1.00  0.00     0.031 A 
ATOM     80  C   UNL A   1      43.314  24.517  26.358  1.00  0.00     0.131 A 
ATOM     81  C   UNL A   1      41.700  22.275  26.417  1.00  0.00     0.055 A 
ATOM     82  C   UNL A   1      43.410  23.571  25.336  1.00  0.00     0.041 A 
ATOM     83  F   UNL A   1      44.133  25.579  26.303  1.00  0.00    -0.206 F 
ATOM     84  C   UNL A   1      42.610  22.434  25.371  1.00  0.00     0.022 A 
BRANCH  81  85
ATOM     85  S   UNL A   1      40.750  20.737  26.566  1.00  0.00     0.124 S 
ATOM     86  O   UNL A   1      39.406  21.182  26.217  1.00  0.00    -0.237 OA
ATOM     87  O   UNL A   1      41.415  19.876  25.592  1.00  0.00    -0.237 OA
ATOM     88  O   UNL A   1      40.941  20.355  27.963  1.00  0.00    -0.744 OA
ENDBRANCH  81  85
ENDBRANCH  54  78
BRANCH  66  89
ATOM     89  C   UNL A   1      46.449  25.669  32.931  1.00  0.00     0.023 A 
ATOM     90  C   UNL A   1      47.724  25.874  32.372  1.00  0.00     0.031 A 
ATOM     91  C   UNL A   1      46.335  24.749  33.989  1.00  0.00     0.131 A 
ATOM     92  C   UNL A   1      48.812  25.108  32.814  1.00  0.00     0.055 A 
ATOM     93  C   UNL A   1      47.439  24.050  34.479  1.00  0.00     0.041 A 
ATOM     94  F   UNL A   1      45.145  24.508  34.561  1.00  0.00    -0.206 F 
ATOM     95  C   UNL A   1      48.683  24.213  33.878  1.00  0.00     0.022 A 
BRANCH  92  96
ATOM     96  S   UNL A   1      50.369  25.198  31.885  1.00  0.00     0.124 S 
ATOM     97  O   UNL A   1      50.812  23.808  31.904  1.00  0.00    -0.237 OA
ATOM     98  O   UNL A   1      49.931  25.710  30.591  1.00  0.00    -0.237 OA
ATOM     99  O   UNL A   1      51.185  26.120  32.673  1.00  0.00    -0.744 OA
ENDBRANCH  92  96
ENDBRANCH  66  89
ENDBRANCH  40  41
ENDBRANCH  32  35
ENDBRANCH  30  31
ENDBRANCH  29  30
ENDBRANCH   1  29
TORSDOF 18
ENDMDL
MODEL 2
REMARK VINA RESULT:      -9.7      1.954      2.301
REMARK SMILES C[C@@H](C(=O)NCCCNC(=O)c1ccc(-c2c3nc(c(-c4cc(S(=O)(=O)[O-])ccc4F)c4ccc([nH]4)c(-c4cc(S(=O)(=O)[O-])ccc4F)c4nc(c(-c5cc(S(=O)(=O)[O-])ccc5F)c5ccc2[nH]5)C=C4)C=C3)cc1)c1ccc(-c2cccc(OC(=O)NC3CC3)c2)c(F)c1
REMARK SMILES IDX 6 1 5 2 3 3 4 4 2 6 1 7 75 8 76 9 94 10 77 11 92 12 78 13
REMARK SMILES IDX 93 14 79 15 80 16 91 17 81 18 83 19 82 20 84 21 85 22 86 23
REMARK SMILES IDX 87 24 88 26 89 27 90 28 7 29 8 30 9 31 10 32 11 34 12 35
REMARK SMILES IDX 13 36 74 37 14 38 73 39 15 40 16 41 17 42 67 43 18 44 72 45
REMARK SMILES IDX 66 46 68 47 19 48 71 49 65 50 64 51 20 53 52 54 32 55 51 56
REMARK SMILES IDX 33 57 36 58 50 59 69 60 34 61 35 62 49 64 70 65 37 66 21 67
REMARK SMILES IDX 22 68 30 69 23 70 29 71 31 72 28 73 24 74 25 75 26 76 27 77
REMARK SMILES IDX 53 78 54 79 62 80 55 81 61 82 63 83 60 84 56 85 57 86 58 87
REMARK SMILES IDX 59 88 38 89 39 90 47 91 40 92 46 93 48 94 45 95 41 96 42 97
REMARK SMILES IDX 43 98 44 99
REMARK H PARENT 5 5 87 25 9 33 68 52 36 63
REMARK Flexibility Score: inf
ROOT
ATOM      1  C   UNL A   1      34.043  33.552  30.523  1.00  0.00     0.117 C 
ENDROOT
BRANCH   1   2
ATOM      2  N   UNL A   1      34.250  34.502  31.596  1.00  0.00    -0.356 N 
ATOM      3  C   UNL A   1      35.186  34.537  32.583  1.00  0.00     0.227 C 
ATOM      4  O   UNL A   1      35.113  35.500  33.350  1.00  0.00    -0.274 OA
ATOM      5  H   UNL A   1      33.606  35.246  31.615  1.00  0.00     0.163 HD
BRANCH   3   6
ATOM      6  C   UNL A   1      36.281  33.456  32.658  1.00  0.00     0.105 C 
ATOM      7  C   UNL A   1      36.677  33.094  34.093  1.00  0.00     0.023 C 
BRANCH   6   8
ATOM      8  C   UNL A   1      37.562  33.804  31.907  1.00  0.00    -0.033 A 
ATOM      9  C   UNL A   1      37.649  33.568  30.526  1.00  0.00     0.005 A 
ATOM     10  C   UNL A   1      38.708  34.249  32.579  1.00  0.00     0.044 A 
ATOM     11  C   UNL A   1      38.853  33.764  29.840  1.00  0.00     0.012 A 
ATOM     12  C   UNL A   1      39.891  34.466  31.887  1.00  0.00     0.131 A 
ATOM     13  C   UNL A   1      40.001  34.203  30.515  1.00  0.00     0.018 A 
ATOM     14  F   UNL A   1      40.955  34.905  32.579  1.00  0.00    -0.206 F 
BRANCH  13  15
ATOM     15  C   UNL A   1      41.300  34.282  29.841  1.00  0.00    -0.012 A 
ATOM     16  C   UNL A   1      41.701  35.409  29.109  1.00  0.00     0.009 A 
ATOM     17  C   UNL A   1      42.175  33.185  29.919  1.00  0.00     0.056 A 
ATOM     18  C   UNL A   1      42.952  35.441  28.484  1.00  0.00     0.004 A 
ATOM     19  C   UNL A   1      43.418  33.218  29.301  1.00  0.00     0.133 A 
ATOM     20  C   UNL A   1      43.811  34.346  28.582  1.00  0.00     0.047 A 
BRANCH  19  21
ATOM     21  O   UNL A   1      44.353  32.156  29.347  1.00  0.00    -0.410 OA
BRANCH  21  22
ATOM     22  C   UNL A   1      44.238  30.993  30.105  1.00  0.00     0.412 C 
ATOM     23  O   UNL A   1      44.624  30.832  31.259  1.00  0.00    -0.224 OA
ATOM     24  N   UNL A   1      43.639  29.953  29.446  1.00  0.00    -0.318 N 
ATOM     25  H   UNL A   1      43.590  29.109  29.951  1.00  0.00     0.167 HD
BRANCH  24  26
ATOM     26  C   UNL A   1      43.073  29.908  28.140  1.00  0.00     0.085 C 
ATOM     27  C   UNL A   1      43.797  30.094  26.838  1.00  0.00     0.027 C 
ATOM     28  C   UNL A   1      43.388  28.719  27.267  1.00  0.00     0.027 C 
ENDBRANCH  24  26
ENDBRANCH  21  22
ENDBRANCH  19  21
ENDBRANCH  13  15
ENDBRANCH   6   8
ENDBRANCH   3   6
ENDBRANCH   1   2
BRANCH   1  29
ATOM     29  C   UNL A   1      34.208  34.203  29.154  1.00  0.00     0.042 C 
BRANCH  29  30
ATOM     30  C   UNL A   1      34.871  33.310  28.110  1.00  0.00     0.118 C 
BRANCH  30  31
ATOM     31  N   UNL A   1      34.083  32.126  27.812  1.00  0.00    -0.352 N 
ATOM     32  C   UNL A   1      34.450  30.806  27.752  1.00  0.00     0.251 C 
ATOM     33  H   UNL A   1      33.132  32.300  27.625  1.00  0.00     0.163 HD
ATOM     34  O   UNL A   1      33.671  29.999  27.251  1.00  0.00    -0.269 OA
BRANCH  32  35
ATOM     35  C   UNL A   1      35.767  30.357  28.258  1.00  0.00     0.039 A 
ATOM     36  C   UNL A   1      35.826  29.767  29.522  1.00  0.00     0.014 A 
ATOM     37  C   UNL A   1      36.943  30.549  27.526  1.00  0.00     0.014 A 
ATOM     38  C   UNL A   1      37.051  29.328  30.027  1.00  0.00     0.010 A 
ATOM     39  C   UNL A   1      38.150  30.028  27.991  1.00  0.00     0.010 A 
ATOM     40  C   UNL A   1      38.220  29.421  29.252  1.00  0.00    -0.014 A 
BRANCH  40  41
ATOM     41  C   UNL A   1      39.507  28.876  29.764  1.00  0.00     0.031 A 
ATOM     42  C   UNL A   1      40.169  29.477  30.975  1.00  0.00     0.074 A 
ATOM     43  C   UNL A   1      40.082  27.838  29.125  1.00  0.00     0.049 A 
ATOM     44  N   UNL A   1      41.272  29.112  31.578  1.00  0.00    -0.248 NA
ATOM     45  C   UNL A   1      39.523  30.656  31.571  1.00  0.00     0.031 C 
ATOM     46  C   UNL A   1      39.560  27.206  27.910  1.00  0.00     0.029 A 
ATOM     47  N   UNL A   1      41.219  27.124  29.405  1.00  0.00    -0.354 N 
ATOM     48  C   UNL A   1      41.450  30.012  32.625  1.00  0.00     0.074 A 
ATOM     49  C   UNL A   1      40.381  30.983  32.525  1.00  0.00     0.031 C 
ATOM     50  C   UNL A   1      40.346  26.170  27.581  1.00  0.00     0.029 A 
ATOM     51  C   UNL A   1      41.456  26.093  28.525  1.00  0.00     0.049 A 
ATOM     52  H   UNL A   1      41.811  27.331  30.165  1.00  0.00     0.167 HD
ATOM     53  C   UNL A   1      42.400  30.012  33.594  1.00  0.00     0.034 A 
ATOM     54  C   UNL A   1      42.454  25.189  28.480  1.00  0.00     0.034 A 
ATOM     55  C   UNL A   1      43.462  29.038  33.676  1.00  0.00     0.049 A 
ATOM     56  C   UNL A   1      43.514  25.228  29.551  1.00  0.00     0.074 A 
ATOM     57  C   UNL A   1      44.450  28.918  34.637  1.00  0.00     0.029 A 
ATOM     58  N   UNL A   1      43.684  28.021  32.754  1.00  0.00    -0.354 N 
ATOM     59  N   UNL A   1      43.631  26.048  30.570  1.00  0.00    -0.248 NA
ATOM     60  C   UNL A   1      44.564  24.207  29.475  1.00  0.00     0.031 C 
ATOM     61  C   UNL A   1      45.315  27.886  34.255  1.00  0.00     0.029 A 
ATOM     62  C   UNL A   1      44.814  27.295  33.105  1.00  0.00     0.049 A 
ATOM     63  H   UNL A   1      43.122  27.841  31.966  1.00  0.00     0.167 HD
ATOM     64  C   UNL A   1      44.755  25.623  31.272  1.00  0.00     0.074 A 
ATOM     65  C   UNL A   1      45.259  24.457  30.575  1.00  0.00     0.031 C 
ATOM     66  C   UNL A   1      45.322  26.147  32.390  1.00  0.00     0.034 A 
BRANCH  53  67
ATOM     67  C   UNL A   1      42.340  31.114  34.628  1.00  0.00     0.023 A 
ATOM     68  C   UNL A   1      42.974  32.355  34.425  1.00  0.00     0.031 A 
ATOM     69  C   UNL A   1      41.659  30.921  35.843  1.00  0.00     0.131 A 
ATOM     70  C   UNL A   1      42.978  33.318  35.444  1.00  0.00     0.055 A 
ATOM     71  C   UNL A   1      41.591  31.917  36.819  1.00  0.00     0.041 A 
ATOM     72  F   UNL A   1      41.053  29.752  36.108  1.00  0.00    -0.206 F 
ATOM     73  C   UNL A   1      42.266  33.120  36.629  1.00  0.00     0.022 A 
BRANCH  70  74
ATOM     74  S   UNL A   1      44.050  34.770  35.261  1.00  0.00     0.124 S 
ATOM     75  O   UNL A   1      43.819  35.132  33.864  1.00  0.00    -0.237 OA
ATOM     76  O   UNL A   1      43.511  35.689  36.256  1.00  0.00    -0.237 OA
ATOM     77  O   UNL A   1      45.385  34.248  35.549  1.00  0.00    -0.744 OA
ENDBRANCH  70  74
ENDBRANCH  53  67
BRANCH  54  78
ATOM     78  C   UNL A   1      42.509  24.176  27.385  1.00  0.00     0.023 A 
ATOM     79  C   UNL A   1      41.743  23.001  27.440  1.00  0.00     0.031 A 
ATOM     80  C   UNL A   1      43.369  24.350  26.284  1.00  0.00     0.131 A 
ATOM     81  C   UNL A   1      41.890  22.022  26.444  1.00  0.00     0.055 A 
ATOM     82  C   UNL A   1      43.464  23.403  25.264  1.00  0.00     0.041 A 
ATOM     83  F   UNL A   1      44.123  25.456  26.179  1.00  0.00    -0.206 F 
ATOM     84  C   UNL A   1      42.733  22.223  25.349  1.00  0.00     0.022 A 
BRANCH  81  85
ATOM     85  S   UNL A   1      41.039  20.434  26.653  1.00  0.00     0.124 S 
ATOM     86  O   UNL A   1      39.849  20.624  25.831  1.00  0.00    -0.237 OA
ATOM     87  O   UNL A   1      42.029  19.491  26.142  1.00  0.00    -0.237 OA
ATOM     88  O   UNL A   1      40.801  20.364  28.092  1.00  0.00    -0.744 OA
ENDBRANCH  81  85
ENDBRANCH  54  78
BRANCH  66  89
ATOM     89  C   UNL A   1      46.534  25.431  32.940  1.00  0.00     0.023 A 
ATOM     90  C   UNL A   1      46.415  24.388  33.878  1.00  0.00     0.031 A 
ATOM     91  C   UNL A   1      47.829  25.823  32.554  1.00  0.00     0.131 A 
ATOM     92  C   UNL A   1      47.565  23.835  34.459  1.00  0.00     0.055 A 
ATOM     93  C   UNL A   1      48.970  25.212  33.076  1.00  0.00     0.041 A 
ATOM     94  F   UNL A   1      48.008  26.813  31.666  1.00  0.00    -0.206 F 
ATOM     95  C   UNL A   1      48.842  24.225  34.049  1.00  0.00     0.022 A 
BRANCH  92  96
ATOM     96  S   UNL A   1      47.368  22.697  35.859  1.00  0.00     0.124 S 
ATOM     97  O   UNL A   1      46.114  23.157  36.447  1.00  0.00    -0.237 OA
ATOM     98  O   UNL A   1      47.324  21.396  35.200  1.00  0.00    -0.237 OA
ATOM     99  O   UNL A   1      48.559  22.941  36.670  1.00  0.00    -0.744 OA
ENDBRANCH  92  96
ENDBRANCH  66  89
ENDBRANCH  40  41
ENDBRANCH  32  35
ENDBRANCH  30  31
ENDBRANCH  29  30
ENDBRANCH   1  29
TORSDOF 18
ENDMDL
MODEL 3
REMARK VINA RESULT:      -9.3      3.463     10.894
REMARK SMILES C[C@@H](C(=O)NCCCNC(=O)c1ccc(-c2c3nc(c(-c4cc(S(=O)(=O)[O-])ccc4F)c4ccc([nH]4)c(-c4cc(S(=O)(=O)[O-])ccc4F)c4nc(c(-c5cc(S(=O)(=O)[O-])ccc5F)c5ccc2[nH]5)C=C4)C=C3)cc1)c1ccc(-c2cccc(OC(=O)NC3CC3)c2)c(F)c1
REMARK SMILES IDX 6 1 5 2 3 3 4 4 2 6 1 7 75 8 76 9 94 10 77 11 92 12 78 13
REMARK SMILES IDX 93 14 79 15 80 16 91 17 81 18 83 19 82 20 84 21 85 22 86 23
REMARK SMILES IDX 87 24 88 26 89 27 90 28 7 29 8 30 9 31 10 32 11 34 12 35
REMARK SMILES IDX 13 36 74 37 14 38 73 39 15 40 16 41 17 42 67 43 18 44 72 45
REMARK SMILES IDX 66 46 68 47 19 48 71 49 65 50 64 51 20 53 52 54 32 55 51 56
REMARK SMILES IDX 33 57 36 58 50 59 69 60 34 61 35 62 49 64 70 65 37 66 21 67
REMARK SMILES IDX 22 68 30 69 23 70 29 71 31 72 28 73 24 74 25 75 26 76 27 77
REMARK SMILES IDX 53 78 54 79 62 80 55 81 61 82 63 83 60 84 56 85 57 86 58 87
REMARK SMILES IDX 59 88 38 89 39 90 47 91 40 92 46 93 48 94 45 95 41 96 42 97
REMARK SMILES IDX 43 98 44 99
REMARK H PARENT 5 5 87 25 9 33 68 52 36 63
REMARK Flexibility Score: inf
ROOT
ATOM      1  C   UNL A   1      43.081  20.910  25.529  1.00  0.00     0.117 C 
ENDROOT
BRANCH   1   2
ATOM      2  N   UNL A   1      42.814  22.265  25.096  1.00  0.00    -0.356 N 
ATOM      3  C   UNL A   1      43.532  23.409  25.261  1.00  0.00     0.227 C 
ATOM      4  O   UNL A   1      43.043  24.421  24.753  1.00  0.00    -0.274 OA
ATOM      5  H   UNL A   1      41.972  22.378  24.598  1.00  0.00     0.163 HD
BRANCH   3   6
ATOM      6  C   UNL A   1      44.888  23.379  25.991  1.00  0.00     0.105 C 
ATOM      7  C   UNL A   1      45.662  22.074  25.778  1.00  0.00     0.023 C 
BRANCH   6   8
ATOM      8  C   UNL A   1      44.798  23.612  27.496  1.00  0.00    -0.033 A 
ATOM      9  C   UNL A   1      43.630  23.255  28.189  1.00  0.00     0.005 A 
ATOM     10  C   UNL A   1      45.807  24.286  28.196  1.00  0.00     0.044 A 
ATOM     11  C   UNL A   1      43.476  23.572  29.544  1.00  0.00     0.012 A 
ATOM     12  C   UNL A   1      45.658  24.573  29.546  1.00  0.00     0.131 A 
ATOM     13  C   UNL A   1      44.485  24.251  30.242  1.00  0.00     0.018 A 
ATOM     14  F   UNL A   1      46.663  25.209  30.170  1.00  0.00    -0.206 F 
BRANCH  13  15
ATOM     15  C   UNL A   1      44.284  24.711  31.620  1.00  0.00    -0.012 A 
ATOM     16  C   UNL A   1      44.244  23.828  32.709  1.00  0.00     0.009 A 
ATOM     17  C   UNL A   1      44.115  26.085  31.861  1.00  0.00     0.056 A 
ATOM     18  C   UNL A   1      44.053  24.312  34.007  1.00  0.00     0.004 A 
ATOM     19  C   UNL A   1      43.929  26.565  33.150  1.00  0.00     0.133 A 
ATOM     20  C   UNL A   1      43.897  25.681  34.228  1.00  0.00     0.047 A 
BRANCH  19  21
ATOM     21  O   UNL A   1      43.762  27.934  33.469  1.00  0.00    -0.410 OA
BRANCH  21  22
ATOM     22  C   UNL A   1      43.534  28.966  32.561  1.00  0.00     0.412 C 
ATOM     23  O   UNL A   1      44.380  29.543  31.883  1.00  0.00    -0.224 OA
ATOM     24  N   UNL A   1      42.222  29.345  32.463  1.00  0.00    -0.318 N 
ATOM     25  H   UNL A   1      42.049  30.104  31.860  1.00  0.00     0.167 HD
BRANCH  24  26
ATOM     26  C   UNL A   1      41.069  28.806  33.101  1.00  0.00     0.085 C 
ATOM     27  C   UNL A   1      39.635  29.068  32.740  1.00  0.00     0.027 C 
ATOM     28  C   UNL A   1      40.267  27.764  32.364  1.00  0.00     0.027 C 
ENDBRANCH  24  26
ENDBRANCH  21  22
ENDBRANCH  19  21
ENDBRANCH  13  15
ENDBRANCH   6   8
ENDBRANCH   3   6
ENDBRANCH   1   2
BRANCH   1  29
ATOM     29  C   UNL A   1      41.841  20.253  26.126  1.00  0.00     0.042 C 
BRANCH  29  30
ATOM     30  C   UNL A   1      40.965  21.194  26.947  1.00  0.00     0.118 C 
BRANCH  30  31
ATOM     31  N   UNL A   1      39.698  21.482  26.295  1.00  0.00    -0.352 N 
ATOM     32  C   UNL A   1      38.930  22.618  26.309  1.00  0.00     0.251 C 
ATOM     33  H   UNL A   1      39.335  20.743  25.755  1.00  0.00     0.163 HD
ATOM     34  O   UNL A   1      37.781  22.557  25.878  1.00  0.00    -0.269 OA
BRANCH  32  35
ATOM     35  C   UNL A   1      39.458  23.890  26.852  1.00  0.00     0.039 A 
ATOM     36  C   UNL A   1      39.900  24.862  25.953  1.00  0.00     0.014 A 
ATOM     37  C   UNL A   1      39.564  24.117  28.228  1.00  0.00     0.014 A 
ATOM     38  C   UNL A   1      40.399  26.075  26.432  1.00  0.00     0.010 A 
ATOM     39  C   UNL A   1      39.977  25.361  28.702  1.00  0.00     0.010 A 
ATOM     40  C   UNL A   1      40.409  26.351  27.810  1.00  0.00    -0.014 A 
BRANCH  40  41
ATOM     41  C   UNL A   1      40.867  27.677  28.307  1.00  0.00     0.031 A 
ATOM     42  C   UNL A   1      42.330  28.029  28.327  1.00  0.00     0.074 A 
ATOM     43  C   UNL A   1      39.953  28.564  28.751  1.00  0.00     0.049 A 
ATOM     44  N   UNL A   1      42.905  29.146  28.695  1.00  0.00    -0.248 NA
ATOM     45  C   UNL A   1      43.272  26.982  27.902  1.00  0.00     0.031 C 
ATOM     46  C   UNL A   1      38.510  28.316  28.828  1.00  0.00     0.029 A 
ATOM     47  N   UNL A   1      40.091  29.849  29.209  1.00  0.00    -0.354 N 
ATOM     48  C   UNL A   1      44.273  28.938  28.544  1.00  0.00     0.074 A 
ATOM     49  C   UNL A   1      44.441  27.564  28.122  1.00  0.00     0.031 C 
ATOM     50  C   UNL A   1      37.895  29.429  29.257  1.00  0.00     0.029 A 
ATOM     51  C   UNL A   1      38.897  30.452  29.534  1.00  0.00     0.049 A 
ATOM     52  H   UNL A   1      40.963  30.298  29.296  1.00  0.00     0.167 HD
ATOM     53  C   UNL A   1      45.291  29.819  28.713  1.00  0.00     0.034 A 
ATOM     54  C   UNL A   1      38.638  31.687  30.007  1.00  0.00     0.034 A 
ATOM     55  C   UNL A   1      45.105  31.187  29.138  1.00  0.00     0.049 A 
ATOM     56  C   UNL A   1      39.789  32.638  30.215  1.00  0.00     0.074 A 
ATOM     57  C   UNL A   1      46.059  32.176  29.302  1.00  0.00     0.029 A 
ATOM     58  N   UNL A   1      43.884  31.756  29.482  1.00  0.00    -0.354 N 
ATOM     59  N   UNL A   1      41.070  32.444  30.006  1.00  0.00    -0.248 NA
ATOM     60  C   UNL A   1      39.453  33.980  30.705  1.00  0.00     0.031 C 
ATOM     61  C   UNL A   1      45.430  33.314  29.820  1.00  0.00     0.029 A 
ATOM     62  C   UNL A   1      44.067  33.070  29.891  1.00  0.00     0.049 A 
ATOM     63  H   UNL A   1      43.015  31.295  29.441  1.00  0.00     0.167 HD
ATOM     64  C   UNL A   1      41.691  33.652  30.315  1.00  0.00     0.074 A 
ATOM     65  C   UNL A   1      40.638  34.571  30.693  1.00  0.00     0.031 C 
ATOM     66  C   UNL A   1      43.011  33.973  30.290  1.00  0.00     0.034 A 
BRANCH  53  67
ATOM     67  C   UNL A   1      46.695  29.320  28.458  1.00  0.00     0.023 A 
ATOM     68  C   UNL A   1      47.159  29.045  27.158  1.00  0.00     0.031 A 
ATOM     69  C   UNL A   1      47.580  29.095  29.528  1.00  0.00     0.131 A 
ATOM     70  C   UNL A   1      48.435  28.494  26.969  1.00  0.00     0.055 A 
ATOM     71  C   UNL A   1      48.880  28.629  29.326  1.00  0.00     0.041 A 
ATOM     72  F   UNL A   1      47.191  29.315  30.794  1.00  0.00    -0.206 F 
ATOM     73  C   UNL A   1      49.310  28.311  28.041  1.00  0.00     0.022 A 
BRANCH  70  74
ATOM     74  S   UNL A   1      48.877  27.879  25.320  1.00  0.00     0.124 S 
ATOM     75  O   UNL A   1      49.138  26.467  25.592  1.00  0.00    -0.237 OA
ATOM     76  O   UNL A   1      47.676  28.168  24.543  1.00  0.00    -0.237 OA
ATOM     77  O   UNL A   1      50.055  28.667  24.965  1.00  0.00    -0.744 OA
ENDBRANCH  70  74
ENDBRANCH  53  67
BRANCH  54  78
ATOM     78  C   UNL A   1      37.238  32.098  30.324  1.00  0.00     0.023 A 
ATOM     79  C   UNL A   1      36.449  32.780  29.384  1.00  0.00     0.031 A 
ATOM     80  C   UNL A   1      36.684  31.851  31.594  1.00  0.00     0.131 A 
ATOM     81  C   UNL A   1      35.172  33.239  29.745  1.00  0.00     0.055 A 
ATOM     82  C   UNL A   1      35.390  32.254  31.925  1.00  0.00     0.041 A 
ATOM     83  F   UNL A   1      37.393  31.200  32.530  1.00  0.00    -0.206 F 
ATOM     84  C   UNL A   1      34.632  32.966  31.003  1.00  0.00     0.022 A 
BRANCH  81  85
ATOM     85  S   UNL A   1      34.264  34.289  28.578  1.00  0.00     0.124 S 
ATOM     86  O   UNL A   1      32.936  34.325  29.179  1.00  0.00    -0.237 OA
ATOM     87  O   UNL A   1      35.028  35.533  28.632  1.00  0.00    -0.237 OA
ATOM     88  O   UNL A   1      34.361  33.557  27.317  1.00  0.00    -0.744 OA
ENDBRANCH  81  85
ENDBRANCH  54  78
BRANCH  66  89
ATOM     89  C   UNL A   1      43.374  35.395  30.650  1.00  0.00     0.023 A 
ATOM     90  C   UNL A   1      43.522  35.804  31.989  1.00  0.00     0.031 A 
ATOM     91  C   UNL A   1      43.534  36.365  29.645  1.00  0.00     0.131 A 
ATOM     92  C   UNL A   1      43.734  37.158  32.286  1.00  0.00     0.055 A 
ATOM     93  C   UNL A   1      43.826  37.697  29.945  1.00  0.00     0.041 A 
ATOM     94  F   UNL A   1      43.401  36.037  28.349  1.00  0.00    -0.206 F 
ATOM     95  C   UNL A   1      43.908  38.104  31.273  1.00  0.00     0.022 A 
BRANCH  92  96
ATOM     96  S   UNL A   1      43.640  37.690  34.019  1.00  0.00     0.124 S 
ATOM     97  O   UNL A   1      42.997  38.993  33.901  1.00  0.00    -0.237 OA
ATOM     98  O   UNL A   1      42.836  36.634  34.626  1.00  0.00    -0.237 OA
ATOM     99  O   UNL A   1      45.039  37.725  34.443  1.00  0.00    -0.744 OA
ENDBRANCH  92  96
ENDBRANCH  66  89
ENDBRANCH  40  41
ENDBRANCH  32  35
ENDBRANCH  30  31
ENDBRANCH  29  30
ENDBRANCH   1  29
TORSDOF 18
ENDMDL
