MODEL 1
REMARK VINA RESULT:     -13.6      0.000      0.000
REMARK SMILES Cc1ccc2[nH]cc([C@@H](C(=O)NCCCNC(=O)c3ccc(-c4c5nc(c(-c6cc(S(=O)(=O)[O-])ccc6F)c6ccc([nH]6)c(-c6cc(S(=O)(=O)[O-])ccc6F)c6nc(c(-c7cc(S(=O)(=O)[O-])ccc7F)c7ccc4[nH]7)C=C6)C=C5)cc3)[NH+]3CCN(c4ccc(F)cc4)CC3)c2c1
REMARK SMILES IDX 14 1 13 2 12 3 10 4 11 5 9 7 8 8 1 9 2 10 3 11 96 12 4 13
REMARK SMILES IDX 95 14 5 15 6 16 7 17 82 19 83 20 94 21 84 23 93 24 85 25
REMARK SMILES IDX 86 26 87 27 92 28 88 29 91 30 89 31 90 32 15 33 16 34 17 35
REMARK SMILES IDX 18 37 19 38 20 39 81 40 21 41 80 42 22 43 23 44 24 45 74 46
REMARK SMILES IDX 25 47 79 48 73 49 75 50 26 51 78 52 72 53 71 54 27 56 59 57
REMARK SMILES IDX 39 58 58 59 40 60 43 61 57 62 76 63 41 64 42 65 56 67 77 68
REMARK SMILES IDX 44 69 28 70 29 71 37 72 30 73 36 74 38 75 35 76 31 77 32 78
REMARK SMILES IDX 33 79 34 80 60 81 61 82 69 83 62 84 68 85 70 86 67 87 63 88
REMARK SMILES IDX 64 89 65 90 66 91 45 92 46 93 54 94 47 95 53 96 55 97 52 98
REMARK SMILES IDX 48 99 49 100 50 101 51 102
REMARK H PARENT 12 6 6 18 82 22 16 36 75 55 43 66
REMARK Flexibility Score: inf
ROOT
ATOM      1  C   UNL A   1      32.941  29.729  25.668  1.00  0.00     0.042 C 
ENDROOT
BRANCH   1   2
ATOM      2  C   UNL A   1      33.847  28.506  25.795  1.00  0.00     0.118 C 
BRANCH   2   3
ATOM      3  N   UNL A   1      33.131  27.315  26.210  1.00  0.00    -0.351 N 
ATOM      4  C   UNL A   1      32.163  26.594  25.556  1.00  0.00     0.283 C 
ATOM      5  O   UNL A   1      31.724  25.616  26.168  1.00  0.00    -0.268 OA
ATOM      6  H   UNL A   1      33.379  26.968  27.097  1.00  0.00     0.163 HD
BRANCH   4   7
ATOM      7  C   UNL A   1      31.727  27.001  24.108  1.00  0.00     0.307 C 
BRANCH   7   8
ATOM      8  C   UNL A   1      30.229  27.032  23.940  1.00  0.00     0.044 A 
ATOM      9  C   UNL A   1      29.055  31.911  22.861  1.00  0.00     0.044 C 
ATOM     10  C   UNL A   1      28.727  30.455  23.020  1.00  0.00    -0.050 A 
ATOM     11  C   UNL A   1      27.404  30.010  22.955  1.00  0.00     0.005 A 
ATOM     12  C   UNL A   1      29.756  29.538  23.295  1.00  0.00     0.014 A 
ATOM     13  C   UNL A   1      27.074  28.672  23.192  1.00  0.00     0.027 A 
ATOM     14  C   UNL A   1      29.447  28.185  23.566  1.00  0.00     0.009 A 
ATOM     15  C   UNL A   1      28.111  27.794  23.523  1.00  0.00     0.046 A 
ATOM     16  N   UNL A   1      28.063  26.469  23.881  1.00  0.00    -0.361 N 
ATOM     17  C   UNL A   1      29.317  26.023  24.201  1.00  0.00     0.094 A 
ATOM     18  H   UNL A   1      27.246  25.920  23.907  1.00  0.00     0.166 HD
ENDBRANCH   7   8
BRANCH   7  19
ATOM     19  N   UNL A   1      32.435  26.234  23.052  1.00  0.00    -0.318 N 
ATOM     20  C   UNL A   1      33.828  25.823  23.290  1.00  0.00     0.284 C 
ATOM     21  C   UNL A   1      31.665  25.122  22.469  1.00  0.00     0.284 C 
ATOM     22  H   UNL A   1      32.511  26.982  22.363  1.00  0.00     0.349 HD
ATOM     23  C   UNL A   1      34.073  24.439  23.930  1.00  0.00     0.178 C 
ATOM     24  C   UNL A   1      31.811  23.740  23.150  1.00  0.00     0.178 C 
ATOM     25  N   UNL A   1      33.226  23.389  23.347  1.00  0.00    -0.360 N 
BRANCH  25  26
ATOM     26  C   UNL A   1      33.443  22.089  23.808  1.00  0.00     0.037 A 
ATOM     27  C   UNL A   1      34.608  21.714  24.497  1.00  0.00     0.029 A 
ATOM     28  C   UNL A   1      32.459  21.116  23.586  1.00  0.00     0.029 A 
ATOM     29  C   UNL A   1      34.802  20.396  24.918  1.00  0.00     0.041 A 
ATOM     30  C   UNL A   1      32.651  19.796  24.001  1.00  0.00     0.041 A 
ATOM     31  C   UNL A   1      33.823  19.448  24.658  1.00  0.00     0.123 A 
ATOM     32  F   UNL A   1      34.011  18.180  25.046  1.00  0.00    -0.207 F 
ENDBRANCH  25  26
ENDBRANCH   7  19
ENDBRANCH   4   7
ENDBRANCH   2   3
ENDBRANCH   1   2
BRANCH   1  33
ATOM     33  C   UNL A   1      32.567  30.377  26.996  1.00  0.00     0.118 C 
BRANCH  33  34
ATOM     34  N   UNL A   1      32.746  31.817  26.974  1.00  0.00    -0.352 N 
ATOM     35  C   UNL A   1      33.685  32.604  27.592  1.00  0.00     0.251 C 
ATOM     36  H   UNL A   1      32.089  32.308  26.431  1.00  0.00     0.163 HD
ATOM     37  O   UNL A   1      33.507  33.818  27.624  1.00  0.00    -0.269 OA
BRANCH  35  38
ATOM     38  C   UNL A   1      34.889  32.012  28.225  1.00  0.00     0.039 A 
ATOM     39  C   UNL A   1      36.067  32.764  28.243  1.00  0.00     0.014 A 
ATOM     40  C   UNL A   1      34.891  30.714  28.744  1.00  0.00     0.014 A 
ATOM     41  C   UNL A   1      37.227  32.232  28.811  1.00  0.00     0.010 A 
ATOM     42  C   UNL A   1      36.028  30.213  29.380  1.00  0.00     0.010 A 
ATOM     43  C   UNL A   1      37.213  30.961  29.407  1.00  0.00    -0.014 A 
BRANCH  43  44
ATOM     44  C   UNL A   1      38.439  30.413  30.047  1.00  0.00     0.031 A 
ATOM     45  C   UNL A   1      38.824  30.825  31.442  1.00  0.00     0.074 A 
ATOM     46  C   UNL A   1      39.222  29.563  29.354  1.00  0.00     0.049 A 
ATOM     47  N   UNL A   1      39.844  30.440  32.168  1.00  0.00    -0.248 NA
ATOM     48  C   UNL A   1      37.970  31.826  32.095  1.00  0.00     0.031 C 
ATOM     49  C   UNL A   1      38.987  29.140  27.971  1.00  0.00     0.029 A 
ATOM     50  N   UNL A   1      40.369  28.902  29.712  1.00  0.00    -0.354 N 
ATOM     51  C   UNL A   1      39.760  31.157  33.357  1.00  0.00     0.074 A 
ATOM     52  C   UNL A   1      38.626  32.049  33.225  1.00  0.00     0.031 C 
ATOM     53  C   UNL A   1      39.941  28.266  27.612  1.00  0.00     0.029 A 
ATOM     54  C   UNL A   1      40.871  28.090  28.722  1.00  0.00     0.049 A 
ATOM     55  H   UNL A   1      40.793  29.000  30.596  1.00  0.00     0.167 HD
ATOM     56  C   UNL A   1      40.538  31.064  34.465  1.00  0.00     0.034 A 
ATOM     57  C   UNL A   1      41.955  27.290  28.710  1.00  0.00     0.034 A 
ATOM     58  C   UNL A   1      41.658  30.160  34.583  1.00  0.00     0.049 A 
ATOM     59  C   UNL A   1      42.791  27.180  29.958  1.00  0.00     0.074 A 
ATOM     60  C   UNL A   1      42.477  29.936  35.676  1.00  0.00     0.029 A 
ATOM     61  N   UNL A   1      42.124  29.334  33.566  1.00  0.00    -0.354 N 
ATOM     62  N   UNL A   1      42.656  27.811  31.102  1.00  0.00    -0.248 NA
ATOM     63  C   UNL A   1      43.911  26.232  29.921  1.00  0.00     0.031 C 
ATOM     64  C   UNL A   1      43.473  29.027  35.302  1.00  0.00     0.029 A 
ATOM     65  C   UNL A   1      43.234  28.622  33.998  1.00  0.00     0.049 A 
ATOM     66  H   UNL A   1      41.725  29.264  32.669  1.00  0.00     0.167 HD
ATOM     67  C   UNL A   1      43.657  27.314  31.930  1.00  0.00     0.074 A 
ATOM     68  C   UNL A   1      44.376  26.320  31.158  1.00  0.00     0.031 C 
ATOM     69  C   UNL A   1      43.953  27.644  33.214  1.00  0.00     0.034 A 
BRANCH  56  70
ATOM     70  C   UNL A   1      40.216  31.986  35.620  1.00  0.00     0.023 A 
ATOM     71  C   UNL A   1      39.211  31.679  36.555  1.00  0.00     0.031 A 
ATOM     72  C   UNL A   1      40.896  33.208  35.771  1.00  0.00     0.131 A 
ATOM     73  C   UNL A   1      38.855  32.613  37.539  1.00  0.00     0.055 A 
ATOM     74  C   UNL A   1      40.597  34.097  36.805  1.00  0.00     0.041 A 
ATOM     75  F   UNL A   1      41.852  33.570  34.900  1.00  0.00    -0.206 F 
ATOM     76  C   UNL A   1      39.558  33.811  37.686  1.00  0.00     0.022 A 
BRANCH  73  77
ATOM     77  S   UNL A   1      37.357  32.314  38.518  1.00  0.00     0.124 S 
ATOM     78  O   UNL A   1      36.368  33.110  37.794  1.00  0.00    -0.237 OA
ATOM     79  O   UNL A   1      37.204  30.866  38.425  1.00  0.00    -0.237 OA
ATOM     80  O   UNL A   1      37.705  32.821  39.843  1.00  0.00    -0.744 OA
ENDBRANCH  73  77
ENDBRANCH  56  70
BRANCH  57  81
ATOM     81  C   UNL A   1      42.302  26.520  27.483  1.00  0.00     0.023 A 
ATOM     82  C   UNL A   1      42.020  25.149  27.381  1.00  0.00     0.031 A 
ATOM     83  C   UNL A   1      42.932  27.149  26.394  1.00  0.00     0.131 A 
ATOM     84  C   UNL A   1      42.403  24.441  26.230  1.00  0.00     0.055 A 
ATOM     85  C   UNL A   1      43.268  26.450  25.234  1.00  0.00     0.041 A 
ATOM     86  F   UNL A   1      43.211  28.462  26.436  1.00  0.00    -0.206 F 
ATOM     87  C   UNL A   1      43.014  25.085  25.152  1.00  0.00     0.022 A 
BRANCH  84  88
ATOM     88  S   UNL A   1      42.142  22.647  26.187  1.00  0.00     0.124 S 
ATOM     89  O   UNL A   1      42.687  22.298  24.880  1.00  0.00    -0.237 OA
ATOM     90  O   UNL A   1      42.912  22.201  27.344  1.00  0.00    -0.237 OA
ATOM     91  O   UNL A   1      40.693  22.511  26.316  1.00  0.00    -0.744 OA
ENDBRANCH  84  88
ENDBRANCH  57  81
BRANCH  69  92
ATOM     92  C   UNL A   1      45.082  26.887  33.870  1.00  0.00     0.023 A 
ATOM     93  C   UNL A   1      44.851  25.730  34.635  1.00  0.00     0.031 A 
ATOM     94  C   UNL A   1      46.405  27.348  33.750  1.00  0.00     0.131 A 
ATOM     95  C   UNL A   1      45.919  25.111  35.304  1.00  0.00     0.055 A 
ATOM     96  C   UNL A   1      47.471  26.691  34.366  1.00  0.00     0.041 A 
ATOM     97  F   UNL A   1      46.683  28.449  33.034  1.00  0.00    -0.206 F 
ATOM     98  C   UNL A   1      47.229  25.575  35.161  1.00  0.00     0.022 A 
BRANCH  95  99
ATOM     99  S   UNL A   1      45.556  23.753  36.450  1.00  0.00     0.124 S 
ATOM    100  O   UNL A   1      46.888  23.395  36.929  1.00  0.00    -0.237 OA
ATOM    101  O   UNL A   1      44.679  24.393  37.425  1.00  0.00    -0.237 OA
ATOM    102  O   UNL A   1      44.913  22.750  35.602  1.00  0.00    -0.744 OA
ENDBRANCH  95  99
ENDBRANCH  69  92
ENDBRANCH  43  44
ENDBRANCH  35  38
ENDBRANCH  33  34
ENDBRANCH   1  33
TORSDOF 16
ENDMDL
MODEL 2
REMARK VINA RESULT:     -13.5      1.942      4.596
REMARK SMILES Cc1ccc2[nH]cc([C@@H](C(=O)NCCCNC(=O)c3ccc(-c4c5nc(c(-c6cc(S(=O)(=O)[O-])ccc6F)c6ccc([nH]6)c(-c6cc(S(=O)(=O)[O-])ccc6F)c6nc(c(-c7cc(S(=O)(=O)[O-])ccc7F)c7ccc4[nH]7)C=C6)C=C5)cc3)[NH+]3CCN(c4ccc(F)cc4)CC3)c2c1
REMARK SMILES IDX 14 1 13 2 12 3 10 4 11 5 9 7 8 8 1 9 2 10 3 11 96 12 4 13
REMARK SMILES IDX 95 14 5 15 6 16 7 17 82 19 83 20 94 21 84 23 93 24 85 25
REMARK SMILES IDX 86 26 87 27 92 28 88 29 91 30 89 31 90 32 15 33 16 34 17 35
REMARK SMILES IDX 18 37 19 38 20 39 81 40 21 41 80 42 22 43 23 44 24 45 74 46
REMARK SMILES IDX 25 47 79 48 73 49 75 50 26 51 78 52 72 53 71 54 27 56 59 57
REMARK SMILES IDX 39 58 58 59 40 60 43 61 57 62 76 63 41 64 42 65 56 67 77 68
REMARK SMILES IDX 44 69 28 70 29 71 37 72 30 73 36 74 38 75 35 76 31 77 32 78
REMARK SMILES IDX 33 79 34 80 60 81 61 82 69 83 62 84 68 85 70 86 67 87 63 88
REMARK SMILES IDX 64 89 65 90 66 91 45 92 46 93 54 94 47 95 53 96 55 97 52 98
REMARK SMILES IDX 48 99 49 100 50 101 51 102
REMARK H PARENT 12 6 6 18 82 22 16 36 75 55 43 66
REMARK Flexibility Score: inf
ROOT
ATOM      1  C   UNL A   1      33.409  28.736  25.540  1.00  0.00     0.042 C 
ENDROOT
BRANCH   1   2
ATOM      2  C   UNL A   1      33.667  27.231  25.578  1.00  0.00     0.118 C 
BRANCH   2   3
ATOM      3  N   UNL A   1      33.881  26.664  24.259  1.00  0.00    -0.351 N 
ATOM      4  C   UNL A   1      33.710  25.377  23.813  1.00  0.00     0.283 C 
ATOM      5  O   UNL A   1      33.983  25.186  22.624  1.00  0.00    -0.268 OA
ATOM      6  H   UNL A   1      34.198  27.301  23.579  1.00  0.00     0.163 HD
BRANCH   4   7
ATOM      7  C   UNL A   1      33.146  24.281  24.779  1.00  0.00     0.307 C 
BRANCH   7   8
ATOM      8  C   UNL A   1      33.945  23.004  24.738  1.00  0.00     0.044 A 
ATOM      9  C   UNL A   1      38.666  24.272  26.306  1.00  0.00     0.044 C 
ATOM     10  C   UNL A   1      37.603  23.292  25.903  1.00  0.00    -0.050 A 
ATOM     11  C   UNL A   1      37.911  21.941  25.718  1.00  0.00     0.005 A 
ATOM     12  C   UNL A   1      36.298  23.747  25.651  1.00  0.00     0.014 A 
ATOM     13  C   UNL A   1      36.954  21.033  25.254  1.00  0.00     0.027 A 
ATOM     14  C   UNL A   1      35.319  22.857  25.153  1.00  0.00     0.009 A 
ATOM     15  C   UNL A   1      35.680  21.526  24.954  1.00  0.00     0.046 A 
ATOM     16  N   UNL A   1      34.593  20.886  24.412  1.00  0.00    -0.361 N 
ATOM     17  C   UNL A   1      33.573  21.778  24.213  1.00  0.00     0.094 A 
ATOM     18  H   UNL A   1      34.552  19.926  24.196  1.00  0.00     0.166 HD
ENDBRANCH   7   8
BRANCH   7  19
ATOM     19  N   UNL A   1      31.682  24.079  24.635  1.00  0.00    -0.318 N 
ATOM     20  C   UNL A   1      30.780  24.722  25.604  1.00  0.00     0.284 C 
ATOM     21  C   UNL A   1      31.163  24.241  23.266  1.00  0.00     0.284 C 
ATOM     22  H   UNL A   1      31.652  23.091  24.886  1.00  0.00     0.349 HD
ATOM     23  C   UNL A   1      30.237  26.127  25.264  1.00  0.00     0.178 C 
ATOM     24  C   UNL A   1      30.703  25.662  22.860  1.00  0.00     0.178 C 
ATOM     25  N   UNL A   1      29.798  26.239  23.866  1.00  0.00    -0.360 N 
BRANCH  25  26
ATOM     26  C   UNL A   1      29.213  27.451  23.494  1.00  0.00     0.037 A 
ATOM     27  C   UNL A   1      27.824  27.655  23.497  1.00  0.00     0.029 A 
ATOM     28  C   UNL A   1      30.040  28.514  23.108  1.00  0.00     0.029 A 
ATOM     29  C   UNL A   1      27.274  28.874  23.090  1.00  0.00     0.041 A 
ATOM     30  C   UNL A   1      29.496  29.733  22.696  1.00  0.00     0.041 A 
ATOM     31  C   UNL A   1      28.117  29.898  22.686  1.00  0.00     0.123 A 
ATOM     32  F   UNL A   1      27.595  31.063  22.280  1.00  0.00    -0.207 F 
ENDBRANCH  25  26
ENDBRANCH   7  19
ENDBRANCH   4   7
ENDBRANCH   2   3
ENDBRANCH   1   2
BRANCH   1  33
ATOM     33  C   UNL A   1      32.994  29.338  26.877  1.00  0.00     0.118 C 
BRANCH  33  34
ATOM     34  N   UNL A   1      33.006  30.789  26.854  1.00  0.00    -0.352 N 
ATOM     35  C   UNL A   1      33.854  31.678  27.464  1.00  0.00     0.251 C 
ATOM     36  H   UNL A   1      32.293  31.201  26.315  1.00  0.00     0.163 HD
ATOM     37  O   UNL A   1      33.538  32.865  27.498  1.00  0.00    -0.269 OA
BRANCH  35  38
ATOM     38  C   UNL A   1      35.122  31.229  28.088  1.00  0.00     0.039 A 
ATOM     39  C   UNL A   1      35.146  29.981  28.718  1.00  0.00     0.014 A 
ATOM     40  C   UNL A   1      36.263  32.038  28.115  1.00  0.00     0.014 A 
ATOM     41  C   UNL A   1      36.316  29.532  29.336  1.00  0.00     0.010 A 
ATOM     42  C   UNL A   1      37.452  31.556  28.665  1.00  0.00     0.010 A 
ATOM     43  C   UNL A   1      37.487  30.305  29.295  1.00  0.00    -0.014 A 
BRANCH  43  44
ATOM     44  C   UNL A   1      38.742  29.807  29.919  1.00  0.00     0.031 A 
ATOM     45  C   UNL A   1      39.165  30.291  31.280  1.00  0.00     0.074 A 
ATOM     46  C   UNL A   1      39.518  28.938  29.242  1.00  0.00     0.049 A 
ATOM     47  N   UNL A   1      40.214  29.957  31.989  1.00  0.00    -0.248 NA
ATOM     48  C   UNL A   1      38.314  31.308  31.914  1.00  0.00     0.031 C 
ATOM     49  C   UNL A   1      39.246  28.446  27.888  1.00  0.00     0.029 A 
ATOM     50  N   UNL A   1      40.686  28.313  29.592  1.00  0.00    -0.354 N 
ATOM     51  C   UNL A   1      40.155  30.728  33.146  1.00  0.00     0.074 A 
ATOM     52  C   UNL A   1      39.003  31.594  33.009  1.00  0.00     0.031 C 
ATOM     53  C   UNL A   1      40.203  27.571  27.539  1.00  0.00     0.029 A 
ATOM     54  C   UNL A   1      41.171  27.463  28.625  1.00  0.00     0.049 A 
ATOM     55  H   UNL A   1      41.137  28.459  30.456  1.00  0.00     0.167 HD
ATOM     56  C   UNL A   1      40.971  30.700  34.231  1.00  0.00     0.034 A 
ATOM     57  C   UNL A   1      42.268  26.681  28.615  1.00  0.00     0.034 A 
ATOM     58  C   UNL A   1      42.109  29.820  34.354  1.00  0.00     0.049 A 
ATOM     59  C   UNL A   1      43.145  26.643  29.839  1.00  0.00     0.074 A 
ATOM     60  C   UNL A   1      42.966  29.661  35.429  1.00  0.00     0.029 A 
ATOM     61  N   UNL A   1      42.557  28.955  33.362  1.00  0.00    -0.354 N 
ATOM     62  N   UNL A   1      43.036  27.325  30.956  1.00  0.00    -0.248 NA
ATOM     63  C   UNL A   1      44.280  25.712  29.809  1.00  0.00     0.031 C 
ATOM     64  C   UNL A   1      43.966  28.751  35.065  1.00  0.00     0.029 A 
ATOM     65  C   UNL A   1      43.692  28.281  33.791  1.00  0.00     0.049 A 
ATOM     66  H   UNL A   1      42.130  28.836  32.483  1.00  0.00     0.167 HD
ATOM     67  C   UNL A   1      44.072  26.884  31.773  1.00  0.00     0.074 A 
ATOM     68  C   UNL A   1      44.783  25.866  31.025  1.00  0.00     0.031 C 
ATOM     69  C   UNL A   1      44.403  27.279  33.029  1.00  0.00     0.034 A 
BRANCH  56  70
ATOM     70  C   UNL A   1      40.669  31.670  35.352  1.00  0.00     0.023 A 
ATOM     71  C   UNL A   1      39.581  31.481  36.222  1.00  0.00     0.031 A 
ATOM     72  C   UNL A   1      41.457  32.821  35.531  1.00  0.00     0.131 A 
ATOM     73  C   UNL A   1      39.259  32.464  37.170  1.00  0.00     0.055 A 
ATOM     74  C   UNL A   1      41.184  33.754  36.533  1.00  0.00     0.041 A 
ATOM     75  F   UNL A   1      42.498  33.070  34.721  1.00  0.00    -0.206 F 
ATOM     76  C   UNL A   1      40.067  33.588  37.349  1.00  0.00     0.022 A 
BRANCH  73  77
ATOM     77  S   UNL A   1      37.679  32.332  38.052  1.00  0.00     0.124 S 
ATOM     78  O   UNL A   1      38.008  32.943  39.339  1.00  0.00    -0.237 OA
ATOM     79  O   UNL A   1      36.776  33.092  37.196  1.00  0.00    -0.237 OA
ATOM     80  O   UNL A   1      37.431  30.893  38.100  1.00  0.00    -0.744 OA
ENDBRANCH  73  77
ENDBRANCH  56  70
BRANCH  57  81
ATOM     81  C   UNL A   1      42.588  25.859  27.414  1.00  0.00     0.023 A 
ATOM     82  C   UNL A   1      42.313  24.484  27.380  1.00  0.00     0.031 A 
ATOM     83  C   UNL A   1      43.187  26.443  26.283  1.00  0.00     0.131 A 
ATOM     84  C   UNL A   1      42.671  23.728  26.252  1.00  0.00     0.055 A 
ATOM     85  C   UNL A   1      43.499  25.695  25.147  1.00  0.00     0.041 A 
ATOM     86  F   UNL A   1      43.460  27.757  26.261  1.00  0.00    -0.206 F 
ATOM     87  C   UNL A   1      43.251  24.326  25.132  1.00  0.00     0.022 A 
BRANCH  84  88
ATOM     88  S   UNL A   1      42.419  21.932  26.294  1.00  0.00     0.124 S 
ATOM     89  O   UNL A   1      43.351  21.476  25.269  1.00  0.00    -0.237 OA
ATOM     90  O   UNL A   1      42.772  21.609  27.673  1.00  0.00    -0.237 OA
ATOM     91  O   UNL A   1      41.004  21.779  25.964  1.00  0.00    -0.744 OA
ENDBRANCH  84  88
ENDBRANCH  57  81
BRANCH  69  92
ATOM     92  C   UNL A   1      45.565  26.572  33.683  1.00  0.00     0.023 A 
ATOM     93  C   UNL A   1      45.384  25.416  34.463  1.00  0.00     0.031 A 
ATOM     94  C   UNL A   1      46.869  27.079  33.544  1.00  0.00     0.131 A 
ATOM     95  C   UNL A   1      46.480  24.845  35.129  1.00  0.00     0.055 A 
ATOM     96  C   UNL A   1      47.964  26.470  34.157  1.00  0.00     0.041 A 
ATOM     97  F   UNL A   1      47.099  28.181  32.812  1.00  0.00    -0.206 F 
ATOM     98  C   UNL A   1      47.771  25.354  34.967  1.00  0.00     0.022 A 
BRANCH  95  99
ATOM     99  S   UNL A   1      46.179  23.488  36.295  1.00  0.00     0.124 S 
ATOM    100  O   UNL A   1      45.495  24.173  37.387  1.00  0.00    -0.237 OA
ATOM    101  O   UNL A   1      45.361  22.573  35.505  1.00  0.00    -0.237 OA
ATOM    102  O   UNL A   1      47.522  23.003  36.611  1.00  0.00    -0.744 OA
ENDBRANCH  95  99
ENDBRANCH  69  92
ENDBRANCH  43  44
ENDBRANCH  35  38
ENDBRANCH  33  34
ENDBRANCH   1  33
TORSDOF 16
ENDMDL
MODEL 3
REMARK VINA RESULT:     -13.5      4.629      9.537
REMARK SMILES Cc1ccc2[nH]cc([C@@H](C(=O)NCCCNC(=O)c3ccc(-c4c5nc(c(-c6cc(S(=O)(=O)[O-])ccc6F)c6ccc([nH]6)c(-c6cc(S(=O)(=O)[O-])ccc6F)c6nc(c(-c7cc(S(=O)(=O)[O-])ccc7F)c7ccc4[nH]7)C=C6)C=C5)cc3)[NH+]3CCN(c4ccc(F)cc4)CC3)c2c1
REMARK SMILES IDX 14 1 13 2 12 3 10 4 11 5 9 7 8 8 1 9 2 10 3 11 96 12 4 13
REMARK SMILES IDX 95 14 5 15 6 16 7 17 82 19 83 20 94 21 84 23 93 24 85 25
REMARK SMILES IDX 86 26 87 27 92 28 88 29 91 30 89 31 90 32 15 33 16 34 17 35
REMARK SMILES IDX 18 37 19 38 20 39 81 40 21 41 80 42 22 43 23 44 24 45 74 46
REMARK SMILES IDX 25 47 79 48 73 49 75 50 26 51 78 52 72 53 71 54 27 56 59 57
REMARK SMILES IDX 39 58 58 59 40 60 43 61 57 62 76 63 41 64 42 65 56 67 77 68
REMARK SMILES IDX 44 69 28 70 29 71 37 72 30 73 36 74 38 75 35 76 31 77 32 78
REMARK SMILES IDX 33 79 34 80 60 81 61 82 69 83 62 84 68 85 70 86 67 87 63 88
REMARK SMILES IDX 64 89 65 90 66 91 45 92 46 93 54 94 47 95 53 96 55 97 52 98
REMARK SMILES IDX 48 99 49 100 50 101 51 102
REMARK H PARENT 12 6 6 18 82 22 16 36 75 55 43 66
REMARK Flexibility Score: inf
ROOT
ATOM      1  C   UNL A   1      35.480  22.434  25.880  1.00  0.00     0.042 C 
ENDROOT
BRANCH   1   2
ATOM      2  C   UNL A   1      35.000  23.883  25.842  1.00  0.00     0.118 C 
BRANCH   2   3
ATOM      3  N   UNL A   1      33.726  24.072  26.510  1.00  0.00    -0.351 N 
ATOM      4  C   UNL A   1      32.646  24.839  26.152  1.00  0.00     0.283 C 
ATOM      5  O   UNL A   1      31.689  24.808  26.932  1.00  0.00    -0.268 OA
ATOM      6  H   UNL A   1      33.618  23.569  27.351  1.00  0.00     0.163 HD
BRANCH   4   7
ATOM      7  C   UNL A   1      32.663  25.633  24.802  1.00  0.00     0.307 C 
BRANCH   7   8
ATOM      8  C   UNL A   1      32.180  27.052  24.958  1.00  0.00     0.044 A 
ATOM      9  C   UNL A   1      35.560  29.332  28.077  1.00  0.00     0.044 C 
ATOM     10  C   UNL A   1      34.380  29.328  27.150  1.00  0.00    -0.050 A 
ATOM     11  C   UNL A   1      33.593  30.471  26.992  1.00  0.00     0.005 A 
ATOM     12  C   UNL A   1      34.028  28.144  26.480  1.00  0.00     0.014 A 
ATOM     13  C   UNL A   1      32.437  30.457  26.204  1.00  0.00     0.027 A 
ATOM     14  C   UNL A   1      32.849  28.093  25.700  1.00  0.00     0.009 A 
ATOM     15  C   UNL A   1      32.078  29.249  25.598  1.00  0.00     0.046 A 
ATOM     16  N   UNL A   1      30.968  28.933  24.853  1.00  0.00    -0.361 N 
ATOM     17  C   UNL A   1      30.985  27.603  24.525  1.00  0.00     0.094 A 
ATOM     18  H   UNL A   1      30.263  29.568  24.593  1.00  0.00     0.166 HD
ENDBRANCH   7   8
BRANCH   7  19
ATOM     19  N   UNL A   1      32.014  24.897  23.687  1.00  0.00    -0.318 N 
ATOM     20  C   UNL A   1      32.865  24.289  22.652  1.00  0.00     0.284 C 
ATOM     21  C   UNL A   1      30.953  23.960  24.095  1.00  0.00     0.284 C 
ATOM     22  H   UNL A   1      31.589  25.698  23.220  1.00  0.00     0.349 HD
ATOM     23  C   UNL A   1      33.315  22.825  22.855  1.00  0.00     0.178 C 
ATOM     24  C   UNL A   1      31.388  22.507  24.403  1.00  0.00     0.178 C 
ATOM     25  N   UNL A   1      32.224  21.959  23.324  1.00  0.00    -0.360 N 
BRANCH  25  26
ATOM     26  C   UNL A   1      32.522  20.601  23.453  1.00  0.00     0.037 A 
ATOM     27  C   UNL A   1      33.214  20.078  24.557  1.00  0.00     0.029 A 
ATOM     28  C   UNL A   1      32.110  19.717  22.447  1.00  0.00     0.029 A 
ATOM     29  C   UNL A   1      33.520  18.717  24.636  1.00  0.00     0.041 A 
ATOM     30  C   UNL A   1      32.416  18.356  22.520  1.00  0.00     0.041 A 
ATOM     31  C   UNL A   1      33.124  17.871  23.612  1.00  0.00     0.123 A 
ATOM     32  F   UNL A   1      33.427  16.568  23.676  1.00  0.00    -0.207 F 
ENDBRANCH  25  26
ENDBRANCH   7  19
ENDBRANCH   4   7
ENDBRANCH   2   3
ENDBRANCH   1   2
BRANCH   1  33
ATOM     33  C   UNL A   1      36.589  22.110  24.886  1.00  0.00     0.118 C 
BRANCH  33  34
ATOM     34  N   UNL A   1      37.439  21.027  25.344  1.00  0.00    -0.352 N 
ATOM     35  C   UNL A   1      38.715  21.053  25.848  1.00  0.00     0.251 C 
ATOM     36  H   UNL A   1      37.037  20.130  25.282  1.00  0.00     0.163 HD
ATOM     37  O   UNL A   1      39.328  19.994  25.953  1.00  0.00    -0.269 OA
BRANCH  35  38
ATOM     38  C   UNL A   1      39.358  22.327  26.249  1.00  0.00     0.039 A 
ATOM     39  C   UNL A   1      40.453  22.274  27.117  1.00  0.00     0.014 A 
ATOM     40  C   UNL A   1      38.866  23.568  25.834  1.00  0.00     0.014 A 
ATOM     41  C   UNL A   1      41.072  23.455  27.534  1.00  0.00     0.010 A 
ATOM     42  C   UNL A   1      39.532  24.742  26.189  1.00  0.00     0.010 A 
ATOM     43  C   UNL A   1      40.633  24.699  27.056  1.00  0.00    -0.014 A 
BRANCH  43  44
ATOM     44  C   UNL A   1      41.319  25.952  27.470  1.00  0.00     0.031 A 
ATOM     45  C   UNL A   1      42.747  26.212  27.071  1.00  0.00     0.074 A 
ATOM     46  C   UNL A   1      40.660  26.844  28.235  1.00  0.00     0.049 A 
ATOM     47  N   UNL A   1      43.502  27.252  27.323  1.00  0.00    -0.248 NA
ATOM     48  C   UNL A   1      43.426  25.149  26.316  1.00  0.00     0.031 C 
ATOM     49  C   UNL A   1      39.295  26.675  28.740  1.00  0.00     0.029 A 
ATOM     50  N   UNL A   1      41.042  28.068  28.720  1.00  0.00    -0.354 N 
ATOM     51  C   UNL A   1      44.745  26.965  26.768  1.00  0.00     0.074 A 
ATOM     52  C   UNL A   1      44.659  25.626  26.225  1.00  0.00     0.031 C 
ATOM     53  C   UNL A   1      38.945  27.768  29.434  1.00  0.00     0.029 A 
ATOM     54  C   UNL A   1      40.066  28.702  29.453  1.00  0.00     0.049 A 
ATOM     55  H   UNL A   1      41.933  28.457  28.560  1.00  0.00     0.167 HD
ATOM     56  C   UNL A   1      45.848  27.754  26.695  1.00  0.00     0.034 A 
ATOM     57  C   UNL A   1      40.069  29.901  30.066  1.00  0.00     0.034 A 
ATOM     58  C   UNL A   1      45.910  29.094  27.232  1.00  0.00     0.049 A 
ATOM     59  C   UNL A   1      41.292  30.773  29.952  1.00  0.00     0.074 A 
ATOM     60  C   UNL A   1      46.951  30.004  27.162  1.00  0.00     0.029 A 
ATOM     61  N   UNL A   1      44.892  29.712  27.948  1.00  0.00    -0.354 N 
ATOM     62  N   UNL A   1      42.437  30.518  29.361  1.00  0.00    -0.248 NA
ATOM     63  C   UNL A   1      41.215  32.104  30.566  1.00  0.00     0.031 C 
ATOM     64  C   UNL A   1      46.587  31.145  27.888  1.00  0.00     0.029 A 
ATOM     65  C   UNL A   1      45.290  30.980  28.348  1.00  0.00     0.049 A 
ATOM     66  H   UNL A   1      44.016  29.310  28.144  1.00  0.00     0.167 HD
ATOM     67  C   UNL A   1      43.205  31.668  29.508  1.00  0.00     0.074 A 
ATOM     68  C   UNL A   1      42.386  32.622  30.229  1.00  0.00     0.031 C 
ATOM     69  C   UNL A   1      44.470  31.917  29.082  1.00  0.00     0.034 A 
BRANCH  56  70
ATOM     70  C   UNL A   1      47.077  27.171  26.035  1.00  0.00     0.023 A 
ATOM     71  C   UNL A   1      48.024  26.424  26.759  1.00  0.00     0.031 A 
ATOM     72  C   UNL A   1      47.328  27.394  24.668  1.00  0.00     0.131 A 
ATOM     73  C   UNL A   1      49.211  26.005  26.141  1.00  0.00     0.055 A 
ATOM     74  C   UNL A   1      48.471  26.900  24.037  1.00  0.00     0.041 A 
ATOM     75  F   UNL A   1      46.473  28.116  23.926  1.00  0.00    -0.206 F 
ATOM     76  C   UNL A   1      49.431  26.216  24.778  1.00  0.00     0.022 A 
BRANCH  73  77
ATOM     77  S   UNL A   1      50.535  25.325  27.179  1.00  0.00     0.124 S 
ATOM     78  O   UNL A   1      50.939  26.500  27.948  1.00  0.00    -0.237 OA
ATOM     79  O   UNL A   1      49.845  24.280  27.925  1.00  0.00    -0.237 OA
ATOM     80  O   UNL A   1      51.524  24.854  26.211  1.00  0.00    -0.744 OA
ENDBRANCH  73  77
ENDBRANCH  56  70
BRANCH  57  81
ATOM     81  C   UNL A   1      38.872  30.354  30.829  1.00  0.00     0.023 A 
ATOM     82  C   UNL A   1      37.967  31.276  30.282  1.00  0.00     0.031 A 
ATOM     83  C   UNL A   1      38.623  29.873  32.128  1.00  0.00     0.131 A 
ATOM     84  C   UNL A   1      36.875  31.720  31.045  1.00  0.00     0.055 A 
ATOM     85  C   UNL A   1      37.510  30.282  32.864  1.00  0.00     0.041 A 
ATOM     86  F   UNL A   1      39.452  28.979  32.691  1.00  0.00    -0.206 F 
ATOM     87  C   UNL A   1      36.634  31.220  32.327  1.00  0.00     0.022 A 
BRANCH  84  88
ATOM     88  S   UNL A   1      35.801  33.009  30.357  1.00  0.00     0.124 S 
ATOM     89  O   UNL A   1      35.775  33.985  31.440  1.00  0.00    -0.237 OA
ATOM     90  O   UNL A   1      36.530  33.401  29.156  1.00  0.00    -0.237 OA
ATOM     91  O   UNL A   1      34.541  32.309  30.117  1.00  0.00    -0.744 OA
ENDBRANCH  84  88
ENDBRANCH  57  81
BRANCH  69  92
ATOM     92  C   UNL A   1      45.023  33.295  29.354  1.00  0.00     0.023 A 
ATOM     93  C   UNL A   1      44.713  34.393  28.533  1.00  0.00     0.031 A 
ATOM     94  C   UNL A   1      45.896  33.504  30.436  1.00  0.00     0.131 A 
ATOM     95  C   UNL A   1      45.323  35.635  28.768  1.00  0.00     0.055 A 
ATOM     96  C   UNL A   1      46.450  34.757  30.703  1.00  0.00     0.041 A 
ATOM     97  F   UNL A   1      46.229  32.491  31.252  1.00  0.00    -0.206 F 
ATOM     98  C   UNL A   1      46.177  35.828  29.856  1.00  0.00     0.022 A 
BRANCH  95  99
ATOM     99  S   UNL A   1      45.068  36.970  27.566  1.00  0.00     0.124 S 
ATOM    100  O   UNL A   1      43.999  36.429  26.732  1.00  0.00    -0.237 OA
ATOM    101  O   UNL A   1      44.702  38.094  28.422  1.00  0.00    -0.237 OA
ATOM    102  O   UNL A   1      46.368  37.090  26.907  1.00  0.00    -0.744 OA
ENDBRANCH  95  99
ENDBRANCH  69  92
ENDBRANCH  43  44
ENDBRANCH  35  38
ENDBRANCH  33  34
ENDBRANCH   1  33
TORSDOF 16
ENDMDL
