MODEL 1
REMARK VINA RESULT:     -12.6      0.000      0.000
REMARK SMILES O=C(NCCCNC(=O)[C@@H]1[C@@H](C(=O)Nc2cccc(C(F)(F)F)c2)[C@@H]2C=C[C@H]1O2)c1ccc(-c2c3nc(c(-c4cc(S(=O)(=O)[O-])ccc4F)c4ccc([nH]4)c(-c4cc(S(=O)(=O)[O-])ccc4F)c4nc(c(-c5cc(S(=O)(=O)[O-])ccc5F)c5ccc2[nH]5)C=C4)C=C3)cc1
REMARK SMILES IDX 5 1 4 2 3 3 1 4 2 5 30 7 31 8 92 9 32 10 91 11 33 12 34 13
REMARK SMILES IDX 35 14 85 15 36 16 90 17 84 18 86 19 37 20 89 21 83 22 82 23
REMARK SMILES IDX 38 25 70 26 50 27 69 28 51 29 54 30 68 31 87 32 52 33 53 34
REMARK SMILES IDX 67 36 88 37 55 38 39 39 40 40 48 41 41 42 47 43 49 44 46 45
REMARK SMILES IDX 42 46 43 47 44 48 45 49 71 50 72 51 80 52 73 53 79 54 81 55
REMARK SMILES IDX 78 56 74 57 75 58 76 59 77 60 56 61 57 62 65 63 58 64 64 65
REMARK SMILES IDX 66 66 63 67 59 68 60 69 61 70 62 71 6 72 7 73 8 74 9 76
REMARK SMILES IDX 10 77 11 78 28 79 25 80 27 81 29 82 26 83 12 84 13 85 14 86
REMARK SMILES IDX 15 88 16 89 24 90 17 91 19 92 18 93 20 94 21 95 22 96 23 97
REMARK H PARENT 3 6 86 24 54 35 7 75 14 87
REMARK Flexibility Score: inf
ROOT
ATOM      1  C   UNL A   1      31.378  31.924  26.574  1.00  0.00     0.042 C 
ENDROOT
BRANCH   1   2
ATOM      2  C   UNL A   1      32.662  32.362  27.267  1.00  0.00     0.118 C 
BRANCH   2   3
ATOM      3  N   UNL A   1      32.672  33.783  27.578  1.00  0.00    -0.352 N 
ATOM      4  O   UNL A   1      33.123  35.636  28.771  1.00  0.00    -0.269 OA
ATOM      5  C   UNL A   1      33.407  34.466  28.515  1.00  0.00     0.251 C 
ATOM      6  H   UNL A   1      32.063  34.337  27.038  1.00  0.00     0.163 HD
BRANCH   5   7
ATOM      7  C   UNL A   1      34.529  33.804  29.218  1.00  0.00     0.039 A 
ATOM      8  C   UNL A   1      35.850  34.177  28.963  1.00  0.00     0.014 A 
ATOM      9  C   UNL A   1      34.255  32.821  30.174  1.00  0.00     0.014 A 
ATOM     10  C   UNL A   1      36.896  33.478  29.557  1.00  0.00     0.010 A 
ATOM     11  C   UNL A   1      35.306  32.186  30.842  1.00  0.00     0.010 A 
ATOM     12  C   UNL A   1      36.638  32.495  30.524  1.00  0.00    -0.014 A 
BRANCH  12  13
ATOM     13  C   UNL A   1      37.778  31.866  31.242  1.00  0.00     0.031 A 
ATOM     14  C   UNL A   1      38.620  30.804  30.592  1.00  0.00     0.074 A 
ATOM     15  C   UNL A   1      38.058  32.282  32.494  1.00  0.00     0.049 A 
ATOM     16  N   UNL A   1      39.644  30.152  31.078  1.00  0.00    -0.248 NA
ATOM     17  C   UNL A   1      38.258  30.417  29.220  1.00  0.00     0.031 C 
ATOM     18  C   UNL A   1      37.303  33.304  33.227  1.00  0.00     0.029 A 
ATOM     19  N   UNL A   1      39.052  31.918  33.366  1.00  0.00    -0.354 N 
ATOM     20  C   UNL A   1      40.045  29.267  30.083  1.00  0.00     0.074 A 
ATOM     21  C   UNL A   1      39.125  29.444  28.978  1.00  0.00     0.031 C 
ATOM     22  C   UNL A   1      37.886  33.515  34.414  1.00  0.00     0.029 A 
ATOM     23  C   UNL A   1      39.004  32.593  34.565  1.00  0.00     0.049 A 
ATOM     24  H   UNL A   1      39.732  31.241  33.155  1.00  0.00     0.167 HD
ATOM     25  C   UNL A   1      41.087  28.397  30.092  1.00  0.00     0.034 A 
ATOM     26  C   UNL A   1      39.754  32.463  35.676  1.00  0.00     0.034 A 
ATOM     27  C   UNL A   1      41.988  28.236  31.210  1.00  0.00     0.049 A 
ATOM     28  C   UNL A   1      40.868  31.452  35.679  1.00  0.00     0.074 A 
ATOM     29  C   UNL A   1      43.095  27.409  31.312  1.00  0.00     0.029 A 
ATOM     30  N   UNL A   1      41.882  28.901  32.426  1.00  0.00    -0.354 N 
ATOM     31  N   UNL A   1      41.248  30.640  34.719  1.00  0.00    -0.248 NA
ATOM     32  C   UNL A   1      41.656  31.343  36.912  1.00  0.00     0.031 C 
ATOM     33  C   UNL A   1      43.607  27.515  32.611  1.00  0.00     0.029 A 
ATOM     34  C   UNL A   1      42.877  28.475  33.295  1.00  0.00     0.049 A 
ATOM     35  H   UNL A   1      41.200  29.578  32.640  1.00  0.00     0.167 HD
ATOM     36  C   UNL A   1      42.336  29.938  35.227  1.00  0.00     0.074 A 
ATOM     37  C   UNL A   1      42.563  30.440  36.568  1.00  0.00     0.031 C 
ATOM     38  C   UNL A   1      43.082  28.969  34.637  1.00  0.00     0.034 A 
BRANCH  25  39
ATOM     39  C   UNL A   1      41.275  27.519  28.875  1.00  0.00     0.023 A 
ATOM     40  C   UNL A   1      42.278  27.772  27.923  1.00  0.00     0.031 A 
ATOM     41  C   UNL A   1      40.429  26.417  28.657  1.00  0.00     0.131 A 
ATOM     42  C   UNL A   1      42.364  26.981  26.766  1.00  0.00     0.055 A 
ATOM     43  C   UNL A   1      40.571  25.584  27.544  1.00  0.00     0.041 A 
ATOM     44  F   UNL A   1      39.439  26.134  29.519  1.00  0.00    -0.206 F 
ATOM     45  C   UNL A   1      41.533  25.873  26.582  1.00  0.00     0.022 A 
BRANCH  42  46
ATOM     46  S   UNL A   1      43.480  27.507  25.436  1.00  0.00     0.124 S 
ATOM     47  O   UNL A   1      42.536  27.818  24.364  1.00  0.00    -0.237 OA
ATOM     48  O   UNL A   1      44.168  28.647  26.032  1.00  0.00    -0.237 OA
ATOM     49  O   UNL A   1      44.312  26.328  25.199  1.00  0.00    -0.744 OA
ENDBRANCH  42  46
ENDBRANCH  25  39
BRANCH  26  50
ATOM     50  C   UNL A   1      39.449  33.280  36.885  1.00  0.00     0.023 A 
ATOM     51  C   UNL A   1      40.089  34.508  37.113  1.00  0.00     0.031 A 
ATOM     52  C   UNL A   1      38.528  32.827  37.848  1.00  0.00     0.131 A 
ATOM     53  C   UNL A   1      39.831  35.220  38.295  1.00  0.00     0.055 A 
ATOM     54  C   UNL A   1      38.229  33.568  38.991  1.00  0.00     0.041 A 
ATOM     55  F   UNL A   1      37.887  31.660  37.677  1.00  0.00    -0.206 F 
ATOM     56  C   UNL A   1      38.893  34.766  39.227  1.00  0.00     0.022 A 
BRANCH  53  57
ATOM     57  S   UNL A   1      40.806  36.709  38.641  1.00  0.00     0.124 S 
ATOM     58  O   UNL A   1      41.518  36.896  37.382  1.00  0.00    -0.237 OA
ATOM     59  O   UNL A   1      39.767  37.688  38.943  1.00  0.00    -0.237 OA
ATOM     60  O   UNL A   1      41.637  36.314  39.776  1.00  0.00    -0.744 OA
ENDBRANCH  53  57
ENDBRANCH  26  50
BRANCH  38  61
ATOM     61  C   UNL A   1      44.240  28.421  35.437  1.00  0.00     0.023 A 
ATOM     62  C   UNL A   1      44.077  27.369  36.354  1.00  0.00     0.031 A 
ATOM     63  C   UNL A   1      45.523  28.981  35.294  1.00  0.00     0.131 A 
ATOM     64  C   UNL A   1      45.163  26.949  37.137  1.00  0.00     0.055 A 
ATOM     65  C   UNL A   1      46.614  28.514  36.028  1.00  0.00     0.041 A 
ATOM     66  F   UNL A   1      45.736  29.992  34.438  1.00  0.00    -0.206 F 
ATOM     67  C   UNL A   1      46.434  27.502  36.966  1.00  0.00     0.022 A 
BRANCH  64  68
ATOM     68  S   UNL A   1      44.869  25.741  38.458  1.00  0.00     0.124 S 
ATOM     69  O   UNL A   1      44.169  24.676  37.745  1.00  0.00    -0.237 OA
ATOM     70  O   UNL A   1      46.223  25.428  38.902  1.00  0.00    -0.237 OA
ATOM     71  O   UNL A   1      44.056  26.479  39.423  1.00  0.00    -0.744 OA
ENDBRANCH  64  68
ENDBRANCH  38  61
ENDBRANCH  12  13
ENDBRANCH   5   7
ENDBRANCH   2   3
ENDBRANCH   1   2
BRANCH   1  72
ATOM     72  C   UNL A   1      31.501  30.612  25.807  1.00  0.00     0.117 C 
BRANCH  72  73
ATOM     73  N   UNL A   1      32.454  29.698  26.408  1.00  0.00    -0.356 N 
ATOM     74  C   UNL A   1      32.643  28.362  26.272  1.00  0.00     0.227 C 
ATOM     75  H   UNL A   1      33.082  30.129  27.030  1.00  0.00     0.163 HD
ATOM     76  O   UNL A   1      33.651  27.903  26.820  1.00  0.00    -0.275 OA
BRANCH  74  77
ATOM     77  C   UNL A   1      31.763  27.493  25.387  1.00  0.00     0.127 C 
ATOM     78  C   UNL A   1      31.970  25.950  25.399  1.00  0.00     0.127 C 
ATOM     79  C   UNL A   1      32.075  27.802  23.902  1.00  0.00     0.155 C 
ATOM     80  C   UNL A   1      32.269  25.639  23.934  1.00  0.00     0.155 C 
ATOM     81  C   UNL A   1      33.508  27.503  23.556  1.00  0.00     0.004 C 
ATOM     82  O   UNL A   1      31.467  26.648  23.265  1.00  0.00    -0.365 OA
ATOM     83  C   UNL A   1      33.631  26.170  23.587  1.00  0.00     0.004 C 
BRANCH  78  84
ATOM     84  C   UNL A   1      30.800  25.195  26.037  1.00  0.00     0.231 C 
ATOM     85  O   UNL A   1      29.834  25.836  26.468  1.00  0.00    -0.274 OA
ATOM     86  N   UNL A   1      30.652  23.843  25.930  1.00  0.00    -0.326 N 
ATOM     87  H   UNL A   1      29.753  23.542  25.667  1.00  0.00     0.169 HD
BRANCH  86  88
ATOM     88  C   UNL A   1      31.582  22.819  26.136  1.00  0.00     0.041 A 
ATOM     89  C   UNL A   1      32.457  22.920  27.218  1.00  0.00     0.026 A 
ATOM     90  C   UNL A   1      31.744  21.790  25.211  1.00  0.00     0.039 A 
ATOM     91  C   UNL A   1      33.423  21.935  27.430  1.00  0.00     0.003 A 
ATOM     92  C   UNL A   1      32.717  20.798  25.404  1.00  0.00     0.058 A 
ATOM     93  C   UNL A   1      33.547  20.873  26.532  1.00  0.00     0.013 A 
BRANCH  92  94
ATOM     94  C   UNL A   1      32.886  19.679  24.408  1.00  0.00     0.416 C 
ATOM     95  F   UNL A   1      32.115  18.598  24.714  1.00  0.00    -0.166 F 
ATOM     96  F   UNL A   1      32.525  20.042  23.145  1.00  0.00    -0.166 F 
ATOM     97  F   UNL A   1      34.161  19.211  24.315  1.00  0.00    -0.166 F 
ENDBRANCH  92  94
ENDBRANCH  86  88
ENDBRANCH  78  84
ENDBRANCH  74  77
ENDBRANCH  72  73
ENDBRANCH   1  72
TORSDOF 16
ENDMDL
MODEL 2
REMARK VINA RESULT:     -12.5      1.906      2.650
REMARK SMILES O=C(NCCCNC(=O)[C@@H]1[C@@H](C(=O)Nc2cccc(C(F)(F)F)c2)[C@@H]2C=C[C@H]1O2)c1ccc(-c2c3nc(c(-c4cc(S(=O)(=O)[O-])ccc4F)c4ccc([nH]4)c(-c4cc(S(=O)(=O)[O-])ccc4F)c4nc(c(-c5cc(S(=O)(=O)[O-])ccc5F)c5ccc2[nH]5)C=C4)C=C3)cc1
REMARK SMILES IDX 5 1 4 2 3 3 1 4 2 5 30 7 31 8 92 9 32 10 91 11 33 12 34 13
REMARK SMILES IDX 35 14 85 15 36 16 90 17 84 18 86 19 37 20 89 21 83 22 82 23
REMARK SMILES IDX 38 25 70 26 50 27 69 28 51 29 54 30 68 31 87 32 52 33 53 34
REMARK SMILES IDX 67 36 88 37 55 38 39 39 40 40 48 41 41 42 47 43 49 44 46 45
REMARK SMILES IDX 42 46 43 47 44 48 45 49 71 50 72 51 80 52 73 53 79 54 81 55
REMARK SMILES IDX 78 56 74 57 75 58 76 59 77 60 56 61 57 62 65 63 58 64 64 65
REMARK SMILES IDX 66 66 63 67 59 68 60 69 61 70 62 71 6 72 7 73 8 74 9 76
REMARK SMILES IDX 10 77 11 78 28 79 25 80 27 81 29 82 26 83 12 84 13 85 14 86
REMARK SMILES IDX 15 88 16 89 24 90 17 91 19 92 18 93 20 94 21 95 22 96 23 97
REMARK H PARENT 3 6 86 24 54 35 7 75 14 87
REMARK Flexibility Score: inf
ROOT
ATOM      1  C   UNL A   1      31.473  31.826  26.330  1.00  0.00     0.042 C 
ENDROOT
BRANCH   1   2
ATOM      2  C   UNL A   1      32.727  32.306  27.048  1.00  0.00     0.118 C 
BRANCH   2   3
ATOM      3  N   UNL A   1      32.628  33.692  27.480  1.00  0.00    -0.352 N 
ATOM      4  O   UNL A   1      32.905  35.457  28.845  1.00  0.00    -0.269 OA
ATOM      5  C   UNL A   1      33.278  34.336  28.504  1.00  0.00     0.251 C 
ATOM      6  H   UNL A   1      32.005  34.250  26.962  1.00  0.00     0.163 HD
BRANCH   5   7
ATOM      7  C   UNL A   1      34.414  33.688  29.196  1.00  0.00     0.039 A 
ATOM      8  C   UNL A   1      35.727  34.089  28.944  1.00  0.00     0.014 A 
ATOM      9  C   UNL A   1      34.162  32.688  30.141  1.00  0.00     0.014 A 
ATOM     10  C   UNL A   1      36.788  33.405  29.528  1.00  0.00     0.010 A 
ATOM     11  C   UNL A   1      35.227  32.066  30.800  1.00  0.00     0.010 A 
ATOM     12  C   UNL A   1      36.552  32.405  30.484  1.00  0.00    -0.014 A 
BRANCH  12  13
ATOM     13  C   UNL A   1      37.705  31.791  31.193  1.00  0.00     0.031 A 
ATOM     14  C   UNL A   1      38.540  30.723  30.544  1.00  0.00     0.074 A 
ATOM     15  C   UNL A   1      38.004  32.226  32.433  1.00  0.00     0.049 A 
ATOM     16  N   UNL A   1      39.575  30.081  31.024  1.00  0.00    -0.248 NA
ATOM     17  C   UNL A   1      38.158  30.314  29.185  1.00  0.00     0.031 C 
ATOM     18  C   UNL A   1      37.257  33.256  33.163  1.00  0.00     0.029 A 
ATOM     19  N   UNL A   1      39.012  31.879  33.294  1.00  0.00    -0.354 N 
ATOM     20  C   UNL A   1      39.962  29.183  30.035  1.00  0.00     0.074 A 
ATOM     21  C   UNL A   1      39.024  29.340  28.942  1.00  0.00     0.031 C 
ATOM     22  C   UNL A   1      37.858  33.486  34.338  1.00  0.00     0.029 A 
ATOM     23  C   UNL A   1      38.981  32.570  34.484  1.00  0.00     0.049 A 
ATOM     24  H   UNL A   1      39.692  31.200  33.082  1.00  0.00     0.167 HD
ATOM     25  C   UNL A   1      41.008  28.316  30.039  1.00  0.00     0.034 A 
ATOM     26  C   UNL A   1      39.750  32.460  35.585  1.00  0.00     0.034 A 
ATOM     27  C   UNL A   1      41.928  28.175  31.145  1.00  0.00     0.049 A 
ATOM     28  C   UNL A   1      40.867  31.453  35.585  1.00  0.00     0.074 A 
ATOM     29  C   UNL A   1      43.039  27.353  31.242  1.00  0.00     0.029 A 
ATOM     30  N   UNL A   1      41.838  28.858  32.353  1.00  0.00    -0.354 N 
ATOM     31  N   UNL A   1      41.235  30.628  34.631  1.00  0.00    -0.248 NA
ATOM     32  C   UNL A   1      41.675  31.364  36.806  1.00  0.00     0.031 C 
ATOM     33  C   UNL A   1      43.571  27.480  32.530  1.00  0.00     0.029 A 
ATOM     34  C   UNL A   1      42.849  28.448  33.212  1.00  0.00     0.049 A 
ATOM     35  H   UNL A   1      41.157  29.535  32.568  1.00  0.00     0.167 HD
ATOM     36  C   UNL A   1      42.334  29.937  35.131  1.00  0.00     0.074 A 
ATOM     37  C   UNL A   1      42.580  30.459  36.461  1.00  0.00     0.031 C 
ATOM     38  C   UNL A   1      43.073  28.962  34.544  1.00  0.00     0.034 A 
BRANCH  25  39
ATOM     39  C   UNL A   1      41.180  27.422  28.833  1.00  0.00     0.023 A 
ATOM     40  C   UNL A   1      42.186  27.647  27.877  1.00  0.00     0.031 A 
ATOM     41  C   UNL A   1      40.314  26.332  28.628  1.00  0.00     0.131 A 
ATOM     42  C   UNL A   1      42.257  26.841  26.729  1.00  0.00     0.055 A 
ATOM     43  C   UNL A   1      40.441  25.484  27.525  1.00  0.00     0.041 A 
ATOM     44  F   UNL A   1      39.320  26.076  29.494  1.00  0.00    -0.206 F 
ATOM     45  C   UNL A   1      41.407  25.745  26.559  1.00  0.00     0.022 A 
BRANCH  42  46
ATOM     46  S   UNL A   1      43.381  27.332  25.392  1.00  0.00     0.124 S 
ATOM     47  O   UNL A   1      42.473  28.032  24.485  1.00  0.00    -0.237 OA
ATOM     48  O   UNL A   1      44.355  28.164  26.089  1.00  0.00    -0.237 OA
ATOM     49  O   UNL A   1      43.892  26.059  24.889  1.00  0.00    -0.744 OA
ENDBRANCH  42  46
ENDBRANCH  25  39
BRANCH  26  50
ATOM     50  C   UNL A   1      39.461  33.293  36.786  1.00  0.00     0.023 A 
ATOM     51  C   UNL A   1      40.148  34.494  37.020  1.00  0.00     0.031 A 
ATOM     52  C   UNL A   1      38.508  32.883  37.737  1.00  0.00     0.131 A 
ATOM     53  C   UNL A   1      39.903  35.220  38.196  1.00  0.00     0.055 A 
ATOM     54  C   UNL A   1      38.223  33.640  38.873  1.00  0.00     0.041 A 
ATOM     55  F   UNL A   1      37.821  31.743  37.560  1.00  0.00    -0.206 F 
ATOM     56  C   UNL A   1      38.933  34.810  39.115  1.00  0.00     0.022 A 
BRANCH  53  57
ATOM     57  S   UNL A   1      40.935  36.668  38.553  1.00  0.00     0.124 S 
ATOM     58  O   UNL A   1      41.647  36.842  37.291  1.00  0.00    -0.237 OA
ATOM     59  O   UNL A   1      39.935  37.682  38.871  1.00  0.00    -0.237 OA
ATOM     60  O   UNL A   1      41.757  36.230  39.679  1.00  0.00    -0.744 OA
ENDBRANCH  53  57
ENDBRANCH  26  50
BRANCH  38  61
ATOM     61  C   UNL A   1      44.246  28.430  35.332  1.00  0.00     0.023 A 
ATOM     62  C   UNL A   1      44.100  27.395  36.272  1.00  0.00     0.031 A 
ATOM     63  C   UNL A   1      45.526  28.987  35.155  1.00  0.00     0.131 A 
ATOM     64  C   UNL A   1      45.200  26.991  37.043  1.00  0.00     0.055 A 
ATOM     65  C   UNL A   1      46.630  28.534  35.878  1.00  0.00     0.041 A 
ATOM     66  F   UNL A   1      45.723  29.981  34.276  1.00  0.00    -0.206 F 
ATOM     67  C   UNL A   1      46.468  27.541  36.839  1.00  0.00     0.022 A 
BRANCH  64  68
ATOM     68  S   UNL A   1      44.931  25.808  38.393  1.00  0.00     0.124 S 
ATOM     69  O   UNL A   1      46.298  25.474  38.780  1.00  0.00    -0.237 OA
ATOM     70  O   UNL A   1      44.170  26.599  39.354  1.00  0.00    -0.237 OA
ATOM     71  O   UNL A   1      44.185  24.725  37.755  1.00  0.00    -0.744 OA
ENDBRANCH  64  68
ENDBRANCH  38  61
ENDBRANCH  12  13
ENDBRANCH   5   7
ENDBRANCH   2   3
ENDBRANCH   1   2
BRANCH   1  72
ATOM     72  C   UNL A   1      31.406  30.315  26.134  1.00  0.00     0.117 C 
BRANCH  72  73
ATOM     73  N   UNL A   1      31.645  29.916  24.761  1.00  0.00    -0.356 N 
ATOM     74  C   UNL A   1      30.804  29.622  23.738  1.00  0.00     0.227 C 
ATOM     75  H   UNL A   1      32.599  29.847  24.525  1.00  0.00     0.163 HD
ATOM     76  O   UNL A   1      31.334  29.457  22.635  1.00  0.00    -0.275 OA
BRANCH  74  77
ATOM     77  C   UNL A   1      29.291  29.633  23.891  1.00  0.00     0.127 C 
ATOM     78  C   UNL A   1      28.428  28.770  22.924  1.00  0.00     0.127 C 
ATOM     79  C   UNL A   1      28.757  31.046  23.551  1.00  0.00     0.155 C 
ATOM     80  C   UNL A   1      27.509  29.805  22.279  1.00  0.00     0.155 C 
ATOM     81  C   UNL A   1      29.076  31.441  22.135  1.00  0.00     0.004 C 
ATOM     82  O   UNL A   1      27.347  30.751  23.367  1.00  0.00    -0.365 OA
ATOM     83  C   UNL A   1      28.316  30.668  21.350  1.00  0.00     0.004 C 
BRANCH  78  84
ATOM     84  C   UNL A   1      27.750  27.588  23.622  1.00  0.00     0.231 C 
ATOM     85  O   UNL A   1      26.547  27.663  23.900  1.00  0.00    -0.274 OA
ATOM     86  N   UNL A   1      28.338  26.361  23.728  1.00  0.00    -0.326 N 
ATOM     87  H   UNL A   1      27.766  25.601  23.477  1.00  0.00     0.169 HD
BRANCH  86  88
ATOM     88  C   UNL A   1      29.630  26.017  24.139  1.00  0.00     0.041 A 
ATOM     89  C   UNL A   1      29.897  25.942  25.506  1.00  0.00     0.026 A 
ATOM     90  C   UNL A   1      30.674  25.895  23.224  1.00  0.00     0.039 A 
ATOM     91  C   UNL A   1      31.186  25.639  25.951  1.00  0.00     0.003 A 
ATOM     92  C   UNL A   1      31.976  25.601  23.655  1.00  0.00     0.058 A 
ATOM     93  C   UNL A   1      32.218  25.460  25.029  1.00  0.00     0.013 A 
BRANCH  92  94
ATOM     94  C   UNL A   1      33.103  25.459  22.665  1.00  0.00     0.416 C 
ATOM     95  F   UNL A   1      34.273  25.104  23.266  1.00  0.00    -0.166 F 
ATOM     96  F   UNL A   1      32.863  24.495  21.731  1.00  0.00    -0.166 F 
ATOM     97  F   UNL A   1      33.373  26.597  21.968  1.00  0.00    -0.166 F 
ENDBRANCH  92  94
ENDBRANCH  86  88
ENDBRANCH  78  84
ENDBRANCH  74  77
ENDBRANCH  72  73
ENDBRANCH   1  72
TORSDOF 16
ENDMDL
MODEL 3
REMARK VINA RESULT:     -12.5      2.950      8.457
REMARK SMILES O=C(NCCCNC(=O)[C@@H]1[C@@H](C(=O)Nc2cccc(C(F)(F)F)c2)[C@@H]2C=C[C@H]1O2)c1ccc(-c2c3nc(c(-c4cc(S(=O)(=O)[O-])ccc4F)c4ccc([nH]4)c(-c4cc(S(=O)(=O)[O-])ccc4F)c4nc(c(-c5cc(S(=O)(=O)[O-])ccc5F)c5ccc2[nH]5)C=C4)C=C3)cc1
REMARK SMILES IDX 5 1 4 2 3 3 1 4 2 5 30 7 31 8 92 9 32 10 91 11 33 12 34 13
REMARK SMILES IDX 35 14 85 15 36 16 90 17 84 18 86 19 37 20 89 21 83 22 82 23
REMARK SMILES IDX 38 25 70 26 50 27 69 28 51 29 54 30 68 31 87 32 52 33 53 34
REMARK SMILES IDX 67 36 88 37 55 38 39 39 40 40 48 41 41 42 47 43 49 44 46 45
REMARK SMILES IDX 42 46 43 47 44 48 45 49 71 50 72 51 80 52 73 53 79 54 81 55
REMARK SMILES IDX 78 56 74 57 75 58 76 59 77 60 56 61 57 62 65 63 58 64 64 65
REMARK SMILES IDX 66 66 63 67 59 68 60 69 61 70 62 71 6 72 7 73 8 74 9 76
REMARK SMILES IDX 10 77 11 78 28 79 25 80 27 81 29 82 26 83 12 84 13 85 14 86
REMARK SMILES IDX 15 88 16 89 24 90 17 91 19 92 18 93 20 94 21 95 22 96 23 97
REMARK H PARENT 3 6 86 24 54 35 7 75 14 87
REMARK Flexibility Score: inf
ROOT
ATOM      1  C   UNL A   1      31.926  28.316  25.724  1.00  0.00     0.042 C 
ENDROOT
BRANCH   1   2
ATOM      2  C   UNL A   1      32.976  29.394  25.486  1.00  0.00     0.118 C 
BRANCH   2   3
ATOM      3  N   UNL A   1      32.519  30.716  25.890  1.00  0.00    -0.352 N 
ATOM      4  O   UNL A   1      32.302  32.508  27.230  1.00  0.00    -0.269 OA
ATOM      5  C   UNL A   1      32.955  31.513  26.920  1.00  0.00     0.251 C 
ATOM      6  H   UNL A   1      31.793  31.094  25.345  1.00  0.00     0.163 HD
BRANCH   5   7
ATOM      7  C   UNL A   1      34.194  31.178  27.656  1.00  0.00     0.039 A 
ATOM      8  C   UNL A   1      34.432  29.874  28.097  1.00  0.00     0.014 A 
ATOM      9  C   UNL A   1      35.151  32.173  27.877  1.00  0.00     0.014 A 
ATOM     10  C   UNL A   1      35.553  29.597  28.872  1.00  0.00     0.010 A 
ATOM     11  C   UNL A   1      36.326  31.869  28.574  1.00  0.00     0.010 A 
ATOM     12  C   UNL A   1      36.527  30.582  29.096  1.00  0.00    -0.014 A 
BRANCH  12  13
ATOM     13  C   UNL A   1      37.780  30.216  29.807  1.00  0.00     0.031 A 
ATOM     14  C   UNL A   1      38.073  30.735  31.188  1.00  0.00     0.074 A 
ATOM     15  C   UNL A   1      38.650  29.388  29.195  1.00  0.00     0.049 A 
ATOM     16  N   UNL A   1      39.118  30.517  31.945  1.00  0.00    -0.248 NA
ATOM     17  C   UNL A   1      37.068  31.620  31.792  1.00  0.00     0.031 C 
ATOM     18  C   UNL A   1      38.470  28.828  27.851  1.00  0.00     0.029 A 
ATOM     19  N   UNL A   1      39.843  28.859  29.615  1.00  0.00    -0.354 N 
ATOM     20  C   UNL A   1      38.907  31.248  33.110  1.00  0.00     0.074 A 
ATOM     21  C   UNL A   1      37.648  31.943  32.939  1.00  0.00     0.031 C 
ATOM     22  C   UNL A   1      39.489  28.002  27.578  1.00  0.00     0.029 A 
ATOM     23  C   UNL A   1      40.435  28.033  28.686  1.00  0.00     0.049 A 
ATOM     24  H   UNL A   1      40.237  29.051  30.495  1.00  0.00     0.167 HD
ATOM     25  C   UNL A   1      39.689  31.321  34.217  1.00  0.00     0.034 A 
ATOM     26  C   UNL A   1      41.621  27.396  28.707  1.00  0.00     0.034 A 
ATOM     27  C   UNL A   1      40.944  30.619  34.361  1.00  0.00     0.049 A 
ATOM     28  C   UNL A   1      42.494  27.538  29.924  1.00  0.00     0.074 A 
ATOM     29  C   UNL A   1      41.799  30.596  35.451  1.00  0.00     0.029 A 
ATOM     30  N   UNL A   1      41.536  29.829  33.381  1.00  0.00    -0.354 N 
ATOM     31  N   UNL A   1      42.267  28.214  31.028  1.00  0.00    -0.248 NA
ATOM     32  C   UNL A   1      43.778  26.830  29.901  1.00  0.00     0.031 C 
ATOM     33  C   UNL A   1      42.938  29.862  35.103  1.00  0.00     0.029 A 
ATOM     34  C   UNL A   1      42.760  29.348  33.828  1.00  0.00     0.049 A 
ATOM     35  H   UNL A   1      41.144  29.638  32.499  1.00  0.00     0.167 HD
ATOM     36  C   UNL A   1      43.375  27.993  31.840  1.00  0.00     0.074 A 
ATOM     37  C   UNL A   1      44.254  27.103  31.107  1.00  0.00     0.031 C 
ATOM     38  C   UNL A   1      43.638  28.478  33.080  1.00  0.00     0.034 A 
BRANCH  25  39
ATOM     39  C   UNL A   1      39.232  32.227  35.337  1.00  0.00     0.023 A 
ATOM     40  C   UNL A   1      39.664  33.562  35.437  1.00  0.00     0.031 A 
ATOM     41  C   UNL A   1      38.360  31.746  36.330  1.00  0.00     0.131 A 
ATOM     42  C   UNL A   1      39.281  34.344  36.539  1.00  0.00     0.055 A 
ATOM     43  C   UNL A   1      37.918  32.553  37.381  1.00  0.00     0.041 A 
ATOM     44  F   UNL A   1      37.928  30.475  36.303  1.00  0.00    -0.206 F 
ATOM     45  C   UNL A   1      38.390  33.856  37.499  1.00  0.00     0.022 A 
BRANCH  42  46
ATOM     46  S   UNL A   1      40.077  35.956  36.778  1.00  0.00     0.124 S 
ATOM     47  O   UNL A   1      41.479  35.573  36.935  1.00  0.00    -0.237 OA
ATOM     48  O   UNL A   1      39.741  36.660  35.546  1.00  0.00    -0.237 OA
ATOM     49  O   UNL A   1      39.443  36.476  37.988  1.00  0.00    -0.744 OA
ENDBRANCH  42  46
ENDBRANCH  25  39
BRANCH  26  50
ATOM     50  C   UNL A   1      42.067  26.605  27.525  1.00  0.00     0.023 A 
ATOM     51  C   UNL A   1      41.815  25.227  27.435  1.00  0.00     0.031 A 
ATOM     52  C   UNL A   1      42.780  27.215  26.476  1.00  0.00     0.131 A 
ATOM     53  C   UNL A   1      42.309  24.498  26.342  1.00  0.00     0.055 A 
ATOM     54  C   UNL A   1      43.215  26.497  25.362  1.00  0.00     0.041 A 
ATOM     55  F   UNL A   1      43.046  28.530  26.512  1.00  0.00    -0.206 F 
ATOM     56  C   UNL A   1      42.992  25.126  25.298  1.00  0.00     0.022 A 
BRANCH  53  57
ATOM     57  S   UNL A   1      42.121  22.694  26.347  1.00  0.00     0.124 S 
ATOM     58  O   UNL A   1      40.670  22.547  26.303  1.00  0.00    -0.237 OA
ATOM     59  O   UNL A   1      42.842  22.312  25.138  1.00  0.00    -0.237 OA
ATOM     60  O   UNL A   1      42.752  22.291  27.602  1.00  0.00    -0.744 OA
ENDBRANCH  53  57
ENDBRANCH  26  50
BRANCH  38  61
ATOM     61  C   UNL A   1      44.919  28.016  33.732  1.00  0.00     0.023 A 
ATOM     62  C   UNL A   1      44.973  26.856  34.524  1.00  0.00     0.031 A 
ATOM     63  C   UNL A   1      46.100  28.766  33.578  1.00  0.00     0.131 A 
ATOM     64  C   UNL A   1      46.164  26.511  35.180  1.00  0.00     0.055 A 
ATOM     65  C   UNL A   1      47.299  28.381  34.179  1.00  0.00     0.041 A 
ATOM     66  F   UNL A   1      46.106  29.886  32.838  1.00  0.00    -0.206 F 
ATOM     67  C   UNL A   1      47.332  27.256  34.997  1.00  0.00     0.022 A 
BRANCH  64  68
ATOM     68  S   UNL A   1      46.142  25.134  36.361  1.00  0.00     0.124 S 
ATOM     69  O   UNL A   1      46.616  24.024  35.541  1.00  0.00    -0.237 OA
ATOM     70  O   UNL A   1      47.057  25.597  37.398  1.00  0.00    -0.237 OA
ATOM     71  O   UNL A   1      44.739  25.051  36.764  1.00  0.00    -0.744 OA
ENDBRANCH  64  68
ENDBRANCH  38  61
ENDBRANCH  12  13
ENDBRANCH   5   7
ENDBRANCH   2   3
ENDBRANCH   1   2
BRANCH   1  72
ATOM     72  C   UNL A   1      32.185  27.457  26.957  1.00  0.00     0.117 C 
BRANCH  72  73
ATOM     73  N   UNL A   1      31.382  26.249  26.978  1.00  0.00    -0.356 N 
ATOM     74  C   UNL A   1      31.586  25.012  26.459  1.00  0.00     0.227 C 
ATOM     75  H   UNL A   1      30.530  26.344  27.460  1.00  0.00     0.163 HD
ATOM     76  O   UNL A   1      30.762  24.150  26.783  1.00  0.00    -0.275 OA
BRANCH  74  77
ATOM     77  C   UNL A   1      32.820  24.656  25.646  1.00  0.00     0.127 C 
ATOM     78  C   UNL A   1      32.665  23.731  24.403  1.00  0.00     0.127 C 
ATOM     79  C   UNL A   1      33.767  23.792  26.515  1.00  0.00     0.155 C 
ATOM     80  C   UNL A   1      33.599  22.568  24.729  1.00  0.00     0.155 C 
ATOM     81  C   UNL A   1      33.116  22.506  26.947  1.00  0.00     0.004 C 
ATOM     82  O   UNL A   1      34.634  23.245  25.487  1.00  0.00    -0.365 OA
ATOM     83  C   UNL A   1      33.001  21.756  25.844  1.00  0.00     0.004 C 
BRANCH  78  84
ATOM     84  C   UNL A   1      32.914  24.462  23.080  1.00  0.00     0.231 C 
ATOM     85  O   UNL A   1      33.999  24.315  22.507  1.00  0.00    -0.274 OA
ATOM     86  N   UNL A   1      31.913  25.066  22.376  1.00  0.00    -0.326 N 
ATOM     87  H   UNL A   1      31.894  24.854  21.414  1.00  0.00     0.169 HD
BRANCH  86  88
ATOM     88  C   UNL A   1      30.910  25.940  22.808  1.00  0.00     0.041 A 
ATOM     89  C   UNL A   1      29.863  25.425  23.573  1.00  0.00     0.026 A 
ATOM     90  C   UNL A   1      30.863  27.262  22.372  1.00  0.00     0.039 A 
ATOM     91  C   UNL A   1      28.825  26.262  23.988  1.00  0.00     0.003 A 
ATOM     92  C   UNL A   1      29.821  28.112  22.772  1.00  0.00     0.058 A 
ATOM     93  C   UNL A   1      28.809  27.601  23.597  1.00  0.00     0.013 A 
BRANCH  92  94
ATOM     94  C   UNL A   1      29.774  29.546  22.308  1.00  0.00     0.416 C 
ATOM     95  F   UNL A   1      28.632  29.825  21.620  1.00  0.00    -0.166 F 
ATOM     96  F   UNL A   1      29.806  30.433  23.342  1.00  0.00    -0.166 F 
ATOM     97  F   UNL A   1      30.800  29.893  21.484  1.00  0.00    -0.166 F 
ENDBRANCH  92  94
ENDBRANCH  86  88
ENDBRANCH  78  84
ENDBRANCH  74  77
ENDBRANCH  72  73
ENDBRANCH   1  72
TORSDOF 16
ENDMDL
