MODEL 1
REMARK VINA RESULT:     -13.5      0.000      0.000
REMARK SMILES Cc1ccccc1C(=O)Nc1ccc(N2CCC(n3c(C)nc4cccnc43)CC2)c(C(=O)NCCCNC(=O)c2ccc(-c3c4nc(c(-c5cc(S(=O)(=O)[O-])ccc5F)c5ccc([nH]5)c(-c5cc(S(=O)(=O)[O-])ccc5F)c5nc(c(-c6cc(S(=O)(=O)[O-])ccc6F)c6ccc3[nH]6)C=C5)C=C4)cc2)c1
REMARK SMILES IDX 36 1 35 2 34 3 32 4 33 5 31 7 11 8 12 9 104 10 13 11 14 12
REMARK SMILES IDX 10 13 8 14 9 15 7 17 1 18 2 19 3 20 4 21 6 22 5 23 15 24
REMARK SMILES IDX 16 25 30 26 17 27 29 28 18 29 19 30 20 31 28 32 21 33 22 34
REMARK SMILES IDX 23 35 27 36 24 37 26 38 25 39 37 40 38 41 39 42 40 44 41 45
REMARK SMILES IDX 42 46 103 47 43 48 102 49 44 50 45 51 46 52 96 53 47 54
REMARK SMILES IDX 101 55 95 56 97 57 48 58 100 59 94 60 93 61 49 63 81 64
REMARK SMILES IDX 61 65 80 66 62 67 65 68 79 69 98 70 63 71 64 72 78 74 99 75
REMARK SMILES IDX 66 76 50 77 51 78 59 79 52 80 58 81 60 82 57 83 53 84 54 85
REMARK SMILES IDX 55 86 56 87 82 88 83 89 91 90 84 91 90 92 92 93 89 94 85 95
REMARK SMILES IDX 86 96 87 97 88 98 67 99 68 100 76 101 69 102 75 103 77 104
REMARK SMILES IDX 74 105 70 106 71 107 72 108 73 109
REMARK H PARENT 34 6 10 16 38 43 97 62 65 73
REMARK Flexibility Score: inf
ROOT
ATOM      1  C   UNL A   1      33.674  30.808  26.779  1.00  0.00     0.042 C 
ENDROOT
BRANCH   1   2
ATOM      2  C   UNL A   1      32.195  30.510  26.753  1.00  0.00     0.118 C 
BRANCH   2   3
ATOM      3  N   UNL A   1      31.864  29.147  27.107  1.00  0.00    -0.352 N 
ATOM      4  C   UNL A   1      31.683  27.955  26.472  1.00  0.00     0.253 C 
ATOM      5  O   UNL A   1      31.640  26.991  27.253  1.00  0.00    -0.269 OA
ATOM      6  H   UNL A   1      31.734  29.055  28.078  1.00  0.00     0.163 HD
BRANCH   4   7
ATOM      7  C   UNL A   1      31.469  27.663  25.007  1.00  0.00     0.065 A 
ATOM      8  C   UNL A   1      29.694  27.865  23.303  1.00  0.00     0.042 A 
ATOM      9  C   UNL A   1      30.524  27.333  22.340  1.00  0.00     0.028 A 
ATOM     10  C   UNL A   1      30.217  28.175  24.558  1.00  0.00     0.042 A 
ATOM     11  C   UNL A   1      31.783  26.886  22.723  1.00  0.00     0.029 A 
ATOM     12  C   UNL A   1      32.217  26.903  24.078  1.00  0.00     0.050 A 
BRANCH   8  13
ATOM     13  N   UNL A   1      28.307  27.972  23.139  1.00  0.00    -0.322 N 
ATOM     14  C   UNL A   1      27.525  29.108  23.035  1.00  0.00     0.255 C 
ATOM     15  O   UNL A   1      26.297  28.988  23.022  1.00  0.00    -0.269 OA
ATOM     16  H   UNL A   1      27.820  27.117  23.091  1.00  0.00     0.170 HD
BRANCH  14  17
ATOM     17  C   UNL A   1      28.095  30.484  22.882  1.00  0.00     0.043 A 
ATOM     18  C   UNL A   1      27.810  30.672  20.326  1.00  0.00     0.045 C 
ATOM     19  C   UNL A   1      28.261  31.178  21.665  1.00  0.00    -0.038 A 
ATOM     20  C   UNL A   1      28.865  32.452  21.680  1.00  0.00     0.004 A 
ATOM     21  C   UNL A   1      29.174  33.088  22.880  1.00  0.00     0.000 A 
ATOM     22  C   UNL A   1      28.371  31.160  24.085  1.00  0.00     0.014 A 
ATOM     23  C   UNL A   1      28.892  32.456  24.084  1.00  0.00     0.001 A 
ENDBRANCH  14  17
ENDBRANCH   8  13
BRANCH  12  24
ATOM     24  N   UNL A   1      33.198  25.952  24.370  1.00  0.00    -0.371 N 
ATOM     25  C   UNL A   1      34.137  25.584  23.322  1.00  0.00     0.118 C 
ATOM     26  C   UNL A   1      33.251  25.456  25.744  1.00  0.00     0.118 C 
ATOM     27  C   UNL A   1      34.957  24.341  23.614  1.00  0.00     0.047 C 
ATOM     28  C   UNL A   1      34.069  24.192  25.911  1.00  0.00     0.047 C 
ATOM     29  C   UNL A   1      35.353  24.145  25.088  1.00  0.00     0.094 C 
BRANCH  29  30
ATOM     30  N   UNL A   1      36.159  22.918  25.243  1.00  0.00    -0.310 N 
ATOM     31  C   UNL A   1      35.864  21.586  24.975  1.00  0.00     0.108 A 
ATOM     32  C   UNL A   1      37.452  22.931  25.737  1.00  0.00     0.160 A 
ATOM     33  C   UNL A   1      34.532  21.018  24.642  1.00  0.00     0.088 C 
ATOM     34  N   UNL A   1      36.938  20.821  25.095  1.00  0.00    -0.232 NA
ATOM     35  C   UNL A   1      37.899  21.625  25.630  1.00  0.00     0.108 A 
ATOM     36  N   UNL A   1      38.149  23.986  26.206  1.00  0.00    -0.237 NA
ATOM     37  C   UNL A   1      39.197  21.328  26.061  1.00  0.00     0.034 A 
ATOM     38  C   UNL A   1      39.368  23.638  26.681  1.00  0.00     0.113 A 
ATOM     39  C   UNL A   1      39.935  22.370  26.622  1.00  0.00     0.022 A 
ENDBRANCH  29  30
ENDBRANCH  12  24
ENDBRANCH   4   7
ENDBRANCH   2   3
ENDBRANCH   1   2
BRANCH   1  40
ATOM     40  C   UNL A   1      34.339  30.195  28.004  1.00  0.00     0.118 C 
BRANCH  40  41
ATOM     41  N   UNL A   1      35.123  31.099  28.854  1.00  0.00    -0.352 N 
ATOM     42  C   UNL A   1      36.439  30.945  29.298  1.00  0.00     0.251 C 
ATOM     43  H   UNL A   1      34.663  31.919  29.150  1.00  0.00     0.163 HD
ATOM     44  O   UNL A   1      37.035  31.772  29.952  1.00  0.00    -0.269 OA
BRANCH  42  45
ATOM     45  C   UNL A   1      37.178  29.757  28.827  1.00  0.00     0.039 A 
ATOM     46  C   UNL A   1      37.293  28.715  29.753  1.00  0.00     0.014 A 
ATOM     47  C   UNL A   1      38.071  29.911  27.779  1.00  0.00     0.014 A 
ATOM     48  C   UNL A   1      38.499  28.038  29.833  1.00  0.00     0.010 A 
ATOM     49  C   UNL A   1      39.312  29.335  27.941  1.00  0.00     0.010 A 
ATOM     50  C   UNL A   1      39.549  28.477  29.029  1.00  0.00    -0.014 A 
BRANCH  50  51
ATOM     51  C   UNL A   1      40.946  28.288  29.404  1.00  0.00     0.031 A 
ATOM     52  C   UNL A   1      41.729  27.181  28.825  1.00  0.00     0.074 A 
ATOM     53  C   UNL A   1      41.561  29.189  30.211  1.00  0.00     0.049 A 
ATOM     54  N   UNL A   1      42.826  26.744  29.340  1.00  0.00    -0.248 NA
ATOM     55  C   UNL A   1      41.310  26.413  27.654  1.00  0.00     0.031 C 
ATOM     56  C   UNL A   1      42.996  29.342  30.439  1.00  0.00     0.029 A 
ATOM     57  N   UNL A   1      40.975  30.008  31.180  1.00  0.00    -0.354 N 
ATOM     58  C   UNL A   1      43.422  25.940  28.404  1.00  0.00     0.074 A 
ATOM     59  C   UNL A   1      42.380  25.637  27.460  1.00  0.00     0.031 C 
ATOM     60  C   UNL A   1      43.191  29.964  31.610  1.00  0.00     0.029 A 
ATOM     61  C   UNL A   1      41.897  30.126  32.240  1.00  0.00     0.049 A 
ATOM     62  H   UNL A   1      40.085  30.426  31.130  1.00  0.00     0.167 HD
ATOM     63  C   UNL A   1      44.770  25.770  28.457  1.00  0.00     0.034 A 
ATOM     64  C   UNL A   1      41.573  29.720  33.502  1.00  0.00     0.034 A 
ATOM     65  C   UNL A   1      45.308  26.183  29.758  1.00  0.00     0.049 A 
ATOM     66  C   UNL A   1      42.408  28.554  33.995  1.00  0.00     0.074 A 
ATOM     67  C   UNL A   1      46.149  27.196  30.183  1.00  0.00     0.029 A 
ATOM     68  N   UNL A   1      44.770  25.619  30.913  1.00  0.00    -0.354 N 
ATOM     69  N   UNL A   1      43.302  27.936  33.270  1.00  0.00    -0.248 NA
ATOM     70  C   UNL A   1      42.288  27.967  35.327  1.00  0.00     0.031 C 
ATOM     71  C   UNL A   1      46.012  27.309  31.599  1.00  0.00     0.029 A 
ATOM     72  C   UNL A   1      45.136  26.330  32.038  1.00  0.00     0.049 A 
ATOM     73  H   UNL A   1      44.200  24.814  30.925  1.00  0.00     0.167 HD
ATOM     74  C   UNL A   1      43.789  26.847  33.948  1.00  0.00     0.074 A 
ATOM     75  C   UNL A   1      43.168  26.952  35.258  1.00  0.00     0.031 C 
ATOM     76  C   UNL A   1      44.619  25.936  33.350  1.00  0.00     0.034 A 
BRANCH  63  77
ATOM     77  C   UNL A   1      45.633  25.400  27.267  1.00  0.00     0.023 A 
ATOM     78  C   UNL A   1      46.203  26.430  26.489  1.00  0.00     0.031 A 
ATOM     79  C   UNL A   1      45.819  24.092  26.760  1.00  0.00     0.131 A 
ATOM     80  C   UNL A   1      46.908  26.146  25.301  1.00  0.00     0.055 A 
ATOM     81  C   UNL A   1      46.582  23.808  25.621  1.00  0.00     0.041 A 
ATOM     82  F   UNL A   1      45.214  23.019  27.283  1.00  0.00    -0.206 F 
ATOM     83  C   UNL A   1      47.128  24.838  24.880  1.00  0.00     0.022 A 
BRANCH  80  84
ATOM     84  S   UNL A   1      47.471  27.514  24.252  1.00  0.00     0.124 S 
ATOM     85  O   UNL A   1      48.513  28.118  25.075  1.00  0.00    -0.237 OA
ATOM     86  O   UNL A   1      47.913  26.823  23.046  1.00  0.00    -0.237 OA
ATOM     87  O   UNL A   1      46.268  28.331  24.087  1.00  0.00    -0.744 OA
ENDBRANCH  80  84
ENDBRANCH  63  77
BRANCH  64  88
ATOM     88  C   UNL A   1      40.155  30.038  33.839  1.00  0.00     0.023 A 
ATOM     89  C   UNL A   1      39.896  31.382  34.201  1.00  0.00     0.031 A 
ATOM     90  C   UNL A   1      39.083  29.268  33.376  1.00  0.00     0.131 A 
ATOM     91  C   UNL A   1      38.665  31.977  33.893  1.00  0.00     0.055 A 
ATOM     92  C   UNL A   1      37.823  29.844  33.153  1.00  0.00     0.041 A 
ATOM     93  F   UNL A   1      39.271  27.998  32.986  1.00  0.00    -0.206 F 
ATOM     94  C   UNL A   1      37.626  31.214  33.357  1.00  0.00     0.022 A 
BRANCH  91  95
ATOM     95  S   UNL A   1      38.538  33.797  33.903  1.00  0.00     0.124 S 
ATOM     96  O   UNL A   1      38.766  34.139  32.504  1.00  0.00    -0.237 OA
ATOM     97  O   UNL A   1      37.186  34.040  34.399  1.00  0.00    -0.237 OA
ATOM     98  O   UNL A   1      39.582  34.216  34.837  1.00  0.00    -0.744 OA
ENDBRANCH  91  95
ENDBRANCH  64  88
BRANCH  76  99
ATOM     99  C   UNL A   1      45.041  24.597  33.937  1.00  0.00     0.023 A 
ATOM    100  C   UNL A   1      46.363  24.272  34.279  1.00  0.00     0.031 A 
ATOM    101  C   UNL A   1      44.076  23.604  34.248  1.00  0.00     0.131 A 
ATOM    102  C   UNL A   1      46.695  23.007  34.808  1.00  0.00     0.055 A 
ATOM    103  C   UNL A   1      44.396  22.385  34.855  1.00  0.00     0.041 A 
ATOM    104  F   UNL A   1      42.773  23.778  33.979  1.00  0.00    -0.206 F 
ATOM    105  C   UNL A   1      45.717  22.070  35.122  1.00  0.00     0.022 A 
BRANCH 102 106
ATOM    106  S   UNL A   1      48.449  22.589  34.999  1.00  0.00     0.124 S 
ATOM    107  O   UNL A   1      48.454  21.162  34.682  1.00  0.00    -0.237 OA
ATOM    108  O   UNL A   1      49.088  23.458  34.015  1.00  0.00    -0.237 OA
ATOM    109  O   UNL A   1      48.734  22.914  36.394  1.00  0.00    -0.744 OA
ENDBRANCH 102 106
ENDBRANCH  76  99
ENDBRANCH  50  51
ENDBRANCH  42  45
ENDBRANCH  40  41
ENDBRANCH   1  40
TORSDOF 17
ENDMDL
MODEL 2
REMARK VINA RESULT:     -13.2      2.427      3.245
REMARK SMILES Cc1ccccc1C(=O)Nc1ccc(N2CCC(n3c(C)nc4cccnc43)CC2)c(C(=O)NCCCNC(=O)c2ccc(-c3c4nc(c(-c5cc(S(=O)(=O)[O-])ccc5F)c5ccc([nH]5)c(-c5cc(S(=O)(=O)[O-])ccc5F)c5nc(c(-c6cc(S(=O)(=O)[O-])ccc6F)c6ccc3[nH]6)C=C5)C=C4)cc2)c1
REMARK SMILES IDX 36 1 35 2 34 3 32 4 33 5 31 7 11 8 12 9 104 10 13 11 14 12
REMARK SMILES IDX 10 13 8 14 9 15 7 17 1 18 2 19 3 20 4 21 6 22 5 23 15 24
REMARK SMILES IDX 16 25 30 26 17 27 29 28 18 29 19 30 20 31 28 32 21 33 22 34
REMARK SMILES IDX 23 35 27 36 24 37 26 38 25 39 37 40 38 41 39 42 40 44 41 45
REMARK SMILES IDX 42 46 103 47 43 48 102 49 44 50 45 51 46 52 96 53 47 54
REMARK SMILES IDX 101 55 95 56 97 57 48 58 100 59 94 60 93 61 49 63 81 64
REMARK SMILES IDX 61 65 80 66 62 67 65 68 79 69 98 70 63 71 64 72 78 74 99 75
REMARK SMILES IDX 66 76 50 77 51 78 59 79 52 80 58 81 60 82 57 83 53 84 54 85
REMARK SMILES IDX 55 86 56 87 82 88 83 89 91 90 84 91 90 92 92 93 89 94 85 95
REMARK SMILES IDX 86 96 87 97 88 98 67 99 68 100 76 101 69 102 75 103 77 104
REMARK SMILES IDX 74 105 70 106 71 107 72 108 73 109
REMARK H PARENT 34 6 10 16 38 43 97 62 65 73
REMARK Flexibility Score: inf
ROOT
ATOM      1  C   UNL A   1      35.031  29.207  27.541  1.00  0.00     0.042 C 
ENDROOT
BRANCH   1   2
ATOM      2  C   UNL A   1      33.826  29.526  26.690  1.00  0.00     0.118 C 
BRANCH   2   3
ATOM      3  N   UNL A   1      32.638  28.786  27.053  1.00  0.00    -0.352 N 
ATOM      4  C   UNL A   1      31.763  27.925  26.461  1.00  0.00     0.253 C 
ATOM      5  O   UNL A   1      31.015  27.358  27.272  1.00  0.00    -0.269 OA
ATOM      6  H   UNL A   1      32.393  28.950  27.993  1.00  0.00     0.163 HD
BRANCH   4   7
ATOM      7  C   UNL A   1      31.542  27.628  24.998  1.00  0.00     0.065 A 
ATOM      8  C   UNL A   1      29.750  27.798  23.308  1.00  0.00     0.042 A 
ATOM      9  C   UNL A   1      30.581  27.279  22.338  1.00  0.00     0.028 A 
ATOM     10  C   UNL A   1      30.278  28.117  24.559  1.00  0.00     0.042 A 
ATOM     11  C   UNL A   1      31.852  26.855  22.712  1.00  0.00     0.029 A 
ATOM     12  C   UNL A   1      32.296  26.881  24.063  1.00  0.00     0.050 A 
BRANCH   8  13
ATOM     13  N   UNL A   1      28.360  27.880  23.155  1.00  0.00    -0.322 N 
ATOM     14  C   UNL A   1      27.559  29.001  23.044  1.00  0.00     0.255 C 
ATOM     15  O   UNL A   1      26.333  28.861  23.044  1.00  0.00    -0.269 OA
ATOM     16  H   UNL A   1      27.887  27.017  23.122  1.00  0.00     0.170 HD
BRANCH  14  17
ATOM     17  C   UNL A   1      28.104  30.385  22.870  1.00  0.00     0.043 A 
ATOM     18  C   UNL A   1      27.775  30.545  20.318  1.00  0.00     0.045 C 
ATOM     19  C   UNL A   1      28.239  31.070  21.645  1.00  0.00    -0.038 A 
ATOM     20  C   UNL A   1      28.824  32.353  21.638  1.00  0.00     0.004 A 
ATOM     21  C   UNL A   1      29.142  33.005  22.828  1.00  0.00     0.000 A 
ATOM     22  C   UNL A   1      28.389  31.075  24.063  1.00  0.00     0.014 A 
ATOM     23  C   UNL A   1      28.890  32.380  24.042  1.00  0.00     0.001 A 
ENDBRANCH  14  17
ENDBRANCH   8  13
BRANCH  12  24
ATOM     24  N   UNL A   1      33.295  25.947  24.348  1.00  0.00    -0.371 N 
ATOM     25  C   UNL A   1      34.118  25.460  23.251  1.00  0.00     0.118 C 
ATOM     26  C   UNL A   1      33.488  25.591  25.752  1.00  0.00     0.118 C 
ATOM     27  C   UNL A   1      34.956  24.240  23.583  1.00  0.00     0.047 C 
ATOM     28  C   UNL A   1      34.311  24.337  25.962  1.00  0.00     0.047 C 
ATOM     29  C   UNL A   1      35.503  24.186  25.021  1.00  0.00     0.094 C 
BRANCH  29  30
ATOM     30  N   UNL A   1      36.312  22.968  25.216  1.00  0.00    -0.310 N 
ATOM     31  C   UNL A   1      36.026  21.628  24.981  1.00  0.00     0.108 A 
ATOM     32  C   UNL A   1      37.600  23.000  25.721  1.00  0.00     0.160 A 
ATOM     33  C   UNL A   1      34.700  21.044  24.650  1.00  0.00     0.088 C 
ATOM     34  N   UNL A   1      37.102  20.871  25.131  1.00  0.00    -0.232 NA
ATOM     35  C   UNL A   1      38.055  21.693  25.653  1.00  0.00     0.108 A 
ATOM     36  N   UNL A   1      38.288  24.071  26.169  1.00  0.00    -0.237 NA
ATOM     37  C   UNL A   1      39.349  21.414  26.104  1.00  0.00     0.034 A 
ATOM     38  C   UNL A   1      39.504  23.741  26.664  1.00  0.00     0.113 A 
ATOM     39  C   UNL A   1      40.078  22.474  26.644  1.00  0.00     0.022 A 
ENDBRANCH  29  30
ENDBRANCH  12  24
ENDBRANCH   4   7
ENDBRANCH   2   3
ENDBRANCH   1   2
BRANCH   1  40
ATOM     40  C   UNL A   1      35.810  30.468  27.889  1.00  0.00     0.118 C 
BRANCH  40  41
ATOM     41  N   UNL A   1      35.246  31.743  27.430  1.00  0.00    -0.352 N 
ATOM     42  C   UNL A   1      35.392  33.008  28.005  1.00  0.00     0.251 C 
ATOM     43  H   UNL A   1      34.696  31.702  26.615  1.00  0.00     0.163 HD
ATOM     44  O   UNL A   1      34.940  34.026  27.527  1.00  0.00    -0.269 OA
BRANCH  42  45
ATOM     45  C   UNL A   1      36.258  33.117  29.196  1.00  0.00     0.039 A 
ATOM     46  C   UNL A   1      37.366  33.958  29.059  1.00  0.00     0.014 A 
ATOM     47  C   UNL A   1      36.223  32.093  30.129  1.00  0.00     0.014 A 
ATOM     48  C   UNL A   1      38.569  33.555  29.612  1.00  0.00     0.010 A 
ATOM     49  C   UNL A   1      37.442  31.622  30.567  1.00  0.00     0.010 A 
ATOM     50  C   UNL A   1      38.621  32.302  30.220  1.00  0.00    -0.014 A 
BRANCH  50  51
ATOM     51  C   UNL A   1      39.855  31.529  30.301  1.00  0.00     0.031 A 
ATOM     52  C   UNL A   1      39.913  30.160  29.755  1.00  0.00     0.074 A 
ATOM     53  C   UNL A   1      40.985  32.100  30.788  1.00  0.00     0.049 A 
ATOM     54  N   UNL A   1      40.822  29.307  30.078  1.00  0.00    -0.248 NA
ATOM     55  C   UNL A   1      38.909  29.601  28.852  1.00  0.00     0.031 C 
ATOM     56  C   UNL A   1      42.355  31.607  30.662  1.00  0.00     0.029 A 
ATOM     57  N   UNL A   1      41.085  33.143  31.712  1.00  0.00    -0.354 N 
ATOM     58  C   UNL A   1      40.747  28.274  29.180  1.00  0.00     0.074 A 
ATOM     59  C   UNL A   1      39.458  28.420  28.557  1.00  0.00     0.031 C 
ATOM     60  C   UNL A   1      43.104  32.136  31.639  1.00  0.00     0.029 A 
ATOM     61  C   UNL A   1      42.224  32.892  32.505  1.00  0.00     0.049 A 
ATOM     62  H   UNL A   1      40.475  33.912  31.793  1.00  0.00     0.167 HD
ATOM     63  C   UNL A   1      41.858  27.523  28.959  1.00  0.00     0.034 A 
ATOM     64  C   UNL A   1      42.119  32.739  33.858  1.00  0.00     0.034 A 
ATOM     65  C   UNL A   1      42.852  27.718  30.019  1.00  0.00     0.049 A 
ATOM     66  C   UNL A   1      42.490  31.350  34.339  1.00  0.00     0.074 A 
ATOM     67  C   UNL A   1      44.120  28.269  30.071  1.00  0.00     0.029 A 
ATOM     68  N   UNL A   1      42.466  27.514  31.344  1.00  0.00    -0.354 N 
ATOM     69  N   UNL A   1      42.808  30.361  33.547  1.00  0.00    -0.248 NA
ATOM     70  C   UNL A   1      42.506  30.948  35.744  1.00  0.00     0.031 C 
ATOM     71  C   UNL A   1      44.436  28.504  31.442  1.00  0.00     0.029 A 
ATOM     72  C   UNL A   1      43.389  28.043  32.223  1.00  0.00     0.049 A 
ATOM     73  H   UNL A   1      41.641  27.051  31.616  1.00  0.00     0.167 HD
ATOM     74  C   UNL A   1      42.960  29.206  34.272  1.00  0.00     0.074 A 
ATOM     75  C   UNL A   1      42.826  29.645  35.650  1.00  0.00     0.031 C 
ATOM     76  C   UNL A   1      43.136  27.991  33.664  1.00  0.00     0.034 A 
BRANCH  63  77
ATOM     77  C   UNL A   1      42.125  26.745  27.686  1.00  0.00     0.023 A 
ATOM     78  C   UNL A   1      42.722  25.470  27.775  1.00  0.00     0.031 A 
ATOM     79  C   UNL A   1      41.960  27.239  26.369  1.00  0.00     0.131 A 
ATOM     80  C   UNL A   1      43.109  24.759  26.621  1.00  0.00     0.055 A 
ATOM     81  C   UNL A   1      42.277  26.499  25.223  1.00  0.00     0.041 A 
ATOM     82  F   UNL A   1      41.559  28.489  26.109  1.00  0.00    -0.206 F 
ATOM     83  C   UNL A   1      42.860  25.253  25.344  1.00  0.00     0.022 A 
BRANCH  80  84
ATOM     84  S   UNL A   1      44.025  23.205  26.798  1.00  0.00     0.124 S 
ATOM     85  O   UNL A   1      44.005  22.684  25.436  1.00  0.00    -0.237 OA
ATOM     86  O   UNL A   1      45.317  23.658  27.302  1.00  0.00    -0.237 OA
ATOM     87  O   UNL A   1      43.222  22.446  27.758  1.00  0.00    -0.744 OA
ENDBRANCH  80  84
ENDBRANCH  63  77
BRANCH  64  88
ATOM     88  C   UNL A   1      41.115  33.674  34.444  1.00  0.00     0.023 A 
ATOM     89  C   UNL A   1      39.778  33.211  34.458  1.00  0.00     0.031 A 
ATOM     90  C   UNL A   1      41.468  34.680  35.351  1.00  0.00     0.131 A 
ATOM     91  C   UNL A   1      38.906  33.586  35.488  1.00  0.00     0.055 A 
ATOM     92  C   UNL A   1      40.562  35.121  36.328  1.00  0.00     0.041 A 
ATOM     93  F   UNL A   1      42.727  35.137  35.409  1.00  0.00    -0.206 F 
ATOM     94  C   UNL A   1      39.296  34.534  36.435  1.00  0.00     0.022 A 
BRANCH  91  95
ATOM     95  S   UNL A   1      37.392  32.604  35.763  1.00  0.00     0.124 S 
ATOM     96  O   UNL A   1      37.574  32.114  37.124  1.00  0.00    -0.237 OA
ATOM     97  O   UNL A   1      36.319  33.579  35.582  1.00  0.00    -0.237 OA
ATOM     98  O   UNL A   1      37.436  31.589  34.713  1.00  0.00    -0.744 OA
ENDBRANCH  91  95
ENDBRANCH  64  88
BRANCH  76  99
ATOM     99  C   UNL A   1      43.103  26.636  34.358  1.00  0.00     0.023 A 
ATOM    100  C   UNL A   1      44.246  25.878  34.653  1.00  0.00     0.031 A 
ATOM    101  C   UNL A   1      41.879  26.089  34.823  1.00  0.00     0.131 A 
ATOM    102  C   UNL A   1      44.151  24.621  35.286  1.00  0.00     0.055 A 
ATOM    103  C   UNL A   1      41.796  24.884  35.530  1.00  0.00     0.041 A 
ATOM    104  F   UNL A   1      40.706  26.705  34.615  1.00  0.00    -0.206 F 
ATOM    105  C   UNL A   1      42.936  24.130  35.750  1.00  0.00     0.022 A 
BRANCH 102 106
ATOM    106  S   UNL A   1      45.649  23.608  35.414  1.00  0.00     0.124 S 
ATOM    107  O   UNL A   1      46.384  24.291  36.476  1.00  0.00    -0.237 OA
ATOM    108  O   UNL A   1      45.112  22.296  35.760  1.00  0.00    -0.237 OA
ATOM    109  O   UNL A   1      46.249  23.704  34.086  1.00  0.00    -0.744 OA
ENDBRANCH 102 106
ENDBRANCH  76  99
ENDBRANCH  50  51
ENDBRANCH  42  45
ENDBRANCH  40  41
ENDBRANCH   1  40
TORSDOF 17
ENDMDL
MODEL 3
REMARK VINA RESULT:     -12.7      5.652     10.182
REMARK SMILES Cc1ccccc1C(=O)Nc1ccc(N2CCC(n3c(C)nc4cccnc43)CC2)c(C(=O)NCCCNC(=O)c2ccc(-c3c4nc(c(-c5cc(S(=O)(=O)[O-])ccc5F)c5ccc([nH]5)c(-c5cc(S(=O)(=O)[O-])ccc5F)c5nc(c(-c6cc(S(=O)(=O)[O-])ccc6F)c6ccc3[nH]6)C=C5)C=C4)cc2)c1
REMARK SMILES IDX 36 1 35 2 34 3 32 4 33 5 31 7 11 8 12 9 104 10 13 11 14 12
REMARK SMILES IDX 10 13 8 14 9 15 7 17 1 18 2 19 3 20 4 21 6 22 5 23 15 24
REMARK SMILES IDX 16 25 30 26 17 27 29 28 18 29 19 30 20 31 28 32 21 33 22 34
REMARK SMILES IDX 23 35 27 36 24 37 26 38 25 39 37 40 38 41 39 42 40 44 41 45
REMARK SMILES IDX 42 46 103 47 43 48 102 49 44 50 45 51 46 52 96 53 47 54
REMARK SMILES IDX 101 55 95 56 97 57 48 58 100 59 94 60 93 61 49 63 81 64
REMARK SMILES IDX 61 65 80 66 62 67 65 68 79 69 98 70 63 71 64 72 78 74 99 75
REMARK SMILES IDX 66 76 50 77 51 78 59 79 52 80 58 81 60 82 57 83 53 84 54 85
REMARK SMILES IDX 55 86 56 87 82 88 83 89 91 90 84 91 90 92 92 93 89 94 85 95
REMARK SMILES IDX 86 96 87 97 88 98 67 99 68 100 76 101 69 102 75 103 77 104
REMARK SMILES IDX 74 105 70 106 71 107 72 108 73 109
REMARK H PARENT 34 6 10 16 38 43 97 62 65 73
REMARK Flexibility Score: inf
ROOT
ATOM      1  C   UNL A   1      35.093  29.793  27.628  1.00  0.00     0.042 C 
ENDROOT
BRANCH   1   2
ATOM      2  C   UNL A   1      34.001  29.723  26.588  1.00  0.00     0.118 C 
BRANCH   2   3
ATOM      3  N   UNL A   1      32.837  28.975  27.010  1.00  0.00    -0.352 N 
ATOM      4  C   UNL A   1      31.954  28.091  26.467  1.00  0.00     0.253 C 
ATOM      5  O   UNL A   1      31.243  27.531  27.317  1.00  0.00    -0.269 OA
ATOM      6  H   UNL A   1      32.624  29.156  27.954  1.00  0.00     0.163 HD
BRANCH   4   7
ATOM      7  C   UNL A   1      31.684  27.760  25.020  1.00  0.00     0.065 A 
ATOM      8  C   UNL A   1      29.847  27.916  23.379  1.00  0.00     0.042 A 
ATOM      9  C   UNL A   1      30.640  27.358  22.400  1.00  0.00     0.028 A 
ATOM     10  C   UNL A   1      30.416  28.259  24.605  1.00  0.00     0.042 A 
ATOM     11  C   UNL A   1      31.914  26.923  22.747  1.00  0.00     0.029 A 
ATOM     12  C   UNL A   1      32.399  26.976  24.084  1.00  0.00     0.050 A 
BRANCH   8  13
ATOM     13  N   UNL A   1      28.454  28.017  23.265  1.00  0.00    -0.322 N 
ATOM     14  C   UNL A   1      27.666  29.150  23.169  1.00  0.00     0.255 C 
ATOM     15  O   UNL A   1      26.439  29.027  23.204  1.00  0.00    -0.269 OA
ATOM     16  H   UNL A   1      27.967  27.161  23.251  1.00  0.00     0.170 HD
BRANCH  14  17
ATOM     17  C   UNL A   1      28.227  30.524  22.970  1.00  0.00     0.043 A 
ATOM     18  C   UNL A   1      27.790  30.689  20.434  1.00  0.00     0.045 C 
ATOM     19  C   UNL A   1      28.320  31.207  21.740  1.00  0.00    -0.038 A 
ATOM     20  C   UNL A   1      28.925  32.479  21.707  1.00  0.00     0.004 A 
ATOM     21  C   UNL A   1      29.305  33.126  22.881  1.00  0.00     0.000 A 
ATOM     22  C   UNL A   1      28.574  31.210  24.149  1.00  0.00     0.014 A 
ATOM     23  C   UNL A   1      29.095  32.506  24.105  1.00  0.00     0.001 A 
ENDBRANCH  14  17
ENDBRANCH   8  13
BRANCH  12  24
ATOM     24  N   UNL A   1      33.391  26.033  24.363  1.00  0.00    -0.371 N 
ATOM     25  C   UNL A   1      34.133  25.461  23.251  1.00  0.00     0.118 C 
ATOM     26  C   UNL A   1      33.660  25.754  25.772  1.00  0.00     0.118 C 
ATOM     27  C   UNL A   1      34.961  24.239  23.604  1.00  0.00     0.047 C 
ATOM     28  C   UNL A   1      34.465  24.492  26.007  1.00  0.00     0.047 C 
ATOM     29  C   UNL A   1      35.592  24.254  25.007  1.00  0.00     0.094 C 
BRANCH  29  30
ATOM     30  N   UNL A   1      36.383  23.027  25.226  1.00  0.00    -0.310 N 
ATOM     31  C   UNL A   1      36.083  21.689  25.000  1.00  0.00     0.108 A 
ATOM     32  C   UNL A   1      37.664  23.048  25.750  1.00  0.00     0.160 A 
ATOM     33  C   UNL A   1      34.754  21.120  24.656  1.00  0.00     0.088 C 
ATOM     34  N   UNL A   1      37.146  20.920  25.173  1.00  0.00    -0.232 NA
ATOM     35  C   UNL A   1      38.102  21.735  25.701  1.00  0.00     0.108 A 
ATOM     36  N   UNL A   1      38.359  24.114  26.197  1.00  0.00    -0.237 NA
ATOM     37  C   UNL A   1      39.386  21.443  26.174  1.00  0.00     0.034 A 
ATOM     38  C   UNL A   1      39.563  23.773  26.713  1.00  0.00     0.113 A 
ATOM     39  C   UNL A   1      40.120  22.499  26.714  1.00  0.00     0.022 A 
ENDBRANCH  29  30
ENDBRANCH  12  24
ENDBRANCH   4   7
ENDBRANCH   2   3
ENDBRANCH   1   2
BRANCH   1  40
ATOM     40  C   UNL A   1      35.709  31.185  27.689  1.00  0.00     0.118 C 
BRANCH  40  41
ATOM     41  N   UNL A   1      35.181  32.098  28.709  1.00  0.00    -0.352 N 
ATOM     42  C   UNL A   1      35.878  33.044  29.465  1.00  0.00     0.251 C 
ATOM     43  H   UNL A   1      34.214  32.037  28.883  1.00  0.00     0.163 HD
ATOM     44  O   UNL A   1      35.354  33.805  30.249  1.00  0.00    -0.269 OA
BRANCH  42  45
ATOM     45  C   UNL A   1      37.320  33.204  29.190  1.00  0.00     0.039 A 
ATOM     46  C   UNL A   1      38.123  32.115  29.543  1.00  0.00     0.014 A 
ATOM     47  C   UNL A   1      37.829  34.488  29.079  1.00  0.00     0.014 A 
ATOM     48  C   UNL A   1      39.355  32.369  30.123  1.00  0.00     0.010 A 
ATOM     49  C   UNL A   1      38.991  34.749  29.773  1.00  0.00     0.010 A 
ATOM     50  C   UNL A   1      39.696  33.695  30.379  1.00  0.00    -0.014 A 
BRANCH  50  51
ATOM     51  C   UNL A   1      40.609  34.069  31.453  1.00  0.00     0.031 A 
ATOM     52  C   UNL A   1      40.082  34.499  32.762  1.00  0.00     0.074 A 
ATOM     53  C   UNL A   1      41.948  33.927  31.288  1.00  0.00     0.049 A 
ATOM     54  N   UNL A   1      40.778  35.153  33.625  1.00  0.00    -0.248 NA
ATOM     55  C   UNL A   1      38.699  34.296  33.188  1.00  0.00     0.031 C 
ATOM     56  C   UNL A   1      42.978  33.947  32.324  1.00  0.00     0.029 A 
ATOM     57  N   UNL A   1      42.671  33.969  30.093  1.00  0.00    -0.354 N 
ATOM     58  C   UNL A   1      40.091  35.122  34.810  1.00  0.00     0.074 A 
ATOM     59  C   UNL A   1      38.753  34.732  34.450  1.00  0.00     0.031 C 
ATOM     60  C   UNL A   1      44.156  34.262  31.767  1.00  0.00     0.029 A 
ATOM     61  C   UNL A   1      43.912  34.576  30.375  1.00  0.00     0.049 A 
ATOM     62  H   UNL A   1      42.369  33.636  29.217  1.00  0.00     0.167 HD
ATOM     63  C   UNL A   1      40.786  35.267  35.969  1.00  0.00     0.034 A 
ATOM     64  C   UNL A   1      44.293  35.724  29.743  1.00  0.00     0.034 A 
ATOM     65  C   UNL A   1      42.122  35.820  35.723  1.00  0.00     0.049 A 
ATOM     66  C   UNL A   1      44.429  36.911  30.676  1.00  0.00     0.074 A 
ATOM     67  C   UNL A   1      43.412  35.337  35.858  1.00  0.00     0.029 A 
ATOM     68  N   UNL A   1      42.231  37.017  35.017  1.00  0.00    -0.354 N 
ATOM     69  N   UNL A   1      44.141  36.878  31.950  1.00  0.00    -0.248 NA
ATOM     70  C   UNL A   1      44.870  38.238  30.253  1.00  0.00     0.031 C 
ATOM     71  C   UNL A   1      44.277  36.198  35.120  1.00  0.00     0.029 A 
ATOM     72  C   UNL A   1      43.525  37.232  34.588  1.00  0.00     0.049 A 
ATOM     73  H   UNL A   1      41.479  37.632  34.847  1.00  0.00     0.167 HD
ATOM     74  C   UNL A   1      44.241  38.136  32.489  1.00  0.00     0.074 A 
ATOM     75  C   UNL A   1      44.766  38.938  31.397  1.00  0.00     0.031 C 
ATOM     76  C   UNL A   1      43.836  38.406  33.770  1.00  0.00     0.034 A 
BRANCH  63  77
ATOM     77  C   UNL A   1      40.327  34.740  37.314  1.00  0.00     0.023 A 
ATOM     78  C   UNL A   1      39.386  33.689  37.352  1.00  0.00     0.031 A 
ATOM     79  C   UNL A   1      40.650  35.301  38.573  1.00  0.00     0.131 A 
ATOM     80  C   UNL A   1      38.831  33.246  38.570  1.00  0.00     0.055 A 
ATOM     81  C   UNL A   1      40.153  34.811  39.786  1.00  0.00     0.041 A 
ATOM     82  F   UNL A   1      41.398  36.403  38.704  1.00  0.00    -0.206 F 
ATOM     83  C   UNL A   1      39.233  33.780  39.791  1.00  0.00     0.022 A 
BRANCH  80  84
ATOM     84  S   UNL A   1      37.502  32.013  38.546  1.00  0.00     0.124 S 
ATOM     85  O   UNL A   1      37.706  31.323  39.815  1.00  0.00    -0.237 OA
ATOM     86  O   UNL A   1      36.307  32.841  38.440  1.00  0.00    -0.237 OA
ATOM     87  O   UNL A   1      37.804  31.213  37.358  1.00  0.00    -0.744 OA
ENDBRANCH  80  84
ENDBRANCH  63  77
BRANCH  64  88
ATOM     88  C   UNL A   1      43.882  35.729  28.309  1.00  0.00     0.023 A 
ATOM     89  C   UNL A   1      44.610  34.863  27.458  1.00  0.00     0.031 A 
ATOM     90  C   UNL A   1      42.608  36.133  27.895  1.00  0.00     0.131 A 
ATOM     91  C   UNL A   1      43.988  34.258  26.358  1.00  0.00     0.055 A 
ATOM     92  C   UNL A   1      42.019  35.594  26.740  1.00  0.00     0.041 A 
ATOM     93  F   UNL A   1      41.856  36.926  28.672  1.00  0.00    -0.206 F 
ATOM     94  C   UNL A   1      42.686  34.612  26.000  1.00  0.00     0.022 A 
BRANCH  91  95
ATOM     95  S   UNL A   1      44.769  32.795  25.597  1.00  0.00     0.124 S 
ATOM     96  O   UNL A   1      44.403  32.934  24.192  1.00  0.00    -0.237 OA
ATOM     97  O   UNL A   1      46.186  32.972  25.900  1.00  0.00    -0.237 OA
ATOM     98  O   UNL A   1      44.162  31.667  26.301  1.00  0.00    -0.744 OA
ENDBRANCH  91  95
ENDBRANCH  64  88
BRANCH  76  99
ATOM     99  C   UNL A   1      43.706  39.790  34.388  1.00  0.00     0.023 A 
ATOM    100  C   UNL A   1      44.327  40.177  35.586  1.00  0.00     0.031 A 
ATOM    101  C   UNL A   1      42.985  40.817  33.724  1.00  0.00     0.131 A 
ATOM    102  C   UNL A   1      44.157  41.472  36.117  1.00  0.00     0.055 A 
ATOM    103  C   UNL A   1      42.892  42.126  34.208  1.00  0.00     0.041 A 
ATOM    104  F   UNL A   1      42.342  40.593  32.568  1.00  0.00    -0.206 F 
ATOM    105  C   UNL A   1      43.464  42.459  35.424  1.00  0.00     0.022 A 
BRANCH 102 106
ATOM    106  S   UNL A   1      44.798  41.811  37.779  1.00  0.00     0.124 S 
ATOM    107  O   UNL A   1      44.953  43.263  37.751  1.00  0.00    -0.237 OA
ATOM    108  O   UNL A   1      43.731  41.304  38.636  1.00  0.00    -0.237 OA
ATOM    109  O   UNL A   1      46.048  41.056  37.830  1.00  0.00    -0.744 OA
ENDBRANCH 102 106
ENDBRANCH  76  99
ENDBRANCH  50  51
ENDBRANCH  42  45
ENDBRANCH  40  41
ENDBRANCH   1  40
TORSDOF 17
ENDMDL
