MODEL 1
REMARK VINA RESULT:     -12.2      0.000      0.000
REMARK SMILES Cn1nc(N2CCC(CC(=O)NCCCNC(=O)c3ccc(-c4c5nc(c(-c6cc(S(=O)(=O)[O-])ccc6F)c6ccc([nH]6)c(-c6cc(S(=O)(=O)[O-])ccc6F)c6nc(c(-c7cc(S(=O)(=O)[O-])ccc7F)c7ccc4[nH]7)C=C6)C=C5)cc3)CC2)c(=O)n(C)c1=O
REMARK SMILES IDX 14 1 13 2 12 3 10 4 11 5 9 7 8 8 5 9 6 10 83 11 7 12 82 13
REMARK SMILES IDX 4 14 1 15 2 16 3 17 88 18 86 19 89 20 84 21 87 22 85 23
REMARK SMILES IDX 15 24 16 25 17 26 18 28 19 29 20 30 81 31 21 32 80 33 22 34
REMARK SMILES IDX 23 35 24 36 74 37 25 38 79 39 73 40 75 41 26 42 78 43 72 44
REMARK SMILES IDX 71 45 27 47 59 48 39 49 58 50 40 51 43 52 57 53 76 54 41 55
REMARK SMILES IDX 42 56 56 58 77 59 44 60 28 61 29 62 37 63 30 64 36 65 38 66
REMARK SMILES IDX 35 67 31 68 32 69 33 70 34 71 60 72 61 73 69 74 62 75 68 76
REMARK SMILES IDX 70 77 67 78 63 79 64 80 65 81 66 82 45 83 46 84 54 85 47 86
REMARK SMILES IDX 53 87 55 88 52 89 48 90 49 91 50 92 51 93
REMARK H PARENT 12 6 16 27 75 46 43 57
REMARK Flexibility Score: inf
ROOT
ATOM      1  C   UNL A   1      31.389  31.937  26.501  1.00  0.00     0.042 C 
ENDROOT
BRANCH   1   2
ATOM      2  C   UNL A   1      31.529  30.536  25.898  1.00  0.00     0.117 C 
BRANCH   2   3
ATOM      3  N   UNL A   1      30.846  30.396  24.617  1.00  0.00    -0.356 N 
ATOM      4  C   UNL A   1      30.500  29.293  23.892  1.00  0.00     0.220 C 
ATOM      5  O   UNL A   1      29.903  29.462  22.827  1.00  0.00    -0.275 OA
ATOM      6  H   UNL A   1      30.588  31.250  24.200  1.00  0.00     0.163 HD
BRANCH   4   7
ATOM      7  C   UNL A   1      30.847  27.893  24.368  1.00  0.00     0.103 C 
BRANCH   7   8
ATOM      8  C   UNL A   1      32.306  27.485  24.077  1.00  0.00     0.002 C 
ATOM      9  N   UNL A   1      34.082  25.230  24.102  1.00  0.00    -0.351 N 
ATOM     10  C   UNL A   1      34.285  26.222  25.133  1.00  0.00     0.118 C 
ATOM     11  C   UNL A   1      33.704  25.747  22.803  1.00  0.00     0.118 C 
ATOM     12  C   UNL A   1      32.974  26.951  25.352  1.00  0.00     0.025 C 
ATOM     13  C   UNL A   1      32.345  26.443  22.937  1.00  0.00     0.025 C 
BRANCH   9  14
ATOM     14  C   UNL A   1      34.300  23.888  24.344  1.00  0.00     0.215 A 
ATOM     15  C   UNL A   1      37.029  21.559  24.441  1.00  0.00     0.180 C 
ATOM     16  N   UNL A   1      35.655  22.034  24.491  1.00  0.00    -0.216 N 
ATOM     17  N   UNL A   1      35.496  23.378  24.268  1.00  0.00    -0.145 NA
ATOM     18  C   UNL A   1      34.616  21.128  24.701  1.00  0.00     0.346 A 
ATOM     19  N   UNL A   1      33.340  21.656  24.710  1.00  0.00    -0.259 N 
ATOM     20  O   UNL A   1      34.827  19.929  24.893  1.00  0.00    -0.246 OA
ATOM     21  C   UNL A   1      33.093  23.008  24.662  1.00  0.00     0.299 A 
ATOM     22  C   UNL A   1      32.197  20.780  24.853  1.00  0.00     0.159 C 
ATOM     23  O   UNL A   1      32.004  23.539  24.850  1.00  0.00    -0.265 OA
ENDBRANCH   9  14
ENDBRANCH   7   8
ENDBRANCH   4   7
ENDBRANCH   2   3
ENDBRANCH   1   2
BRANCH   1  24
ATOM     24  C   UNL A   1      32.637  32.444  27.215  1.00  0.00     0.118 C 
BRANCH  24  25
ATOM     25  N   UNL A   1      32.543  33.864  27.497  1.00  0.00    -0.352 N 
ATOM     26  C   UNL A   1      33.110  34.596  28.513  1.00  0.00     0.251 C 
ATOM     27  H   UNL A   1      31.991  34.380  26.867  1.00  0.00     0.163 HD
ATOM     28  O   UNL A   1      32.660  35.715  28.750  1.00  0.00    -0.269 OA
BRANCH  26  29
ATOM     29  C   UNL A   1      34.236  34.065  29.325  1.00  0.00     0.039 A 
ATOM     30  C   UNL A   1      35.546  34.372  28.939  1.00  0.00     0.014 A 
ATOM     31  C   UNL A   1      34.028  33.195  30.401  1.00  0.00     0.014 A 
ATOM     32  C   UNL A   1      36.632  33.836  29.639  1.00  0.00     0.010 A 
ATOM     33  C   UNL A   1      35.112  32.718  31.144  1.00  0.00     0.010 A 
ATOM     34  C   UNL A   1      36.428  33.014  30.758  1.00  0.00    -0.014 A 
BRANCH  34  35
ATOM     35  C   UNL A   1      37.576  32.407  31.488  1.00  0.00     0.031 A 
ATOM     36  C   UNL A   1      38.368  31.294  30.851  1.00  0.00     0.074 A 
ATOM     37  C   UNL A   1      37.905  32.844  32.720  1.00  0.00     0.049 A 
ATOM     38  N   UNL A   1      39.360  30.596  31.344  1.00  0.00    -0.248 NA
ATOM     39  C   UNL A   1      37.984  30.903  29.485  1.00  0.00     0.031 C 
ATOM     40  C   UNL A   1      37.219  33.912  33.450  1.00  0.00     0.029 A 
ATOM     41  N   UNL A   1      38.905  32.449  33.576  1.00  0.00    -0.354 N 
ATOM     42  C   UNL A   1      39.713  29.683  30.356  1.00  0.00     0.074 A 
ATOM     43  C   UNL A   1      38.795  29.880  29.255  1.00  0.00     0.031 C 
ATOM     44  C   UNL A   1      37.840  34.111  34.625  1.00  0.00     0.029 A 
ATOM     45  C   UNL A   1      38.940  33.158  34.754  1.00  0.00     0.049 A 
ATOM     46  H   UNL A   1      39.538  31.724  33.364  1.00  0.00     0.167 HD
ATOM     47  C   UNL A   1      40.724  28.781  30.353  1.00  0.00     0.034 A 
ATOM     48  C   UNL A   1      39.761  33.053  35.819  1.00  0.00     0.034 A 
ATOM     49  C   UNL A   1      41.655  28.606  31.438  1.00  0.00     0.049 A 
ATOM     50  C   UNL A   1      40.851  32.013  35.810  1.00  0.00     0.074 A 
ATOM     51  C   UNL A   1      42.731  27.737  31.517  1.00  0.00     0.029 A 
ATOM     52  N   UNL A   1      41.629  29.317  32.629  1.00  0.00    -0.354 N 
ATOM     53  N   UNL A   1      41.155  31.148  34.870  1.00  0.00    -0.248 NA
ATOM     54  C   UNL A   1      41.704  31.931  37.004  1.00  0.00     0.031 C 
ATOM     55  C   UNL A   1      43.325  27.889  32.774  1.00  0.00     0.029 A 
ATOM     56  C   UNL A   1      42.657  28.893  33.455  1.00  0.00     0.049 A 
ATOM     57  H   UNL A   1      40.977  30.020  32.853  1.00  0.00     0.167 HD
ATOM     58  C   UNL A   1      42.248  30.435  35.354  1.00  0.00     0.074 A 
ATOM     59  C   UNL A   1      42.555  30.973  36.663  1.00  0.00     0.031 C 
ATOM     60  C   UNL A   1      42.940  29.429  34.764  1.00  0.00     0.034 A 
BRANCH  47  61
ATOM     61  C   UNL A   1      40.873  27.903  29.137  1.00  0.00     0.023 A 
ATOM     62  C   UNL A   1      41.873  28.144  28.181  1.00  0.00     0.031 A 
ATOM     63  C   UNL A   1      40.023  26.801  28.946  1.00  0.00     0.131 A 
ATOM     64  C   UNL A   1      41.970  27.319  27.050  1.00  0.00     0.055 A 
ATOM     65  C   UNL A   1      40.164  25.947  27.851  1.00  0.00     0.041 A 
ATOM     66  F   UNL A   1      39.041  26.536  29.822  1.00  0.00    -0.206 F 
ATOM     67  C   UNL A   1      41.138  26.208  26.891  1.00  0.00     0.022 A 
BRANCH  64  68
ATOM     68  S   UNL A   1      43.154  27.760  25.750  1.00  0.00     0.124 S 
ATOM     69  O   UNL A   1      42.261  28.128  24.654  1.00  0.00    -0.237 OA
ATOM     70  O   UNL A   1      43.903  28.853  26.358  1.00  0.00    -0.237 OA
ATOM     71  O   UNL A   1      43.910  26.526  25.544  1.00  0.00    -0.744 OA
ENDBRANCH  64  68
ENDBRANCH  47  61
BRANCH  48  72
ATOM     72  C   UNL A   1      39.583  33.951  36.994  1.00  0.00     0.023 A 
ATOM     73  C   UNL A   1      39.006  33.475  38.182  1.00  0.00     0.031 A 
ATOM     74  C   UNL A   1      39.969  35.302  36.939  1.00  0.00     0.131 A 
ATOM     75  C   UNL A   1      38.804  34.351  39.260  1.00  0.00     0.055 A 
ATOM     76  C   UNL A   1      39.802  36.159  38.027  1.00  0.00     0.041 A 
ATOM     77  F   UNL A   1      40.531  35.802  35.828  1.00  0.00    -0.206 F 
ATOM     78  C   UNL A   1      39.208  35.687  39.194  1.00  0.00     0.022 A 
BRANCH  75  79
ATOM     79  S   UNL A   1      37.962  33.730  40.741  1.00  0.00     0.124 S 
ATOM     80  O   UNL A   1      37.773  34.955  41.509  1.00  0.00    -0.237 OA
ATOM     81  O   UNL A   1      36.757  33.131  40.178  1.00  0.00    -0.237 OA
ATOM     82  O   UNL A   1      38.921  32.781  41.303  1.00  0.00    -0.744 OA
ENDBRANCH  75  79
ENDBRANCH  48  72
BRANCH  60  83
ATOM     83  C   UNL A   1      44.111  28.858  35.517  1.00  0.00     0.023 A 
ATOM     84  C   UNL A   1      43.962  27.760  36.379  1.00  0.00     0.031 A 
ATOM     85  C   UNL A   1      45.399  29.394  35.335  1.00  0.00     0.131 A 
ATOM     86  C   UNL A   1      45.080  27.247  37.052  1.00  0.00     0.055 A 
ATOM     87  C   UNL A   1      46.514  28.852  35.973  1.00  0.00     0.041 A 
ATOM     88  F   UNL A   1      45.592  30.441  34.517  1.00  0.00    -0.206 F 
ATOM     89  C   UNL A   1      46.357  27.775  36.842  1.00  0.00     0.022 A 
BRANCH  86  90
ATOM     90  S   UNL A   1      44.842  25.890  38.231  1.00  0.00     0.124 S 
ATOM     91  O   UNL A   1      46.209  25.419  38.430  1.00  0.00    -0.237 OA
ATOM     92  O   UNL A   1      44.228  26.564  39.370  1.00  0.00    -0.237 OA
ATOM     93  O   UNL A   1      43.965  24.964  37.517  1.00  0.00    -0.744 OA
ENDBRANCH  86  90
ENDBRANCH  60  83
ENDBRANCH  34  35
ENDBRANCH  26  29
ENDBRANCH  24  25
ENDBRANCH   1  24
TORSDOF 15
ENDMDL
MODEL 2
REMARK VINA RESULT:     -12.2      2.188      7.744
REMARK SMILES Cn1nc(N2CCC(CC(=O)NCCCNC(=O)c3ccc(-c4c5nc(c(-c6cc(S(=O)(=O)[O-])ccc6F)c6ccc([nH]6)c(-c6cc(S(=O)(=O)[O-])ccc6F)c6nc(c(-c7cc(S(=O)(=O)[O-])ccc7F)c7ccc4[nH]7)C=C6)C=C5)cc3)CC2)c(=O)n(C)c1=O
REMARK SMILES IDX 14 1 13 2 12 3 10 4 11 5 9 7 8 8 5 9 6 10 83 11 7 12 82 13
REMARK SMILES IDX 4 14 1 15 2 16 3 17 88 18 86 19 89 20 84 21 87 22 85 23
REMARK SMILES IDX 15 24 16 25 17 26 18 28 19 29 20 30 81 31 21 32 80 33 22 34
REMARK SMILES IDX 23 35 24 36 74 37 25 38 79 39 73 40 75 41 26 42 78 43 72 44
REMARK SMILES IDX 71 45 27 47 59 48 39 49 58 50 40 51 43 52 57 53 76 54 41 55
REMARK SMILES IDX 42 56 56 58 77 59 44 60 28 61 29 62 37 63 30 64 36 65 38 66
REMARK SMILES IDX 35 67 31 68 32 69 33 70 34 71 60 72 61 73 69 74 62 75 68 76
REMARK SMILES IDX 70 77 67 78 63 79 64 80 65 81 66 82 45 83 46 84 54 85 47 86
REMARK SMILES IDX 53 87 55 88 52 89 48 90 49 91 50 92 51 93
REMARK H PARENT 12 6 16 27 75 46 43 57
REMARK Flexibility Score: inf
ROOT
ATOM      1  C   UNL A   1      31.033  31.405  25.724  1.00  0.00     0.042 C 
ENDROOT
BRANCH   1   2
ATOM      2  C   UNL A   1      31.274  30.046  25.060  1.00  0.00     0.117 C 
BRANCH   2   3
ATOM      3  N   UNL A   1      30.552  29.889  23.803  1.00  0.00    -0.356 N 
ATOM      4  C   UNL A   1      30.636  28.943  22.823  1.00  0.00     0.220 C 
ATOM      5  O   UNL A   1      29.883  29.043  21.853  1.00  0.00    -0.275 OA
ATOM      6  H   UNL A   1      29.884  30.591  23.629  1.00  0.00     0.163 HD
BRANCH   4   7
ATOM      7  C   UNL A   1      31.635  27.802  22.909  1.00  0.00     0.103 C 
BRANCH   7   8
ATOM      8  C   UNL A   1      31.092  26.560  23.648  1.00  0.00     0.002 C 
ATOM      9  N   UNL A   1      31.854  23.948  24.564  1.00  0.00    -0.351 N 
ATOM     10  C   UNL A   1      30.954  23.999  23.434  1.00  0.00     0.118 C 
ATOM     11  C   UNL A   1      31.638  24.958  25.579  1.00  0.00     0.118 C 
ATOM     12  C   UNL A   1      31.148  25.330  22.734  1.00  0.00     0.025 C 
ATOM     13  C   UNL A   1      31.887  26.335  24.954  1.00  0.00     0.025 C 
BRANCH   9  14
ATOM     14  C   UNL A   1      32.809  22.958  24.677  1.00  0.00     0.215 A 
ATOM     15  C   UNL A   1      36.322  22.503  24.100  1.00  0.00     0.180 C 
ATOM     16  N   UNL A   1      34.953  22.154  24.445  1.00  0.00    -0.216 N 
ATOM     17  N   UNL A   1      34.047  23.179  24.339  1.00  0.00    -0.145 NA
ATOM     18  C   UNL A   1      34.640  20.842  24.797  1.00  0.00     0.346 A 
ATOM     19  N   UNL A   1      33.314  20.588  25.087  1.00  0.00    -0.259 N 
ATOM     20  O   UNL A   1      35.503  19.964  24.871  1.00  0.00    -0.246 OA
ATOM     21  C   UNL A   1      32.367  21.583  25.170  1.00  0.00     0.299 A 
ATOM     22  C   UNL A   1      32.887  19.241  25.396  1.00  0.00     0.159 C 
ATOM     23  O   UNL A   1      31.225  21.443  25.598  1.00  0.00    -0.265 OA
ENDBRANCH   9  14
ENDBRANCH   7   8
ENDBRANCH   4   7
ENDBRANCH   2   3
ENDBRANCH   1   2
BRANCH   1  24
ATOM     24  C   UNL A   1      31.969  31.715  26.887  1.00  0.00     0.118 C 
BRANCH  24  25
ATOM     25  N   UNL A   1      32.153  33.144  27.049  1.00  0.00    -0.352 N 
ATOM     26  C   UNL A   1      33.060  33.829  27.823  1.00  0.00     0.251 C 
ATOM     27  H   UNL A   1      31.537  33.707  26.528  1.00  0.00     0.163 HD
ATOM     28  O   UNL A   1      32.849  35.018  28.057  1.00  0.00    -0.269 OA
BRANCH  26  29
ATOM     29  C   UNL A   1      34.269  33.169  28.381  1.00  0.00     0.039 A 
ATOM     30  C   UNL A   1      34.145  31.880  28.912  1.00  0.00     0.014 A 
ATOM     31  C   UNL A   1      35.497  33.831  28.477  1.00  0.00     0.014 A 
ATOM     32  C   UNL A   1      35.245  31.253  29.506  1.00  0.00     0.010 A 
ATOM     33  C   UNL A   1      36.614  33.177  29.006  1.00  0.00     0.010 A 
ATOM     34  C   UNL A   1      36.496  31.889  29.548  1.00  0.00    -0.014 A 
BRANCH  34  35
ATOM     35  C   UNL A   1      37.664  31.247  30.211  1.00  0.00     0.031 A 
ATOM     36  C   UNL A   1      38.015  31.608  31.633  1.00  0.00     0.074 A 
ATOM     37  C   UNL A   1      38.416  30.348  29.544  1.00  0.00     0.049 A 
ATOM     38  N   UNL A   1      39.025  31.209  32.364  1.00  0.00    -0.248 NA
ATOM     39  C   UNL A   1      37.121  32.558  32.316  1.00  0.00     0.031 C 
ATOM     40  C   UNL A   1      38.187  29.911  28.166  1.00  0.00     0.029 A 
ATOM     41  N   UNL A   1      39.522  29.634  29.937  1.00  0.00    -0.354 N 
ATOM     42  C   UNL A   1      38.892  31.860  33.586  1.00  0.00     0.074 A 
ATOM     43  C   UNL A   1      37.734  32.721  33.480  1.00  0.00     0.031 C 
ATOM     44  C   UNL A   1      39.099  28.980  27.842  1.00  0.00     0.029 A 
ATOM     45  C   UNL A   1      40.005  28.783  28.970  1.00  0.00     0.049 A 
ATOM     46  H   UNL A   1      39.931  29.724  30.828  1.00  0.00     0.167 HD
ATOM     47  C   UNL A   1      39.648  31.734  34.703  1.00  0.00     0.034 A 
ATOM     48  C   UNL A   1      41.059  27.942  28.987  1.00  0.00     0.034 A 
ATOM     49  C   UNL A   1      40.782  30.854  34.818  1.00  0.00     0.049 A 
ATOM     50  C   UNL A   1      41.910  27.851  30.227  1.00  0.00     0.074 A 
ATOM     51  C   UNL A   1      41.594  30.636  35.918  1.00  0.00     0.029 A 
ATOM     52  N   UNL A   1      41.261  30.041  33.802  1.00  0.00    -0.354 N 
ATOM     53  N   UNL A   1      41.776  28.489  31.366  1.00  0.00    -0.248 NA
ATOM     54  C   UNL A   1      43.056  26.932  30.183  1.00  0.00     0.031 C 
ATOM     55  C   UNL A   1      42.592  29.727  35.552  1.00  0.00     0.029 A 
ATOM     56  C   UNL A   1      42.369  29.335  34.243  1.00  0.00     0.049 A 
ATOM     57  H   UNL A   1      40.871  29.974  32.899  1.00  0.00     0.167 HD
ATOM     58  C   UNL A   1      42.808  28.032  32.179  1.00  0.00     0.074 A 
ATOM     59  C   UNL A   1      43.553  27.060  31.406  1.00  0.00     0.031 C 
ATOM     60  C   UNL A   1      43.109  28.381  33.455  1.00  0.00     0.034 A 
BRANCH  47  61
ATOM     61  C   UNL A   1      39.276  32.576  35.897  1.00  0.00     0.023 A 
ATOM     62  C   UNL A   1      39.718  33.903  36.022  1.00  0.00     0.031 A 
ATOM     63  C   UNL A   1      38.450  32.053  36.907  1.00  0.00     0.131 A 
ATOM     64  C   UNL A   1      39.369  34.650  37.157  1.00  0.00     0.055 A 
ATOM     65  C   UNL A   1      38.055  32.822  38.003  1.00  0.00     0.041 A 
ATOM     66  F   UNL A   1      38.013  30.785  36.843  1.00  0.00    -0.206 F 
ATOM     67  C   UNL A   1      38.520  34.127  38.136  1.00  0.00     0.022 A 
BRANCH  64  68
ATOM     68  S   UNL A   1      40.098  36.296  37.373  1.00  0.00     0.124 S 
ATOM     69  O   UNL A   1      41.458  35.960  37.791  1.00  0.00    -0.237 OA
ATOM     70  O   UNL A   1      39.965  36.881  36.045  1.00  0.00    -0.237 OA
ATOM     71  O   UNL A   1      39.266  36.905  38.408  1.00  0.00    -0.744 OA
ENDBRANCH  64  68
ENDBRANCH  47  61
BRANCH  48  72
ATOM     72  C   UNL A   1      41.382  27.119  27.788  1.00  0.00     0.023 A 
ATOM     73  C   UNL A   1      41.112  25.742  27.766  1.00  0.00     0.031 A 
ATOM     74  C   UNL A   1      41.984  27.695  26.655  1.00  0.00     0.131 A 
ATOM     75  C   UNL A   1      41.470  24.978  26.644  1.00  0.00     0.055 A 
ATOM     76  C   UNL A   1      42.302  26.939  25.526  1.00  0.00     0.041 A 
ATOM     77  F   UNL A   1      42.256  29.009  26.625  1.00  0.00    -0.206 F 
ATOM     78  C   UNL A   1      42.053  25.570  25.520  1.00  0.00     0.022 A 
BRANCH  75  79
ATOM     79  S   UNL A   1      41.201  23.185  26.690  1.00  0.00     0.124 S 
ATOM     80  O   UNL A   1      42.057  22.730  25.600  1.00  0.00    -0.237 OA
ATOM     81  O   UNL A   1      41.642  22.846  28.038  1.00  0.00    -0.237 OA
ATOM     82  O   UNL A   1      39.765  23.051  26.455  1.00  0.00    -0.744 OA
ENDBRANCH  75  79
ENDBRANCH  48  72
BRANCH  60  83
ATOM     83  C   UNL A   1      44.279  27.692  34.104  1.00  0.00     0.023 A 
ATOM     84  C   UNL A   1      44.120  26.494  34.818  1.00  0.00     0.031 A 
ATOM     85  C   UNL A   1      45.575  28.223  33.970  1.00  0.00     0.131 A 
ATOM     86  C   UNL A   1      45.237  25.875  35.396  1.00  0.00     0.055 A 
ATOM     87  C   UNL A   1      46.688  27.579  34.511  1.00  0.00     0.041 A 
ATOM     88  F   UNL A   1      45.778  29.364  33.293  1.00  0.00    -0.206 F 
ATOM     89  C   UNL A   1      46.522  26.401  35.233  1.00  0.00     0.022 A 
BRANCH  86  90
ATOM     90  S   UNL A   1      44.988  24.380  36.393  1.00  0.00     0.124 S 
ATOM     91  O   UNL A   1      44.676  24.939  37.704  1.00  0.00    -0.237 OA
ATOM     92  O   UNL A   1      43.885  23.720  35.703  1.00  0.00    -0.237 OA
ATOM     93  O   UNL A   1      46.273  23.690  36.302  1.00  0.00    -0.744 OA
ENDBRANCH  86  90
ENDBRANCH  60  83
ENDBRANCH  34  35
ENDBRANCH  26  29
ENDBRANCH  24  25
ENDBRANCH   1  24
TORSDOF 15
ENDMDL
MODEL 3
REMARK VINA RESULT:     -12.1      5.693     12.029
REMARK SMILES Cn1nc(N2CCC(CC(=O)NCCCNC(=O)c3ccc(-c4c5nc(c(-c6cc(S(=O)(=O)[O-])ccc6F)c6ccc([nH]6)c(-c6cc(S(=O)(=O)[O-])ccc6F)c6nc(c(-c7cc(S(=O)(=O)[O-])ccc7F)c7ccc4[nH]7)C=C6)C=C5)cc3)CC2)c(=O)n(C)c1=O
REMARK SMILES IDX 14 1 13 2 12 3 10 4 11 5 9 7 8 8 5 9 6 10 83 11 7 12 82 13
REMARK SMILES IDX 4 14 1 15 2 16 3 17 88 18 86 19 89 20 84 21 87 22 85 23
REMARK SMILES IDX 15 24 16 25 17 26 18 28 19 29 20 30 81 31 21 32 80 33 22 34
REMARK SMILES IDX 23 35 24 36 74 37 25 38 79 39 73 40 75 41 26 42 78 43 72 44
REMARK SMILES IDX 71 45 27 47 59 48 39 49 58 50 40 51 43 52 57 53 76 54 41 55
REMARK SMILES IDX 42 56 56 58 77 59 44 60 28 61 29 62 37 63 30 64 36 65 38 66
REMARK SMILES IDX 35 67 31 68 32 69 33 70 34 71 60 72 61 73 69 74 62 75 68 76
REMARK SMILES IDX 70 77 67 78 63 79 64 80 65 81 66 82 45 83 46 84 54 85 47 86
REMARK SMILES IDX 53 87 55 88 52 89 48 90 49 91 50 92 51 93
REMARK H PARENT 12 6 16 27 75 46 43 57
REMARK Flexibility Score: inf
ROOT
ATOM      1  C   UNL A   1      38.040  19.361  25.112  1.00  0.00     0.042 C 
ENDROOT
BRANCH   1   2
ATOM      2  C   UNL A   1      36.834  20.296  24.987  1.00  0.00     0.117 C 
BRANCH   2   3
ATOM      3  N   UNL A   1      35.571  19.582  24.842  1.00  0.00    -0.356 N 
ATOM      4  C   UNL A   1      34.276  20.005  24.931  1.00  0.00     0.220 C 
ATOM      5  O   UNL A   1      33.381  19.178  24.746  1.00  0.00    -0.275 OA
ATOM      6  H   UNL A   1      35.668  18.622  24.645  1.00  0.00     0.163 HD
BRANCH   4   7
ATOM      7  C   UNL A   1      33.937  21.449  25.260  1.00  0.00     0.103 C 
BRANCH   7   8
ATOM      8  C   UNL A   1      33.216  22.190  24.114  1.00  0.00     0.002 C 
ATOM      9  N   UNL A   1      32.048  24.721  23.428  1.00  0.00    -0.351 N 
ATOM     10  C   UNL A   1      31.131  23.627  23.653  1.00  0.00     0.118 C 
ATOM     11  C   UNL A   1      33.284  24.371  22.760  1.00  0.00     0.118 C 
ATOM     12  C   UNL A   1      31.812  22.618  24.558  1.00  0.00     0.025 C 
ATOM     13  C   UNL A   1      34.061  23.400  23.656  1.00  0.00     0.025 C 
BRANCH   9  14
ATOM     14  C   UNL A   1      31.721  26.015  23.778  1.00  0.00     0.215 A 
ATOM     15  C   UNL A   1      29.993  28.842  22.398  1.00  0.00     0.180 C 
ATOM     16  N   UNL A   1      30.782  28.072  23.346  1.00  0.00    -0.216 N 
ATOM     17  N   UNL A   1      31.059  26.784  22.962  1.00  0.00    -0.145 NA
ATOM     18  C   UNL A   1      31.240  28.674  24.518  1.00  0.00     0.346 A 
ATOM     19  N   UNL A   1      32.003  27.881  25.353  1.00  0.00    -0.259 N 
ATOM     20  O   UNL A   1      30.957  29.839  24.804  1.00  0.00    -0.246 OA
ATOM     21  C   UNL A   1      32.192  26.536  25.133  1.00  0.00     0.299 A 
ATOM     22  C   UNL A   1      32.576  28.442  26.556  1.00  0.00     0.159 C 
ATOM     23  O   UNL A   1      32.701  25.752  25.928  1.00  0.00    -0.265 OA
ENDBRANCH   9  14
ENDBRANCH   7   8
ENDBRANCH   4   7
ENDBRANCH   2   3
ENDBRANCH   1   2
BRANCH   1  24
ATOM     24  C   UNL A   1      39.291  20.017  25.684  1.00  0.00     0.118 C 
BRANCH  24  25
ATOM     25  N   UNL A   1      40.316  19.034  25.978  1.00  0.00    -0.352 N 
ATOM     26  C   UNL A   1      41.673  19.198  26.125  1.00  0.00     0.251 C 
ATOM     27  H   UNL A   1      39.990  18.111  26.088  1.00  0.00     0.163 HD
ATOM     28  O   UNL A   1      42.393  18.202  26.064  1.00  0.00    -0.269 OA
BRANCH  26  29
ATOM     29  C   UNL A   1      42.280  20.536  26.345  1.00  0.00     0.039 A 
ATOM     30  C   UNL A   1      42.322  21.048  27.647  1.00  0.00     0.014 A 
ATOM     31  C   UNL A   1      42.720  21.334  25.284  1.00  0.00     0.014 A 
ATOM     32  C   UNL A   1      42.825  22.332  27.885  1.00  0.00     0.010 A 
ATOM     33  C   UNL A   1      43.288  22.587  25.531  1.00  0.00     0.010 A 
ATOM     34  C   UNL A   1      43.327  23.111  26.831  1.00  0.00    -0.014 A 
BRANCH  34  35
ATOM     35  C   UNL A   1      43.829  24.493  27.066  1.00  0.00     0.031 A 
ATOM     36  C   UNL A   1      42.893  25.555  27.586  1.00  0.00     0.074 A 
ATOM     37  C   UNL A   1      45.116  24.802  26.810  1.00  0.00     0.049 A 
ATOM     38  N   UNL A   1      43.120  26.827  27.798  1.00  0.00    -0.248 NA
ATOM     39  C   UNL A   1      41.516  25.135  27.891  1.00  0.00     0.031 C 
ATOM     40  C   UNL A   1      46.124  23.869  26.304  1.00  0.00     0.029 A 
ATOM     41  N   UNL A   1      45.800  25.985  26.946  1.00  0.00    -0.354 N 
ATOM     42  C   UNL A   1      41.918  27.358  28.253  1.00  0.00     0.074 A 
ATOM     43  C   UNL A   1      40.950  26.283  28.237  1.00  0.00     0.031 C 
ATOM     44  C   UNL A   1      47.304  24.505  26.207  1.00  0.00     0.029 A 
ATOM     45  C   UNL A   1      47.130  25.900  26.602  1.00  0.00     0.049 A 
ATOM     46  H   UNL A   1      45.378  26.817  27.262  1.00  0.00     0.167 HD
ATOM     47  C   UNL A   1      41.649  28.619  28.671  1.00  0.00     0.034 A 
ATOM     48  C   UNL A   1      48.099  26.839  26.600  1.00  0.00     0.034 A 
ATOM     49  C   UNL A   1      42.621  29.681  28.716  1.00  0.00     0.049 A 
ATOM     50  C   UNL A   1      47.765  28.244  27.029  1.00  0.00     0.074 A 
ATOM     51  C   UNL A   1      42.452  30.985  29.151  1.00  0.00     0.029 A 
ATOM     52  N   UNL A   1      43.945  29.563  28.319  1.00  0.00    -0.354 N 
ATOM     53  N   UNL A   1      46.616  28.728  27.440  1.00  0.00    -0.248 NA
ATOM     54  C   UNL A   1      48.854  29.229  26.989  1.00  0.00     0.031 C 
ATOM     55  C   UNL A   1      43.660  31.667  28.972  1.00  0.00     0.029 A 
ATOM     56  C   UNL A   1      44.597  30.774  28.481  1.00  0.00     0.049 A 
ATOM     57  H   UNL A   1      44.360  28.738  27.974  1.00  0.00     0.167 HD
ATOM     58  C   UNL A   1      46.853  30.069  27.728  1.00  0.00     0.074 A 
ATOM     59  C   UNL A   1      48.252  30.317  27.450  1.00  0.00     0.031 C 
ATOM     60  C   UNL A   1      45.990  31.009  28.186  1.00  0.00     0.034 A 
BRANCH  47  61
ATOM     61  C   UNL A   1      40.241  28.923  29.112  1.00  0.00     0.023 A 
ATOM     62  C   UNL A   1      39.869  28.864  30.465  1.00  0.00     0.031 A 
ATOM     63  C   UNL A   1      39.267  29.300  28.171  1.00  0.00     0.131 A 
ATOM     64  C   UNL A   1      38.543  29.134  30.836  1.00  0.00     0.055 A 
ATOM     65  C   UNL A   1      37.965  29.627  28.554  1.00  0.00     0.041 A 
ATOM     66  F   UNL A   1      39.566  29.357  26.864  1.00  0.00    -0.206 F 
ATOM     67  C   UNL A   1      37.595  29.539  29.893  1.00  0.00     0.022 A 
BRANCH  64  68
ATOM     68  S   UNL A   1      38.054  28.878  32.563  1.00  0.00     0.124 S 
ATOM     69  O   UNL A   1      36.692  29.409  32.563  1.00  0.00    -0.237 OA
ATOM     70  O   UNL A   1      38.175  27.434  32.719  1.00  0.00    -0.237 OA
ATOM     71  O   UNL A   1      39.026  29.670  33.314  1.00  0.00    -0.744 OA
ENDBRANCH  64  68
ENDBRANCH  47  61
BRANCH  48  72
ATOM     72  C   UNL A   1      49.481  26.489  26.168  1.00  0.00     0.023 A 
ATOM     73  C   UNL A   1      49.981  26.927  24.932  1.00  0.00     0.031 A 
ATOM     74  C   UNL A   1      50.313  25.695  26.977  1.00  0.00     0.131 A 
ATOM     75  C   UNL A   1      51.268  26.544  24.525  1.00  0.00     0.055 A 
ATOM     76  C   UNL A   1      51.607  25.350  26.585  1.00  0.00     0.041 A 
ATOM     77  F   UNL A   1      49.882  25.257  28.170  1.00  0.00    -0.206 F 
ATOM     78  C   UNL A   1      52.089  25.768  25.348  1.00  0.00     0.022 A 
BRANCH  75  79
ATOM     79  S   UNL A   1      51.844  27.041  22.879  1.00  0.00     0.124 S 
ATOM     80  O   UNL A   1      52.332  28.392  23.131  1.00  0.00    -0.237 OA
ATOM     81  O   UNL A   1      52.859  26.033  22.594  1.00  0.00    -0.237 OA
ATOM     82  O   UNL A   1      50.638  26.955  22.057  1.00  0.00    -0.744 OA
ENDBRANCH  75  79
ENDBRANCH  48  72
BRANCH  60  83
ATOM     83  C   UNL A   1      46.537  32.388  28.439  1.00  0.00     0.023 A 
ATOM     84  C   UNL A   1      46.670  33.325  27.402  1.00  0.00     0.031 A 
ATOM     85  C   UNL A   1      46.888  32.780  29.744  1.00  0.00     0.131 A 
ATOM     86  C   UNL A   1      47.170  34.604  27.681  1.00  0.00     0.055 A 
ATOM     87  C   UNL A   1      47.344  34.069  30.022  1.00  0.00     0.041 A 
ATOM     88  F   UNL A   1      46.775  31.920  30.768  1.00  0.00    -0.206 F 
ATOM     89  C   UNL A   1      47.492  34.988  28.986  1.00  0.00     0.022 A 
BRANCH  86  90
ATOM     90  S   UNL A   1      47.420  35.762  26.307  1.00  0.00     0.124 S 
ATOM     91  O   UNL A   1      48.666  36.420  26.691  1.00  0.00    -0.237 OA
ATOM     92  O   UNL A   1      47.499  34.872  25.154  1.00  0.00    -0.237 OA
ATOM     93  O   UNL A   1      46.231  36.610  26.352  1.00  0.00    -0.744 OA
ENDBRANCH  86  90
ENDBRANCH  60  83
ENDBRANCH  34  35
ENDBRANCH  26  29
ENDBRANCH  24  25
ENDBRANCH   1  24
TORSDOF 15
ENDMDL
