MODEL 1
REMARK VINA RESULT:     -12.7      0.000      0.000
REMARK SMILES CC(C)(C)OC(=O)N1CCC(c2c(C(=O)NCCCNC(=O)c3ccc(-c4c5nc(c(-c6cc(S(=O)(=O)[O-])ccc6F)c6ccc([nH]6)c(-c6cc(S(=O)(=O)[O-])ccc6F)c6nc(c(-c7cc(S(=O)(=O)[O-])ccc7F)c7ccc4[nH]7)C=C6)C=C5)cc3)cnn2-c2ccccc2)CC1
REMARK SMILES IDX 18 1 17 2 16 3 14 4 15 5 13 7 12 8 88 9 86 10 87 11 11 12
REMARK SMILES IDX 6 13 7 14 8 15 9 16 96 17 10 18 95 19 5 20 2 21 1 22 3 23
REMARK SMILES IDX 4 24 89 25 90 26 94 27 91 28 93 29 92 30 19 31 20 32 21 33
REMARK SMILES IDX 22 35 23 36 24 37 85 38 25 39 84 40 26 41 27 42 28 43 78 44
REMARK SMILES IDX 29 45 83 46 77 47 79 48 30 49 82 50 76 51 75 52 31 54 63 55
REMARK SMILES IDX 43 56 62 57 44 58 47 59 61 60 80 61 45 62 46 63 60 65 81 66
REMARK SMILES IDX 48 67 32 68 33 69 41 70 34 71 40 72 42 73 39 74 35 75 36 76
REMARK SMILES IDX 37 77 38 78 64 79 65 80 73 81 66 82 72 83 74 84 71 85 67 86
REMARK SMILES IDX 68 87 69 88 70 89 49 90 50 91 58 92 51 93 57 94 59 95 56 96
REMARK SMILES IDX 52 97 53 98 54 99 55 100
REMARK H PARENT 16 6 20 34 79 53 47 64
REMARK Flexibility Score: inf
ROOT
ATOM      1  C   UNL A   1      32.110  29.520  27.189  1.00  0.00     0.042 C 
ENDROOT
BRANCH   1   2
ATOM      2  C   UNL A   1      31.773  28.187  27.868  1.00  0.00     0.118 C 
BRANCH   2   3
ATOM      3  N   UNL A   1      30.974  27.305  27.035  1.00  0.00    -0.352 N 
ATOM      4  C   UNL A   1      31.299  26.269  26.196  1.00  0.00     0.254 C 
ATOM      5  O   UNL A   1      30.361  25.558  25.835  1.00  0.00    -0.269 OA
ATOM      6  H   UNL A   1      30.007  27.487  27.082  1.00  0.00     0.163 HD
BRANCH   4   7
ATOM      7  C   UNL A   1      32.676  26.004  25.774  1.00  0.00     0.081 A 
ATOM      8  C   UNL A   1      33.279  24.734  25.630  1.00  0.00     0.060 A 
ATOM      9  N   UNL A   1      34.605  24.997  25.297  1.00  0.00    -0.237 N 
ATOM     10  C   UNL A   1      33.690  26.897  25.380  1.00  0.00     0.149 A 
ATOM     11  N   UNL A   1      34.867  26.316  25.206  1.00  0.00    -0.175 NA
BRANCH   8  12
ATOM     12  C   UNL A   1      32.620  23.361  25.834  1.00  0.00     0.043 C 
ATOM     13  C   UNL A   1      32.497  19.522  24.464  1.00  0.00     0.410 C 
ATOM     14  O   UNL A   1      32.462  19.576  23.251  1.00  0.00    -0.224 OA
ATOM     15  N   UNL A   1      32.101  20.570  25.277  1.00  0.00    -0.308 N 
ATOM     16  C   UNL A   1      31.233  21.588  24.719  1.00  0.00     0.124 C 
ATOM     17  C   UNL A   1      32.691  20.887  26.570  1.00  0.00     0.124 C 
ATOM     18  C   UNL A   1      32.017  22.871  24.500  1.00  0.00     0.032 C 
ATOM     19  C   UNL A   1      33.456  22.221  26.463  1.00  0.00     0.032 C 
BRANCH  13  20
ATOM     20  O   UNL A   1      32.841  18.413  25.179  1.00  0.00    -0.444 OA
BRANCH  20  21
ATOM     21  C   UNL A   1      33.723  17.430  24.568  1.00  0.00     0.106 C 
ATOM     22  C   UNL A   1      33.608  16.180  25.454  1.00  0.00     0.056 C 
ATOM     23  C   UNL A   1      35.172  17.926  24.594  1.00  0.00     0.056 C 
ATOM     24  C   UNL A   1      33.289  17.025  23.148  1.00  0.00     0.056 C 
ENDBRANCH  20  21
ENDBRANCH  13  20
ENDBRANCH   8  12
BRANCH   9  25
ATOM     25  C   UNL A   1      35.682  24.126  25.072  1.00  0.00     0.065 A 
ATOM     26  C   UNL A   1      36.677  24.024  26.051  1.00  0.00     0.028 A 
ATOM     27  C   UNL A   1      35.778  23.430  23.866  1.00  0.00     0.028 A 
ATOM     28  C   UNL A   1      37.727  23.130  25.861  1.00  0.00     0.002 A 
ATOM     29  C   UNL A   1      36.834  22.539  23.685  1.00  0.00     0.002 A 
ATOM     30  C   UNL A   1      37.796  22.377  24.686  1.00  0.00     0.000 A 
ENDBRANCH   9  25
ENDBRANCH   4   7
ENDBRANCH   2   3
ENDBRANCH   1   2
BRANCH   1  31
ATOM     31  C   UNL A   1      33.590  29.843  27.322  1.00  0.00     0.118 C 
BRANCH  31  32
ATOM     32  N   UNL A   1      33.832  31.173  27.918  1.00  0.00    -0.352 N 
ATOM     33  C   UNL A   1      34.852  31.601  28.761  1.00  0.00     0.251 C 
ATOM     34  H   UNL A   1      33.170  31.863  27.681  1.00  0.00     0.163 HD
ATOM     35  O   UNL A   1      34.733  32.639  29.402  1.00  0.00    -0.269 OA
BRANCH  33  36
ATOM     36  C   UNL A   1      36.072  30.783  28.859  1.00  0.00     0.039 A 
ATOM     37  C   UNL A   1      36.335  29.638  28.097  1.00  0.00     0.014 A 
ATOM     38  C   UNL A   1      37.028  31.267  29.726  1.00  0.00     0.014 A 
ATOM     39  C   UNL A   1      37.582  29.024  28.246  1.00  0.00     0.010 A 
ATOM     40  C   UNL A   1      38.320  30.962  29.479  1.00  0.00     0.010 A 
ATOM     41  C   UNL A   1      38.561  29.703  28.975  1.00  0.00    -0.014 A 
BRANCH  41  42
ATOM     42  C   UNL A   1      39.900  29.225  29.268  1.00  0.00     0.031 A 
ATOM     43  C   UNL A   1      40.146  28.999  30.708  1.00  0.00     0.074 A 
ATOM     44  C   UNL A   1      40.660  28.687  28.281  1.00  0.00     0.049 A 
ATOM     45  N   UNL A   1      40.918  29.682  31.481  1.00  0.00    -0.248 NA
ATOM     46  C   UNL A   1      39.285  28.045  31.431  1.00  0.00     0.031 C 
ATOM     47  C   UNL A   1      40.357  28.538  26.847  1.00  0.00     0.029 A 
ATOM     48  N   UNL A   1      41.835  28.018  28.386  1.00  0.00    -0.354 N 
ATOM     49  C   UNL A   1      40.830  29.084  32.732  1.00  0.00     0.074 A 
ATOM     50  C   UNL A   1      39.638  28.284  32.696  1.00  0.00     0.031 C 
ATOM     51  C   UNL A   1      41.198  27.634  26.291  1.00  0.00     0.029 A 
ATOM     52  C   UNL A   1      42.188  27.245  27.279  1.00  0.00     0.049 A 
ATOM     53  H   UNL A   1      42.402  28.074  29.189  1.00  0.00     0.167 HD
ATOM     54  C   UNL A   1      41.882  29.101  33.597  1.00  0.00     0.034 A 
ATOM     55  C   UNL A   1      43.188  26.318  27.223  1.00  0.00     0.034 A 
ATOM     56  C   UNL A   1      42.919  29.987  33.108  1.00  0.00     0.049 A 
ATOM     57  C   UNL A   1      44.118  26.665  28.340  1.00  0.00     0.074 A 
ATOM     58  C   UNL A   1      42.967  31.337  32.823  1.00  0.00     0.029 A 
ATOM     59  N   UNL A   1      43.963  29.417  32.405  1.00  0.00    -0.354 N 
ATOM     60  N   UNL A   1      44.774  27.797  28.384  1.00  0.00    -0.248 NA
ATOM     61  C   UNL A   1      43.877  26.051  29.641  1.00  0.00     0.031 C 
ATOM     62  C   UNL A   1      43.670  31.417  31.584  1.00  0.00     0.029 A 
ATOM     63  C   UNL A   1      44.124  30.139  31.244  1.00  0.00     0.049 A 
ATOM     64  H   UNL A   1      44.495  28.638  32.684  1.00  0.00     0.167 HD
ATOM     65  C   UNL A   1      44.646  28.249  29.692  1.00  0.00     0.074 A 
ATOM     66  C   UNL A   1      44.150  27.090  30.441  1.00  0.00     0.031 C 
ATOM     67  C   UNL A   1      44.627  29.585  29.994  1.00  0.00     0.034 A 
BRANCH  54  68
ATOM     68  C   UNL A   1      42.157  28.100  34.695  1.00  0.00     0.023 A 
ATOM     69  C   UNL A   1      42.892  26.952  34.340  1.00  0.00     0.031 A 
ATOM     70  C   UNL A   1      41.551  28.068  35.969  1.00  0.00     0.131 A 
ATOM     71  C   UNL A   1      42.920  25.822  35.172  1.00  0.00     0.055 A 
ATOM     72  C   UNL A   1      41.638  26.966  36.825  1.00  0.00     0.041 A 
ATOM     73  F   UNL A   1      40.767  29.049  36.427  1.00  0.00    -0.206 F 
ATOM     74  C   UNL A   1      42.297  25.820  36.417  1.00  0.00     0.022 A 
BRANCH  71  75
ATOM     75  S   UNL A   1      43.638  24.292  34.520  1.00  0.00     0.124 S 
ATOM     76  O   UNL A   1      42.533  23.353  34.677  1.00  0.00    -0.237 OA
ATOM     77  O   UNL A   1      43.969  24.677  33.152  1.00  0.00    -0.237 OA
ATOM     78  O   UNL A   1      44.783  24.057  35.396  1.00  0.00    -0.744 OA
ENDBRANCH  71  75
ENDBRANCH  54  68
BRANCH  55  79
ATOM     79  C   UNL A   1      43.129  24.984  26.535  1.00  0.00     0.023 A 
ATOM     80  C   UNL A   1      44.148  24.465  25.701  1.00  0.00     0.031 A 
ATOM     81  C   UNL A   1      42.095  24.078  26.881  1.00  0.00     0.131 A 
ATOM     82  C   UNL A   1      44.094  23.117  25.247  1.00  0.00     0.055 A 
ATOM     83  C   UNL A   1      42.046  22.755  26.432  1.00  0.00     0.041 A 
ATOM     84  F   UNL A   1      41.126  24.425  27.744  1.00  0.00    -0.206 F 
ATOM     85  C   UNL A   1      43.050  22.266  25.616  1.00  0.00     0.022 A 
BRANCH  82  86
ATOM     86  S   UNL A   1      45.428  22.407  24.216  1.00  0.00     0.124 S 
ATOM     87  O   UNL A   1      44.681  21.732  23.161  1.00  0.00    -0.237 OA
ATOM     88  O   UNL A   1      46.183  23.591  23.821  1.00  0.00    -0.237 OA
ATOM     89  O   UNL A   1      46.134  21.512  25.134  1.00  0.00    -0.744 OA
ENDBRANCH  82  86
ENDBRANCH  55  79
BRANCH  67  90
ATOM     90  C   UNL A   1      44.947  30.596  28.898  1.00  0.00     0.023 A 
ATOM     91  C   UNL A   1      46.248  31.009  28.518  1.00  0.00     0.031 A 
ATOM     92  C   UNL A   1      43.877  31.014  28.088  1.00  0.00     0.131 A 
ATOM     93  C   UNL A   1      46.432  31.806  27.366  1.00  0.00     0.055 A 
ATOM     94  C   UNL A   1      44.066  31.777  26.935  1.00  0.00     0.041 A 
ATOM     95  F   UNL A   1      42.620  30.637  28.375  1.00  0.00    -0.206 F 
ATOM     96  C   UNL A   1      45.345  32.178  26.572  1.00  0.00     0.022 A 
BRANCH  93  97
ATOM     97  S   UNL A   1      48.094  32.388  26.882  1.00  0.00     0.124 S 
ATOM     98  O   UNL A   1      48.599  33.017  28.096  1.00  0.00    -0.237 OA
ATOM     99  O   UNL A   1      48.759  31.155  26.474  1.00  0.00    -0.237 OA
ATOM    100  O   UNL A   1      47.820  33.319  25.784  1.00  0.00    -0.744 OA
ENDBRANCH  93  97
ENDBRANCH  67  90
ENDBRANCH  41  42
ENDBRANCH  33  36
ENDBRANCH  31  32
ENDBRANCH   1  31
TORSDOF 17
ENDMDL
MODEL 2
REMARK VINA RESULT:     -12.7      3.429      7.616
REMARK SMILES CC(C)(C)OC(=O)N1CCC(c2c(C(=O)NCCCNC(=O)c3ccc(-c4c5nc(c(-c6cc(S(=O)(=O)[O-])ccc6F)c6ccc([nH]6)c(-c6cc(S(=O)(=O)[O-])ccc6F)c6nc(c(-c7cc(S(=O)(=O)[O-])ccc7F)c7ccc4[nH]7)C=C6)C=C5)cc3)cnn2-c2ccccc2)CC1
REMARK SMILES IDX 18 1 17 2 16 3 14 4 15 5 13 7 12 8 88 9 86 10 87 11 11 12
REMARK SMILES IDX 6 13 7 14 8 15 9 16 96 17 10 18 95 19 5 20 2 21 1 22 3 23
REMARK SMILES IDX 4 24 89 25 90 26 94 27 91 28 93 29 92 30 19 31 20 32 21 33
REMARK SMILES IDX 22 35 23 36 24 37 85 38 25 39 84 40 26 41 27 42 28 43 78 44
REMARK SMILES IDX 29 45 83 46 77 47 79 48 30 49 82 50 76 51 75 52 31 54 63 55
REMARK SMILES IDX 43 56 62 57 44 58 47 59 61 60 80 61 45 62 46 63 60 65 81 66
REMARK SMILES IDX 48 67 32 68 33 69 41 70 34 71 40 72 42 73 39 74 35 75 36 76
REMARK SMILES IDX 37 77 38 78 64 79 65 80 73 81 66 82 72 83 74 84 71 85 67 86
REMARK SMILES IDX 68 87 69 88 70 89 49 90 50 91 58 92 51 93 57 94 59 95 56 96
REMARK SMILES IDX 52 97 53 98 54 99 55 100
REMARK H PARENT 16 6 20 34 79 53 47 64
REMARK Flexibility Score: inf
ROOT
ATOM      1  C   UNL A   1      32.580  29.769  25.327  1.00  0.00     0.042 C 
ENDROOT
BRANCH   1   2
ATOM      2  C   UNL A   1      31.468  28.977  24.629  1.00  0.00     0.118 C 
BRANCH   2   3
ATOM      3  N   UNL A   1      30.913  27.918  25.455  1.00  0.00    -0.352 N 
ATOM      4  C   UNL A   1      31.476  26.836  26.083  1.00  0.00     0.254 C 
ATOM      5  O   UNL A   1      30.768  26.275  26.919  1.00  0.00    -0.269 OA
ATOM      6  H   UNL A   1      29.940  27.991  25.589  1.00  0.00     0.163 HD
BRANCH   4   7
ATOM      7  C   UNL A   1      32.842  26.388  25.802  1.00  0.00     0.081 A 
ATOM      8  C   UNL A   1      33.238  25.081  25.440  1.00  0.00     0.060 A 
ATOM      9  N   UNL A   1      34.627  25.129  25.364  1.00  0.00    -0.237 N 
ATOM     10  C   UNL A   1      34.046  27.116  25.777  1.00  0.00     0.149 A 
ATOM     11  N   UNL A   1      35.121  26.355  25.630  1.00  0.00    -0.175 NA
BRANCH   8  12
ATOM     12  C   UNL A   1      32.330  23.861  25.216  1.00  0.00     0.043 C 
ATOM     13  C   UNL A   1      32.091  20.212  23.410  1.00  0.00     0.410 C 
ATOM     14  O   UNL A   1      32.525  20.342  22.283  1.00  0.00    -0.224 OA
ATOM     15  N   UNL A   1      31.600  21.270  24.156  1.00  0.00    -0.308 N 
ATOM     16  C   UNL A   1      31.190  22.473  23.459  1.00  0.00     0.124 C 
ATOM     17  C   UNL A   1      31.704  21.386  25.603  1.00  0.00     0.124 C 
ATOM     18  C   UNL A   1      32.201  23.581  23.703  1.00  0.00     0.032 C 
ATOM     19  C   UNL A   1      32.665  22.540  25.950  1.00  0.00     0.032 C 
BRANCH  13  20
ATOM     20  O   UNL A   1      31.950  19.017  24.051  1.00  0.00    -0.444 OA
BRANCH  20  21
ATOM     21  C   UNL A   1      33.145  18.272  24.418  1.00  0.00     0.106 C 
ATOM     22  C   UNL A   1      33.445  17.371  23.209  1.00  0.00     0.056 C 
ATOM     23  C   UNL A   1      32.869  17.390  25.639  1.00  0.00     0.056 C 
ATOM     24  C   UNL A   1      34.377  19.170  24.635  1.00  0.00     0.056 C 
ENDBRANCH  20  21
ENDBRANCH  13  20
ENDBRANCH   8  12
BRANCH   9  25
ATOM     25  C   UNL A   1      35.565  24.123  25.086  1.00  0.00     0.065 A 
ATOM     26  C   UNL A   1      35.647  23.626  23.780  1.00  0.00     0.028 A 
ATOM     27  C   UNL A   1      36.350  23.595  26.112  1.00  0.00     0.028 A 
ATOM     28  C   UNL A   1      36.604  22.662  23.479  1.00  0.00     0.002 A 
ATOM     29  C   UNL A   1      37.304  22.628  25.801  1.00  0.00     0.002 A 
ATOM     30  C   UNL A   1      37.442  22.176  24.486  1.00  0.00     0.000 A 
ENDBRANCH   9  25
ENDBRANCH   4   7
ENDBRANCH   2   3
ENDBRANCH   1   2
BRANCH   1  31
ATOM     31  C   UNL A   1      32.124  30.267  26.690  1.00  0.00     0.118 C 
BRANCH  31  32
ATOM     32  N   UNL A   1      31.712  31.686  26.669  1.00  0.00    -0.352 N 
ATOM     33  C   UNL A   1      32.322  32.801  27.235  1.00  0.00     0.251 C 
ATOM     34  H   UNL A   1      30.878  31.871  26.179  1.00  0.00     0.163 HD
ATOM     35  O   UNL A   1      31.694  33.843  27.384  1.00  0.00    -0.269 OA
BRANCH  33  36
ATOM     36  C   UNL A   1      33.734  32.699  27.640  1.00  0.00     0.039 A 
ATOM     37  C   UNL A   1      34.674  33.731  27.543  1.00  0.00     0.014 A 
ATOM     38  C   UNL A   1      34.084  31.500  28.223  1.00  0.00     0.014 A 
ATOM     39  C   UNL A   1      35.954  33.502  28.056  1.00  0.00     0.010 A 
ATOM     40  C   UNL A   1      35.108  31.500  29.105  1.00  0.00     0.010 A 
ATOM     41  C   UNL A   1      36.155  32.349  28.819  1.00  0.00    -0.014 A 
BRANCH  41  42
ATOM     42  C   UNL A   1      37.408  31.917  29.410  1.00  0.00     0.031 A 
ATOM     43  C   UNL A   1      37.854  30.587  28.944  1.00  0.00     0.074 A 
ATOM     44  C   UNL A   1      38.229  32.823  29.999  1.00  0.00     0.049 A 
ATOM     45  N   UNL A   1      37.900  29.498  29.632  1.00  0.00    -0.248 NA
ATOM     46  C   UNL A   1      38.076  30.380  27.502  1.00  0.00     0.031 C 
ATOM     47  C   UNL A   1      38.030  34.269  30.201  1.00  0.00     0.029 A 
ATOM     48  N   UNL A   1      39.505  32.658  30.425  1.00  0.00    -0.354 N 
ATOM     49  C   UNL A   1      38.396  28.525  28.773  1.00  0.00     0.074 A 
ATOM     50  C   UNL A   1      38.226  29.055  27.449  1.00  0.00     0.031 C 
ATOM     51  C   UNL A   1      39.215  34.861  30.482  1.00  0.00     0.029 A 
ATOM     52  C   UNL A   1      40.230  33.834  30.623  1.00  0.00     0.049 A 
ATOM     53  H   UNL A   1      39.895  31.768  30.585  1.00  0.00     0.167 HD
ATOM     54  C   UNL A   1      39.135  27.481  29.242  1.00  0.00     0.034 A 
ATOM     55  C   UNL A   1      41.576  33.932  30.828  1.00  0.00     0.034 A 
ATOM     56  C   UNL A   1      39.098  27.451  30.690  1.00  0.00     0.049 A 
ATOM     57  C   UNL A   1      42.006  32.585  31.311  1.00  0.00     0.074 A 
ATOM     58  C   UNL A   1      38.084  27.315  31.617  1.00  0.00     0.029 A 
ATOM     59  N   UNL A   1      40.149  28.038  31.366  1.00  0.00    -0.354 N 
ATOM     60  N   UNL A   1      41.578  32.071  32.438  1.00  0.00    -0.248 NA
ATOM     61  C   UNL A   1      42.419  31.604  30.313  1.00  0.00     0.031 C 
ATOM     62  C   UNL A   1      38.379  28.290  32.617  1.00  0.00     0.029 A 
ATOM     63  C   UNL A   1      39.614  28.875  32.319  1.00  0.00     0.049 A 
ATOM     64  H   UNL A   1      41.106  27.885  31.198  1.00  0.00     0.167 HD
ATOM     65  C   UNL A   1      41.258  30.751  32.144  1.00  0.00     0.074 A 
ATOM     66  C   UNL A   1      41.874  30.498  30.837  1.00  0.00     0.031 C 
ATOM     67  C   UNL A   1      40.258  30.087  32.805  1.00  0.00     0.034 A 
BRANCH  54  68
ATOM     68  C   UNL A   1      40.159  26.688  28.465  1.00  0.00     0.023 A 
ATOM     69  C   UNL A   1      41.206  27.415  27.865  1.00  0.00     0.031 A 
ATOM     70  C   UNL A   1      40.047  25.337  28.069  1.00  0.00     0.131 A 
ATOM     71  C   UNL A   1      42.008  26.841  26.865  1.00  0.00     0.055 A 
ATOM     72  C   UNL A   1      40.892  24.750  27.123  1.00  0.00     0.041 A 
ATOM     73  F   UNL A   1      39.069  24.533  28.496  1.00  0.00    -0.206 F 
ATOM     74  C   UNL A   1      41.859  25.510  26.489  1.00  0.00     0.022 A 
BRANCH  71  75
ATOM     75  S   UNL A   1      43.133  27.919  25.942  1.00  0.00     0.124 S 
ATOM     76  O   UNL A   1      43.348  29.007  26.890  1.00  0.00    -0.237 OA
ATOM     77  O   UNL A   1      44.269  27.034  25.706  1.00  0.00    -0.237 OA
ATOM     78  O   UNL A   1      42.360  28.275  24.754  1.00  0.00    -0.744 OA
ENDBRANCH  71  75
ENDBRANCH  54  68
BRANCH  55  79
ATOM     79  C   UNL A   1      42.492  34.971  30.248  1.00  0.00     0.023 A 
ATOM     80  C   UNL A   1      42.408  35.465  28.924  1.00  0.00     0.031 A 
ATOM     81  C   UNL A   1      43.376  35.666  31.110  1.00  0.00     0.131 A 
ATOM     82  C   UNL A   1      43.192  36.583  28.519  1.00  0.00     0.055 A 
ATOM     83  C   UNL A   1      44.144  36.763  30.707  1.00  0.00     0.041 A 
ATOM     84  F   UNL A   1      43.468  35.352  32.412  1.00  0.00    -0.206 F 
ATOM     85  C   UNL A   1      44.051  37.231  29.409  1.00  0.00     0.022 A 
BRANCH  82  86
ATOM     86  S   UNL A   1      43.059  37.275  26.831  1.00  0.00     0.124 S 
ATOM     87  O   UNL A   1      41.860  38.100  26.925  1.00  0.00    -0.237 OA
ATOM     88  O   UNL A   1      44.324  37.983  26.680  1.00  0.00    -0.237 OA
ATOM     89  O   UNL A   1      42.920  36.089  25.983  1.00  0.00    -0.744 OA
ENDBRANCH  82  86
ENDBRANCH  55  79
BRANCH  67  90
ATOM     90  C   UNL A   1      39.613  30.745  34.020  1.00  0.00     0.023 A 
ATOM     91  C   UNL A   1      38.613  31.748  33.975  1.00  0.00     0.031 A 
ATOM     92  C   UNL A   1      39.907  30.186  35.276  1.00  0.00     0.131 A 
ATOM     93  C   UNL A   1      37.955  32.148  35.159  1.00  0.00     0.055 A 
ATOM     94  C   UNL A   1      39.235  30.563  36.438  1.00  0.00     0.041 A 
ATOM     95  F   UNL A   1      40.826  29.212  35.387  1.00  0.00    -0.206 F 
ATOM     96  C   UNL A   1      38.258  31.549  36.385  1.00  0.00     0.022 A 
BRANCH  93  97
ATOM     97  S   UNL A   1      36.696  33.470  35.134  1.00  0.00     0.124 S 
ATOM     98  O   UNL A   1      36.271  33.560  36.525  1.00  0.00    -0.237 OA
ATOM     99  O   UNL A   1      37.441  34.613  34.617  1.00  0.00    -0.237 OA
ATOM    100  O   UNL A   1      35.676  32.950  34.220  1.00  0.00    -0.744 OA
ENDBRANCH  93  97
ENDBRANCH  67  90
ENDBRANCH  41  42
ENDBRANCH  33  36
ENDBRANCH  31  32
ENDBRANCH   1  31
TORSDOF 17
ENDMDL
MODEL 3
REMARK VINA RESULT:     -12.6      4.853     10.383
REMARK SMILES CC(C)(C)OC(=O)N1CCC(c2c(C(=O)NCCCNC(=O)c3ccc(-c4c5nc(c(-c6cc(S(=O)(=O)[O-])ccc6F)c6ccc([nH]6)c(-c6cc(S(=O)(=O)[O-])ccc6F)c6nc(c(-c7cc(S(=O)(=O)[O-])ccc7F)c7ccc4[nH]7)C=C6)C=C5)cc3)cnn2-c2ccccc2)CC1
REMARK SMILES IDX 18 1 17 2 16 3 14 4 15 5 13 7 12 8 88 9 86 10 87 11 11 12
REMARK SMILES IDX 6 13 7 14 8 15 9 16 96 17 10 18 95 19 5 20 2 21 1 22 3 23
REMARK SMILES IDX 4 24 89 25 90 26 94 27 91 28 93 29 92 30 19 31 20 32 21 33
REMARK SMILES IDX 22 35 23 36 24 37 85 38 25 39 84 40 26 41 27 42 28 43 78 44
REMARK SMILES IDX 29 45 83 46 77 47 79 48 30 49 82 50 76 51 75 52 31 54 63 55
REMARK SMILES IDX 43 56 62 57 44 58 47 59 61 60 80 61 45 62 46 63 60 65 81 66
REMARK SMILES IDX 48 67 32 68 33 69 41 70 34 71 40 72 42 73 39 74 35 75 36 76
REMARK SMILES IDX 37 77 38 78 64 79 65 80 73 81 66 82 72 83 74 84 71 85 67 86
REMARK SMILES IDX 68 87 69 88 70 89 49 90 50 91 58 92 51 93 57 94 59 95 56 96
REMARK SMILES IDX 52 97 53 98 54 99 55 100
REMARK H PARENT 16 6 20 34 79 53 47 64
REMARK Flexibility Score: inf
ROOT
ATOM      1  C   UNL A   1      34.369  29.983  27.087  1.00  0.00     0.042 C 
ENDROOT
BRANCH   1   2
ATOM      2  C   UNL A   1      33.932  31.201  27.909  1.00  0.00     0.118 C 
BRANCH   2   3
ATOM      3  N   UNL A   1      34.743  32.381  27.660  1.00  0.00    -0.352 N 
ATOM      4  C   UNL A   1      35.519  33.166  28.475  1.00  0.00     0.254 C 
ATOM      5  O   UNL A   1      36.283  33.941  27.901  1.00  0.00    -0.269 OA
ATOM      6  H   UNL A   1      34.733  32.675  26.720  1.00  0.00     0.163 HD
BRANCH   4   7
ATOM      7  C   UNL A   1      35.465  33.073  29.936  1.00  0.00     0.081 A 
ATOM      8  C   UNL A   1      36.572  33.009  30.813  1.00  0.00     0.060 A 
ATOM      9  N   UNL A   1      36.022  32.845  32.081  1.00  0.00    -0.237 N 
ATOM     10  C   UNL A   1      34.357  33.070  30.803  1.00  0.00     0.149 A 
ATOM     11  N   UNL A   1      34.674  32.822  32.065  1.00  0.00    -0.175 NA
BRANCH   8  12
ATOM     12  C   UNL A   1      38.061  33.068  30.440  1.00  0.00     0.043 C 
ATOM     13  C   UNL A   1      41.776  34.023  31.827  1.00  0.00     0.410 C 
ATOM     14  O   UNL A   1      41.678  35.085  32.409  1.00  0.00    -0.224 OA
ATOM     15  N   UNL A   1      40.872  33.605  30.865  1.00  0.00    -0.308 N 
ATOM     16  C   UNL A   1      40.040  34.601  30.219  1.00  0.00     0.124 C 
ATOM     17  C   UNL A   1      40.493  32.220  30.629  1.00  0.00     0.124 C 
ATOM     18  C   UNL A   1      38.611  34.484  30.722  1.00  0.00     0.032 C 
ATOM     19  C   UNL A   1      39.023  32.019  31.048  1.00  0.00     0.032 C 
BRANCH  13  20
ATOM     20  O   UNL A   1      42.815  33.154  31.974  1.00  0.00    -0.444 OA
BRANCH  20  21
ATOM     21  C   UNL A   1      42.983  32.469  33.247  1.00  0.00     0.106 C 
ATOM     22  C   UNL A   1      44.113  33.224  33.965  1.00  0.00     0.056 C 
ATOM     23  C   UNL A   1      43.422  31.019  33.019  1.00  0.00     0.056 C 
ATOM     24  C   UNL A   1      41.736  32.548  34.147  1.00  0.00     0.056 C 
ENDBRANCH  20  21
ENDBRANCH  13  20
ENDBRANCH   8  12
BRANCH   9  25
ATOM     25  C   UNL A   1      36.636  32.683  33.332  1.00  0.00     0.065 A 
ATOM     26  C   UNL A   1      36.634  33.760  34.225  1.00  0.00     0.028 A 
ATOM     27  C   UNL A   1      37.284  31.487  33.642  1.00  0.00     0.028 A 
ATOM     28  C   UNL A   1      37.198  33.598  35.487  1.00  0.00     0.002 A 
ATOM     29  C   UNL A   1      37.849  31.335  34.908  1.00  0.00     0.002 A 
ATOM     30  C   UNL A   1      37.791  32.381  35.832  1.00  0.00     0.000 A 
ENDBRANCH   9  25
ENDBRANCH   4   7
ENDBRANCH   2   3
ENDBRANCH   1   2
BRANCH   1  31
ATOM     31  C   UNL A   1      35.559  29.287  27.730  1.00  0.00     0.118 C 
BRANCH  31  32
ATOM     32  N   UNL A   1      35.659  29.554  29.180  1.00  0.00    -0.352 N 
ATOM     33  C   UNL A   1      36.681  29.250  30.074  1.00  0.00     0.251 C 
ATOM     34  H   UNL A   1      34.886  30.018  29.573  1.00  0.00     0.163 HD
ATOM     35  O   UNL A   1      36.473  29.265  31.281  1.00  0.00    -0.269 OA
BRANCH  33  36
ATOM     36  C   UNL A   1      38.010  28.918  29.535  1.00  0.00     0.039 A 
ATOM     37  C   UNL A   1      38.566  29.466  28.373  1.00  0.00     0.014 A 
ATOM     38  C   UNL A   1      38.752  28.056  30.313  1.00  0.00     0.014 A 
ATOM     39  C   UNL A   1      39.878  29.114  28.045  1.00  0.00     0.010 A 
ATOM     40  C   UNL A   1      40.099  28.137  30.240  1.00  0.00     0.010 A 
ATOM     41  C   UNL A   1      40.624  28.414  28.997  1.00  0.00    -0.014 A 
BRANCH  41  42
ATOM     42  C   UNL A   1      41.984  27.933  28.839  1.00  0.00     0.031 A 
ATOM     43  C   UNL A   1      42.086  26.709  28.017  1.00  0.00     0.074 A 
ATOM     44  C   UNL A   1      43.031  28.759  29.094  1.00  0.00     0.049 A 
ATOM     45  N   UNL A   1      42.402  25.526  28.421  1.00  0.00    -0.248 NA
ATOM     46  C   UNL A   1      41.580  26.742  26.633  1.00  0.00     0.031 C 
ATOM     47  C   UNL A   1      43.025  30.147  29.587  1.00  0.00     0.029 A 
ATOM     48  N   UNL A   1      44.345  28.567  28.824  1.00  0.00    -0.354 N 
ATOM     49  C   UNL A   1      42.377  24.719  27.290  1.00  0.00     0.074 A 
ATOM     50  C   UNL A   1      41.621  25.447  26.310  1.00  0.00     0.031 C 
ATOM     51  C   UNL A   1      44.227  30.723  29.353  1.00  0.00     0.029 A 
ATOM     52  C   UNL A   1      45.134  29.719  28.828  1.00  0.00     0.049 A 
ATOM     53  H   UNL A   1      44.719  27.676  28.637  1.00  0.00     0.167 HD
ATOM     54  C   UNL A   1      43.197  23.637  27.178  1.00  0.00     0.034 A 
ATOM     55  C   UNL A   1      46.417  29.825  28.374  1.00  0.00     0.034 A 
ATOM     56  C   UNL A   1      43.855  23.375  28.442  1.00  0.00     0.049 A 
ATOM     57  C   UNL A   1      46.958  28.432  28.377  1.00  0.00     0.074 A 
ATOM     58  C   UNL A   1      43.403  23.062  29.709  1.00  0.00     0.029 A 
ATOM     59  N   UNL A   1      45.130  23.879  28.612  1.00  0.00    -0.354 N 
ATOM     60  N   UNL A   1      47.096  27.732  29.475  1.00  0.00    -0.248 NA
ATOM     61  C   UNL A   1      46.794  27.636  27.165  1.00  0.00     0.031 C 
ATOM     62  C   UNL A   1      44.189  23.873  30.581  1.00  0.00     0.029 A 
ATOM     63  C   UNL A   1      45.159  24.536  29.822  1.00  0.00     0.049 A 
ATOM     64  H   UNL A   1      45.881  23.785  27.984  1.00  0.00     0.167 HD
ATOM     65  C   UNL A   1      46.610  26.466  29.171  1.00  0.00     0.074 A 
ATOM     66  C   UNL A   1      46.512  26.444  27.708  1.00  0.00     0.031 C 
ATOM     67  C   UNL A   1      46.016  25.675  30.120  1.00  0.00     0.034 A 
BRANCH  54  68
ATOM     68  C   UNL A   1      43.684  23.009  25.893  1.00  0.00     0.023 A 
ATOM     69  C   UNL A   1      43.700  21.602  25.838  1.00  0.00     0.031 A 
ATOM     70  C   UNL A   1      44.353  23.670  24.841  1.00  0.00     0.131 A 
ATOM     71  C   UNL A   1      44.427  20.922  24.848  1.00  0.00     0.055 A 
ATOM     72  C   UNL A   1      45.019  22.989  23.817  1.00  0.00     0.041 A 
ATOM     73  F   UNL A   1      44.484  24.999  24.782  1.00  0.00    -0.206 F 
ATOM     74  C   UNL A   1      45.089  21.608  23.834  1.00  0.00     0.022 A 
BRANCH  71  75
ATOM     75  S   UNL A   1      44.638  19.132  25.015  1.00  0.00     0.124 S 
ATOM     76  O   UNL A   1      43.469  18.766  25.806  1.00  0.00    -0.237 OA
ATOM     77  O   UNL A   1      44.635  18.699  23.621  1.00  0.00    -0.237 OA
ATOM     78  O   UNL A   1      45.920  19.005  25.704  1.00  0.00    -0.744 OA
ENDBRANCH  71  75
ENDBRANCH  54  68
BRANCH  55  79
ATOM     79  C   UNL A   1      46.994  30.971  27.594  1.00  0.00     0.023 A 
ATOM     80  C   UNL A   1      46.238  32.049  27.073  1.00  0.00     0.031 A 
ATOM     81  C   UNL A   1      48.402  31.119  27.531  1.00  0.00     0.131 A 
ATOM     82  C   UNL A   1      46.890  33.185  26.515  1.00  0.00     0.055 A 
ATOM     83  C   UNL A   1      49.036  32.236  26.980  1.00  0.00     0.041 A 
ATOM     84  F   UNL A   1      49.222  30.209  28.080  1.00  0.00    -0.206 F 
ATOM     85  C   UNL A   1      48.282  33.279  26.474  1.00  0.00     0.022 A 
BRANCH  82  86
ATOM     86  S   UNL A   1      45.935  34.613  25.887  1.00  0.00     0.124 S 
ATOM     87  O   UNL A   1      45.565  34.176  24.546  1.00  0.00    -0.237 OA
ATOM     88  O   UNL A   1      44.852  34.719  26.857  1.00  0.00    -0.237 OA
ATOM     89  O   UNL A   1      46.898  35.716  25.927  1.00  0.00    -0.744 OA
ENDBRANCH  82  86
ENDBRANCH  55  79
BRANCH  67  90
ATOM     90  C   UNL A   1      46.064  26.110  31.580  1.00  0.00     0.023 A 
ATOM     91  C   UNL A   1      44.959  26.578  32.333  1.00  0.00     0.031 A 
ATOM     92  C   UNL A   1      47.258  25.859  32.279  1.00  0.00     0.131 A 
ATOM     93  C   UNL A   1      45.081  26.774  33.726  1.00  0.00     0.055 A 
ATOM     94  C   UNL A   1      47.366  26.026  33.659  1.00  0.00     0.041 A 
ATOM     95  F   UNL A   1      48.337  25.388  31.631  1.00  0.00    -0.206 F 
ATOM     96  C   UNL A   1      46.278  26.487  34.388  1.00  0.00     0.022 A 
BRANCH  93  97
ATOM     97  S   UNL A   1      43.685  27.419  34.711  1.00  0.00     0.124 S 
ATOM     98  O   UNL A   1      44.228  28.629  35.316  1.00  0.00    -0.237 OA
ATOM     99  O   UNL A   1      42.648  27.617  33.704  1.00  0.00    -0.237 OA
ATOM    100  O   UNL A   1      43.410  26.338  35.659  1.00  0.00    -0.744 OA
ENDBRANCH  93  97
ENDBRANCH  67  90
ENDBRANCH  41  42
ENDBRANCH  33  36
ENDBRANCH  31  32
ENDBRANCH   1  31
TORSDOF 17
ENDMDL
