MODEL 1
REMARK VINA RESULT:     -13.6      0.000      0.000
REMARK SMILES CC1(C)S[C@@H](c2cccc3c2sc2ccccc23)[NH2+][C@@H]1C(=O)NCCCNC(=O)c1ccc(-c2c3nc(c(-c4cc(S(=O)(=O)[O-])ccc4F)c4ccc([nH]4)c(-c4cc(S(=O)(=O)[O-])ccc4F)c4nc(c(-c5cc(S(=O)(=O)[O-])ccc5F)c5ccc2[nH]5)C=C4)C=C3)cc1
REMARK SMILES IDX 26 1 25 2 24 3 23 4 21 5 22 6 20 8 1 9 2 10 3 11 4 12 5 13
REMARK SMILES IDX 19 14 6 17 7 18 11 19 8 20 10 21 12 22 9 23 18 24 13 25
REMARK SMILES IDX 17 26 14 27 16 28 15 29 27 30 28 31 29 33 30 34 31 35 92 36
REMARK SMILES IDX 32 37 91 38 33 39 34 40 35 41 85 42 36 43 90 44 84 45 86 46
REMARK SMILES IDX 37 47 89 48 83 49 82 50 38 52 70 53 50 54 69 55 51 56 54 57
REMARK SMILES IDX 68 58 87 59 52 60 53 61 67 63 88 64 55 65 39 66 40 67 48 68
REMARK SMILES IDX 41 69 47 70 49 71 46 72 42 73 43 74 44 75 45 76 71 77 72 78
REMARK SMILES IDX 80 79 73 80 79 81 81 82 78 83 74 84 75 85 76 86 77 87 56 88
REMARK SMILES IDX 57 89 65 90 58 91 64 92 66 93 63 94 59 95 60 96 61 97 62 98
REMARK H PARENT 23 7 19 15 19 16 27 32 86 51 54 62
REMARK Flexibility Score: inf
ROOT
ATOM      1  C   UNL A   1      33.101  30.016  26.082  1.00  0.00     0.118 C 
ENDROOT
BRANCH   1   2
ATOM      2  C   UNL A   1      31.833  29.198  26.254  1.00  0.00     0.042 C 
BRANCH   2   3
ATOM      3  C   UNL A   1      31.778  28.397  27.543  1.00  0.00     0.118 C 
BRANCH   3   4
ATOM      4  N   UNL A   1      31.223  27.067  27.342  1.00  0.00    -0.351 N 
ATOM      5  C   UNL A   1      31.562  26.036  26.520  1.00  0.00     0.279 C 
ATOM      6  O   UNL A   1      30.781  25.080  26.538  1.00  0.00    -0.268 OA
ATOM      7  H   UNL A   1      30.446  26.874  27.915  1.00  0.00     0.163 HD
BRANCH   5   8
ATOM      8  C   UNL A   1      32.766  26.088  25.535  1.00  0.00     0.289 C 
ATOM      9  C   UNL A   1      33.568  26.580  23.163  1.00  0.00     0.030 C 
ATOM     10  C   UNL A   1      32.424  25.997  24.017  1.00  0.00     0.077 C 
ATOM     11  C   UNL A   1      31.115  26.637  23.553  1.00  0.00     0.030 C 
ATOM     12  S   UNL A   1      32.379  24.189  23.695  1.00  0.00    -0.081 SA
ATOM     13  C   UNL A   1      33.203  23.769  25.258  1.00  0.00     0.276 C 
ATOM     14  N   UNL A   1      33.760  25.015  25.791  1.00  0.00    -0.320 N 
ATOM     15  H   UNL A   1      34.638  25.233  25.321  1.00  0.00     0.348 HD
ATOM     16  H   UNL A   1      33.948  24.928  26.789  1.00  0.00     0.348 HD
BRANCH  13  17
ATOM     17  C   UNL A   1      34.276  22.703  25.131  1.00  0.00     0.038 A 
ATOM     18  C   UNL A   1      35.642  23.056  25.248  1.00  0.00     0.012 A 
ATOM     19  C   UNL A   1      33.989  21.316  24.954  1.00  0.00     0.046 A 
ATOM     20  C   UNL A   1      36.657  22.118  25.176  1.00  0.00     0.001 A 
ATOM     21  C   UNL A   1      34.998  20.351  24.858  1.00  0.00     0.001 A 
ATOM     22  S   UNL A   1      32.438  20.565  24.838  1.00  0.00    -0.135 S 
ATOM     23  C   UNL A   1      36.345  20.778  24.974  1.00  0.00     0.010 A 
ATOM     24  C   UNL A   1      34.474  19.012  24.646  1.00  0.00     0.000 A 
ATOM     25  C   UNL A   1      33.082  18.993  24.637  1.00  0.00     0.036 A 
ATOM     26  C   UNL A   1      35.153  17.778  24.465  1.00  0.00     0.010 A 
ATOM     27  C   UNL A   1      32.358  17.794  24.475  1.00  0.00     0.019 A 
ATOM     28  C   UNL A   1      34.442  16.587  24.288  1.00  0.00     0.001 A 
ATOM     29  C   UNL A   1      33.056  16.597  24.299  1.00  0.00     0.002 A 
ENDBRANCH  13  17
ENDBRANCH   5   8
ENDBRANCH   3   4
ENDBRANCH   2   3
ENDBRANCH   1   2
BRANCH   1  30
ATOM     30  N   UNL A   1      32.980  31.368  26.611  1.00  0.00    -0.352 N 
ATOM     31  C   UNL A   1      33.747  32.022  27.544  1.00  0.00     0.251 C 
ATOM     32  H   UNL A   1      32.233  31.893  26.243  1.00  0.00     0.163 HD
ATOM     33  O   UNL A   1      33.361  33.097  27.998  1.00  0.00    -0.269 OA
BRANCH  31  34
ATOM     34  C   UNL A   1      35.012  31.421  28.020  1.00  0.00     0.039 A 
ATOM     35  C   UNL A   1      36.170  32.202  28.040  1.00  0.00     0.014 A 
ATOM     36  C   UNL A   1      35.058  30.095  28.458  1.00  0.00     0.014 A 
ATOM     37  C   UNL A   1      37.349  31.676  28.572  1.00  0.00     0.010 A 
ATOM     38  C   UNL A   1      36.201  29.611  29.084  1.00  0.00     0.010 A 
ATOM     39  C   UNL A   1      37.363  30.392  29.144  1.00  0.00    -0.014 A 
BRANCH  39  40
ATOM     40  C   UNL A   1      38.583  29.848  29.796  1.00  0.00     0.031 A 
ATOM     41  C   UNL A   1      38.995  30.342  31.157  1.00  0.00     0.074 A 
ATOM     42  C   UNL A   1      39.349  28.952  29.140  1.00  0.00     0.049 A 
ATOM     43  N   UNL A   1      40.059  30.046  31.859  1.00  0.00    -0.248 NA
ATOM     44  C   UNL A   1      38.110  31.327  31.798  1.00  0.00     0.031 C 
ATOM     45  C   UNL A   1      39.075  28.427  27.801  1.00  0.00     0.029 A 
ATOM     46  N   UNL A   1      40.513  28.326  29.507  1.00  0.00    -0.354 N 
ATOM     47  C   UNL A   1      39.974  30.810  33.018  1.00  0.00     0.074 A 
ATOM     48  C   UNL A   1      38.796  31.640  32.887  1.00  0.00     0.031 C 
ATOM     49  C   UNL A   1      40.021  27.531  27.477  1.00  0.00     0.029 A 
ATOM     50  C   UNL A   1      41.000  27.457  28.556  1.00  0.00     0.049 A 
ATOM     51  H   UNL A   1      40.959  28.483  30.371  1.00  0.00     0.167 HD
ATOM     52  C   UNL A   1      40.787  30.802  34.103  1.00  0.00     0.034 A 
ATOM     53  C   UNL A   1      42.113  26.698  28.549  1.00  0.00     0.034 A 
ATOM     54  C   UNL A   1      41.955  29.963  34.220  1.00  0.00     0.049 A 
ATOM     55  C   UNL A   1      43.026  26.738  29.749  1.00  0.00     0.074 A 
ATOM     56  C   UNL A   1      42.824  29.841  35.290  1.00  0.00     0.029 A 
ATOM     57  N   UNL A   1      42.424  29.108  33.230  1.00  0.00    -0.354 N 
ATOM     58  N   UNL A   1      42.907  27.433  30.857  1.00  0.00    -0.248 NA
ATOM     59  C   UNL A   1      44.218  25.882  29.702  1.00  0.00     0.031 C 
ATOM     60  C   UNL A   1      43.858  28.975  34.920  1.00  0.00     0.029 A 
ATOM     61  C   UNL A   1      43.589  28.483  33.652  1.00  0.00     0.049 A 
ATOM     62  H   UNL A   1      41.994  28.966  32.357  1.00  0.00     0.167 HD
ATOM     63  C   UNL A   1      43.990  27.070  31.652  1.00  0.00     0.074 A 
ATOM     64  C   UNL A   1      44.741  26.083  30.902  1.00  0.00     0.031 C 
ATOM     65  C   UNL A   1      44.334  27.508  32.891  1.00  0.00     0.034 A 
BRANCH  52  66
ATOM     66  C   UNL A   1      40.448  31.745  35.235  1.00  0.00     0.023 A 
ATOM     67  C   UNL A   1      39.472  31.424  36.195  1.00  0.00     0.031 A 
ATOM     68  C   UNL A   1      41.089  32.992  35.343  1.00  0.00     0.131 A 
ATOM     69  C   UNL A   1      39.110  32.366  37.170  1.00  0.00     0.055 A 
ATOM     70  C   UNL A   1      40.787  33.890  36.369  1.00  0.00     0.041 A 
ATOM     71  F   UNL A   1      42.012  33.366  34.443  1.00  0.00    -0.206 F 
ATOM     72  C   UNL A   1      39.780  33.586  37.280  1.00  0.00     0.022 A 
BRANCH  69  73
ATOM     73  S   UNL A   1      37.646  32.036  38.190  1.00  0.00     0.124 S 
ATOM     74  O   UNL A   1      36.719  33.060  37.714  1.00  0.00    -0.237 OA
ATOM     75  O   UNL A   1      37.317  30.661  37.834  1.00  0.00    -0.237 OA
ATOM     76  O   UNL A   1      38.130  32.231  39.556  1.00  0.00    -0.744 OA
ENDBRANCH  69  73
ENDBRANCH  52  66
BRANCH  53  77
ATOM     77  C   UNL A   1      42.440  25.841  27.372  1.00  0.00     0.023 A 
ATOM     78  C   UNL A   1      42.014  24.504  27.310  1.00  0.00     0.031 A 
ATOM     79  C   UNL A   1      43.224  26.330  26.312  1.00  0.00     0.131 A 
ATOM     80  C   UNL A   1      42.419  23.688  26.243  1.00  0.00     0.055 A 
ATOM     81  C   UNL A   1      43.573  25.531  25.221  1.00  0.00     0.041 A 
ATOM     82  F   UNL A   1      43.659  27.601  26.317  1.00  0.00    -0.206 F 
ATOM     83  C   UNL A   1      43.182  24.197  25.189  1.00  0.00     0.022 A 
BRANCH  80  84
ATOM     84  S   UNL A   1      42.014  21.921  26.299  1.00  0.00     0.124 S 
ATOM     85  O   UNL A   1      42.417  21.568  27.657  1.00  0.00    -0.237 OA
ATOM     86  O   UNL A   1      40.579  21.929  26.038  1.00  0.00    -0.237 OA
ATOM     87  O   UNL A   1      42.836  21.350  25.235  1.00  0.00    -0.744 OA
ENDBRANCH  80  84
ENDBRANCH  53  77
BRANCH  65  88
ATOM     88  C   UNL A   1      45.551  26.881  33.528  1.00  0.00     0.023 A 
ATOM     89  C   UNL A   1      45.468  25.698  34.282  1.00  0.00     0.031 A 
ATOM     90  C   UNL A   1      46.812  27.488  33.389  1.00  0.00     0.131 A 
ATOM     91  C   UNL A   1      46.612  25.194  34.920  1.00  0.00     0.055 A 
ATOM     92  C   UNL A   1      47.959  26.943  33.966  1.00  0.00     0.041 A 
ATOM     93  F   UNL A   1      46.951  28.622  32.683  1.00  0.00    -0.206 F 
ATOM     94  C   UNL A   1      47.860  25.797  34.750  1.00  0.00     0.022 A 
BRANCH  91  95
ATOM     95  S   UNL A   1      46.426  23.798  36.064  1.00  0.00     0.124 S 
ATOM     96  O   UNL A   1      46.904  24.370  37.319  1.00  0.00    -0.237 OA
ATOM     97  O   UNL A   1      44.994  23.524  35.993  1.00  0.00    -0.237 OA
ATOM     98  O   UNL A   1      47.284  22.765  35.486  1.00  0.00    -0.744 OA
ENDBRANCH  91  95
ENDBRANCH  65  88
ENDBRANCH  39  40
ENDBRANCH  31  34
ENDBRANCH   1  30
TORSDOF 14
ENDMDL
MODEL 2
REMARK VINA RESULT:     -13.5      1.394      1.665
REMARK SMILES CC1(C)S[C@@H](c2cccc3c2sc2ccccc23)[NH2+][C@@H]1C(=O)NCCCNC(=O)c1ccc(-c2c3nc(c(-c4cc(S(=O)(=O)[O-])ccc4F)c4ccc([nH]4)c(-c4cc(S(=O)(=O)[O-])ccc4F)c4nc(c(-c5cc(S(=O)(=O)[O-])ccc5F)c5ccc2[nH]5)C=C4)C=C3)cc1
REMARK SMILES IDX 26 1 25 2 24 3 23 4 21 5 22 6 20 8 1 9 2 10 3 11 4 12 5 13
REMARK SMILES IDX 19 14 6 17 7 18 11 19 8 20 10 21 12 22 9 23 18 24 13 25
REMARK SMILES IDX 17 26 14 27 16 28 15 29 27 30 28 31 29 33 30 34 31 35 92 36
REMARK SMILES IDX 32 37 91 38 33 39 34 40 35 41 85 42 36 43 90 44 84 45 86 46
REMARK SMILES IDX 37 47 89 48 83 49 82 50 38 52 70 53 50 54 69 55 51 56 54 57
REMARK SMILES IDX 68 58 87 59 52 60 53 61 67 63 88 64 55 65 39 66 40 67 48 68
REMARK SMILES IDX 41 69 47 70 49 71 46 72 42 73 43 74 44 75 45 76 71 77 72 78
REMARK SMILES IDX 80 79 73 80 79 81 81 82 78 83 74 84 75 85 76 86 77 87 56 88
REMARK SMILES IDX 57 89 65 90 58 91 64 92 66 93 63 94 59 95 60 96 61 97 62 98
REMARK H PARENT 23 7 19 15 19 16 27 32 86 51 54 62
REMARK Flexibility Score: inf
ROOT
ATOM      1  C   UNL A   1      32.754  30.078  25.833  1.00  0.00     0.118 C 
ENDROOT
BRANCH   1   2
ATOM      2  C   UNL A   1      31.550  29.188  26.094  1.00  0.00     0.042 C 
BRANCH   2   3
ATOM      3  C   UNL A   1      31.623  28.408  27.395  1.00  0.00     0.118 C 
BRANCH   3   4
ATOM      4  N   UNL A   1      31.137  27.044  27.247  1.00  0.00    -0.351 N 
ATOM      5  C   UNL A   1      31.550  25.991  26.492  1.00  0.00     0.279 C 
ATOM      6  O   UNL A   1      30.814  25.000  26.536  1.00  0.00    -0.268 OA
ATOM      7  H   UNL A   1      30.352  26.844  27.806  1.00  0.00     0.163 HD
BRANCH   5   8
ATOM      8  C   UNL A   1      32.782  26.050  25.542  1.00  0.00     0.289 C 
ATOM      9  C   UNL A   1      33.653  26.573  23.201  1.00  0.00     0.030 C 
ATOM     10  C   UNL A   1      32.482  25.983  24.014  1.00  0.00     0.077 C 
ATOM     11  C   UNL A   1      31.190  26.638  23.522  1.00  0.00     0.030 C 
ATOM     12  S   UNL A   1      32.437  24.181  23.664  1.00  0.00    -0.081 SA
ATOM     13  C   UNL A   1      33.214  23.733  25.242  1.00  0.00     0.276 C 
ATOM     14  N   UNL A   1      33.762  24.968  25.809  1.00  0.00    -0.320 N 
ATOM     15  H   UNL A   1      34.654  25.188  25.368  1.00  0.00     0.348 HD
ATOM     16  H   UNL A   1      33.922  24.865  26.811  1.00  0.00     0.348 HD
BRANCH  13  17
ATOM     17  C   UNL A   1      34.284  22.663  25.130  1.00  0.00     0.038 A 
ATOM     18  C   UNL A   1      35.649  23.009  25.275  1.00  0.00     0.012 A 
ATOM     19  C   UNL A   1      33.994  21.279  24.940  1.00  0.00     0.046 A 
ATOM     20  C   UNL A   1      36.661  22.067  25.217  1.00  0.00     0.001 A 
ATOM     21  C   UNL A   1      35.001  20.309  24.857  1.00  0.00     0.001 A 
ATOM     22  S   UNL A   1      32.443  20.535  24.789  1.00  0.00    -0.135 S 
ATOM     23  C   UNL A   1      36.348  20.730  25.001  1.00  0.00     0.010 A 
ATOM     24  C   UNL A   1      34.475  18.974  24.627  1.00  0.00     0.000 A 
ATOM     25  C   UNL A   1      33.083  18.962  24.591  1.00  0.00     0.036 A 
ATOM     26  C   UNL A   1      35.152  17.738  24.452  1.00  0.00     0.010 A 
ATOM     27  C   UNL A   1      32.357  17.767  24.408  1.00  0.00     0.019 A 
ATOM     28  C   UNL A   1      34.439  16.551  24.254  1.00  0.00     0.001 A 
ATOM     29  C   UNL A   1      33.053  16.567  24.239  1.00  0.00     0.002 A 
ENDBRANCH  13  17
ENDBRANCH   5   8
ENDBRANCH   3   4
ENDBRANCH   2   3
ENDBRANCH   1   2
BRANCH   1  30
ATOM     30  N   UNL A   1      32.559  31.445  26.296  1.00  0.00    -0.352 N 
ATOM     31  C   UNL A   1      33.244  32.159  27.250  1.00  0.00     0.251 C 
ATOM     32  H   UNL A   1      31.824  31.933  25.859  1.00  0.00     0.163 HD
ATOM     33  O   UNL A   1      32.797  33.239  27.632  1.00  0.00    -0.269 OA
BRANCH  31  34
ATOM     34  C   UNL A   1      34.490  31.617  27.833  1.00  0.00     0.039 A 
ATOM     35  C   UNL A   1      35.568  32.478  28.052  1.00  0.00     0.014 A 
ATOM     36  C   UNL A   1      34.597  30.266  28.174  1.00  0.00     0.014 A 
ATOM     37  C   UNL A   1      36.717  31.999  28.685  1.00  0.00     0.010 A 
ATOM     38  C   UNL A   1      35.695  29.819  28.898  1.00  0.00     0.010 A 
ATOM     39  C   UNL A   1      36.772  30.677  29.158  1.00  0.00    -0.014 A 
BRANCH  39  40
ATOM     40  C   UNL A   1      37.949  30.173  29.913  1.00  0.00     0.031 A 
ATOM     41  C   UNL A   1      38.200  30.644  31.322  1.00  0.00     0.074 A 
ATOM     42  C   UNL A   1      38.822  29.338  29.313  1.00  0.00     0.049 A 
ATOM     43  N   UNL A   1      39.203  30.378  32.117  1.00  0.00    -0.248 NA
ATOM     44  C   UNL A   1      37.206  31.562  31.898  1.00  0.00     0.031 C 
ATOM     45  C   UNL A   1      38.709  28.843  27.939  1.00  0.00     0.029 A 
ATOM     46  N   UNL A   1      39.976  28.759  29.777  1.00  0.00    -0.354 N 
ATOM     47  C   UNL A   1      38.966  31.099  33.282  1.00  0.00     0.074 A 
ATOM     48  C   UNL A   1      37.764  31.873  33.057  1.00  0.00     0.031 C 
ATOM     49  C   UNL A   1      39.727  28.006  27.687  1.00  0.00     0.029 A 
ATOM     50  C   UNL A   1      40.599  27.946  28.856  1.00  0.00     0.049 A 
ATOM     51  H   UNL A   1      40.326  28.910  30.685  1.00  0.00     0.167 HD
ATOM     52  C   UNL A   1      39.668  31.096  34.443  1.00  0.00     0.034 A 
ATOM     53  C   UNL A   1      41.746  27.244  28.939  1.00  0.00     0.034 A 
ATOM     54  C   UNL A   1      40.861  30.312  34.652  1.00  0.00     0.049 A 
ATOM     55  C   UNL A   1      42.533  27.290  30.225  1.00  0.00     0.074 A 
ATOM     56  C   UNL A   1      41.626  30.200  35.800  1.00  0.00     0.029 A 
ATOM     57  N   UNL A   1      41.469  29.515  33.691  1.00  0.00    -0.354 N 
ATOM     58  N   UNL A   1      42.269  27.942  31.333  1.00  0.00    -0.248 NA
ATOM     59  C   UNL A   1      43.767  26.496  30.273  1.00  0.00     0.031 C 
ATOM     60  C   UNL A   1      42.735  29.398  35.511  1.00  0.00     0.029 A 
ATOM     61  C   UNL A   1      42.618  28.935  34.210  1.00  0.00     0.049 A 
ATOM     62  H   UNL A   1      41.134  29.380  32.776  1.00  0.00     0.167 HD
ATOM     63  C   UNL A   1      43.287  27.608  32.222  1.00  0.00     0.074 A 
ATOM     64  C   UNL A   1      44.158  26.684  31.524  1.00  0.00     0.031 C 
ATOM     65  C   UNL A   1      43.484  28.023  33.500  1.00  0.00     0.034 A 
BRANCH  52  66
ATOM     66  C   UNL A   1      39.170  31.984  35.560  1.00  0.00     0.023 A 
ATOM     67  C   UNL A   1      39.592  33.320  35.685  1.00  0.00     0.031 A 
ATOM     68  C   UNL A   1      38.283  31.484  36.530  1.00  0.00     0.131 A 
ATOM     69  C   UNL A   1      39.191  34.082  36.792  1.00  0.00     0.055 A 
ATOM     70  C   UNL A   1      37.817  32.276  37.582  1.00  0.00     0.041 A 
ATOM     71  F   UNL A   1      37.863  30.210  36.480  1.00  0.00    -0.206 F 
ATOM     72  C   UNL A   1      38.285  33.579  37.727  1.00  0.00     0.022 A 
BRANCH  69  73
ATOM     73  S   UNL A   1      39.994  35.685  37.075  1.00  0.00     0.124 S 
ATOM     74  O   UNL A   1      39.337  36.130  38.302  1.00  0.00    -0.237 OA
ATOM     75  O   UNL A   1      41.399  35.317  37.200  1.00  0.00    -0.237 OA
ATOM     76  O   UNL A   1      39.652  36.454  35.880  1.00  0.00    -0.744 OA
ENDBRANCH  69  73
ENDBRANCH  52  66
BRANCH  53  77
ATOM     77  C   UNL A   1      42.231  26.442  27.777  1.00  0.00     0.023 A 
ATOM     78  C   UNL A   1      41.822  25.111  27.596  1.00  0.00     0.031 A 
ATOM     79  C   UNL A   1      43.148  26.978  26.857  1.00  0.00     0.131 A 
ATOM     80  C   UNL A   1      42.369  24.345  26.556  1.00  0.00     0.055 A 
ATOM     81  C   UNL A   1      43.643  26.231  25.786  1.00  0.00     0.041 A 
ATOM     82  F   UNL A   1      43.573  28.246  26.980  1.00  0.00    -0.206 F 
ATOM     83  C   UNL A   1      43.265  24.900  25.640  1.00  0.00     0.022 A 
BRANCH  80  84
ATOM     84  S   UNL A   1      41.967  22.578  26.474  1.00  0.00     0.124 S 
ATOM     85  O   UNL A   1      42.588  22.191  25.212  1.00  0.00    -0.237 OA
ATOM     86  O   UNL A   1      42.600  22.067  27.685  1.00  0.00    -0.237 OA
ATOM     87  O   UNL A   1      40.506  22.562  26.483  1.00  0.00    -0.744 OA
ENDBRANCH  80  84
ENDBRANCH  53  77
BRANCH  65  88
ATOM     88  C   UNL A   1      44.664  27.437  34.239  1.00  0.00     0.023 A 
ATOM     89  C   UNL A   1      44.544  26.284  35.034  1.00  0.00     0.031 A 
ATOM     90  C   UNL A   1      45.926  28.052  34.154  1.00  0.00     0.131 A 
ATOM     91  C   UNL A   1      45.650  25.820  35.763  1.00  0.00     0.055 A 
ATOM     92  C   UNL A   1      47.039  27.544  34.824  1.00  0.00     0.041 A 
ATOM     93  F   UNL A   1      46.099  29.158  33.412  1.00  0.00    -0.206 F 
ATOM     94  C   UNL A   1      46.901  26.430  35.647  1.00  0.00     0.022 A 
BRANCH  91  95
ATOM     95  S   UNL A   1      45.405  24.470  36.950  1.00  0.00     0.124 S 
ATOM     96  O   UNL A   1      46.592  24.588  37.791  1.00  0.00    -0.237 OA
ATOM     97  O   UNL A   1      44.139  24.834  37.579  1.00  0.00    -0.237 OA
ATOM     98  O   UNL A   1      45.358  23.277  36.107  1.00  0.00    -0.744 OA
ENDBRANCH  91  95
ENDBRANCH  65  88
ENDBRANCH  39  40
ENDBRANCH  31  34
ENDBRANCH   1  30
TORSDOF 14
ENDMDL
MODEL 3
REMARK VINA RESULT:     -13.4      1.291      1.516
REMARK SMILES CC1(C)S[C@@H](c2cccc3c2sc2ccccc23)[NH2+][C@@H]1C(=O)NCCCNC(=O)c1ccc(-c2c3nc(c(-c4cc(S(=O)(=O)[O-])ccc4F)c4ccc([nH]4)c(-c4cc(S(=O)(=O)[O-])ccc4F)c4nc(c(-c5cc(S(=O)(=O)[O-])ccc5F)c5ccc2[nH]5)C=C4)C=C3)cc1
REMARK SMILES IDX 26 1 25 2 24 3 23 4 21 5 22 6 20 8 1 9 2 10 3 11 4 12 5 13
REMARK SMILES IDX 19 14 6 17 7 18 11 19 8 20 10 21 12 22 9 23 18 24 13 25
REMARK SMILES IDX 17 26 14 27 16 28 15 29 27 30 28 31 29 33 30 34 31 35 92 36
REMARK SMILES IDX 32 37 91 38 33 39 34 40 35 41 85 42 36 43 90 44 84 45 86 46
REMARK SMILES IDX 37 47 89 48 83 49 82 50 38 52 70 53 50 54 69 55 51 56 54 57
REMARK SMILES IDX 68 58 87 59 52 60 53 61 67 63 88 64 55 65 39 66 40 67 48 68
REMARK SMILES IDX 41 69 47 70 49 71 46 72 42 73 43 74 44 75 45 76 71 77 72 78
REMARK SMILES IDX 80 79 73 80 79 81 81 82 78 83 74 84 75 85 76 86 77 87 56 88
REMARK SMILES IDX 57 89 65 90 58 91 64 92 66 93 63 94 59 95 60 96 61 97 62 98
REMARK H PARENT 23 7 19 15 19 16 27 32 86 51 54 62
REMARK Flexibility Score: inf
ROOT
ATOM      1  C   UNL A   1      33.068  30.046  26.189  1.00  0.00     0.118 C 
ENDROOT
BRANCH   1   2
ATOM      2  C   UNL A   1      31.785  29.256  26.383  1.00  0.00     0.042 C 
BRANCH   2   3
ATOM      3  C   UNL A   1      31.793  28.343  27.596  1.00  0.00     0.118 C 
BRANCH   3   4
ATOM      4  N   UNL A   1      31.198  27.045  27.314  1.00  0.00    -0.351 N 
ATOM      5  C   UNL A   1      31.526  26.043  26.454  1.00  0.00     0.279 C 
ATOM      6  O   UNL A   1      30.711  25.117  26.402  1.00  0.00    -0.268 OA
ATOM      7  H   UNL A   1      30.397  26.855  27.854  1.00  0.00     0.163 HD
BRANCH   5   8
ATOM      8  C   UNL A   1      32.761  26.097  25.509  1.00  0.00     0.289 C 
ATOM      9  C   UNL A   1      33.642  26.603  23.167  1.00  0.00     0.030 C 
ATOM     10  C   UNL A   1      32.468  26.018  23.980  1.00  0.00     0.077 C 
ATOM     11  C   UNL A   1      31.178  26.666  23.478  1.00  0.00     0.030 C 
ATOM     12  S   UNL A   1      32.428  24.213  23.644  1.00  0.00    -0.081 SA
ATOM     13  C   UNL A   1      33.199  23.778  25.230  1.00  0.00     0.276 C 
ATOM     14  N   UNL A   1      33.743  25.019  25.789  1.00  0.00    -0.320 N 
ATOM     15  H   UNL A   1      34.636  25.237  25.350  1.00  0.00     0.348 HD
ATOM     16  H   UNL A   1      33.898  24.924  26.793  1.00  0.00     0.348 HD
BRANCH  13  17
ATOM     17  C   UNL A   1      34.272  22.709  25.130  1.00  0.00     0.038 A 
ATOM     18  C   UNL A   1      35.635  23.059  25.282  1.00  0.00     0.012 A 
ATOM     19  C   UNL A   1      33.985  21.324  24.946  1.00  0.00     0.046 A 
ATOM     20  C   UNL A   1      36.648  22.117  25.236  1.00  0.00     0.001 A 
ATOM     21  C   UNL A   1      34.993  20.355  24.876  1.00  0.00     0.001 A 
ATOM     22  S   UNL A   1      32.435  20.577  24.789  1.00  0.00    -0.135 S 
ATOM     23  C   UNL A   1      36.338  20.779  25.026  1.00  0.00     0.010 A 
ATOM     24  C   UNL A   1      34.471  19.018  24.649  1.00  0.00     0.000 A 
ATOM     25  C   UNL A   1      33.079  19.003  24.604  1.00  0.00     0.036 A 
ATOM     26  C   UNL A   1      35.151  17.782  24.486  1.00  0.00     0.010 A 
ATOM     27  C   UNL A   1      32.356  17.806  24.423  1.00  0.00     0.019 A 
ATOM     28  C   UNL A   1      34.441  16.593  24.290  1.00  0.00     0.001 A 
ATOM     29  C   UNL A   1      33.055  16.607  24.266  1.00  0.00     0.002 A 
ENDBRANCH  13  17
ENDBRANCH   5   8
ENDBRANCH   3   4
ENDBRANCH   2   3
ENDBRANCH   1   2
BRANCH   1  30
ATOM     30  N   UNL A   1      32.970  31.414  26.679  1.00  0.00    -0.352 N 
ATOM     31  C   UNL A   1      33.761  32.087  27.579  1.00  0.00     0.251 C 
ATOM     32  H   UNL A   1      32.222  31.937  26.310  1.00  0.00     0.163 HD
ATOM     33  O   UNL A   1      33.394  33.180  28.007  1.00  0.00    -0.269 OA
BRANCH  31  34
ATOM     34  C   UNL A   1      35.028  31.487  28.050  1.00  0.00     0.039 A 
ATOM     35  C   UNL A   1      36.176  32.281  28.107  1.00  0.00     0.014 A 
ATOM     36  C   UNL A   1      35.086  30.148  28.447  1.00  0.00     0.014 A 
ATOM     37  C   UNL A   1      37.356  31.752  28.635  1.00  0.00     0.010 A 
ATOM     38  C   UNL A   1      36.228  29.659  29.069  1.00  0.00     0.010 A 
ATOM     39  C   UNL A   1      37.380  30.452  29.166  1.00  0.00    -0.014 A 
BRANCH  39  40
ATOM     40  C   UNL A   1      38.599  29.902  29.814  1.00  0.00     0.031 A 
ATOM     41  C   UNL A   1      39.012  30.386  31.179  1.00  0.00     0.074 A 
ATOM     42  C   UNL A   1      39.365  29.010  29.152  1.00  0.00     0.049 A 
ATOM     43  N   UNL A   1      40.075  30.083  31.879  1.00  0.00    -0.248 NA
ATOM     44  C   UNL A   1      38.127  31.366  31.828  1.00  0.00     0.031 C 
ATOM     45  C   UNL A   1      39.091  28.496  27.808  1.00  0.00     0.029 A 
ATOM     46  N   UNL A   1      40.529  28.381  29.514  1.00  0.00    -0.354 N 
ATOM     47  C   UNL A   1      39.991  30.839  33.043  1.00  0.00     0.074 A 
ATOM     48  C   UNL A   1      38.813  31.670  32.918  1.00  0.00     0.031 C 
ATOM     49  C   UNL A   1      40.036  27.602  27.477  1.00  0.00     0.029 A 
ATOM     50  C   UNL A   1      41.015  27.519  28.556  1.00  0.00     0.049 A 
ATOM     51  H   UNL A   1      40.975  28.531  30.379  1.00  0.00     0.167 HD
ATOM     52  C   UNL A   1      40.804  30.822  34.128  1.00  0.00     0.034 A 
ATOM     53  C   UNL A   1      42.128  26.760  28.543  1.00  0.00     0.034 A 
ATOM     54  C   UNL A   1      41.971  29.981  34.239  1.00  0.00     0.049 A 
ATOM     55  C   UNL A   1      43.041  26.790  29.744  1.00  0.00     0.074 A 
ATOM     56  C   UNL A   1      42.840  29.851  35.308  1.00  0.00     0.029 A 
ATOM     57  N   UNL A   1      42.440  29.134  33.243  1.00  0.00    -0.354 N 
ATOM     58  N   UNL A   1      42.922  27.476  30.857  1.00  0.00    -0.248 NA
ATOM     59  C   UNL A   1      44.232  25.934  29.690  1.00  0.00     0.031 C 
ATOM     60  C   UNL A   1      43.874  28.987  34.931  1.00  0.00     0.029 A 
ATOM     61  C   UNL A   1      43.604  28.505  33.660  1.00  0.00     0.049 A 
ATOM     62  H   UNL A   1      42.009  28.999  32.368  1.00  0.00     0.167 HD
ATOM     63  C   UNL A   1      44.005  27.107  31.649  1.00  0.00     0.074 A 
ATOM     64  C   UNL A   1      44.755  26.125  30.892  1.00  0.00     0.031 C 
ATOM     65  C   UNL A   1      44.349  27.536  32.891  1.00  0.00     0.034 A 
BRANCH  52  66
ATOM     66  C   UNL A   1      40.465  31.756  35.267  1.00  0.00     0.023 A 
ATOM     67  C   UNL A   1      39.479  31.435  36.217  1.00  0.00     0.031 A 
ATOM     68  C   UNL A   1      41.117  32.996  35.392  1.00  0.00     0.131 A 
ATOM     69  C   UNL A   1      39.118  32.371  37.199  1.00  0.00     0.055 A 
ATOM     70  C   UNL A   1      40.815  33.887  36.426  1.00  0.00     0.041 A 
ATOM     71  F   UNL A   1      42.050  33.371  34.504  1.00  0.00    -0.206 F 
ATOM     72  C   UNL A   1      39.798  33.583  37.327  1.00  0.00     0.022 A 
BRANCH  69  73
ATOM     73  S   UNL A   1      37.644  32.044  38.205  1.00  0.00     0.124 S 
ATOM     74  O   UNL A   1      36.722  33.066  37.716  1.00  0.00    -0.237 OA
ATOM     75  O   UNL A   1      37.319  30.667  37.851  1.00  0.00    -0.237 OA
ATOM     76  O   UNL A   1      38.114  32.243  39.575  1.00  0.00    -0.744 OA
ENDBRANCH  69  73
ENDBRANCH  52  66
BRANCH  53  77
ATOM     77  C   UNL A   1      42.455  25.911  27.360  1.00  0.00     0.023 A 
ATOM     78  C   UNL A   1      42.052  24.568  27.300  1.00  0.00     0.031 A 
ATOM     79  C   UNL A   1      43.216  26.417  26.291  1.00  0.00     0.131 A 
ATOM     80  C   UNL A   1      42.457  23.762  26.225  1.00  0.00     0.055 A 
ATOM     81  C   UNL A   1      43.564  25.627  25.193  1.00  0.00     0.041 A 
ATOM     82  F   UNL A   1      43.627  27.695  26.293  1.00  0.00    -0.206 F 
ATOM     83  C   UNL A   1      43.196  24.286  25.163  1.00  0.00     0.022 A 
BRANCH  80  84
ATOM     84  S   UNL A   1      42.084  21.987  26.283  1.00  0.00     0.124 S 
ATOM     85  O   UNL A   1      40.644  21.979  26.049  1.00  0.00    -0.237 OA
ATOM     86  O   UNL A   1      42.914  21.468  25.201  1.00  0.00    -0.237 OA
ATOM     87  O   UNL A   1      42.501  21.596  27.628  1.00  0.00    -0.744 OA
ENDBRANCH  80  84
ENDBRANCH  53  77
BRANCH  65  88
ATOM     88  C   UNL A   1      45.565  26.903  33.524  1.00  0.00     0.023 A 
ATOM     89  C   UNL A   1      46.853  27.444  33.363  1.00  0.00     0.031 A 
ATOM     90  C   UNL A   1      45.432  25.732  34.291  1.00  0.00     0.131 A 
ATOM     91  C   UNL A   1      47.962  26.779  33.906  1.00  0.00     0.055 A 
ATOM     92  C   UNL A   1      46.532  25.114  34.888  1.00  0.00     0.041 A 
ATOM     93  F   UNL A   1      44.227  25.167  34.476  1.00  0.00    -0.206 F 
ATOM     94  C   UNL A   1      47.808  25.629  34.684  1.00  0.00     0.022 A 
BRANCH  91  95
ATOM     95  S   UNL A   1      49.624  27.377  33.491  1.00  0.00     0.124 S 
ATOM     96  O   UNL A   1      49.378  28.790  33.221  1.00  0.00    -0.237 OA
ATOM     97  O   UNL A   1      50.375  27.082  34.706  1.00  0.00    -0.237 OA
ATOM     98  O   UNL A   1      49.994  26.578  32.324  1.00  0.00    -0.744 OA
ENDBRANCH  91  95
ENDBRANCH  65  88
ENDBRANCH  39  40
ENDBRANCH  31  34
ENDBRANCH   1  30
TORSDOF 14
ENDMDL
