MODEL 1
REMARK VINA RESULT:     -12.3      0.000      0.000
REMARK SMILES N#CCOc1ccc2[nH]cc([C@H](C(=O)NCCCNC(=O)c3ccc(-c4c5nc(c(-c6cc(S(=O)(=O)[O-])ccc6F)c6ccc([nH]6)c(-c6cc(S(=O)(=O)[O-])ccc6F)c6nc(c(-c7cc(S(=O)(=O)[O-])ccc7F)c7ccc4[nH]7)C=C6)C=C5)cc3)[NH+]3CC[NH+]([C@@H]4CCS(=O)(=O)C4)CC3)c2c1
REMARK SMILES IDX 16 1 15 2 13 3 14 4 12 6 11 7 5 8 6 9 99 10 7 11 98 12 8 13
REMARK SMILES IDX 9 14 10 15 4 17 3 18 2 19 1 20 85 21 86 22 97 23 87 25 96 26
REMARK SMILES IDX 88 27 89 29 90 30 95 31 91 32 92 33 93 34 94 35 17 36 18 37
REMARK SMILES IDX 19 38 20 39 21 41 22 42 23 43 84 44 24 45 83 46 25 47 26 48
REMARK SMILES IDX 27 49 77 50 28 51 82 52 76 53 78 54 29 55 81 56 75 57 74 58
REMARK SMILES IDX 30 60 62 61 42 62 61 63 43 64 46 65 60 66 79 67 44 68 45 69
REMARK SMILES IDX 59 71 80 72 47 73 31 74 32 75 40 76 33 77 39 78 41 79 38 80
REMARK SMILES IDX 34 81 35 82 36 83 37 84 63 85 64 86 72 87 65 88 71 89 73 90
REMARK SMILES IDX 70 91 66 92 67 93 68 94 69 95 48 96 49 97 57 98 50 99 56 100
REMARK SMILES IDX 58 101 55 102 51 103 52 104 53 105 54 106
REMARK H PARENT 15 5 9 16 85 24 88 28 19 40 78 59 46 70
REMARK Flexibility Score: inf
ROOT
ATOM      1  C   UNL A   1      33.978  28.187  22.613  1.00  0.00     0.118 C 
ENDROOT
BRANCH   1   2
ATOM      2  N   UNL A   1      32.988  27.598  21.744  1.00  0.00    -0.351 N 
ATOM      3  C   UNL A   1      32.062  26.642  22.014  1.00  0.00     0.283 C 
ATOM      4  O   UNL A   1      31.541  26.128  21.021  1.00  0.00    -0.268 OA
ATOM      5  H   UNL A   1      32.983  27.939  20.820  1.00  0.00     0.163 HD
BRANCH   3   6
ATOM      6  C   UNL A   1      31.646  26.353  23.479  1.00  0.00     0.308 C 
BRANCH   6   7
ATOM      7  C   UNL A   1      30.150  26.482  23.667  1.00  0.00     0.045 A 
ATOM      8  C   UNL A   1      28.679  29.743  22.315  1.00  0.00     0.121 A 
ATOM      9  C   UNL A   1      27.371  29.445  22.704  1.00  0.00     0.048 A 
ATOM     10  C   UNL A   1      29.633  28.782  22.556  1.00  0.00     0.057 A 
ATOM     11  C   UNL A   1      27.022  28.256  23.378  1.00  0.00     0.030 A 
ATOM     12  C   UNL A   1      29.351  27.592  23.251  1.00  0.00     0.013 A 
ATOM     13  C   UNL A   1      28.042  27.348  23.641  1.00  0.00     0.046 A 
ATOM     14  N   UNL A   1      28.021  26.113  24.242  1.00  0.00    -0.361 N 
ATOM     15  C   UNL A   1      29.284  25.582  24.265  1.00  0.00     0.094 A 
ATOM     16  H   UNL A   1      27.216  25.675  24.603  1.00  0.00     0.166 HD
BRANCH   8  17
ATOM     17  O   UNL A   1      29.207  30.797  21.600  1.00  0.00    -0.479 OA
BRANCH  17  18
ATOM     18  C   UNL A   1      28.352  31.873  21.168  1.00  0.00     0.349 C 
BRANCH  18  19
ATOM     19  C   UNL A   1      28.542  32.959  22.216  1.00  0.00     0.104 C 
ATOM     20  N   UNL A   1      28.699  33.858  23.084  1.00  0.00    -0.195 NA
ENDBRANCH  18  19
ENDBRANCH  17  18
ENDBRANCH   8  17
ENDBRANCH   6   7
BRANCH   6  21
ATOM     21  N   UNL A   1      32.135  25.055  23.990  1.00  0.00    -0.312 N 
ATOM     22  C   UNL A   1      32.056  23.894  23.089  1.00  0.00     0.325 C 
ATOM     23  C   UNL A   1      33.441  25.201  24.645  1.00  0.00     0.325 C 
ATOM     24  H   UNL A   1      31.442  24.795  24.693  1.00  0.00     0.349 HD
ATOM     25  C   UNL A   1      33.347  23.389  22.399  1.00  0.00     0.324 C 
ATOM     26  C   UNL A   1      34.679  24.806  23.822  1.00  0.00     0.324 C 
ATOM     27  N   UNL A   1      34.589  23.500  23.176  1.00  0.00    -0.322 N 
ATOM     28  H   UNL A   1      35.369  23.496  22.519  1.00  0.00     0.348 HD
BRANCH  27  29
ATOM     29  C   UNL A   1      35.018  22.309  23.904  1.00  0.00     0.200 C 
ATOM     30  C   UNL A   1      34.541  22.080  25.348  1.00  0.00     0.082 C 
ATOM     31  C   UNL A   1      36.539  22.095  23.895  1.00  0.00     0.201 C 
ATOM     32  C   UNL A   1      35.575  22.582  26.342  1.00  0.00     0.143 C 
ATOM     33  S   UNL A   1      37.137  22.591  25.499  1.00  0.00     0.156 S 
ATOM     34  O   UNL A   1      37.614  23.956  25.452  1.00  0.00    -0.229 OA
ATOM     35  O   UNL A   1      37.951  21.518  26.037  1.00  0.00    -0.229 OA
ENDBRANCH  27  29
ENDBRANCH   6  21
ENDBRANCH   3   6
ENDBRANCH   1   2
BRANCH   1  36
ATOM     36  C   UNL A   1      33.352  29.351  23.369  1.00  0.00     0.042 C 
BRANCH  36  37
ATOM     37  C   UNL A   1      33.614  29.302  24.875  1.00  0.00     0.118 C 
BRANCH  37  38
ATOM     38  N   UNL A   1      32.885  30.336  25.602  1.00  0.00    -0.352 N 
ATOM     39  C   UNL A   1      33.176  30.920  26.808  1.00  0.00     0.251 C 
ATOM     40  H   UNL A   1      32.066  30.661  25.163  1.00  0.00     0.163 HD
ATOM     41  O   UNL A   1      32.333  31.611  27.371  1.00  0.00    -0.269 OA
BRANCH  39  42
ATOM     42  C   UNL A   1      34.496  30.685  27.418  1.00  0.00     0.039 A 
ATOM     43  C   UNL A   1      35.368  31.760  27.587  1.00  0.00     0.014 A 
ATOM     44  C   UNL A   1      34.849  29.404  27.852  1.00  0.00     0.014 A 
ATOM     45  C   UNL A   1      36.575  31.560  28.255  1.00  0.00     0.010 A 
ATOM     46  C   UNL A   1      36.008  29.229  28.597  1.00  0.00     0.010 A 
ATOM     47  C   UNL A   1      36.887  30.303  28.799  1.00  0.00    -0.014 A 
BRANCH  47  48
ATOM     48  C   UNL A   1      38.137  30.086  29.570  1.00  0.00     0.031 A 
ATOM     49  C   UNL A   1      39.212  29.193  29.013  1.00  0.00     0.074 A 
ATOM     50  C   UNL A   1      38.275  30.644  30.789  1.00  0.00     0.049 A 
ATOM     51  N   UNL A   1      40.340  28.818  29.559  1.00  0.00    -0.248 NA
ATOM     52  C   UNL A   1      38.971  28.621  27.679  1.00  0.00     0.031 C 
ATOM     53  C   UNL A   1      37.281  31.496  31.446  1.00  0.00     0.029 A 
ATOM     54  N   UNL A   1      39.303  30.576  31.696  1.00  0.00    -0.354 N 
ATOM     55  C   UNL A   1      40.935  27.958  28.642  1.00  0.00     0.074 A 
ATOM     56  C   UNL A   1      40.010  27.813  27.540  1.00  0.00     0.031 C 
ATOM     57  C   UNL A   1      37.760  31.895  32.635  1.00  0.00     0.029 A 
ATOM     58  C   UNL A   1      39.069  31.287  32.852  1.00  0.00     0.049 A 
ATOM     59  H   UNL A   1      40.129  30.066  31.535  1.00  0.00     0.167 HD
ATOM     60  C   UNL A   1      42.153  27.365  28.704  1.00  0.00     0.034 A 
ATOM     61  C   UNL A   1      39.818  31.420  33.964  1.00  0.00     0.034 A 
ATOM     62  C   UNL A   1      43.065  27.530  29.810  1.00  0.00     0.049 A 
ATOM     63  C   UNL A   1      41.154  30.722  34.024  1.00  0.00     0.074 A 
ATOM     64  C   UNL A   1      44.342  27.020  29.956  1.00  0.00     0.029 A 
ATOM     65  N   UNL A   1      42.792  28.252  30.966  1.00  0.00    -0.354 N 
ATOM     66  N   UNL A   1      41.727  29.954  33.125  1.00  0.00    -0.248 NA
ATOM     67  C   UNL A   1      41.948  30.919  35.243  1.00  0.00     0.031 C 
ATOM     68  C   UNL A   1      44.809  27.364  31.228  1.00  0.00     0.029 A 
ATOM     69  C   UNL A   1      43.863  28.169  31.842  1.00  0.00     0.049 A 
ATOM     70  H   UNL A   1      41.960  28.750  31.137  1.00  0.00     0.167 HD
ATOM     71  C   UNL A   1      42.966  29.607  33.659  1.00  0.00     0.074 A 
ATOM     72  C   UNL A   1      43.060  30.261  34.947  1.00  0.00     0.031 C 
ATOM     73  C   UNL A   1      43.940  28.823  33.129  1.00  0.00     0.034 A 
BRANCH  60  74
ATOM     74  C   UNL A   1      42.549  26.466  27.556  1.00  0.00     0.023 A 
ATOM     75  C   UNL A   1      42.276  25.086  27.568  1.00  0.00     0.031 A 
ATOM     76  C   UNL A   1      43.233  26.989  26.444  1.00  0.00     0.131 A 
ATOM     77  C   UNL A   1      42.752  24.267  26.533  1.00  0.00     0.055 A 
ATOM     78  C   UNL A   1      43.626  26.183  25.374  1.00  0.00     0.041 A 
ATOM     79  F   UNL A   1      43.545  28.294  26.385  1.00  0.00    -0.206 F 
ATOM     80  C   UNL A   1      43.400  24.811  25.422  1.00  0.00     0.022 A 
BRANCH  77  81
ATOM     81  S   UNL A   1      42.648  22.468  26.736  1.00  0.00     0.124 S 
ATOM     82  O   UNL A   1      42.656  22.335  28.191  1.00  0.00    -0.237 OA
ATOM     83  O   UNL A   1      41.391  22.147  26.072  1.00  0.00    -0.237 OA
ATOM     84  O   UNL A   1      43.852  21.978  26.067  1.00  0.00    -0.744 OA
ENDBRANCH  77  81
ENDBRANCH  60  74
BRANCH  61  85
ATOM     85  C   UNL A   1      39.328  32.233  35.115  1.00  0.00     0.023 A 
ATOM     86  C   UNL A   1      39.736  33.565  35.289  1.00  0.00     0.031 A 
ATOM     87  C   UNL A   1      38.477  31.675  36.087  1.00  0.00     0.131 A 
ATOM     88  C   UNL A   1      39.340  34.276  36.432  1.00  0.00     0.055 A 
ATOM     89  C   UNL A   1      38.036  32.405  37.190  1.00  0.00     0.041 A 
ATOM     90  F   UNL A   1      38.052  30.406  35.969  1.00  0.00    -0.206 F 
ATOM     91  C   UNL A   1      38.480  33.710  37.377  1.00  0.00     0.022 A 
BRANCH  88  92
ATOM     92  S   UNL A   1      40.045  35.922  36.718  1.00  0.00     0.124 S 
ATOM     93  O   UNL A   1      41.462  35.615  36.871  1.00  0.00    -0.237 OA
ATOM     94  O   UNL A   1      39.669  36.629  35.498  1.00  0.00    -0.237 OA
ATOM     95  O   UNL A   1      39.369  36.375  37.932  1.00  0.00    -0.744 OA
ENDBRANCH  88  92
ENDBRANCH  61  85
BRANCH  73  96
ATOM     96  C   UNL A   1      45.216  28.678  33.924  1.00  0.00     0.023 A 
ATOM     97  C   UNL A   1      46.300  29.558  33.761  1.00  0.00     0.031 A 
ATOM     98  C   UNL A   1      45.348  27.634  34.857  1.00  0.00     0.131 A 
ATOM     99  C   UNL A   1      47.488  29.342  34.475  1.00  0.00     0.055 A 
ATOM    100  C   UNL A   1      46.506  27.466  35.616  1.00  0.00     0.041 A 
ATOM    101  F   UNL A   1      44.347  26.760  35.052  1.00  0.00    -0.206 F 
ATOM    102  C   UNL A   1      47.590  28.315  35.417  1.00  0.00     0.022 A 
BRANCH  99 103
ATOM    103  S   UNL A   1      48.938  30.358  34.081  1.00  0.00     0.124 S 
ATOM    104  O   UNL A   1      49.884  29.360  33.593  1.00  0.00    -0.237 OA
ATOM    105  O   UNL A   1      48.411  31.281  33.081  1.00  0.00    -0.237 OA
ATOM    106  O   UNL A   1      49.288  30.968  35.363  1.00  0.00    -0.744 OA
ENDBRANCH  99 103
ENDBRANCH  73  96
ENDBRANCH  47  48
ENDBRANCH  39  42
ENDBRANCH  37  38
ENDBRANCH  36  37
ENDBRANCH   1  36
TORSDOF 19
ENDMDL
MODEL 2
REMARK VINA RESULT:     -12.2      1.867      7.624
REMARK SMILES N#CCOc1ccc2[nH]cc([C@H](C(=O)NCCCNC(=O)c3ccc(-c4c5nc(c(-c6cc(S(=O)(=O)[O-])ccc6F)c6ccc([nH]6)c(-c6cc(S(=O)(=O)[O-])ccc6F)c6nc(c(-c7cc(S(=O)(=O)[O-])ccc7F)c7ccc4[nH]7)C=C6)C=C5)cc3)[NH+]3CC[NH+]([C@@H]4CCS(=O)(=O)C4)CC3)c2c1
REMARK SMILES IDX 16 1 15 2 13 3 14 4 12 6 11 7 5 8 6 9 99 10 7 11 98 12 8 13
REMARK SMILES IDX 9 14 10 15 4 17 3 18 2 19 1 20 85 21 86 22 97 23 87 25 96 26
REMARK SMILES IDX 88 27 89 29 90 30 95 31 91 32 92 33 93 34 94 35 17 36 18 37
REMARK SMILES IDX 19 38 20 39 21 41 22 42 23 43 84 44 24 45 83 46 25 47 26 48
REMARK SMILES IDX 27 49 77 50 28 51 82 52 76 53 78 54 29 55 81 56 75 57 74 58
REMARK SMILES IDX 30 60 62 61 42 62 61 63 43 64 46 65 60 66 79 67 44 68 45 69
REMARK SMILES IDX 59 71 80 72 47 73 31 74 32 75 40 76 33 77 39 78 41 79 38 80
REMARK SMILES IDX 34 81 35 82 36 83 37 84 63 85 64 86 72 87 65 88 71 89 73 90
REMARK SMILES IDX 70 91 66 92 67 93 68 94 69 95 48 96 49 97 57 98 50 99 56 100
REMARK SMILES IDX 58 101 55 102 51 103 52 104 53 105 54 106
REMARK H PARENT 15 5 9 16 85 24 88 28 19 40 78 59 46 70
REMARK Flexibility Score: inf
ROOT
ATOM      1  C   UNL A   1      33.821  28.586  23.073  1.00  0.00     0.118 C 
ENDROOT
BRANCH   1   2
ATOM      2  N   UNL A   1      32.996  27.876  22.126  1.00  0.00    -0.351 N 
ATOM      3  C   UNL A   1      32.146  26.837  22.330  1.00  0.00     0.283 C 
ATOM      4  O   UNL A   1      31.792  26.247  21.306  1.00  0.00    -0.268 OA
ATOM      5  H   UNL A   1      33.059  28.192  21.195  1.00  0.00     0.163 HD
BRANCH   3   6
ATOM      6  C   UNL A   1      31.602  26.543  23.751  1.00  0.00     0.308 C 
BRANCH   6   7
ATOM      7  C   UNL A   1      30.092  26.611  23.792  1.00  0.00     0.045 A 
ATOM      8  C   UNL A   1      28.639  29.934  22.580  1.00  0.00     0.121 A 
ATOM      9  C   UNL A   1      27.311  29.563  22.804  1.00  0.00     0.048 A 
ATOM     10  C   UNL A   1      29.600  28.985  22.836  1.00  0.00     0.057 A 
ATOM     11  C   UNL A   1      26.942  28.309  23.333  1.00  0.00     0.030 A 
ATOM     12  C   UNL A   1      29.296  27.729  23.392  1.00  0.00     0.013 A 
ATOM     13  C   UNL A   1      27.965  27.411  23.622  1.00  0.00     0.046 A 
ATOM     14  N   UNL A   1      27.931  26.128  24.108  1.00  0.00    -0.361 N 
ATOM     15  C   UNL A   1      29.205  25.635  24.217  1.00  0.00     0.094 A 
ATOM     16  H   UNL A   1      27.112  25.635  24.344  1.00  0.00     0.166 HD
BRANCH   8  17
ATOM     17  O   UNL A   1      29.195  31.064  22.018  1.00  0.00    -0.479 OA
BRANCH  17  18
ATOM     18  C   UNL A   1      28.381  32.229  21.788  1.00  0.00     0.349 C 
BRANCH  18  19
ATOM     19  C   UNL A   1      28.968  33.294  22.701  1.00  0.00     0.104 C 
ATOM     20  N   UNL A   1      29.455  34.177  23.457  1.00  0.00    -0.195 NA
ENDBRANCH  18  19
ENDBRANCH  17  18
ENDBRANCH   8  17
ENDBRANCH   6   7
BRANCH   6  21
ATOM     21  N   UNL A   1      32.094  25.272  24.325  1.00  0.00    -0.312 N 
ATOM     22  C   UNL A   1      32.395  24.175  23.390  1.00  0.00     0.325 C 
ATOM     23  C   UNL A   1      33.155  25.510  25.311  1.00  0.00     0.325 C 
ATOM     24  H   UNL A   1      31.277  24.892  24.805  1.00  0.00     0.349 HD
ATOM     25  C   UNL A   1      33.873  23.859  23.054  1.00  0.00     0.324 C 
ATOM     26  C   UNL A   1      34.604  25.307  24.836  1.00  0.00     0.324 C 
ATOM     27  N   UNL A   1      34.844  24.047  24.139  1.00  0.00    -0.322 N 
ATOM     28  H   UNL A   1      35.764  24.172  23.716  1.00  0.00     0.348 HD
BRANCH  27  29
ATOM     29  C   UNL A   1      35.208  22.860  24.909  1.00  0.00     0.200 C 
ATOM     30  C   UNL A   1      34.701  21.476  24.470  1.00  0.00     0.082 C 
ATOM     31  C   UNL A   1      34.919  22.987  26.413  1.00  0.00     0.201 C 
ATOM     32  C   UNL A   1      33.439  21.101  25.228  1.00  0.00     0.143 C 
ATOM     33  S   UNL A   1      33.444  22.040  26.734  1.00  0.00     0.156 S 
ATOM     34  O   UNL A   1      32.286  22.907  26.727  1.00  0.00    -0.229 OA
ATOM     35  O   UNL A   1      33.711  21.135  27.835  1.00  0.00    -0.229 OA
ENDBRANCH  27  29
ENDBRANCH   6  21
ENDBRANCH   3   6
ENDBRANCH   1   2
BRANCH   1  36
ATOM     36  C   UNL A   1      32.927  29.316  24.067  1.00  0.00     0.042 C 
BRANCH  36  37
ATOM     37  C   UNL A   1      33.623  29.615  25.396  1.00  0.00     0.118 C 
BRANCH  37  38
ATOM     38  N   UNL A   1      33.142  30.846  26.013  1.00  0.00    -0.352 N 
ATOM     39  C   UNL A   1      33.569  31.472  27.155  1.00  0.00     0.251 C 
ATOM     40  H   UNL A   1      32.402  31.293  25.540  1.00  0.00     0.163 HD
ATOM     41  O   UNL A   1      32.901  32.378  27.643  1.00  0.00    -0.269 OA
BRANCH  39  42
ATOM     42  C   UNL A   1      34.820  31.023  27.792  1.00  0.00     0.039 A 
ATOM     43  C   UNL A   1      35.858  31.937  27.970  1.00  0.00     0.014 A 
ATOM     44  C   UNL A   1      34.944  29.705  28.242  1.00  0.00     0.014 A 
ATOM     45  C   UNL A   1      37.002  31.543  28.662  1.00  0.00     0.010 A 
ATOM     46  C   UNL A   1      36.044  29.344  29.010  1.00  0.00     0.010 A 
ATOM     47  C   UNL A   1      37.088  30.257  29.221  1.00  0.00    -0.014 A 
BRANCH  47  48
ATOM     48  C   UNL A   1      38.270  29.840  30.016  1.00  0.00     0.031 A 
ATOM     49  C   UNL A   1      38.471  30.395  31.400  1.00  0.00     0.074 A 
ATOM     50  C   UNL A   1      39.185  29.015  29.471  1.00  0.00     0.049 A 
ATOM     51  N   UNL A   1      39.469  30.215  32.226  1.00  0.00    -0.248 NA
ATOM     52  C   UNL A   1      37.425  31.295  31.910  1.00  0.00     0.031 C 
ATOM     53  C   UNL A   1      39.114  28.448  28.122  1.00  0.00     0.029 A 
ATOM     54  N   UNL A   1      40.356  28.512  29.979  1.00  0.00    -0.354 N 
ATOM     55  C   UNL A   1      39.178  30.989  33.344  1.00  0.00     0.074 A 
ATOM     56  C   UNL A   1      37.947  31.692  33.059  1.00  0.00     0.031 C 
ATOM     57  C   UNL A   1      40.176  27.652  27.922  1.00  0.00     0.029 A 
ATOM     58  C   UNL A   1      41.033  27.693  29.103  1.00  0.00     0.049 A 
ATOM     59  H   UNL A   1      40.681  28.718  30.884  1.00  0.00     0.167 HD
ATOM     60  C   UNL A   1      39.862  31.082  34.511  1.00  0.00     0.034 A 
ATOM     61  C   UNL A   1      42.215  27.060  29.233  1.00  0.00     0.034 A 
ATOM     62  C   UNL A   1      41.085  30.365  34.777  1.00  0.00     0.049 A 
ATOM     63  C   UNL A   1      42.976  27.208  30.528  1.00  0.00     0.074 A 
ATOM     64  C   UNL A   1      41.835  30.344  35.939  1.00  0.00     0.029 A 
ATOM     65  N   UNL A   1      41.745  29.550  33.865  1.00  0.00    -0.354 N 
ATOM     66  N   UNL A   1      42.661  27.902  31.597  1.00  0.00    -0.248 NA
ATOM     67  C   UNL A   1      44.246  26.478  30.635  1.00  0.00     0.031 C 
ATOM     68  C   UNL A   1      42.985  29.584  35.706  1.00  0.00     0.029 A 
ATOM     69  C   UNL A   1      42.910  29.051  34.428  1.00  0.00     0.049 A 
ATOM     70  H   UNL A   1      41.431  29.354  32.953  1.00  0.00     0.167 HD
ATOM     71  C   UNL A   1      43.678  27.661  32.519  1.00  0.00     0.074 A 
ATOM     72  C   UNL A   1      44.604  26.747  31.882  1.00  0.00     0.031 C 
ATOM     73  C   UNL A   1      43.829  28.145  33.778  1.00  0.00     0.034 A 
BRANCH  60  74
ATOM     74  C   UNL A   1      39.314  32.013  35.567  1.00  0.00     0.023 A 
ATOM     75  C   UNL A   1      39.721  33.357  35.653  1.00  0.00     0.031 A 
ATOM     76  C   UNL A   1      38.391  31.546  36.519  1.00  0.00     0.131 A 
ATOM     77  C   UNL A   1      39.271  34.161  36.712  1.00  0.00     0.055 A 
ATOM     78  C   UNL A   1      37.877  32.376  37.517  1.00  0.00     0.041 A 
ATOM     79  F   UNL A   1      37.983  30.267  36.505  1.00  0.00    -0.206 F 
ATOM     80  C   UNL A   1      38.329  33.688  37.627  1.00  0.00     0.022 A 
BRANCH  77  81
ATOM     81  S   UNL A   1      40.051  35.779  36.962  1.00  0.00     0.124 S 
ATOM     82  O   UNL A   1      41.466  35.419  37.008  1.00  0.00    -0.237 OA
ATOM     83  O   UNL A   1      39.618  36.523  35.786  1.00  0.00    -0.237 OA
ATOM     84  O   UNL A   1      39.490  36.236  38.232  1.00  0.00    -0.744 OA
ENDBRANCH  77  81
ENDBRANCH  60  74
BRANCH  61  85
ATOM     85  C   UNL A   1      42.764  26.240  28.114  1.00  0.00     0.023 A 
ATOM     86  C   UNL A   1      42.397  24.895  27.953  1.00  0.00     0.031 A 
ATOM     87  C   UNL A   1      43.701  26.778  27.213  1.00  0.00     0.131 A 
ATOM     88  C   UNL A   1      43.001  24.119  26.952  1.00  0.00     0.055 A 
ATOM     89  C   UNL A   1      44.253  26.019  26.181  1.00  0.00     0.041 A 
ATOM     90  F   UNL A   1      44.085  28.061  27.317  1.00  0.00    -0.206 F 
ATOM     91  C   UNL A   1      43.916  24.676  26.055  1.00  0.00     0.022 A 
BRANCH  88  92
ATOM     92  S   UNL A   1      42.648  22.341  26.901  1.00  0.00     0.124 S 
ATOM     93  O   UNL A   1      42.613  22.004  28.319  1.00  0.00    -0.237 OA
ATOM     94  O   UNL A   1      41.369  22.306  26.200  1.00  0.00    -0.237 OA
ATOM     95  O   UNL A   1      43.779  21.791  26.156  1.00  0.00    -0.744 OA
ENDBRANCH  88  92
ENDBRANCH  61  85
BRANCH  73  96
ATOM     96  C   UNL A   1      45.016  27.649  34.569  1.00  0.00     0.023 A 
ATOM     97  C   UNL A   1      44.953  26.487  35.358  1.00  0.00     0.031 A 
ATOM     98  C   UNL A   1      46.231  28.359  34.534  1.00  0.00     0.131 A 
ATOM     99  C   UNL A   1      46.063  26.105  36.126  1.00  0.00     0.055 A 
ATOM    100  C   UNL A   1      47.353  27.933  35.245  1.00  0.00     0.041 A 
ATOM    101  F   UNL A   1      46.348  29.478  33.801  1.00  0.00    -0.206 F 
ATOM    102  C   UNL A   1      47.268  26.808  36.058  1.00  0.00     0.022 A 
BRANCH  99 103
ATOM    103  S   UNL A   1      45.879  24.733  37.299  1.00  0.00     0.124 S 
ATOM    104  O   UNL A   1      47.268  24.403  37.600  1.00  0.00    -0.237 OA
ATOM    105  O   UNL A   1      45.121  25.348  38.383  1.00  0.00    -0.237 OA
ATOM    106  O   UNL A   1      45.154  23.721  36.533  1.00  0.00    -0.744 OA
ENDBRANCH  99 103
ENDBRANCH  73  96
ENDBRANCH  47  48
ENDBRANCH  39  42
ENDBRANCH  37  38
ENDBRANCH  36  37
ENDBRANCH   1  36
TORSDOF 19
ENDMDL
MODEL 3
REMARK VINA RESULT:     -11.5      3.785      6.719
REMARK SMILES N#CCOc1ccc2[nH]cc([C@H](C(=O)NCCCNC(=O)c3ccc(-c4c5nc(c(-c6cc(S(=O)(=O)[O-])ccc6F)c6ccc([nH]6)c(-c6cc(S(=O)(=O)[O-])ccc6F)c6nc(c(-c7cc(S(=O)(=O)[O-])ccc7F)c7ccc4[nH]7)C=C6)C=C5)cc3)[NH+]3CC[NH+]([C@@H]4CCS(=O)(=O)C4)CC3)c2c1
REMARK SMILES IDX 16 1 15 2 13 3 14 4 12 6 11 7 5 8 6 9 99 10 7 11 98 12 8 13
REMARK SMILES IDX 9 14 10 15 4 17 3 18 2 19 1 20 85 21 86 22 97 23 87 25 96 26
REMARK SMILES IDX 88 27 89 29 90 30 95 31 91 32 92 33 93 34 94 35 17 36 18 37
REMARK SMILES IDX 19 38 20 39 21 41 22 42 23 43 84 44 24 45 83 46 25 47 26 48
REMARK SMILES IDX 27 49 77 50 28 51 82 52 76 53 78 54 29 55 81 56 75 57 74 58
REMARK SMILES IDX 30 60 62 61 42 62 61 63 43 64 46 65 60 66 79 67 44 68 45 69
REMARK SMILES IDX 59 71 80 72 47 73 31 74 32 75 40 76 33 77 39 78 41 79 38 80
REMARK SMILES IDX 34 81 35 82 36 83 37 84 63 85 64 86 72 87 65 88 71 89 73 90
REMARK SMILES IDX 70 91 66 92 67 93 68 94 69 95 48 96 49 97 57 98 50 99 56 100
REMARK SMILES IDX 58 101 55 102 51 103 52 104 53 105 54 106
REMARK H PARENT 15 5 9 16 85 24 88 28 19 40 78 59 46 70
REMARK Flexibility Score: inf
ROOT
ATOM      1  C   UNL A   1      34.834  23.986  26.301  1.00  0.00     0.118 C 
ENDROOT
BRANCH   1   2
ATOM      2  N   UNL A   1      35.123  24.678  25.068  1.00  0.00    -0.351 N 
ATOM      3  C   UNL A   1      34.359  24.811  23.953  1.00  0.00     0.283 C 
ATOM      4  O   UNL A   1      34.965  25.207  22.954  1.00  0.00    -0.268 OA
ATOM      5  H   UNL A   1      36.003  25.118  25.031  1.00  0.00     0.163 HD
BRANCH   3   6
ATOM      6  C   UNL A   1      32.828  24.586  24.027  1.00  0.00     0.308 C 
BRANCH   6   7
ATOM      7  C   UNL A   1      32.076  25.625  23.225  1.00  0.00     0.045 A 
ATOM      8  C   UNL A   1      31.272  28.821  25.166  1.00  0.00     0.121 A 
ATOM      9  C   UNL A   1      30.603  29.431  24.103  1.00  0.00     0.048 A 
ATOM     10  C   UNL A   1      31.827  27.587  24.923  1.00  0.00     0.057 A 
ATOM     11  C   UNL A   1      30.425  28.811  22.849  1.00  0.00     0.030 A 
ATOM     12  C   UNL A   1      31.658  26.905  23.704  1.00  0.00     0.013 A 
ATOM     13  C   UNL A   1      30.964  27.539  22.683  1.00  0.00     0.046 A 
ATOM     14  N   UNL A   1      30.986  26.701  21.595  1.00  0.00    -0.361 N 
ATOM     15  C   UNL A   1      31.651  25.544  21.909  1.00  0.00     0.094 A 
ATOM     16  H   UNL A   1      30.582  26.902  20.720  1.00  0.00     0.166 HD
BRANCH   8  17
ATOM     17  O   UNL A   1      31.605  29.276  26.424  1.00  0.00    -0.479 OA
BRANCH  17  18
ATOM     18  C   UNL A   1      31.974  30.654  26.616  1.00  0.00     0.349 C 
BRANCH  18  19
ATOM     19  C   UNL A   1      33.431  30.605  27.049  1.00  0.00     0.104 C 
ATOM     20  N   UNL A   1      34.639  30.564  27.407  1.00  0.00    -0.195 NA
ENDBRANCH  18  19
ENDBRANCH  17  18
ENDBRANCH   8  17
ENDBRANCH   6   7
BRANCH   6  21
ATOM     21  N   UNL A   1      32.409  23.219  23.652  1.00  0.00    -0.312 N 
ATOM     22  C   UNL A   1      33.442  22.310  23.129  1.00  0.00     0.325 C 
ATOM     23  C   UNL A   1      31.571  22.615  24.694  1.00  0.00     0.325 C 
ATOM     24  H   UNL A   1      31.842  23.361  22.815  1.00  0.00     0.349 HD
ATOM     25  C   UNL A   1      34.004  21.201  24.052  1.00  0.00     0.324 C 
ATOM     26  C   UNL A   1      32.258  21.631  25.656  1.00  0.00     0.324 C 
ATOM     27  N   UNL A   1      33.057  20.600  25.001  1.00  0.00    -0.322 N 
ATOM     28  H   UNL A   1      33.598  20.188  25.762  1.00  0.00     0.348 HD
BRANCH  27  29
ATOM     29  C   UNL A   1      32.421  19.350  24.594  1.00  0.00     0.200 C 
ATOM     30  C   UNL A   1      32.198  18.232  25.626  1.00  0.00     0.082 C 
ATOM     31  C   UNL A   1      33.069  18.700  23.362  1.00  0.00     0.201 C 
ATOM     32  C   UNL A   1      33.329  17.218  25.573  1.00  0.00     0.143 C 
ATOM     33  S   UNL A   1      34.052  17.338  23.957  1.00  0.00     0.156 S 
ATOM     34  O   UNL A   1      35.430  17.751  24.111  1.00  0.00    -0.229 OA
ATOM     35  O   UNL A   1      33.693  16.151  23.207  1.00  0.00    -0.229 OA
ENDBRANCH  27  29
ENDBRANCH   6  21
ENDBRANCH   3   6
ENDBRANCH   1   2
BRANCH   1  36
ATOM     36  C   UNL A   1      35.884  22.906  26.528  1.00  0.00     0.042 C 
BRANCH  36  37
ATOM     37  C   UNL A   1      37.115  23.066  25.635  1.00  0.00     0.118 C 
BRANCH  37  38
ATOM     38  N   UNL A   1      38.220  22.208  26.050  1.00  0.00    -0.352 N 
ATOM     39  C   UNL A   1      39.448  22.553  26.550  1.00  0.00     0.251 C 
ATOM     40  H   UNL A   1      38.059  21.241  25.956  1.00  0.00     0.163 HD
ATOM     41  O   UNL A   1      40.334  21.708  26.635  1.00  0.00    -0.269 OA
BRANCH  39  42
ATOM     42  C   UNL A   1      39.689  23.949  26.957  1.00  0.00     0.039 A 
ATOM     43  C   UNL A   1      39.561  24.296  28.302  1.00  0.00     0.014 A 
ATOM     44  C   UNL A   1      40.075  24.899  26.008  1.00  0.00     0.014 A 
ATOM     45  C   UNL A   1      39.887  25.590  28.705  1.00  0.00     0.010 A 
ATOM     46  C   UNL A   1      40.487  26.158  26.427  1.00  0.00     0.010 A 
ATOM     47  C   UNL A   1      40.388  26.519  27.779  1.00  0.00    -0.014 A 
BRANCH  47  48
ATOM     48  C   UNL A   1      40.802  27.881  28.200  1.00  0.00     0.031 A 
ATOM     49  C   UNL A   1      42.262  28.241  28.233  1.00  0.00     0.074 A 
ATOM     50  C   UNL A   1      39.871  28.765  28.608  1.00  0.00     0.049 A 
ATOM     51  N   UNL A   1      42.832  29.346  28.638  1.00  0.00    -0.248 NA
ATOM     52  C   UNL A   1      43.208  27.209  27.778  1.00  0.00     0.031 C 
ATOM     53  C   UNL A   1      38.428  28.512  28.657  1.00  0.00     0.029 A 
ATOM     54  N   UNL A   1      39.994  30.054  29.063  1.00  0.00    -0.354 N 
ATOM     55  C   UNL A   1      44.200  29.138  28.500  1.00  0.00     0.074 A 
ATOM     56  C   UNL A   1      44.374  27.777  28.042  1.00  0.00     0.031 C 
ATOM     57  C   UNL A   1      37.801  29.618  29.086  1.00  0.00     0.029 A 
ATOM     58  C   UNL A   1      38.794  30.641  29.395  1.00  0.00     0.049 A 
ATOM     59  H   UNL A   1      40.860  30.514  29.145  1.00  0.00     0.167 HD
ATOM     60  C   UNL A   1      45.216  30.011  28.711  1.00  0.00     0.034 A 
ATOM     61  C   UNL A   1      38.528  31.861  29.904  1.00  0.00     0.034 A 
ATOM     62  C   UNL A   1      45.020  31.368  29.161  1.00  0.00     0.049 A 
ATOM     63  C   UNL A   1      39.677  32.802  30.165  1.00  0.00     0.074 A 
ATOM     64  C   UNL A   1      45.968  32.355  29.360  1.00  0.00     0.029 A 
ATOM     65  N   UNL A   1      43.791  31.927  29.494  1.00  0.00    -0.354 N 
ATOM     66  N   UNL A   1      40.964  32.609  29.979  1.00  0.00    -0.248 NA
ATOM     67  C   UNL A   1      39.338  34.129  30.693  1.00  0.00     0.031 C 
ATOM     68  C   UNL A   1      45.327  33.480  29.887  1.00  0.00     0.029 A 
ATOM     69  C   UNL A   1      43.964  33.231  29.929  1.00  0.00     0.049 A 
ATOM     70  H   UNL A   1      42.924  31.464  29.429  1.00  0.00     0.167 HD
ATOM     71  C   UNL A   1      41.582  33.806  30.334  1.00  0.00     0.074 A 
ATOM     72  C   UNL A   1      40.526  34.715  30.729  1.00  0.00     0.031 C 
ATOM     73  C   UNL A   1      42.901  34.126  30.327  1.00  0.00     0.034 A 
BRANCH  60  74
ATOM     74  C   UNL A   1      46.623  29.511  28.484  1.00  0.00     0.023 A 
ATOM     75  C   UNL A   1      47.374  28.919  29.516  1.00  0.00     0.031 A 
ATOM     76  C   UNL A   1      47.234  29.651  27.226  1.00  0.00     0.131 A 
ATOM     77  C   UNL A   1      48.713  28.564  29.294  1.00  0.00     0.055 A 
ATOM     78  C   UNL A   1      48.539  29.213  26.987  1.00  0.00     0.041 A 
ATOM     79  F   UNL A   1      46.579  30.231  26.208  1.00  0.00    -0.206 F 
ATOM     80  C   UNL A   1      49.291  28.680  28.029  1.00  0.00     0.022 A 
BRANCH  77  81
ATOM     81  S   UNL A   1      49.730  28.093  30.720  1.00  0.00     0.124 S 
ATOM     82  O   UNL A   1      49.681  26.634  30.648  1.00  0.00    -0.237 OA
ATOM     83  O   UNL A   1      51.015  28.705  30.408  1.00  0.00    -0.237 OA
ATOM     84  O   UNL A   1      49.019  28.676  31.856  1.00  0.00    -0.744 OA
ENDBRANCH  77  81
ENDBRANCH  60  74
BRANCH  61  85
ATOM     85  C   UNL A   1      37.125  32.263  30.214  1.00  0.00     0.023 A 
ATOM     86  C   UNL A   1      36.340  32.941  29.268  1.00  0.00     0.031 A 
ATOM     87  C   UNL A   1      36.562  32.016  31.479  1.00  0.00     0.131 A 
ATOM     88  C   UNL A   1      35.059  33.395  29.618  1.00  0.00     0.055 A 
ATOM     89  C   UNL A   1      35.265  32.416  31.802  1.00  0.00     0.041 A 
ATOM     90  F   UNL A   1      37.267  31.368  32.421  1.00  0.00    -0.206 F 
ATOM     91  C   UNL A   1      34.510  33.124  30.873  1.00  0.00     0.022 A 
BRANCH  88  92
ATOM     92  S   UNL A   1      34.154  34.434  28.437  1.00  0.00     0.124 S 
ATOM     93  O   UNL A   1      34.172  35.728  29.109  1.00  0.00    -0.237 OA
ATOM     94  O   UNL A   1      34.978  34.319  27.239  1.00  0.00    -0.237 OA
ATOM     95  O   UNL A   1      32.844  33.791  28.354  1.00  0.00    -0.744 OA
ENDBRANCH  88  92
ENDBRANCH  61  85
BRANCH  73  96
ATOM     96  C   UNL A   1      43.268  35.540  30.710  1.00  0.00     0.023 A 
ATOM     97  C   UNL A   1      43.325  35.959  32.050  1.00  0.00     0.031 A 
ATOM     98  C   UNL A   1      43.561  36.485  29.709  1.00  0.00     0.131 A 
ATOM     99  C   UNL A   1      43.607  37.301  32.351  1.00  0.00     0.055 A 
ATOM    100  C   UNL A   1      43.910  37.800  30.018  1.00  0.00     0.041 A 
ATOM    101  F   UNL A   1      43.518  36.143  28.412  1.00  0.00    -0.206 F 
ATOM    102  C   UNL A   1      43.920  38.218  31.345  1.00  0.00     0.022 A 
BRANCH  99 103
ATOM    103  S   UNL A   1      43.456  37.858  34.071  1.00  0.00     0.124 S 
ATOM    104  O   UNL A   1      42.497  36.902  34.616  1.00  0.00    -0.237 OA
ATOM    105  O   UNL A   1      44.825  37.737  34.559  1.00  0.00    -0.237 OA
ATOM    106  O   UNL A   1      42.962  39.228  33.945  1.00  0.00    -0.744 OA
ENDBRANCH  99 103
ENDBRANCH  73  96
ENDBRANCH  47  48
ENDBRANCH  39  42
ENDBRANCH  37  38
ENDBRANCH  36  37
ENDBRANCH   1  36
TORSDOF 19
ENDMDL
