MODEL 1
REMARK VINA RESULT:     -12.0      0.000      0.000
REMARK SMILES O=C(/C=C\c1ccc(OCc2ccc(Br)cc2)cc1)NCCCNC(=O)c1ccc(-c2c3nc(c(-c4cc(S(=O)(=O)[O-])ccc4F)c4ccc([nH]4)c(-c4cc(S(=O)(=O)[O-])ccc4F)c4nc(c(-c5cc(S(=O)(=O)[O-])ccc5F)c5ccc2[nH]5)C=C4)C=C3)cc1
REMARK SMILES IDX 21 1 20 2 1 3 2 4 3 6 4 7 5 8 6 9 19 10 7 11 18 12 8 13 9 14
REMARK SMILES IDX 10 15 11 16 12 17 17 18 13 19 16 20 14 21 15 22 22 23 23 24
REMARK SMILES IDX 24 25 25 26 26 28 27 29 28 30 89 31 29 32 88 33 30 34 31 35
REMARK SMILES IDX 32 36 82 37 33 38 87 39 81 40 83 41 34 42 86 43 80 44 79 45
REMARK SMILES IDX 35 47 67 48 47 49 66 50 48 51 51 52 65 53 84 54 49 55 50 56
REMARK SMILES IDX 64 58 85 59 52 60 36 61 37 62 45 63 38 64 44 65 46 66 43 67
REMARK SMILES IDX 39 68 40 69 41 70 42 71 68 72 69 73 77 74 70 75 76 76 78 77
REMARK SMILES IDX 75 78 71 79 72 80 73 81 74 82 53 83 54 84 62 85 55 86 61 87
REMARK SMILES IDX 63 88 60 89 56 90 57 91 58 92 59 93
REMARK H PARENT 20 5 24 27 83 46 51 57
REMARK Flexibility Score: inf
ROOT
ATOM      1  C   UNL A   1      32.327  28.727  25.878  1.00  0.00     0.118 C 
ENDROOT
BRANCH   1   2
ATOM      2  N   UNL A   1      31.358  27.734  25.433  1.00  0.00    -0.352 N 
ATOM      3  O   UNL A   1      31.987  27.728  23.230  1.00  0.00    -0.270 OA
ATOM      4  C   UNL A   1      31.243  27.348  24.127  1.00  0.00     0.244 C 
ATOM      5  H   UNL A   1      30.763  27.324  26.101  1.00  0.00     0.163 HD
BRANCH   4   6
ATOM      6  C   UNL A   1      30.204  26.325  23.823  1.00  0.00     0.072 C 
ATOM      7  C   UNL A   1      30.284  24.986  23.731  1.00  0.00     0.014 C 
BRANCH   7   8
ATOM      8  C   UNL A   1      31.467  24.152  23.916  1.00  0.00    -0.025 A 
ATOM      9  C   UNL A   1      31.993  23.465  22.819  1.00  0.00     0.012 A 
ATOM     10  C   UNL A   1      32.077  24.029  25.167  1.00  0.00     0.012 A 
ATOM     11  C   UNL A   1      33.189  22.768  22.944  1.00  0.00     0.047 A 
ATOM     12  C   UNL A   1      33.269  23.311  25.293  1.00  0.00     0.047 A 
ATOM     13  C   UNL A   1      33.863  22.754  24.162  1.00  0.00     0.119 A 
BRANCH  13  14
ATOM     14  O   UNL A   1      35.111  22.212  24.096  1.00  0.00    -0.489 OA
BRANCH  14  15
ATOM     15  C   UNL A   1      35.471  21.320  25.142  1.00  0.00     0.265 C 
BRANCH  15  16
ATOM     16  C   UNL A   1      34.840  19.942  25.067  1.00  0.00    -0.011 A 
ATOM     17  C   UNL A   1      33.118  19.704  25.620  1.00  0.00     0.008 A 
ATOM     18  C   UNL A   1      35.876  18.482  24.618  1.00  0.00     0.008 A 
ATOM     19  C   UNL A   1      32.400  18.018  25.742  1.00  0.00     0.016 A 
ATOM     20  C   UNL A   1      35.163  16.789  24.761  1.00  0.00     0.016 A 
ATOM     21  C   UNL A   1      33.442  16.584  25.323  1.00  0.00     0.017 A 
ATOM     22  Br  UNL A   1      32.708  14.850  25.440  1.00  0.00    -0.051 Br
ENDBRANCH  15  16
ENDBRANCH  14  15
ENDBRANCH  13  14
ENDBRANCH   7   8
ENDBRANCH   4   6
ENDBRANCH   1   2
BRANCH   1  23
ATOM     23  C   UNL A   1      32.142  30.081  25.197  1.00  0.00     0.042 C 
BRANCH  23  24
ATOM     24  C   UNL A   1      31.046  30.924  25.850  1.00  0.00     0.118 C 
BRANCH  24  25
ATOM     25  N   UNL A   1      31.602  32.198  26.751  1.00  0.00    -0.352 N 
ATOM     26  C   UNL A   1      33.203  32.960  27.614  1.00  0.00     0.251 C 
ATOM     27  H   UNL A   1      30.846  32.806  26.919  1.00  0.00     0.163 HD
ATOM     28  O   UNL A   1      33.355  34.086  28.186  1.00  0.00    -0.269 OA
BRANCH  26  29
ATOM     29  C   UNL A   1      34.719  32.424  27.905  1.00  0.00     0.039 A 
ATOM     30  C   UNL A   1      35.772  33.339  28.062  1.00  0.00     0.014 A 
ATOM     31  C   UNL A   1      35.048  31.069  27.972  1.00  0.00     0.014 A 
ATOM     32  C   UNL A   1      37.014  32.899  28.542  1.00  0.00     0.010 A 
ATOM     33  C   UNL A   1      36.142  30.674  28.704  1.00  0.00     0.010 A 
ATOM     34  C   UNL A   1      37.159  31.577  28.990  1.00  0.00    -0.014 A 
BRANCH  34  35
ATOM     35  C   UNL A   1      38.299  31.066  29.791  1.00  0.00     0.031 A 
ATOM     36  C   UNL A   1      39.219  30.021  29.194  1.00  0.00     0.074 A 
ATOM     37  C   UNL A   1      38.348  31.362  31.106  1.00  0.00     0.049 A 
ATOM     38  N   UNL A   1      40.086  29.243  29.786  1.00  0.00    -0.248 NA
ATOM     39  C   UNL A   1      39.055  29.731  27.756  1.00  0.00     0.031 C 
ATOM     40  C   UNL A   1      37.408  32.237  31.818  1.00  0.00     0.029 A 
ATOM     41  N   UNL A   1      39.204  30.943  32.091  1.00  0.00    -0.354 N 
ATOM     42  C   UNL A   1      40.513  28.344  28.809  1.00  0.00     0.074 A 
ATOM     43  C   UNL A   1      39.710  28.588  27.635  1.00  0.00     0.031 C 
ATOM     44  C   UNL A   1      37.777  32.337  33.103  1.00  0.00     0.029 A 
ATOM     45  C   UNL A   1      38.940  31.493  33.326  1.00  0.00     0.049 A 
ATOM     46  H   UNL A   1      39.938  30.307  31.930  1.00  0.00     0.167 HD
ATOM     47  C   UNL A   1      41.521  27.439  28.870  1.00  0.00     0.034 A 
ATOM     48  C   UNL A   1      39.579  31.334  34.500  1.00  0.00     0.034 A 
ATOM     49  C   UNL A   1      42.348  27.296  30.042  1.00  0.00     0.049 A 
ATOM     50  C   UNL A   1      40.774  30.418  34.523  1.00  0.00     0.074 A 
ATOM     51  C   UNL A   1      43.479  26.522  30.217  1.00  0.00     0.029 A 
ATOM     52  N   UNL A   1      42.134  27.972  31.238  1.00  0.00    -0.354 N 
ATOM     53  N   UNL A   1      41.234  29.645  33.566  1.00  0.00    -0.248 NA
ATOM     54  C   UNL A   1      41.551  30.371  35.765  1.00  0.00     0.031 C 
ATOM     55  C   UNL A   1      43.914  26.687  31.536  1.00  0.00     0.029 A 
ATOM     56  C   UNL A   1      43.104  27.625  32.159  1.00  0.00     0.049 A 
ATOM     57  H   UNL A   1      41.397  28.603  31.406  1.00  0.00     0.167 HD
ATOM     58  C   UNL A   1      42.383  29.053  34.075  1.00  0.00     0.074 A 
ATOM     59  C   UNL A   1      42.545  29.564  35.423  1.00  0.00     0.031 C 
ATOM     60  C   UNL A   1      43.234  28.174  33.488  1.00  0.00     0.034 A 
BRANCH  47  61
ATOM     61  C   UNL A   1      41.790  26.586  27.648  1.00  0.00     0.023 A 
ATOM     62  C   UNL A   1      41.315  25.264  27.548  1.00  0.00     0.031 A 
ATOM     63  C   UNL A   1      42.564  27.075  26.580  1.00  0.00     0.131 A 
ATOM     64  C   UNL A   1      41.706  24.448  26.475  1.00  0.00     0.055 A 
ATOM     65  C   UNL A   1      42.862  26.290  25.461  1.00  0.00     0.041 A 
ATOM     66  F   UNL A   1      43.064  28.320  26.610  1.00  0.00    -0.206 F 
ATOM     67  C   UNL A   1      42.452  24.961  25.414  1.00  0.00     0.022 A 
BRANCH  64  68
ATOM     68  S   UNL A   1      41.368  22.669  26.577  1.00  0.00     0.124 S 
ATOM     69  O   UNL A   1      42.219  22.148  25.510  1.00  0.00    -0.237 OA
ATOM     70  O   UNL A   1      41.782  22.345  27.937  1.00  0.00    -0.237 OA
ATOM     71  O   UNL A   1      39.932  22.576  26.323  1.00  0.00    -0.744 OA
ENDBRANCH  64  68
ENDBRANCH  47  61
BRANCH  48  72
ATOM     72  C   UNL A   1      39.152  32.106  35.704  1.00  0.00     0.023 A 
ATOM     73  C   UNL A   1      38.438  31.478  36.736  1.00  0.00     0.031 A 
ATOM     74  C   UNL A   1      39.455  33.472  35.853  1.00  0.00     0.131 A 
ATOM     75  C   UNL A   1      38.008  32.220  37.848  1.00  0.00     0.055 A 
ATOM     76  C   UNL A   1      39.072  34.193  36.987  1.00  0.00     0.041 A 
ATOM     77  F   UNL A   1      40.155  34.119  34.907  1.00  0.00    -0.206 F 
ATOM     78  C   UNL A   1      38.332  33.570  37.986  1.00  0.00     0.022 A 
BRANCH  75  79
ATOM     79  S   UNL A   1      36.941  31.408  39.069  1.00  0.00     0.124 S 
ATOM     80  O   UNL A   1      35.782  32.294  39.087  1.00  0.00    -0.237 OA
ATOM     81  O   UNL A   1      36.736  30.095  38.466  1.00  0.00    -0.237 OA
ATOM     82  O   UNL A   1      37.751  31.415  40.286  1.00  0.00    -0.744 OA
ENDBRANCH  75  79
ENDBRANCH  48  72
BRANCH  60  83
ATOM     83  C   UNL A   1      44.448  27.770  34.278  1.00  0.00     0.023 A 
ATOM     84  C   UNL A   1      44.462  26.612  35.071  1.00  0.00     0.031 A 
ATOM     85  C   UNL A   1      45.619  28.546  34.204  1.00  0.00     0.131 A 
ATOM     86  C   UNL A   1      45.614  26.284  35.795  1.00  0.00     0.055 A 
ATOM     87  C   UNL A   1      46.782  28.179  34.877  1.00  0.00     0.041 A 
ATOM     88  F   UNL A   1      45.652  29.663  33.458  1.00  0.00    -0.206 F 
ATOM     89  C   UNL A   1      46.780  27.047  35.686  1.00  0.00     0.022 A 
BRANCH  86  90
ATOM     90  S   UNL A   1      45.544  24.884  36.944  1.00  0.00     0.124 S 
ATOM     91  O   UNL A   1      46.911  24.375  36.883  1.00  0.00    -0.237 OA
ATOM     92  O   UNL A   1      45.158  25.527  38.197  1.00  0.00    -0.237 OA
ATOM     93  O   UNL A   1      44.530  24.010  36.358  1.00  0.00    -0.744 OA
ENDBRANCH  86  90
ENDBRANCH  60  83
ENDBRANCH  34  35
ENDBRANCH  26  29
ENDBRANCH  24  25
ENDBRANCH  23  24
ENDBRANCH   1  23
TORSDOF 17
ENDMDL
MODEL 2
REMARK VINA RESULT:     -12.0      5.501     10.744
REMARK SMILES O=C(/C=C\c1ccc(OCc2ccc(Br)cc2)cc1)NCCCNC(=O)c1ccc(-c2c3nc(c(-c4cc(S(=O)(=O)[O-])ccc4F)c4ccc([nH]4)c(-c4cc(S(=O)(=O)[O-])ccc4F)c4nc(c(-c5cc(S(=O)(=O)[O-])ccc5F)c5ccc2[nH]5)C=C4)C=C3)cc1
REMARK SMILES IDX 21 1 20 2 1 3 2 4 3 6 4 7 5 8 6 9 19 10 7 11 18 12 8 13 9 14
REMARK SMILES IDX 10 15 11 16 12 17 17 18 13 19 16 20 14 21 15 22 22 23 23 24
REMARK SMILES IDX 24 25 25 26 26 28 27 29 28 30 89 31 29 32 88 33 30 34 31 35
REMARK SMILES IDX 32 36 82 37 33 38 87 39 81 40 83 41 34 42 86 43 80 44 79 45
REMARK SMILES IDX 35 47 67 48 47 49 66 50 48 51 51 52 65 53 84 54 49 55 50 56
REMARK SMILES IDX 64 58 85 59 52 60 36 61 37 62 45 63 38 64 44 65 46 66 43 67
REMARK SMILES IDX 39 68 40 69 41 70 42 71 68 72 69 73 77 74 70 75 76 76 78 77
REMARK SMILES IDX 75 78 71 79 72 80 73 81 74 82 53 83 54 84 62 85 55 86 61 87
REMARK SMILES IDX 63 88 60 89 56 90 57 91 58 92 59 93
REMARK H PARENT 20 5 24 27 83 46 51 57
REMARK Flexibility Score: inf
ROOT
ATOM      1  C   UNL A   1      34.158  20.880  25.804  1.00  0.00     0.118 C 
ENDROOT
BRANCH   1   2
ATOM      2  N   UNL A   1      33.520  21.692  24.776  1.00  0.00    -0.352 N 
ATOM      3  O   UNL A   1      31.375  21.005  25.197  1.00  0.00    -0.270 OA
ATOM      4  C   UNL A   1      32.175  21.652  24.531  1.00  0.00     0.244 C 
ATOM      5  H   UNL A   1      34.080  22.295  24.236  1.00  0.00     0.163 HD
BRANCH   4   6
ATOM      6  C   UNL A   1      31.669  22.538  23.446  1.00  0.00     0.072 C 
ATOM      7  C   UNL A   1      31.702  23.875  23.311  1.00  0.00     0.014 C 
BRANCH   7   8
ATOM      8  C   UNL A   1      32.275  24.847  24.236  1.00  0.00    -0.025 A 
ATOM      9  C   UNL A   1      33.332  25.654  23.806  1.00  0.00     0.012 A 
ATOM     10  C   UNL A   1      31.787  24.982  25.538  1.00  0.00     0.012 A 
ATOM     11  C   UNL A   1      33.807  26.670  24.626  1.00  0.00     0.047 A 
ATOM     12  C   UNL A   1      32.281  25.992  26.366  1.00  0.00     0.047 A 
ATOM     13  C   UNL A   1      33.231  26.886  25.875  1.00  0.00     0.119 A 
BRANCH  13  14
ATOM     14  O   UNL A   1      33.648  28.030  26.485  1.00  0.00    -0.489 OA
BRANCH  14  15
ATOM     15  C   UNL A   1      32.636  28.852  27.049  1.00  0.00     0.265 C 
BRANCH  15  16
ATOM     16  C   UNL A   1      31.835  29.673  26.055  1.00  0.00    -0.011 A 
ATOM     17  C   UNL A   1      31.507  31.436  26.393  1.00  0.00     0.008 A 
ATOM     18  C   UNL A   1      31.023  28.840  24.622  1.00  0.00     0.008 A 
ATOM     19  C   UNL A   1      30.367  32.396  25.321  1.00  0.00     0.016 A 
ATOM     20  C   UNL A   1      29.862  29.799  23.558  1.00  0.00     0.016 A 
ATOM     21  C   UNL A   1      29.550  31.556  23.927  1.00  0.00     0.017 A 
ATOM     22  Br  UNL A   1      28.383  32.540  22.818  1.00  0.00    -0.051 Br
ENDBRANCH  15  16
ENDBRANCH  14  15
ENDBRANCH  13  14
ENDBRANCH   7   8
ENDBRANCH   4   6
ENDBRANCH   1   2
BRANCH   1  23
ATOM     23  C   UNL A   1      35.675  21.053  25.838  1.00  0.00     0.042 C 
BRANCH  23  24
ATOM     24  C   UNL A   1      36.381  20.286  24.719  1.00  0.00     0.118 C 
BRANCH  24  25
ATOM     25  N   UNL A   1      37.973  19.942  25.019  1.00  0.00    -0.352 N 
ATOM     26  C   UNL A   1      39.576  20.545  25.997  1.00  0.00     0.251 C 
ATOM     27  H   UNL A   1      38.209  19.128  24.519  1.00  0.00     0.163 HD
ATOM     28  O   UNL A   1      40.706  19.977  26.125  1.00  0.00    -0.269 OA
BRANCH  26  29
ATOM     29  C   UNL A   1      39.969  21.884  26.848  1.00  0.00     0.039 A 
ATOM     30  C   UNL A   1      40.965  21.824  27.835  1.00  0.00     0.014 A 
ATOM     31  C   UNL A   1      39.331  23.112  26.672  1.00  0.00     0.014 A 
ATOM     32  C   UNL A   1      41.466  23.007  28.396  1.00  0.00     0.010 A 
ATOM     33  C   UNL A   1      39.998  24.272  26.988  1.00  0.00     0.010 A 
ATOM     34  C   UNL A   1      41.070  24.248  27.873  1.00  0.00    -0.014 A 
BRANCH  34  35
ATOM     35  C   UNL A   1      41.735  25.545  28.151  1.00  0.00     0.031 A 
ATOM     36  C   UNL A   1      40.947  26.657  28.813  1.00  0.00     0.074 A 
ATOM     37  C   UNL A   1      42.940  25.785  27.596  1.00  0.00     0.049 A 
ATOM     38  N   UNL A   1      41.223  27.932  28.898  1.00  0.00    -0.248 NA
ATOM     39  C   UNL A   1      39.616  26.307  29.345  1.00  0.00     0.031 C 
ATOM     40  C   UNL A   1      43.717  24.827  26.799  1.00  0.00     0.029 A 
ATOM     41  N   UNL A   1      43.719  26.912  27.590  1.00  0.00    -0.354 N 
ATOM     42  C   UNL A   1      40.081  28.529  29.430  1.00  0.00     0.074 A 
ATOM     43  C   UNL A   1      39.072  27.501  29.516  1.00  0.00     0.031 C 
ATOM     44  C   UNL A   1      44.881  25.386  26.439  1.00  0.00     0.029 A 
ATOM     45  C   UNL A   1      44.915  26.757  26.926  1.00  0.00     0.049 A 
ATOM     46  H   UNL A   1      43.448  27.755  28.021  1.00  0.00     0.167 HD
ATOM     47  C   UNL A   1      39.911  29.803  29.861  1.00  0.00     0.034 A 
ATOM     48  C   UNL A   1      45.926  27.627  26.742  1.00  0.00     0.034 A 
ATOM     49  C   UNL A   1      40.981  30.768  29.831  1.00  0.00     0.049 A 
ATOM     50  C   UNL A   1      45.773  29.004  27.334  1.00  0.00     0.074 A 
ATOM     51  C   UNL A   1      41.008  32.052  30.341  1.00  0.00     0.029 A 
ATOM     52  N   UNL A   1      42.231  30.533  29.268  1.00  0.00    -0.354 N 
ATOM     53  N   UNL A   1      44.725  29.531  27.926  1.00  0.00    -0.248 NA
ATOM     54  C   UNL A   1      46.937  29.891  27.261  1.00  0.00     0.031 C 
ATOM     55  C   UNL A   1      42.253  32.611  30.037  1.00  0.00     0.029 A 
ATOM     56  C   UNL A   1      43.032  31.649  29.410  1.00  0.00     0.049 A 
ATOM     57  H   UNL A   1      42.504  29.694  28.831  1.00  0.00     0.167 HD
ATOM     58  C   UNL A   1      45.120  30.798  28.338  1.00  0.00     0.074 A 
ATOM     59  C   UNL A   1      46.503  30.951  27.928  1.00  0.00     0.031 C 
ATOM     60  C   UNL A   1      44.413  31.750  28.999  1.00  0.00     0.034 A 
BRANCH  47  61
ATOM     61  C   UNL A   1      38.557  30.195  30.418  1.00  0.00     0.023 A 
ATOM     62  C   UNL A   1      37.559  30.764  29.605  1.00  0.00     0.031 A 
ATOM     63  C   UNL A   1      38.263  30.038  31.784  1.00  0.00     0.131 A 
ATOM     64  C   UNL A   1      36.374  31.256  30.174  1.00  0.00     0.055 A 
ATOM     65  C   UNL A   1      37.037  30.434  32.328  1.00  0.00     0.041 A 
ATOM     66  F   UNL A   1      39.171  29.516  32.624  1.00  0.00    -0.206 F 
ATOM     67  C   UNL A   1      36.092  31.067  31.527  1.00  0.00     0.022 A 
BRANCH  64  68
ATOM     68  S   UNL A   1      35.292  32.294  29.153  1.00  0.00     0.124 S 
ATOM     69  O   UNL A   1      34.303  32.738  30.132  1.00  0.00    -0.237 OA
ATOM     70  O   UNL A   1      36.206  33.318  28.662  1.00  0.00    -0.237 OA
ATOM     71  O   UNL A   1      34.786  31.370  28.140  1.00  0.00    -0.744 OA
ENDBRANCH  64  68
ENDBRANCH  47  61
BRANCH  48  72
ATOM     72  C   UNL A   1      47.174  27.201  26.046  1.00  0.00     0.023 A 
ATOM     73  C   UNL A   1      48.170  26.494  26.738  1.00  0.00     0.031 A 
ATOM     74  C   UNL A   1      47.394  27.479  24.684  1.00  0.00     0.131 A 
ATOM     75  C   UNL A   1      49.358  26.130  26.085  1.00  0.00     0.055 A 
ATOM     76  C   UNL A   1      48.555  27.067  24.025  1.00  0.00     0.041 A 
ATOM     77  F   UNL A   1      46.467  28.134  23.967  1.00  0.00    -0.206 F 
ATOM     78  C   UNL A   1      49.552  26.400  24.730  1.00  0.00     0.022 A 
BRANCH  75  79
ATOM     79  S   UNL A   1      50.686  25.374  27.063  1.00  0.00     0.124 S 
ATOM     80  O   UNL A   1      49.971  24.314  27.766  1.00  0.00    -0.237 OA
ATOM     81  O   UNL A   1      51.616  24.941  26.025  1.00  0.00    -0.237 OA
ATOM     82  O   UNL A   1      51.158  26.473  27.903  1.00  0.00    -0.744 OA
ENDBRANCH  75  79
ENDBRANCH  48  72
BRANCH  60  83
ATOM     83  C   UNL A   1      45.149  33.004  29.378  1.00  0.00     0.023 A 
ATOM     84  C   UNL A   1      45.213  34.111  28.519  1.00  0.00     0.031 A 
ATOM     85  C   UNL A   1      45.767  33.097  30.638  1.00  0.00     0.131 A 
ATOM     86  C   UNL A   1      45.920  35.254  28.914  1.00  0.00     0.055 A 
ATOM     87  C   UNL A   1      46.414  34.260  31.051  1.00  0.00     0.041 A 
ATOM     88  F   UNL A   1      45.732  32.062  31.494  1.00  0.00    -0.206 F 
ATOM     89  C   UNL A   1      46.501  35.343  30.182  1.00  0.00     0.022 A 
BRANCH  86  90
ATOM     90  S   UNL A   1      46.133  36.597  27.716  1.00  0.00     0.124 S 
ATOM     91  O   UNL A   1      45.641  35.985  26.486  1.00  0.00    -0.237 OA
ATOM     92  O   UNL A   1      45.299  37.654  28.280  1.00  0.00    -0.237 OA
ATOM     93  O   UNL A   1      47.571  36.858  27.747  1.00  0.00    -0.744 OA
ENDBRANCH  86  90
ENDBRANCH  60  83
ENDBRANCH  34  35
ENDBRANCH  26  29
ENDBRANCH  24  25
ENDBRANCH  23  24
ENDBRANCH   1  23
TORSDOF 17
ENDMDL
MODEL 3
REMARK VINA RESULT:     -11.8      2.307      3.050
REMARK SMILES O=C(/C=C\c1ccc(OCc2ccc(Br)cc2)cc1)NCCCNC(=O)c1ccc(-c2c3nc(c(-c4cc(S(=O)(=O)[O-])ccc4F)c4ccc([nH]4)c(-c4cc(S(=O)(=O)[O-])ccc4F)c4nc(c(-c5cc(S(=O)(=O)[O-])ccc5F)c5ccc2[nH]5)C=C4)C=C3)cc1
REMARK SMILES IDX 21 1 20 2 1 3 2 4 3 6 4 7 5 8 6 9 19 10 7 11 18 12 8 13 9 14
REMARK SMILES IDX 10 15 11 16 12 17 17 18 13 19 16 20 14 21 15 22 22 23 23 24
REMARK SMILES IDX 24 25 25 26 26 28 27 29 28 30 89 31 29 32 88 33 30 34 31 35
REMARK SMILES IDX 32 36 82 37 33 38 87 39 81 40 83 41 34 42 86 43 80 44 79 45
REMARK SMILES IDX 35 47 67 48 47 49 66 50 48 51 51 52 65 53 84 54 49 55 50 56
REMARK SMILES IDX 64 58 85 59 52 60 36 61 37 62 45 63 38 64 44 65 46 66 43 67
REMARK SMILES IDX 39 68 40 69 41 70 42 71 68 72 69 73 77 74 70 75 76 76 78 77
REMARK SMILES IDX 75 78 71 79 72 80 73 81 74 82 53 83 54 84 62 85 55 86 61 87
REMARK SMILES IDX 63 88 60 89 56 90 57 91 58 92 59 93
REMARK H PARENT 20 5 24 27 83 46 51 57
REMARK Flexibility Score: inf
ROOT
ATOM      1  C   UNL A   1      32.183  28.901  26.859  1.00  0.00     0.118 C 
ENDROOT
BRANCH   1   2
ATOM      2  N   UNL A   1      31.445  28.801  25.606  1.00  0.00    -0.352 N 
ATOM      3  O   UNL A   1      33.276  28.595  24.243  1.00  0.00    -0.270 OA
ATOM      4  C   UNL A   1      32.064  28.698  24.390  1.00  0.00     0.244 C 
ATOM      5  H   UNL A   1      30.462  28.806  25.635  1.00  0.00     0.163 HD
BRANCH   4   6
ATOM      6  C   UNL A   1      31.177  28.607  23.197  1.00  0.00     0.072 C 
ATOM      7  C   UNL A   1      30.855  27.562  22.415  1.00  0.00     0.014 C 
BRANCH   7   8
ATOM      8  C   UNL A   1      31.312  26.182  22.544  1.00  0.00    -0.025 A 
ATOM      9  C   UNL A   1      32.553  25.824  22.013  1.00  0.00     0.012 A 
ATOM     10  C   UNL A   1      30.530  25.217  23.185  1.00  0.00     0.012 A 
ATOM     11  C   UNL A   1      33.063  24.550  22.234  1.00  0.00     0.047 A 
ATOM     12  C   UNL A   1      31.037  23.932  23.389  1.00  0.00     0.047 A 
ATOM     13  C   UNL A   1      32.337  23.630  22.985  1.00  0.00     0.119 A 
BRANCH  13  14
ATOM     14  O   UNL A   1      33.032  22.501  23.296  1.00  0.00    -0.489 OA
BRANCH  14  15
ATOM     15  C   UNL A   1      33.218  22.233  24.679  1.00  0.00     0.265 C 
BRANCH  15  16
ATOM     16  C   UNL A   1      34.662  22.156  25.138  1.00  0.00    -0.011 A 
ATOM     17  C   UNL A   1      35.502  23.661  25.738  1.00  0.00     0.008 A 
ATOM     18  C   UNL A   1      35.621  20.598  24.894  1.00  0.00     0.008 A 
ATOM     19  C   UNL A   1      37.303  23.645  26.098  1.00  0.00     0.016 A 
ATOM     20  C   UNL A   1      37.433  20.588  25.234  1.00  0.00     0.016 A 
ATOM     21  C   UNL A   1      38.243  22.109  25.825  1.00  0.00     0.017 A 
ATOM     22  Br  UNL A   1      40.093  22.085  26.199  1.00  0.00    -0.051 Br
ENDBRANCH  15  16
ENDBRANCH  14  15
ENDBRANCH  13  14
ENDBRANCH   7   8
ENDBRANCH   4   6
ENDBRANCH   1   2
BRANCH   1  23
ATOM     23  C   UNL A   1      32.689  30.315  27.136  1.00  0.00     0.042 C 
BRANCH  23  24
ATOM     24  C   UNL A   1      31.682  31.392  26.728  1.00  0.00     0.118 C 
BRANCH  24  25
ATOM     25  N   UNL A   1      32.168  32.944  27.044  1.00  0.00    -0.352 N 
ATOM     26  C   UNL A   1      33.435  34.034  28.090  1.00  0.00     0.251 C 
ATOM     27  H   UNL A   1      31.614  33.553  26.504  1.00  0.00     0.163 HD
ATOM     28  O   UNL A   1      33.658  35.285  28.041  1.00  0.00    -0.269 OA
BRANCH  26  29
ATOM     29  C   UNL A   1      34.488  33.729  29.302  1.00  0.00     0.039 A 
ATOM     30  C   UNL A   1      34.273  32.644  30.167  1.00  0.00     0.014 A 
ATOM     31  C   UNL A   1      35.604  34.526  29.560  1.00  0.00     0.014 A 
ATOM     32  C   UNL A   1      35.286  32.241  31.048  1.00  0.00     0.010 A 
ATOM     33  C   UNL A   1      36.694  33.980  30.194  1.00  0.00     0.010 A 
ATOM     34  C   UNL A   1      36.555  32.834  30.969  1.00  0.00    -0.014 A 
BRANCH  34  35
ATOM     35  C   UNL A   1      37.786  32.310  31.611  1.00  0.00     0.031 A 
ATOM     36  C   UNL A   1      38.575  31.216  30.923  1.00  0.00     0.074 A 
ATOM     37  C   UNL A   1      38.039  32.646  32.892  1.00  0.00     0.049 A 
ATOM     38  N   UNL A   1      39.498  30.427  31.408  1.00  0.00    -0.248 NA
ATOM     39  C   UNL A   1      38.190  30.885  29.537  1.00  0.00     0.031 C 
ATOM     40  C   UNL A   1      37.242  33.576  33.703  1.00  0.00     0.029 A 
ATOM     41  N   UNL A   1      39.019  32.230  33.755  1.00  0.00    -0.354 N 
ATOM     42  C   UNL A   1      39.748  29.483  30.414  1.00  0.00     0.074 A 
ATOM     43  C   UNL A   1      38.787  29.716  29.363  1.00  0.00     0.031 C 
ATOM     44  C   UNL A   1      37.801  33.705  34.914  1.00  0.00     0.029 A 
ATOM     45  C   UNL A   1      38.959  32.828  34.994  1.00  0.00     0.049 A 
ATOM     46  H   UNL A   1      39.702  31.564  33.511  1.00  0.00     0.167 HD
ATOM     47  C   UNL A   1      40.727  28.546  30.358  1.00  0.00     0.034 A 
ATOM     48  C   UNL A   1      39.760  32.686  36.066  1.00  0.00     0.034 A 
ATOM     49  C   UNL A   1      41.715  28.413  31.399  1.00  0.00     0.049 A 
ATOM     50  C   UNL A   1      40.919  31.730  35.946  1.00  0.00     0.074 A 
ATOM     51  C   UNL A   1      42.836  27.606  31.434  1.00  0.00     0.029 A 
ATOM     52  N   UNL A   1      41.701  29.133  32.588  1.00  0.00    -0.354 N 
ATOM     53  N   UNL A   1      41.208  30.911  34.960  1.00  0.00    -0.248 NA
ATOM     54  C   UNL A   1      41.870  31.697  37.060  1.00  0.00     0.031 C 
ATOM     55  C   UNL A   1      43.468  27.798  32.667  1.00  0.00     0.029 A 
ATOM     56  C   UNL A   1      42.787  28.784  33.367  1.00  0.00     0.049 A 
ATOM     57  H   UNL A   1      41.016  29.795  32.839  1.00  0.00     0.167 HD
ATOM     58  C   UNL A   1      42.402  30.297  35.315  1.00  0.00     0.074 A 
ATOM     59  C   UNL A   1      42.778  30.845  36.605  1.00  0.00     0.031 C 
ATOM     60  C   UNL A   1      43.130  29.370  34.642  1.00  0.00     0.034 A 
BRANCH  47  61
ATOM     61  C   UNL A   1      40.785  27.645  29.142  1.00  0.00     0.023 A 
ATOM     62  C   UNL A   1      41.735  27.839  28.122  1.00  0.00     0.031 A 
ATOM     63  C   UNL A   1      39.859  26.601  28.970  1.00  0.00     0.131 A 
ATOM     64  C   UNL A   1      41.670  27.088  26.938  1.00  0.00     0.055 A 
ATOM     65  C   UNL A   1      39.866  25.785  27.834  1.00  0.00     0.041 A 
ATOM     66  F   UNL A   1      38.914  26.364  29.893  1.00  0.00    -0.206 F 
ATOM     67  C   UNL A   1      40.761  26.040  26.799  1.00  0.00     0.022 A 
BRANCH  64  68
ATOM     68  S   UNL A   1      42.677  27.616  25.524  1.00  0.00     0.124 S 
ATOM     69  O   UNL A   1      42.629  26.431  24.672  1.00  0.00    -0.237 OA
ATOM     70  O   UNL A   1      41.950  28.782  25.036  1.00  0.00    -0.237 OA
ATOM     71  O   UNL A   1      43.982  27.897  26.117  1.00  0.00    -0.744 OA
ENDBRANCH  64  68
ENDBRANCH  47  61
BRANCH  48  72
ATOM     72  C   UNL A   1      39.541  33.510  37.290  1.00  0.00     0.023 A 
ATOM     73  C   UNL A   1      38.801  33.001  38.368  1.00  0.00     0.031 A 
ATOM     74  C   UNL A   1      40.070  34.808  37.413  1.00  0.00     0.131 A 
ATOM     75  C   UNL A   1      38.567  33.796  39.501  1.00  0.00     0.055 A 
ATOM     76  C   UNL A   1      39.881  35.576  38.565  1.00  0.00     0.041 A 
ATOM     77  F   UNL A   1      40.804  35.339  36.422  1.00  0.00    -0.206 F 
ATOM     78  C   UNL A   1      39.113  35.076  39.612  1.00  0.00     0.022 A 
BRANCH  75  79
ATOM     79  S   UNL A   1      37.462  33.162  40.791  1.00  0.00     0.124 S 
ATOM     80  O   UNL A   1      37.316  34.326  41.657  1.00  0.00    -0.237 OA
ATOM     81  O   UNL A   1      36.282  32.785  40.019  1.00  0.00    -0.237 OA
ATOM     82  O   UNL A   1      38.212  32.047  41.364  1.00  0.00    -0.744 OA
ENDBRANCH  75  79
ENDBRANCH  48  72
BRANCH  60  83
ATOM     83  C   UNL A   1      44.436  28.950  35.257  1.00  0.00     0.023 A 
ATOM     84  C   UNL A   1      44.526  27.843  36.114  1.00  0.00     0.031 A 
ATOM     85  C   UNL A   1      45.612  29.657  34.949  1.00  0.00     0.131 A 
ATOM     86  C   UNL A   1      45.764  27.497  36.670  1.00  0.00     0.055 A 
ATOM     87  C   UNL A   1      46.851  29.270  35.456  1.00  0.00     0.041 A 
ATOM     88  F   UNL A   1      45.574  30.724  34.135  1.00  0.00    -0.206 F 
ATOM     89  C   UNL A   1      46.929  28.190  36.329  1.00  0.00     0.022 A 
BRANCH  86  90
ATOM     90  S   UNL A   1      45.817  26.174  37.907  1.00  0.00     0.124 S 
ATOM     91  O   UNL A   1      46.388  26.862  39.061  1.00  0.00    -0.237 OA
ATOM     92  O   UNL A   1      44.412  25.796  38.021  1.00  0.00    -0.237 OA
ATOM     93  O   UNL A   1      46.682  25.167  37.294  1.00  0.00    -0.744 OA
ENDBRANCH  86  90
ENDBRANCH  60  83
ENDBRANCH  34  35
ENDBRANCH  26  29
ENDBRANCH  24  25
ENDBRANCH  23  24
ENDBRANCH   1  23
TORSDOF 17
ENDMDL
