MODEL 1
REMARK VINA RESULT:     -13.0      0.000      0.000
REMARK SMILES C[C@@H]1CCC[C@H](C)[N@H+]1Cc1cc2c(cc1Cl)C=C(C(=O)NCCCNC(=O)c1ccc(-c3c4nc(c(-c5cc(S(=O)(=O)[O-])ccc5F)c5ccc([nH]5)c(-c5cc(S(=O)(=O)[O-])ccc5F)c5nc(c(-c6cc(S(=O)(=O)[O-])ccc6F)c6ccc3[nH]6)C=C5)C=C4)cc1)[C@@H](C(F)(F)F)O2
REMARK SMILES IDX 23 1 22 2 21 3 19 4 20 5 18 7 10 8 11 9 15 10 12 11 14 12
REMARK SMILES IDX 16 13 13 14 96 15 17 16 91 17 9 18 8 19 7 20 6 21 5 22 4 23
REMARK SMILES IDX 2 24 3 26 1 27 92 28 93 29 94 30 95 31 24 32 25 33 26 34
REMARK SMILES IDX 27 36 28 37 29 38 90 39 30 40 89 41 31 42 32 43 33 44 83 45
REMARK SMILES IDX 34 46 88 47 82 48 84 49 35 50 87 51 81 52 80 53 36 55 68 56
REMARK SMILES IDX 48 57 67 58 49 59 52 60 66 61 85 62 50 63 51 64 65 66 86 67
REMARK SMILES IDX 53 68 37 69 38 70 46 71 39 72 45 73 47 74 44 75 40 76 41 77
REMARK SMILES IDX 42 78 43 79 69 80 70 81 78 82 71 83 77 84 79 85 76 86 72 87
REMARK SMILES IDX 73 88 74 89 75 90 54 91 55 92 63 93 56 94 62 95 64 96 61 97
REMARK SMILES IDX 57 98 58 99 59 100 60 101
REMARK H PARENT 21 6 8 25 25 35 84 54 52 65
REMARK Flexibility Score: inf
ROOT
ATOM      1  C   UNL A   1      31.299  32.613  26.084  1.00  0.00     0.042 C 
ENDROOT
BRANCH   1   2
ATOM      2  C   UNL A   1      30.658  31.239  25.992  1.00  0.00     0.118 C 
BRANCH   2   3
ATOM      3  N   UNL A   1      30.741  30.699  24.646  1.00  0.00    -0.352 N 
ATOM      4  C   UNL A   1      31.089  29.522  24.081  1.00  0.00     0.251 C 
ATOM      5  O   UNL A   1      30.976  29.462  22.852  1.00  0.00    -0.270 OA
ATOM      6  H   UNL A   1      30.473  31.363  23.969  1.00  0.00     0.163 HD
BRANCH   4   7
ATOM      7  C   UNL A   1      31.582  28.340  24.834  1.00  0.00     0.067 C 
ATOM      8  C   UNL A   1      32.191  23.634  26.493  1.00  0.00     0.029 A 
ATOM      9  C   UNL A   1      33.068  24.683  26.181  1.00  0.00     0.058 A 
ATOM     10  C   UNL A   1      30.819  23.927  26.591  1.00  0.00     0.050 A 
ATOM     11  C   UNL A   1      32.567  25.912  25.773  1.00  0.00     0.128 A 
ATOM     12  C   UNL A   1      30.318  25.145  26.117  1.00  0.00     0.033 A 
ATOM     13  Cl  UNL A   1      29.672  22.817  27.253  1.00  0.00    -0.084 Cl
ATOM     14  C   UNL A   1      31.193  26.116  25.648  1.00  0.00     0.019 A 
ATOM     15  O   UNL A   1      33.479  26.870  25.428  1.00  0.00    -0.475 OA
ATOM     16  C   UNL A   1      30.722  27.314  24.963  1.00  0.00     0.025 C 
ATOM     17  C   UNL A   1      32.949  28.225  25.447  1.00  0.00     0.314 C 
BRANCH   8  18
ATOM     18  C   UNL A   1      32.758  22.231  26.572  1.00  0.00     0.301 C 
BRANCH  18  19
ATOM     19  N   UNL A   1      33.499  21.756  25.374  1.00  0.00    -0.327 N 
ATOM     20  C   UNL A   1      34.382  22.683  23.250  1.00  0.00     0.075 C 
ATOM     21  C   UNL A   1      33.133  22.408  24.103  1.00  0.00     0.181 C 
ATOM     22  C   UNL A   1      32.086  21.651  23.268  1.00  0.00     0.065 C 
ATOM     23  C   UNL A   1      32.386  20.166  23.127  1.00  0.00     0.012 C 
ATOM     24  C   UNL A   1      33.697  20.297  25.322  1.00  0.00     0.181 C 
ATOM     25  H   UNL A   1      34.446  22.109  25.516  1.00  0.00     0.348 HD
ATOM     26  C   UNL A   1      32.656  19.534  24.485  1.00  0.00     0.065 C 
ATOM     27  C   UNL A   1      35.120  19.932  24.876  1.00  0.00     0.075 C 
ENDBRANCH  18  19
ENDBRANCH   8  18
BRANCH  17  28
ATOM     28  C   UNL A   1      32.967  28.798  26.883  1.00  0.00     0.429 C 
ATOM     29  F   UNL A   1      33.820  28.098  27.669  1.00  0.00    -0.167 F 
ATOM     30  F   UNL A   1      33.382  30.089  26.916  1.00  0.00    -0.167 F 
ATOM     31  F   UNL A   1      31.755  28.775  27.481  1.00  0.00    -0.167 F 
ENDBRANCH  17  28
ENDBRANCH   4   7
ENDBRANCH   2   3
ENDBRANCH   1   2
BRANCH   1  32
ATOM     32  C   UNL A   1      32.168  32.747  27.322  1.00  0.00     0.118 C 
BRANCH  32  33
ATOM     33  N   UNL A   1      32.443  34.147  27.647  1.00  0.00    -0.352 N 
ATOM     34  C   UNL A   1      33.405  34.703  28.455  1.00  0.00     0.251 C 
ATOM     35  H   UNL A   1      31.841  34.795  27.216  1.00  0.00     0.163 HD
ATOM     36  O   UNL A   1      33.298  35.879  28.798  1.00  0.00    -0.269 OA
BRANCH  34  37
ATOM     37  C   UNL A   1      34.542  33.883  28.920  1.00  0.00     0.039 A 
ATOM     38  C   UNL A   1      34.306  32.661  29.544  1.00  0.00     0.014 A 
ATOM     39  C   UNL A   1      35.851  34.337  28.741  1.00  0.00     0.014 A 
ATOM     40  C   UNL A   1      35.342  32.015  30.195  1.00  0.00     0.010 A 
ATOM     41  C   UNL A   1      36.915  33.600  29.272  1.00  0.00     0.010 A 
ATOM     42  C   UNL A   1      36.665  32.462  30.053  1.00  0.00    -0.014 A 
BRANCH  42  43
ATOM     43  C   UNL A   1      37.750  31.681  30.702  1.00  0.00     0.031 A 
ATOM     44  C   UNL A   1      38.538  30.653  29.940  1.00  0.00     0.074 A 
ATOM     45  C   UNL A   1      38.065  31.965  31.982  1.00  0.00     0.049 A 
ATOM     46  N   UNL A   1      39.561  29.944  30.342  1.00  0.00    -0.248 NA
ATOM     47  C   UNL A   1      38.126  30.370  28.556  1.00  0.00     0.031 C 
ATOM     48  C   UNL A   1      37.354  32.936  32.817  1.00  0.00     0.029 A 
ATOM     49  N   UNL A   1      39.072  31.507  32.793  1.00  0.00    -0.354 N 
ATOM     50  C   UNL A   1      39.896  29.114  29.279  1.00  0.00     0.074 A 
ATOM     51  C   UNL A   1      38.947  29.384  28.222  1.00  0.00     0.031 C 
ATOM     52  C   UNL A   1      37.993  33.062  33.986  1.00  0.00     0.029 A 
ATOM     53  C   UNL A   1      39.099  32.111  34.028  1.00  0.00     0.049 A 
ATOM     54  H   UNL A   1      39.714  30.813  32.516  1.00  0.00     0.167 HD
ATOM     55  C   UNL A   1      40.909  28.220  29.194  1.00  0.00     0.034 A 
ATOM     56  C   UNL A   1      39.907  31.918  35.090  1.00  0.00     0.034 A 
ATOM     57  C   UNL A   1      41.862  27.990  30.253  1.00  0.00     0.049 A 
ATOM     58  C   UNL A   1      41.026  30.921  34.967  1.00  0.00     0.074 A 
ATOM     59  C   UNL A   1      42.959  27.146  30.241  1.00  0.00     0.029 A 
ATOM     60  N   UNL A   1      41.839  28.593  31.503  1.00  0.00    -0.354 N 
ATOM     61  N   UNL A   1      41.367  30.191  33.931  1.00  0.00    -0.248 NA
ATOM     62  C   UNL A   1      41.873  30.719  36.148  1.00  0.00     0.031 C 
ATOM     63  C   UNL A   1      43.545  27.175  31.506  1.00  0.00     0.029 A 
ATOM     64  C   UNL A   1      42.878  28.108  32.284  1.00  0.00     0.049 A 
ATOM     65  H   UNL A   1      41.181  29.266  31.793  1.00  0.00     0.167 HD
ATOM     66  C   UNL A   1      42.471  29.449  34.333  1.00  0.00     0.074 A 
ATOM     67  C   UNL A   1      42.767  29.852  35.693  1.00  0.00     0.031 C 
ATOM     68  C   UNL A   1      43.167  28.510  33.641  1.00  0.00     0.034 A 
BRANCH  55  69
ATOM     69  C   UNL A   1      41.067  27.411  27.928  1.00  0.00     0.023 A 
ATOM     70  C   UNL A   1      40.769  26.034  27.941  1.00  0.00     0.031 A 
ATOM     71  C   UNL A   1      41.640  27.954  26.765  1.00  0.00     0.131 A 
ATOM     72  C   UNL A   1      41.088  25.241  26.833  1.00  0.00     0.055 A 
ATOM     73  C   UNL A   1      41.908  27.167  25.642  1.00  0.00     0.041 A 
ATOM     74  F   UNL A   1      41.945  29.261  26.699  1.00  0.00    -0.206 F 
ATOM     75  C   UNL A   1      41.647  25.801  25.680  1.00  0.00     0.022 A 
BRANCH  72  76
ATOM     76  S   UNL A   1      40.867  23.441  26.874  1.00  0.00     0.124 S 
ATOM     77  O   UNL A   1      41.217  23.127  28.257  1.00  0.00    -0.237 OA
ATOM     78  O   UNL A   1      39.451  23.301  26.541  1.00  0.00    -0.237 OA
ATOM     79  O   UNL A   1      41.804  22.949  25.869  1.00  0.00    -0.744 OA
ENDBRANCH  72  76
ENDBRANCH  55  69
BRANCH  56  80
ATOM     80  C   UNL A   1      39.679  32.726  36.323  1.00  0.00     0.023 A 
ATOM     81  C   UNL A   1      38.875  32.228  37.366  1.00  0.00     0.031 A 
ATOM     82  C   UNL A   1      40.132  34.052  36.415  1.00  0.00     0.131 A 
ATOM     83  C   UNL A   1      38.464  33.080  38.398  1.00  0.00     0.055 A 
ATOM     84  C   UNL A   1      39.793  34.871  37.494  1.00  0.00     0.041 A 
ATOM     85  F   UNL A   1      40.889  34.578  35.441  1.00  0.00    -0.206 F 
ATOM     86  C   UNL A   1      38.935  34.393  38.481  1.00  0.00     0.022 A 
BRANCH  83  87
ATOM     87  S   UNL A   1      37.174  32.563  39.566  1.00  0.00     0.124 S 
ATOM     88  O   UNL A   1      37.298  33.563  40.621  1.00  0.00    -0.237 OA
ATOM     89  O   UNL A   1      35.972  32.661  38.739  1.00  0.00    -0.237 OA
ATOM     90  O   UNL A   1      37.563  31.206  39.932  1.00  0.00    -0.744 OA
ENDBRANCH  83  87
ENDBRANCH  56  80
BRANCH  68  91
ATOM     91  C   UNL A   1      44.324  27.823  34.329  1.00  0.00     0.023 A 
ATOM     92  C   UNL A   1      44.090  26.725  35.178  1.00  0.00     0.031 A 
ATOM     93  C   UNL A   1      45.631  28.338  34.258  1.00  0.00     0.131 A 
ATOM     94  C   UNL A   1      45.134  26.205  35.953  1.00  0.00     0.055 A 
ATOM     95  C   UNL A   1      46.681  27.779  34.988  1.00  0.00     0.041 A 
ATOM     96  F   UNL A   1      45.907  29.393  33.474  1.00  0.00    -0.206 F 
ATOM     97  C   UNL A   1      46.430  26.718  35.853  1.00  0.00     0.022 A 
BRANCH  94  98
ATOM     98  S   UNL A   1      44.827  24.916  37.191  1.00  0.00     0.124 S 
ATOM     99  O   UNL A   1      45.646  25.372  38.311  1.00  0.00    -0.237 OA
ATOM    100  O   UNL A   1      43.383  25.019  37.392  1.00  0.00    -0.237 OA
ATOM    101  O   UNL A   1      45.283  23.690  36.546  1.00  0.00    -0.744 OA
ENDBRANCH  94  98
ENDBRANCH  68  91
ENDBRANCH  42  43
ENDBRANCH  34  37
ENDBRANCH  32  33
ENDBRANCH   1  32
TORSDOF 16
ENDMDL
MODEL 2
REMARK VINA RESULT:     -12.9      2.386      7.831
REMARK SMILES C[C@@H]1CCC[C@H](C)[N@H+]1Cc1cc2c(cc1Cl)C=C(C(=O)NCCCNC(=O)c1ccc(-c3c4nc(c(-c5cc(S(=O)(=O)[O-])ccc5F)c5ccc([nH]5)c(-c5cc(S(=O)(=O)[O-])ccc5F)c5nc(c(-c6cc(S(=O)(=O)[O-])ccc6F)c6ccc3[nH]6)C=C5)C=C4)cc1)[C@@H](C(F)(F)F)O2
REMARK SMILES IDX 23 1 22 2 21 3 19 4 20 5 18 7 10 8 11 9 15 10 12 11 14 12
REMARK SMILES IDX 16 13 13 14 96 15 17 16 91 17 9 18 8 19 7 20 6 21 5 22 4 23
REMARK SMILES IDX 2 24 3 26 1 27 92 28 93 29 94 30 95 31 24 32 25 33 26 34
REMARK SMILES IDX 27 36 28 37 29 38 90 39 30 40 89 41 31 42 32 43 33 44 83 45
REMARK SMILES IDX 34 46 88 47 82 48 84 49 35 50 87 51 81 52 80 53 36 55 68 56
REMARK SMILES IDX 48 57 67 58 49 59 52 60 66 61 85 62 50 63 51 64 65 66 86 67
REMARK SMILES IDX 53 68 37 69 38 70 46 71 39 72 45 73 47 74 44 75 40 76 41 77
REMARK SMILES IDX 42 78 43 79 69 80 70 81 78 82 71 83 77 84 79 85 76 86 72 87
REMARK SMILES IDX 73 88 74 89 75 90 54 91 55 92 63 93 56 94 62 95 64 96 61 97
REMARK SMILES IDX 57 98 58 99 59 100 60 101
REMARK H PARENT 21 6 8 25 25 35 84 54 52 65
REMARK Flexibility Score: inf
ROOT
ATOM      1  C   UNL A   1      32.851  29.734  25.004  1.00  0.00     0.042 C 
ENDROOT
BRANCH   1   2
ATOM      2  C   UNL A   1      32.827  28.237  24.753  1.00  0.00     0.118 C 
BRANCH   2   3
ATOM      3  N   UNL A   1      31.837  27.571  25.582  1.00  0.00    -0.352 N 
ATOM      4  C   UNL A   1      31.519  26.296  25.897  1.00  0.00     0.251 C 
ATOM      5  O   UNL A   1      30.595  26.157  26.704  1.00  0.00    -0.270 OA
ATOM      6  H   UNL A   1      31.244  28.216  26.033  1.00  0.00     0.163 HD
BRANCH   4   7
ATOM      7  C   UNL A   1      32.199  25.097  25.341  1.00  0.00     0.067 C 
ATOM      8  C   UNL A   1      35.030  20.964  24.919  1.00  0.00     0.029 A 
ATOM      9  C   UNL A   1      33.764  21.336  24.444  1.00  0.00     0.058 A 
ATOM     10  C   UNL A   1      35.848  21.966  25.469  1.00  0.00     0.050 A 
ATOM     11  C   UNL A   1      33.264  22.605  24.710  1.00  0.00     0.128 A 
ATOM     12  C   UNL A   1      35.318  23.220  25.792  1.00  0.00     0.033 A 
ATOM     13  Cl  UNL A   1      37.523  21.718  25.815  1.00  0.00    -0.084 Cl
ATOM     14  C   UNL A   1      34.000  23.516  25.466  1.00  0.00     0.019 A 
ATOM     15  O   UNL A   1      32.001  22.879  24.267  1.00  0.00    -0.475 OA
ATOM     16  C   UNL A   1      33.337  24.721  25.950  1.00  0.00     0.025 C 
ATOM     17  C   UNL A   1      31.705  24.300  24.167  1.00  0.00     0.314 C 
BRANCH   8  18
ATOM     18  C   UNL A   1      35.380  19.490  24.933  1.00  0.00     0.301 C 
BRANCH  18  19
ATOM     19  N   UNL A   1      34.381  18.573  24.324  1.00  0.00    -0.327 N 
ATOM     20  C   UNL A   1      31.989  18.605  23.671  1.00  0.00     0.075 C 
ATOM     21  C   UNL A   1      33.001  18.719  24.822  1.00  0.00     0.181 C 
ATOM     22  C   UNL A   1      32.618  17.748  25.953  1.00  0.00     0.065 C 
ATOM     23  C   UNL A   1      33.015  16.307  25.671  1.00  0.00     0.012 C 
ATOM     24  C   UNL A   1      34.861  17.193  24.134  1.00  0.00     0.181 C 
ATOM     25  H   UNL A   1      34.287  18.915  23.367  1.00  0.00     0.348 HD
ATOM     26  C   UNL A   1      34.477  16.216  25.259  1.00  0.00     0.065 C 
ATOM     27  C   UNL A   1      34.448  16.631  22.767  1.00  0.00     0.075 C 
ENDBRANCH  18  19
ENDBRANCH   8  18
BRANCH  17  28
ATOM     28  C   UNL A   1      32.240  24.876  22.836  1.00  0.00     0.429 C 
ATOM     29  F   UNL A   1      31.335  25.717  22.278  1.00  0.00    -0.167 F 
ATOM     30  F   UNL A   1      33.379  25.592  23.006  1.00  0.00    -0.167 F 
ATOM     31  F   UNL A   1      32.524  23.924  21.919  1.00  0.00    -0.167 F 
ENDBRANCH  17  28
ENDBRANCH   4   7
ENDBRANCH   2   3
ENDBRANCH   1   2
BRANCH   1  32
ATOM     32  C   UNL A   1      32.234  30.090  26.345  1.00  0.00     0.118 C 
BRANCH  32  33
ATOM     33  N   UNL A   1      32.096  31.537  26.516  1.00  0.00    -0.352 N 
ATOM     34  C   UNL A   1      32.837  32.422  27.260  1.00  0.00     0.251 C 
ATOM     35  H   UNL A   1      31.350  31.941  26.016  1.00  0.00     0.163 HD
ATOM     36  O   UNL A   1      32.395  33.549  27.473  1.00  0.00    -0.269 OA
BRANCH  34  37
ATOM     37  C   UNL A   1      34.142  32.009  27.813  1.00  0.00     0.039 A 
ATOM     38  C   UNL A   1      34.327  30.699  28.250  1.00  0.00     0.014 A 
ATOM     39  C   UNL A   1      35.187  32.931  27.905  1.00  0.00     0.014 A 
ATOM     40  C   UNL A   1      35.453  30.378  28.988  1.00  0.00     0.010 A 
ATOM     41  C   UNL A   1      36.386  32.556  28.520  1.00  0.00     0.010 A 
ATOM     42  C   UNL A   1      36.509  31.293  29.117  1.00  0.00    -0.014 A 
BRANCH  42  43
ATOM     43  C   UNL A   1      37.731  30.866  29.847  1.00  0.00     0.031 A 
ATOM     44  C   UNL A   1      37.980  31.285  31.269  1.00  0.00     0.074 A 
ATOM     45  C   UNL A   1      38.587  30.029  29.226  1.00  0.00     0.049 A 
ATOM     46  N   UNL A   1      38.958  30.936  32.064  1.00  0.00    -0.248 NA
ATOM     47  C   UNL A   1      37.023  32.221  31.878  1.00  0.00     0.031 C 
ATOM     48  C   UNL A   1      38.446  29.572  27.842  1.00  0.00     0.029 A 
ATOM     49  N   UNL A   1      39.712  29.384  29.674  1.00  0.00    -0.354 N 
ATOM     50  C   UNL A   1      38.753  31.628  33.252  1.00  0.00     0.074 A 
ATOM     51  C   UNL A   1      37.573  32.443  33.063  1.00  0.00     0.031 C 
ATOM     52  C   UNL A   1      39.392  28.662  27.581  1.00  0.00     0.029 A 
ATOM     53  C   UNL A   1      40.269  28.541  28.741  1.00  0.00     0.049 A 
ATOM     54  H   UNL A   1      40.084  29.512  30.578  1.00  0.00     0.167 HD
ATOM     55  C   UNL A   1      39.478  31.575  34.394  1.00  0.00     0.034 A 
ATOM     56  C   UNL A   1      41.371  27.767  28.794  1.00  0.00     0.034 A 
ATOM     57  C   UNL A   1      40.635  30.729  34.568  1.00  0.00     0.049 A 
ATOM     58  C   UNL A   1      42.157  27.726  30.076  1.00  0.00     0.074 A 
ATOM     59  C   UNL A   1      41.403  30.563  35.707  1.00  0.00     0.029 A 
ATOM     60  N   UNL A   1      41.192  29.917  33.590  1.00  0.00    -0.354 N 
ATOM     61  N   UNL A   1      41.911  28.338  31.211  1.00  0.00    -0.248 NA
ATOM     62  C   UNL A   1      43.363  26.890  30.093  1.00  0.00     0.031 C 
ATOM     63  C   UNL A   1      42.468  29.719  35.395  1.00  0.00     0.029 A 
ATOM     64  C   UNL A   1      42.318  29.278  34.089  1.00  0.00     0.049 A 
ATOM     65  H   UNL A   1      40.840  29.809  32.677  1.00  0.00     0.167 HD
ATOM     66  C   UNL A   1      42.929  27.957  32.078  1.00  0.00     0.074 A 
ATOM     67  C   UNL A   1      43.766  27.026  31.349  1.00  0.00     0.031 C 
ATOM     68  C   UNL A   1      43.153  28.354  33.358  1.00  0.00     0.034 A 
BRANCH  55  69
ATOM     69  C   UNL A   1      39.068  32.441  35.562  1.00  0.00     0.023 A 
ATOM     70  C   UNL A   1      39.569  33.753  35.665  1.00  0.00     0.031 A 
ATOM     71  C   UNL A   1      38.312  31.935  36.634  1.00  0.00     0.131 A 
ATOM     72  C   UNL A   1      39.347  34.496  36.831  1.00  0.00     0.055 A 
ATOM     73  C   UNL A   1      38.050  32.698  37.774  1.00  0.00     0.041 A 
ATOM     74  F   UNL A   1      37.812  30.688  36.589  1.00  0.00    -0.206 F 
ATOM     75  C   UNL A   1      38.583  33.980  37.882  1.00  0.00     0.022 A 
BRANCH  72  76
ATOM     76  S   UNL A   1      40.109  36.125  37.063  1.00  0.00     0.124 S 
ATOM     77  O   UNL A   1      41.497  35.768  37.353  1.00  0.00    -0.237 OA
ATOM     78  O   UNL A   1      39.885  36.754  35.764  1.00  0.00    -0.237 OA
ATOM     79  O   UNL A   1      39.371  36.702  38.181  1.00  0.00    -0.744 OA
ENDBRANCH  72  76
ENDBRANCH  55  69
BRANCH  56  80
ATOM     80  C   UNL A   1      41.742  26.960  27.596  1.00  0.00     0.023 A 
ATOM     81  C   UNL A   1      41.534  25.568  27.579  1.00  0.00     0.031 A 
ATOM     82  C   UNL A   1      42.438  27.535  26.521  1.00  0.00     0.131 A 
ATOM     83  C   UNL A   1      42.105  24.788  26.566  1.00  0.00     0.055 A 
ATOM     84  C   UNL A   1      42.928  26.764  25.465  1.00  0.00     0.041 A 
ATOM     85  F   UNL A   1      42.674  28.855  26.496  1.00  0.00    -0.206 F 
ATOM     86  C   UNL A   1      42.784  25.379  25.498  1.00  0.00     0.022 A 
BRANCH  83  87
ATOM     87  S   UNL A   1      42.134  22.978  26.697  1.00  0.00     0.124 S 
ATOM     88  O   UNL A   1      40.875  22.606  26.062  1.00  0.00    -0.237 OA
ATOM     89  O   UNL A   1      43.344  22.647  25.945  1.00  0.00    -0.237 OA
ATOM     90  O   UNL A   1      42.214  22.737  28.133  1.00  0.00    -0.744 OA
ENDBRANCH  83  87
ENDBRANCH  56  80
BRANCH  68  91
ATOM     91  C   UNL A   1      44.362  27.802  34.078  1.00  0.00     0.023 A 
ATOM     92  C   UNL A   1      44.242  26.653  34.882  1.00  0.00     0.031 A 
ATOM     93  C   UNL A   1      45.590  28.488  34.082  1.00  0.00     0.131 A 
ATOM     94  C   UNL A   1      45.313  26.250  35.688  1.00  0.00     0.055 A 
ATOM     95  C   UNL A   1      46.674  28.048  34.842  1.00  0.00     0.041 A 
ATOM     96  F   UNL A   1      45.754  29.597  33.343  1.00  0.00    -0.206 F 
ATOM     97  C   UNL A   1      46.532  26.933  35.663  1.00  0.00     0.022 A 
BRANCH  94  98
ATOM     98  S   UNL A   1      45.131  24.888  36.873  1.00  0.00     0.124 S 
ATOM     99  O   UNL A   1      43.828  25.176  37.465  1.00  0.00    -0.237 OA
ATOM    100  O   UNL A   1      45.175  23.715  36.002  1.00  0.00    -0.237 OA
ATOM    101  O   UNL A   1      46.270  25.045  37.770  1.00  0.00    -0.744 OA
ENDBRANCH  94  98
ENDBRANCH  68  91
ENDBRANCH  42  43
ENDBRANCH  34  37
ENDBRANCH  32  33
ENDBRANCH   1  32
TORSDOF 16
ENDMDL
MODEL 3
REMARK VINA RESULT:     -12.8      5.465     11.021
REMARK SMILES C[C@@H]1CCC[C@H](C)[N@H+]1Cc1cc2c(cc1Cl)C=C(C(=O)NCCCNC(=O)c1ccc(-c3c4nc(c(-c5cc(S(=O)(=O)[O-])ccc5F)c5ccc([nH]5)c(-c5cc(S(=O)(=O)[O-])ccc5F)c5nc(c(-c6cc(S(=O)(=O)[O-])ccc6F)c6ccc3[nH]6)C=C5)C=C4)cc1)[C@@H](C(F)(F)F)O2
REMARK SMILES IDX 23 1 22 2 21 3 19 4 20 5 18 7 10 8 11 9 15 10 12 11 14 12
REMARK SMILES IDX 16 13 13 14 96 15 17 16 91 17 9 18 8 19 7 20 6 21 5 22 4 23
REMARK SMILES IDX 2 24 3 26 1 27 92 28 93 29 94 30 95 31 24 32 25 33 26 34
REMARK SMILES IDX 27 36 28 37 29 38 90 39 30 40 89 41 31 42 32 43 33 44 83 45
REMARK SMILES IDX 34 46 88 47 82 48 84 49 35 50 87 51 81 52 80 53 36 55 68 56
REMARK SMILES IDX 48 57 67 58 49 59 52 60 66 61 85 62 50 63 51 64 65 66 86 67
REMARK SMILES IDX 53 68 37 69 38 70 46 71 39 72 45 73 47 74 44 75 40 76 41 77
REMARK SMILES IDX 42 78 43 79 69 80 70 81 78 82 71 83 77 84 79 85 76 86 72 87
REMARK SMILES IDX 73 88 74 89 75 90 54 91 55 92 63 93 56 94 62 95 64 96 61 97
REMARK SMILES IDX 57 98 58 99 59 100 60 101
REMARK H PARENT 21 6 8 25 25 35 84 54 52 65
REMARK Flexibility Score: inf
ROOT
ATOM      1  C   UNL A   1      37.826  18.977  25.157  1.00  0.00     0.042 C 
ENDROOT
BRANCH   1   2
ATOM      2  C   UNL A   1      36.653  19.745  24.575  1.00  0.00     0.118 C 
BRANCH   2   3
ATOM      3  N   UNL A   1      35.395  19.053  24.800  1.00  0.00    -0.352 N 
ATOM      4  C   UNL A   1      34.101  19.401  24.970  1.00  0.00     0.251 C 
ATOM      5  O   UNL A   1      33.306  18.465  25.099  1.00  0.00    -0.270 OA
ATOM      6  H   UNL A   1      35.518  18.076  24.839  1.00  0.00     0.163 HD
BRANCH   4   7
ATOM      7  C   UNL A   1      33.603  20.801  25.007  1.00  0.00     0.067 C 
ATOM      8  C   UNL A   1      31.411  25.139  23.723  1.00  0.00     0.029 A 
ATOM      9  C   UNL A   1      31.468  24.382  24.902  1.00  0.00     0.058 A 
ATOM     10  C   UNL A   1      32.290  24.800  22.679  1.00  0.00     0.050 A 
ATOM     11  C   UNL A   1      32.215  23.212  24.945  1.00  0.00     0.128 A 
ATOM     12  C   UNL A   1      32.989  23.588  22.703  1.00  0.00     0.033 A 
ATOM     13  Cl  UNL A   1      32.540  25.815  21.302  1.00  0.00    -0.084 Cl
ATOM     14  C   UNL A   1      32.899  22.762  23.817  1.00  0.00     0.019 A 
ATOM     15  O   UNL A   1      32.178  22.495  26.107  1.00  0.00    -0.475 OA
ATOM     16  C   UNL A   1      33.439  21.408  23.818  1.00  0.00     0.025 C 
ATOM     17  C   UNL A   1      33.284  21.563  26.262  1.00  0.00     0.314 C 
BRANCH   8  18
ATOM     18  C   UNL A   1      30.318  26.181  23.597  1.00  0.00     0.301 C 
BRANCH  18  19
ATOM     19  N   UNL A   1      30.640  27.534  24.120  1.00  0.00    -0.327 N 
ATOM     20  C   UNL A   1      29.963  29.886  23.724  1.00  0.00     0.075 C 
ATOM     21  C   UNL A   1      30.602  28.624  23.127  1.00  0.00     0.181 C 
ATOM     22  C   UNL A   1      31.964  28.973  22.500  1.00  0.00     0.065 C 
ATOM     23  C   UNL A   1      33.078  29.121  23.524  1.00  0.00     0.012 C 
ATOM     24  C   UNL A   1      31.763  27.565  25.074  1.00  0.00     0.181 C 
ATOM     25  H   UNL A   1      29.838  27.767  24.706  1.00  0.00     0.348 HD
ATOM     26  C   UNL A   1      33.127  27.918  24.455  1.00  0.00     0.065 C 
ATOM     27  C   UNL A   1      31.465  28.472  26.274  1.00  0.00     0.075 C 
ENDBRANCH  18  19
ENDBRANCH   8  18
BRANCH  17  28
ATOM     28  C   UNL A   1      34.535  22.287  26.810  1.00  0.00     0.429 C 
ATOM     29  F   UNL A   1      34.310  22.754  28.062  1.00  0.00    -0.167 F 
ATOM     30  F   UNL A   1      35.611  21.465  26.893  1.00  0.00    -0.167 F 
ATOM     31  F   UNL A   1      34.918  23.337  26.050  1.00  0.00    -0.167 F 
ENDBRANCH  17  28
ENDBRANCH   4   7
ENDBRANCH   2   3
ENDBRANCH   1   2
BRANCH   1  32
ATOM     32  C   UNL A   1      38.912  19.909  25.667  1.00  0.00     0.118 C 
BRANCH  32  33
ATOM     33  N   UNL A   1      40.124  19.181  26.044  1.00  0.00    -0.352 N 
ATOM     34  C   UNL A   1      41.371  19.643  26.390  1.00  0.00     0.251 C 
ATOM     35  H   UNL A   1      40.030  18.201  26.051  1.00  0.00     0.163 HD
ATOM     36  O   UNL A   1      42.317  18.860  26.416  1.00  0.00    -0.269 OA
BRANCH  34  37
ATOM     37  C   UNL A   1      41.566  21.072  26.706  1.00  0.00     0.039 A 
ATOM     38  C   UNL A   1      41.428  22.029  25.703  1.00  0.00     0.014 A 
ATOM     39  C   UNL A   1      41.898  21.463  28.005  1.00  0.00     0.014 A 
ATOM     40  C   UNL A   1      41.849  23.327  25.935  1.00  0.00     0.010 A 
ATOM     41  C   UNL A   1      42.178  22.807  28.271  1.00  0.00     0.010 A 
ATOM     42  C   UNL A   1      42.210  23.742  27.227  1.00  0.00    -0.014 A 
BRANCH  42  43
ATOM     43  C   UNL A   1      42.571  25.168  27.437  1.00  0.00     0.031 A 
ATOM     44  C   UNL A   1      41.635  26.118  28.129  1.00  0.00     0.074 A 
ATOM     45  C   UNL A   1      43.796  25.582  27.053  1.00  0.00     0.049 A 
ATOM     46  N   UNL A   1      41.832  27.369  28.454  1.00  0.00    -0.248 NA
ATOM     47  C   UNL A   1      40.303  25.612  28.497  1.00  0.00     0.031 C 
ATOM     48  C   UNL A   1      44.777  24.744  26.360  1.00  0.00     0.029 A 
ATOM     49  N   UNL A   1      44.443  26.779  27.219  1.00  0.00    -0.354 N 
ATOM     50  C   UNL A   1      40.649  27.808  29.034  1.00  0.00     0.074 A 
ATOM     51  C   UNL A   1      39.723  26.697  28.989  1.00  0.00     0.031 C 
ATOM     52  C   UNL A   1      45.924  25.421  26.235  1.00  0.00     0.029 A 
ATOM     53  C   UNL A   1      45.735  26.775  26.746  1.00  0.00     0.049 A 
ATOM     54  H   UNL A   1      44.024  27.566  27.638  1.00  0.00     0.167 HD
ATOM     55  C   UNL A   1      40.369  29.022  29.564  1.00  0.00     0.034 A 
ATOM     56  C   UNL A   1      46.666  27.749  26.706  1.00  0.00     0.034 A 
ATOM     57  C   UNL A   1      41.320  30.106  29.624  1.00  0.00     0.049 A 
ATOM     58  C   UNL A   1      46.329  29.087  27.303  1.00  0.00     0.074 A 
ATOM     59  C   UNL A   1      41.149  31.356  30.192  1.00  0.00     0.029 A 
ATOM     60  N   UNL A   1      42.606  30.078  29.103  1.00  0.00    -0.354 N 
ATOM     61  N   UNL A   1      45.226  29.464  27.906  1.00  0.00    -0.248 NA
ATOM     62  C   UNL A   1      47.357  30.131  27.223  1.00  0.00     0.031 C 
ATOM     63  C   UNL A   1      42.296  32.109  29.942  1.00  0.00     0.029 A 
ATOM     64  C   UNL A   1      43.225  31.304  29.302  1.00  0.00     0.049 A 
ATOM     65  H   UNL A   1      43.019  29.303  28.658  1.00  0.00     0.167 HD
ATOM     66  C   UNL A   1      45.428  30.787  28.281  1.00  0.00     0.074 A 
ATOM     67  C   UNL A   1      46.777  31.129  27.878  1.00  0.00     0.031 C 
ATOM     68  C   UNL A   1      44.569  31.642  28.894  1.00  0.00     0.034 A 
BRANCH  55  69
ATOM     69  C   UNL A   1      38.991  29.274  30.128  1.00  0.00     0.023 A 
ATOM     70  C   UNL A   1      38.055  30.012  29.377  1.00  0.00     0.031 A 
ATOM     71  C   UNL A   1      38.650  28.920  31.446  1.00  0.00     0.131 A 
ATOM     72  C   UNL A   1      36.848  30.411  29.963  1.00  0.00     0.055 A 
ATOM     73  C   UNL A   1      37.422  29.275  32.008  1.00  0.00     0.041 A 
ATOM     74  F   UNL A   1      39.506  28.218  32.208  1.00  0.00    -0.206 F 
ATOM     75  C   UNL A   1      36.522  30.038  31.271  1.00  0.00     0.022 A 
BRANCH  72  76
ATOM     76  S   UNL A   1      35.690  31.494  29.082  1.00  0.00     0.124 S 
ATOM     77  O   UNL A   1      35.040  30.558  28.167  1.00  0.00    -0.237 OA
ATOM     78  O   UNL A   1      34.850  31.990  30.169  1.00  0.00    -0.237 OA
ATOM     79  O   UNL A   1      36.552  32.485  28.446  1.00  0.00    -0.744 OA
ENDBRANCH  72  76
ENDBRANCH  55  69
BRANCH  56  80
ATOM     80  C   UNL A   1      47.998  27.446  26.105  1.00  0.00     0.023 A 
ATOM     81  C   UNL A   1      48.234  27.676  24.736  1.00  0.00     0.031 A 
ATOM     82  C   UNL A   1      48.995  26.792  26.846  1.00  0.00     0.131 A 
ATOM     83  C   UNL A   1      49.388  27.164  24.132  1.00  0.00     0.055 A 
ATOM     84  C   UNL A   1      50.185  26.363  26.256  1.00  0.00     0.041 A 
ATOM     85  F   UNL A   1      48.813  26.537  28.150  1.00  0.00    -0.206 F 
ATOM     86  C   UNL A   1      50.375  26.526  24.886  1.00  0.00     0.022 A 
BRANCH  83  87
ATOM     87  S   UNL A   1      49.559  27.156  22.325  1.00  0.00     0.124 S 
ATOM     88  O   UNL A   1      50.989  26.922  22.154  1.00  0.00    -0.237 OA
ATOM     89  O   UNL A   1      48.687  26.045  21.949  1.00  0.00    -0.237 OA
ATOM     90  O   UNL A   1      49.084  28.477  21.927  1.00  0.00    -0.744 OA
ENDBRANCH  83  87
ENDBRANCH  56  80
BRANCH  68  91
ATOM     91  C   UNL A   1      45.036  33.053  29.169  1.00  0.00     0.023 A 
ATOM     92  C   UNL A   1      44.814  34.068  28.218  1.00  0.00     0.031 A 
ATOM     93  C   UNL A   1      45.818  33.362  30.296  1.00  0.00     0.131 A 
ATOM     94  C   UNL A   1      45.402  35.327  28.390  1.00  0.00     0.055 A 
ATOM     95  C   UNL A   1      46.353  34.636  30.492  1.00  0.00     0.041 A 
ATOM     96  F   UNL A   1      46.072  32.427  31.226  1.00  0.00    -0.206 F 
ATOM     97  C   UNL A   1      46.160  35.620  29.527  1.00  0.00     0.022 A 
BRANCH  94  98
ATOM     98  S   UNL A   1      45.291  36.595  27.098  1.00  0.00     0.124 S 
ATOM     99  O   UNL A   1      46.136  36.031  26.048  1.00  0.00    -0.237 OA
ATOM    100  O   UNL A   1      43.859  36.612  26.805  1.00  0.00    -0.237 OA
ATOM    101  O   UNL A   1      45.813  37.798  27.737  1.00  0.00    -0.744 OA
ENDBRANCH  94  98
ENDBRANCH  68  91
ENDBRANCH  42  43
ENDBRANCH  34  37
ENDBRANCH  32  33
ENDBRANCH   1  32
TORSDOF 16
ENDMDL
