MODEL 1
REMARK VINA RESULT:     -11.6      0.000      0.000
REMARK SMILES O=C(NCCCNC(=O)c1ccc(-n2cc(CSc3nc4ccccc4c(=O)n3-c3ccc(Cl)cc3)nn2)cc1)c1ccc(-c2c3nc(c(-c4cc(S(=O)(=O)[O-])ccc4F)c4ccc([nH]4)c(-c4cc(S(=O)(=O)[O-])ccc4F)c4nc(c(-c5cc(S(=O)(=O)[O-])ccc5F)c5ccc2[nH]5)C=C4)C=C3)cc1
REMARK SMILES IDX 6 1 5 2 4 3 3 4 1 5 2 6 41 8 42 9 103 10 43 11 102 12 44 13
REMARK SMILES IDX 45 14 46 15 96 16 47 17 101 18 95 19 97 20 48 21 100 22
REMARK SMILES IDX 94 23 93 24 49 26 81 27 61 28 80 29 62 30 65 31 79 32 98 33
REMARK SMILES IDX 63 34 64 35 78 37 99 38 66 39 50 40 51 41 59 42 52 43 58 44
REMARK SMILES IDX 60 45 57 46 53 47 54 48 55 49 56 50 82 51 83 52 91 53 84 54
REMARK SMILES IDX 90 55 92 56 89 57 85 58 86 59 87 60 88 61 67 62 68 63 76 64
REMARK SMILES IDX 69 65 75 66 77 67 74 68 70 69 71 70 72 71 73 72 7 73 8 74
REMARK SMILES IDX 9 76 10 77 11 78 40 79 12 80 39 81 13 82 14 83 15 84 38 85
REMARK SMILES IDX 16 86 37 87 17 88 18 89 19 90 20 91 29 92 21 93 27 94 22 95
REMARK SMILES IDX 26 96 28 97 23 98 25 99 24 100 30 101 31 102 36 103 32 104
REMARK SMILES IDX 35 105 33 106 34 107
REMARK H PARENT 3 7 97 25 65 36 7 75
REMARK Flexibility Score: inf
ROOT
ATOM      1  C   UNL A   1      42.226  20.382  27.735  1.00  0.00     0.118 C 
ENDROOT
BRANCH   1   2
ATOM      2  C   UNL A   1      40.832  20.998  27.655  1.00  0.00     0.042 C 
BRANCH   2   3
ATOM      3  C   UNL A   1      40.816  22.517  27.492  1.00  0.00     0.118 C 
BRANCH   3   4
ATOM      4  N   UNL A   1      39.669  23.065  26.794  1.00  0.00    -0.352 N 
ATOM      5  O   UNL A   1      38.225  24.451  25.857  1.00  0.00    -0.269 OA
ATOM      6  C   UNL A   1      39.107  24.308  26.707  1.00  0.00     0.251 C 
ATOM      7  H   UNL A   1      39.187  22.390  26.263  1.00  0.00     0.163 HD
BRANCH   6   8
ATOM      8  C   UNL A   1      39.425  25.442  27.614  1.00  0.00     0.039 A 
ATOM      9  C   UNL A   1      39.231  25.455  28.997  1.00  0.00     0.014 A 
ATOM     10  C   UNL A   1      39.923  26.598  26.987  1.00  0.00     0.014 A 
ATOM     11  C   UNL A   1      39.395  26.633  29.721  1.00  0.00     0.010 A 
ATOM     12  C   UNL A   1      40.120  27.765  27.710  1.00  0.00     0.010 A 
ATOM     13  C   UNL A   1      39.801  27.794  29.068  1.00  0.00    -0.014 A 
BRANCH  13  14
ATOM     14  C   UNL A   1      39.998  29.014  29.848  1.00  0.00     0.031 A 
ATOM     15  C   UNL A   1      38.790  29.884  30.008  1.00  0.00     0.074 A 
ATOM     16  C   UNL A   1      41.131  29.210  30.554  1.00  0.00     0.049 A 
ATOM     17  N   UNL A   1      38.677  31.164  29.849  1.00  0.00    -0.248 NA
ATOM     18  C   UNL A   1      37.514  29.216  30.320  1.00  0.00     0.031 C 
ATOM     19  C   UNL A   1      42.261  28.284  30.694  1.00  0.00     0.029 A 
ATOM     20  N   UNL A   1      41.446  30.210  31.426  1.00  0.00    -0.354 N 
ATOM     21  C   UNL A   1      37.373  31.490  30.226  1.00  0.00     0.074 A 
ATOM     22  C   UNL A   1      36.669  30.245  30.369  1.00  0.00     0.031 C 
ATOM     23  C   UNL A   1      42.990  28.635  31.776  1.00  0.00     0.029 A 
ATOM     24  C   UNL A   1      42.454  29.868  32.326  1.00  0.00     0.049 A 
ATOM     25  H   UNL A   1      41.004  31.089  31.421  1.00  0.00     0.167 HD
ATOM     26  C   UNL A   1      37.007  32.753  30.584  1.00  0.00     0.034 A 
ATOM     27  C   UNL A   1      42.755  30.485  33.499  1.00  0.00     0.034 A 
ATOM     28  C   UNL A   1      37.917  33.739  30.063  1.00  0.00     0.049 A 
ATOM     29  C   UNL A   1      42.178  31.851  33.434  1.00  0.00     0.074 A 
ATOM     30  C   UNL A   1      38.317  34.109  28.793  1.00  0.00     0.029 A 
ATOM     31  N   UNL A   1      38.843  34.299  30.911  1.00  0.00    -0.354 N 
ATOM     32  N   UNL A   1      42.574  32.757  32.582  1.00  0.00    -0.248 NA
ATOM     33  C   UNL A   1      40.845  32.058  33.981  1.00  0.00     0.031 C 
ATOM     34  C   UNL A   1      39.711  34.387  28.918  1.00  0.00     0.029 A 
ATOM     35  C   UNL A   1      40.053  34.228  30.263  1.00  0.00     0.049 A 
ATOM     36  H   UNL A   1      38.674  34.676  31.803  1.00  0.00     0.167 HD
ATOM     37  C   UNL A   1      41.413  33.388  32.164  1.00  0.00     0.074 A 
ATOM     38  C   UNL A   1      40.394  32.985  33.132  1.00  0.00     0.031 C 
ATOM     39  C   UNL A   1      41.313  33.948  30.922  1.00  0.00     0.034 A 
BRANCH  26  40
ATOM     40  C   UNL A   1      35.998  33.075  31.666  1.00  0.00     0.023 A 
ATOM     41  C   UNL A   1      34.870  33.842  31.314  1.00  0.00     0.031 A 
ATOM     42  C   UNL A   1      36.232  32.924  33.052  1.00  0.00     0.131 A 
ATOM     43  C   UNL A   1      34.091  34.476  32.300  1.00  0.00     0.055 A 
ATOM     44  C   UNL A   1      35.414  33.500  34.029  1.00  0.00     0.041 A 
ATOM     45  F   UNL A   1      37.312  32.302  33.539  1.00  0.00    -0.206 F 
ATOM     46  C   UNL A   1      34.354  34.307  33.656  1.00  0.00     0.022 A 
BRANCH  43  47
ATOM     47  S   UNL A   1      32.845  35.685  31.778  1.00  0.00     0.124 S 
ATOM     48  O   UNL A   1      32.715  35.387  30.356  1.00  0.00    -0.237 OA
ATOM     49  O   UNL A   1      31.708  35.325  32.618  1.00  0.00    -0.237 OA
ATOM     50  O   UNL A   1      33.468  36.970  32.087  1.00  0.00    -0.744 OA
ENDBRANCH  43  47
ENDBRANCH  26  40
BRANCH  27  51
ATOM     51  C   UNL A   1      43.148  29.803  34.765  1.00  0.00     0.023 A 
ATOM     52  C   UNL A   1      42.469  28.682  35.287  1.00  0.00     0.031 A 
ATOM     53  C   UNL A   1      44.371  30.146  35.389  1.00  0.00     0.131 A 
ATOM     54  C   UNL A   1      43.004  27.978  36.394  1.00  0.00     0.055 A 
ATOM     55  C   UNL A   1      44.887  29.458  36.487  1.00  0.00     0.041 A 
ATOM     56  F   UNL A   1      45.151  31.123  34.898  1.00  0.00    -0.206 F 
ATOM     57  C   UNL A   1      44.206  28.365  36.993  1.00  0.00     0.022 A 
BRANCH  54  58
ATOM     58  S   UNL A   1      42.175  26.484  37.030  1.00  0.00     0.124 S 
ATOM     59  O   UNL A   1      42.219  25.590  35.880  1.00  0.00    -0.237 OA
ATOM     60  O   UNL A   1      43.013  26.123  38.168  1.00  0.00    -0.237 OA
ATOM     61  O   UNL A   1      40.837  26.962  37.386  1.00  0.00    -0.744 OA
ENDBRANCH  54  58
ENDBRANCH  27  51
BRANCH  39  62
ATOM     62  C   UNL A   1      42.566  34.058  30.074  1.00  0.00     0.023 A 
ATOM     63  C   UNL A   1      42.949  33.112  29.095  1.00  0.00     0.031 A 
ATOM     64  C   UNL A   1      43.313  35.244  30.163  1.00  0.00     0.131 A 
ATOM     65  C   UNL A   1      44.051  33.369  28.254  1.00  0.00     0.055 A 
ATOM     66  C   UNL A   1      44.393  35.503  29.319  1.00  0.00     0.041 A 
ATOM     67  F   UNL A   1      42.975  36.197  31.046  1.00  0.00    -0.206 F 
ATOM     68  C   UNL A   1      44.769  34.565  28.364  1.00  0.00     0.022 A 
BRANCH  65  69
ATOM     69  S   UNL A   1      44.567  32.152  26.999  1.00  0.00     0.124 S 
ATOM     70  O   UNL A   1      46.023  32.226  27.029  1.00  0.00    -0.237 OA
ATOM     71  O   UNL A   1      43.978  30.910  27.492  1.00  0.00    -0.237 OA
ATOM     72  O   UNL A   1      43.962  32.656  25.764  1.00  0.00    -0.744 OA
ENDBRANCH  65  69
ENDBRANCH  39  62
ENDBRANCH  13  14
ENDBRANCH   6   8
ENDBRANCH   3   4
ENDBRANCH   2   3
ENDBRANCH   1   2
BRANCH   1  73
ATOM     73  N   UNL A   1      42.513  19.487  26.623  1.00  0.00    -0.352 N 
ATOM     74  C   UNL A   1      43.243  19.688  25.477  1.00  0.00     0.251 C 
ATOM     75  H   UNL A   1      42.118  18.589  26.707  1.00  0.00     0.163 HD
ATOM     76  O   UNL A   1      43.235  18.853  24.590  1.00  0.00    -0.269 OA
BRANCH  74  77
ATOM     77  C   UNL A   1      44.028  20.928  25.310  1.00  0.00     0.039 A 
ATOM     78  C   UNL A   1      43.345  22.119  25.052  1.00  0.00     0.016 A 
ATOM     79  C   UNL A   1      45.425  20.907  25.342  1.00  0.00     0.016 A 
ATOM     80  C   UNL A   1      44.056  23.312  24.890  1.00  0.00     0.029 A 
ATOM     81  C   UNL A   1      46.140  22.092  25.163  1.00  0.00     0.029 A 
ATOM     82  C   UNL A   1      45.456  23.299  24.934  1.00  0.00     0.066 A 
BRANCH  82  83
ATOM     83  N   UNL A   1      46.172  24.496  24.691  1.00  0.00    -0.220 N 
ATOM     84  C   UNL A   1      45.940  25.730  25.242  1.00  0.00     0.141 A 
ATOM     85  N   UNL A   1      47.263  24.568  23.890  1.00  0.00    -0.062 NA
ATOM     86  C   UNL A   1      46.947  26.542  24.773  1.00  0.00     0.093 A 
ATOM     87  N   UNL A   1      47.719  25.818  23.907  1.00  0.00    -0.134 NA
BRANCH  86  88
ATOM     88  C   UNL A   1      47.117  27.996  24.969  1.00  0.00     0.138 C 
BRANCH  88  89
ATOM     89  S   UNL A   1      46.976  28.758  26.594  1.00  0.00    -0.081 SA
BRANCH  89  90
ATOM     90  C   UNL A   1      46.747  27.570  27.851  1.00  0.00     0.176 A 
ATOM     91  N   UNL A   1      45.495  27.238  27.988  1.00  0.00    -0.223 NA
ATOM     92  N   UNL A   1      47.746  26.983  28.618  1.00  0.00    -0.255 N 
ATOM     93  C   UNL A   1      45.147  26.345  29.007  1.00  0.00     0.079 A 
ATOM     94  C   UNL A   1      47.356  26.688  29.932  1.00  0.00     0.266 A 
ATOM     95  C   UNL A   1      43.917  25.687  29.004  1.00  0.00     0.029 A 
ATOM     96  C   UNL A   1      45.993  26.162  30.088  1.00  0.00     0.066 A 
ATOM     97  O   UNL A   1      48.044  26.812  30.943  1.00  0.00    -0.268 OA
ATOM     98  C   UNL A   1      43.530  24.904  30.099  1.00  0.00     0.002 A 
ATOM     99  C   UNL A   1      45.604  25.430  31.215  1.00  0.00     0.016 A 
ATOM    100  C   UNL A   1      44.359  24.803  31.218  1.00  0.00     0.001 A 
BRANCH  92 101
ATOM    101  C   UNL A   1      49.106  26.665  28.220  1.00  0.00     0.051 A 
ATOM    102  C   UNL A   1      50.154  27.562  28.525  1.00  0.00     0.028 A 
ATOM    103  C   UNL A   1      49.497  25.487  27.573  1.00  0.00     0.028 A 
ATOM    104  C   UNL A   1      51.449  27.410  28.019  1.00  0.00     0.022 A 
ATOM    105  C   UNL A   1      50.778  25.347  27.011  1.00  0.00     0.022 A 
ATOM    106  C   UNL A   1      51.736  26.331  27.203  1.00  0.00     0.041 A 
ATOM    107  Cl  UNL A   1      53.267  26.217  26.438  1.00  0.00    -0.084 Cl
ENDBRANCH  92 101
ENDBRANCH  89  90
ENDBRANCH  88  89
ENDBRANCH  86  88
ENDBRANCH  82  83
ENDBRANCH  74  77
ENDBRANCH   1  73
TORSDOF 18
ENDMDL
MODEL 2
REMARK VINA RESULT:     -11.5      4.438     12.341
REMARK SMILES O=C(NCCCNC(=O)c1ccc(-n2cc(CSc3nc4ccccc4c(=O)n3-c3ccc(Cl)cc3)nn2)cc1)c1ccc(-c2c3nc(c(-c4cc(S(=O)(=O)[O-])ccc4F)c4ccc([nH]4)c(-c4cc(S(=O)(=O)[O-])ccc4F)c4nc(c(-c5cc(S(=O)(=O)[O-])ccc5F)c5ccc2[nH]5)C=C4)C=C3)cc1
REMARK SMILES IDX 6 1 5 2 4 3 3 4 1 5 2 6 41 8 42 9 103 10 43 11 102 12 44 13
REMARK SMILES IDX 45 14 46 15 96 16 47 17 101 18 95 19 97 20 48 21 100 22
REMARK SMILES IDX 94 23 93 24 49 26 81 27 61 28 80 29 62 30 65 31 79 32 98 33
REMARK SMILES IDX 63 34 64 35 78 37 99 38 66 39 50 40 51 41 59 42 52 43 58 44
REMARK SMILES IDX 60 45 57 46 53 47 54 48 55 49 56 50 82 51 83 52 91 53 84 54
REMARK SMILES IDX 90 55 92 56 89 57 85 58 86 59 87 60 88 61 67 62 68 63 76 64
REMARK SMILES IDX 69 65 75 66 77 67 74 68 70 69 71 70 72 71 73 72 7 73 8 74
REMARK SMILES IDX 9 76 10 77 11 78 40 79 12 80 39 81 13 82 14 83 15 84 38 85
REMARK SMILES IDX 16 86 37 87 17 88 18 89 19 90 20 91 29 92 21 93 27 94 22 95
REMARK SMILES IDX 26 96 28 97 23 98 25 99 24 100 30 101 31 102 36 103 32 104
REMARK SMILES IDX 35 105 33 106 34 107
REMARK H PARENT 3 7 97 25 65 36 7 75
REMARK Flexibility Score: inf
ROOT
ATOM      1  C   UNL A   1      35.060  32.861  30.803  1.00  0.00     0.118 C 
ENDROOT
BRANCH   1   2
ATOM      2  C   UNL A   1      34.620  32.792  29.343  1.00  0.00     0.042 C 
BRANCH   2   3
ATOM      3  C   UNL A   1      35.638  32.150  28.401  1.00  0.00     0.118 C 
BRANCH   3   4
ATOM      4  N   UNL A   1      35.226  30.908  27.779  1.00  0.00    -0.352 N 
ATOM      5  O   UNL A   1      35.074  28.782  27.191  1.00  0.00    -0.269 OA
ATOM      6  C   UNL A   1      35.804  29.678  27.623  1.00  0.00     0.251 C 
ATOM      7  H   UNL A   1      34.328  30.961  27.378  1.00  0.00     0.163 HD
BRANCH   6   8
ATOM      8  C   UNL A   1      37.244  29.389  27.852  1.00  0.00     0.039 A 
ATOM      9  C   UNL A   1      38.297  29.818  27.041  1.00  0.00     0.014 A 
ATOM     10  C   UNL A   1      37.529  28.577  28.963  1.00  0.00     0.014 A 
ATOM     11  C   UNL A   1      39.587  29.338  27.249  1.00  0.00     0.010 A 
ATOM     12  C   UNL A   1      38.819  28.123  29.194  1.00  0.00     0.010 A 
ATOM     13  C   UNL A   1      39.837  28.461  28.301  1.00  0.00    -0.014 A 
BRANCH  13  14
ATOM     14  C   UNL A   1      41.202  27.991  28.524  1.00  0.00     0.031 A 
ATOM     15  C   UNL A   1      41.568  26.712  27.838  1.00  0.00     0.074 A 
ATOM     16  C   UNL A   1      42.119  28.781  29.120  1.00  0.00     0.049 A 
ATOM     17  N   UNL A   1      42.167  25.669  28.317  1.00  0.00    -0.248 NA
ATOM     18  C   UNL A   1      41.138  26.550  26.437  1.00  0.00     0.031 C 
ATOM     19  C   UNL A   1      41.938  30.165  29.573  1.00  0.00     0.029 A 
ATOM     20  N   UNL A   1      43.454  28.573  29.304  1.00  0.00    -0.354 N 
ATOM     21  C   UNL A   1      42.363  24.802  27.240  1.00  0.00     0.074 A 
ATOM     22  C   UNL A   1      41.591  25.331  26.148  1.00  0.00     0.031 C 
ATOM     23  C   UNL A   1      43.148  30.745  29.725  1.00  0.00     0.029 A 
ATOM     24  C   UNL A   1      44.179  29.747  29.501  1.00  0.00     0.049 A 
ATOM     25  H   UNL A   1      43.866  27.679  29.298  1.00  0.00     0.167 HD
ATOM     26  C   UNL A   1      43.300  23.813  27.256  1.00  0.00     0.034 A 
ATOM     27  C   UNL A   1      45.523  29.915  29.376  1.00  0.00     0.034 A 
ATOM     28  C   UNL A   1      43.671  23.452  28.598  1.00  0.00     0.049 A 
ATOM     29  C   UNL A   1      46.143  28.571  29.481  1.00  0.00     0.074 A 
ATOM     30  C   UNL A   1      42.986  22.955  29.691  1.00  0.00     0.029 A 
ATOM     31  N   UNL A   1      44.866  23.912  29.101  1.00  0.00    -0.354 N 
ATOM     32  N   UNL A   1      46.096  27.842  30.562  1.00  0.00    -0.248 NA
ATOM     33  C   UNL A   1      46.395  27.836  28.251  1.00  0.00     0.031 C 
ATOM     34  C   UNL A   1      43.555  23.627  30.813  1.00  0.00     0.029 A 
ATOM     35  C   UNL A   1      44.587  24.440  30.339  1.00  0.00     0.049 A 
ATOM     36  H   UNL A   1      45.745  23.871  28.663  1.00  0.00     0.167 HD
ATOM     37  C   UNL A   1      45.881  26.548  30.114  1.00  0.00     0.074 A 
ATOM     38  C   UNL A   1      46.174  26.591  28.682  1.00  0.00     0.031 C 
ATOM     39  C   UNL A   1      45.217  25.629  30.876  1.00  0.00     0.034 A 
BRANCH  26  40
ATOM     40  C   UNL A   1      44.109  23.384  26.050  1.00  0.00     0.023 A 
ATOM     41  C   UNL A   1      44.046  22.033  25.655  1.00  0.00     0.031 A 
ATOM     42  C   UNL A   1      45.144  24.149  25.464  1.00  0.00     0.131 A 
ATOM     43  C   UNL A   1      45.016  21.486  24.795  1.00  0.00     0.055 A 
ATOM     44  C   UNL A   1      46.064  23.616  24.555  1.00  0.00     0.041 A 
ATOM     45  F   UNL A   1      45.386  25.419  25.809  1.00  0.00    -0.206 F 
ATOM     46  C   UNL A   1      46.024  22.270  24.240  1.00  0.00     0.022 A 
BRANCH  43  47
ATOM     47  S   UNL A   1      45.059  19.687  24.565  1.00  0.00     0.124 S 
ATOM     48  O   UNL A   1      46.446  19.376  24.896  1.00  0.00    -0.237 OA
ATOM     49  O   UNL A   1      44.053  19.239  25.522  1.00  0.00    -0.237 OA
ATOM     50  O   UNL A   1      44.704  19.516  23.159  1.00  0.00    -0.744 OA
ENDBRANCH  43  47
ENDBRANCH  26  40
BRANCH  27  51
ATOM     51  C   UNL A   1      46.199  31.104  28.782  1.00  0.00     0.023 A 
ATOM     52  C   UNL A   1      47.169  31.867  29.464  1.00  0.00     0.031 A 
ATOM     53  C   UNL A   1      46.030  31.383  27.405  1.00  0.00     0.131 A 
ATOM     54  C   UNL A   1      47.897  32.870  28.776  1.00  0.00     0.055 A 
ATOM     55  C   UNL A   1      46.739  32.380  26.736  1.00  0.00     0.041 A 
ATOM     56  F   UNL A   1      45.217  30.636  26.640  1.00  0.00    -0.206 F 
ATOM     57  C   UNL A   1      47.682  33.126  27.419  1.00  0.00     0.022 A 
BRANCH  54  58
ATOM     58  S   UNL A   1      49.205  33.813  29.627  1.00  0.00     0.124 S 
ATOM     59  O   UNL A   1      49.075  33.352  31.004  1.00  0.00    -0.237 OA
ATOM     60  O   UNL A   1      50.406  33.397  28.912  1.00  0.00    -0.237 OA
ATOM     61  O   UNL A   1      48.817  35.209  29.407  1.00  0.00    -0.744 OA
ENDBRANCH  54  58
ENDBRANCH  27  51
BRANCH  39  62
ATOM     62  C   UNL A   1      44.897  25.979  32.316  1.00  0.00     0.023 A 
ATOM     63  C   UNL A   1      43.744  26.689  32.726  1.00  0.00     0.031 A 
ATOM     64  C   UNL A   1      45.719  25.439  33.318  1.00  0.00     0.131 A 
ATOM     65  C   UNL A   1      43.456  26.842  34.097  1.00  0.00     0.055 A 
ATOM     66  C   UNL A   1      45.423  25.578  34.675  1.00  0.00     0.041 A 
ATOM     67  F   UNL A   1      46.808  24.722  32.993  1.00  0.00    -0.206 F 
ATOM     68  C   UNL A   1      44.293  26.284  35.069  1.00  0.00     0.022 A 
BRANCH  65  69
ATOM     69  S   UNL A   1      41.983  27.768  34.640  1.00  0.00     0.124 S 
ATOM     70  O   UNL A   1      41.084  27.685  33.494  1.00  0.00    -0.237 OA
ATOM     71  O   UNL A   1      41.565  27.041  35.836  1.00  0.00    -0.237 OA
ATOM     72  O   UNL A   1      42.501  29.113  34.905  1.00  0.00    -0.744 OA
ENDBRANCH  65  69
ENDBRANCH  39  62
ENDBRANCH  13  14
ENDBRANCH   6   8
ENDBRANCH   3   4
ENDBRANCH   2   3
ENDBRANCH   1   2
BRANCH   1  73
ATOM     73  N   UNL A   1      35.357  31.552  31.366  1.00  0.00    -0.352 N 
ATOM     74  C   UNL A   1      36.558  30.956  31.661  1.00  0.00     0.251 C 
ATOM     75  H   UNL A   1      34.565  31.003  31.569  1.00  0.00     0.163 HD
ATOM     76  O   UNL A   1      36.598  29.783  31.988  1.00  0.00    -0.269 OA
BRANCH  74  77
ATOM     77  C   UNL A   1      37.811  31.734  31.567  1.00  0.00     0.039 A 
ATOM     78  C   UNL A   1      38.251  32.427  32.698  1.00  0.00     0.016 A 
ATOM     79  C   UNL A   1      38.510  31.831  30.362  1.00  0.00     0.016 A 
ATOM     80  C   UNL A   1      39.433  33.171  32.646  1.00  0.00     0.029 A 
ATOM     81  C   UNL A   1      39.682  32.588  30.300  1.00  0.00     0.029 A 
ATOM     82  C   UNL A   1      40.146  33.263  31.443  1.00  0.00     0.066 A 
BRANCH  82  83
ATOM     83  N   UNL A   1      41.299  34.080  31.377  1.00  0.00    -0.220 N 
ATOM     84  C   UNL A   1      41.898  34.581  30.250  1.00  0.00     0.141 A 
ATOM     85  N   UNL A   1      41.956  34.541  32.469  1.00  0.00    -0.062 NA
ATOM     86  C   UNL A   1      42.920  35.387  30.699  1.00  0.00     0.093 A 
ATOM     87  N   UNL A   1      42.966  35.307  32.063  1.00  0.00    -0.134 NA
BRANCH  86  88
ATOM     88  C   UNL A   1      43.950  36.087  29.905  1.00  0.00     0.138 C 
BRANCH  88  89
ATOM     89  S   UNL A   1      43.527  37.395  28.743  1.00  0.00    -0.081 SA
BRANCH  89  90
ATOM     90  C   UNL A   1      43.258  38.918  29.549  1.00  0.00     0.176 A 
ATOM     91  N   UNL A   1      43.765  38.934  30.749  1.00  0.00    -0.223 NA
ATOM     92  N   UNL A   1      42.621  40.031  29.012  1.00  0.00    -0.255 N 
ATOM     93  C   UNL A   1      43.567  40.066  31.545  1.00  0.00     0.079 A 
ATOM     94  C   UNL A   1      41.894  40.779  29.949  1.00  0.00     0.266 A 
ATOM     95  C   UNL A   1      44.346  40.300  32.678  1.00  0.00     0.029 A 
ATOM     96  C   UNL A   1      42.527  40.938  31.264  1.00  0.00     0.066 A 
ATOM     97  O   UNL A   1      40.804  41.317  29.766  1.00  0.00    -0.268 OA
ATOM     98  C   UNL A   1      44.044  41.364  33.538  1.00  0.00     0.002 A 
ATOM     99  C   UNL A   1      42.176  41.973  32.138  1.00  0.00     0.016 A 
ATOM    100  C   UNL A   1      42.938  42.179  33.285  1.00  0.00     0.001 A 
BRANCH  92 101
ATOM    101  C   UNL A   1      42.619  40.477  27.630  1.00  0.00     0.051 A 
ATOM    102  C   UNL A   1      43.751  41.139  27.104  1.00  0.00     0.028 A 
ATOM    103  C   UNL A   1      41.574  40.267  26.722  1.00  0.00     0.028 A 
ATOM    104  C   UNL A   1      43.750  41.751  25.847  1.00  0.00     0.022 A 
ATOM    105  C   UNL A   1      41.536  40.924  25.480  1.00  0.00     0.022 A 
ATOM    106  C   UNL A   1      42.610  41.697  25.066  1.00  0.00     0.041 A 
ATOM    107  Cl  UNL A   1      42.532  42.582  23.598  1.00  0.00    -0.084 Cl
ENDBRANCH  92 101
ENDBRANCH  89  90
ENDBRANCH  88  89
ENDBRANCH  86  88
ENDBRANCH  82  83
ENDBRANCH  74  77
ENDBRANCH   1  73
TORSDOF 18
ENDMDL
MODEL 3
REMARK VINA RESULT:     -11.5      3.888     11.309
REMARK SMILES O=C(NCCCNC(=O)c1ccc(-n2cc(CSc3nc4ccccc4c(=O)n3-c3ccc(Cl)cc3)nn2)cc1)c1ccc(-c2c3nc(c(-c4cc(S(=O)(=O)[O-])ccc4F)c4ccc([nH]4)c(-c4cc(S(=O)(=O)[O-])ccc4F)c4nc(c(-c5cc(S(=O)(=O)[O-])ccc5F)c5ccc2[nH]5)C=C4)C=C3)cc1
REMARK SMILES IDX 6 1 5 2 4 3 3 4 1 5 2 6 41 8 42 9 103 10 43 11 102 12 44 13
REMARK SMILES IDX 45 14 46 15 96 16 47 17 101 18 95 19 97 20 48 21 100 22
REMARK SMILES IDX 94 23 93 24 49 26 81 27 61 28 80 29 62 30 65 31 79 32 98 33
REMARK SMILES IDX 63 34 64 35 78 37 99 38 66 39 50 40 51 41 59 42 52 43 58 44
REMARK SMILES IDX 60 45 57 46 53 47 54 48 55 49 56 50 82 51 83 52 91 53 84 54
REMARK SMILES IDX 90 55 92 56 89 57 85 58 86 59 87 60 88 61 67 62 68 63 76 64
REMARK SMILES IDX 69 65 75 66 77 67 74 68 70 69 71 70 72 71 73 72 7 73 8 74
REMARK SMILES IDX 9 76 10 77 11 78 40 79 12 80 39 81 13 82 14 83 15 84 38 85
REMARK SMILES IDX 16 86 37 87 17 88 18 89 19 90 20 91 29 92 21 93 27 94 22 95
REMARK SMILES IDX 26 96 28 97 23 98 25 99 24 100 30 101 31 102 36 103 32 104
REMARK SMILES IDX 35 105 33 106 34 107
REMARK H PARENT 3 7 97 25 65 36 7 75
REMARK Flexibility Score: inf
ROOT
ATOM      1  C   UNL A   1      33.423  34.820  28.731  1.00  0.00     0.118 C 
ENDROOT
BRANCH   1   2
ATOM      2  C   UNL A   1      34.904  35.036  28.432  1.00  0.00     0.042 C 
BRANCH   2   3
ATOM      3  C   UNL A   1      35.728  33.753  28.336  1.00  0.00     0.118 C 
BRANCH   3   4
ATOM      4  N   UNL A   1      34.979  32.540  28.073  1.00  0.00    -0.352 N 
ATOM      5  O   UNL A   1      34.306  30.435  28.029  1.00  0.00    -0.269 OA
ATOM      6  C   UNL A   1      35.261  31.205  28.158  1.00  0.00     0.251 C 
ATOM      7  H   UNL A   1      34.061  32.717  27.764  1.00  0.00     0.163 HD
BRANCH   6   8
ATOM      8  C   UNL A   1      36.629  30.640  28.302  1.00  0.00     0.039 A 
ATOM      9  C   UNL A   1      37.010  29.339  27.966  1.00  0.00     0.014 A 
ATOM     10  C   UNL A   1      37.583  31.502  28.868  1.00  0.00     0.014 A 
ATOM     11  C   UNL A   1      38.272  28.863  28.311  1.00  0.00     0.010 A 
ATOM     12  C   UNL A   1      38.853  31.042  29.184  1.00  0.00     0.010 A 
ATOM     13  C   UNL A   1      39.175  29.705  28.954  1.00  0.00    -0.014 A 
BRANCH  13  14
ATOM     14  C   UNL A   1      40.507  29.198  29.282  1.00  0.00     0.031 A 
ATOM     15  C   UNL A   1      40.793  29.024  30.741  1.00  0.00     0.074 A 
ATOM     16  C   UNL A   1      41.320  28.714  28.321  1.00  0.00     0.049 A 
ATOM     17  N   UNL A   1      41.831  29.396  31.421  1.00  0.00    -0.248 NA
ATOM     18  C   UNL A   1      39.738  28.411  31.568  1.00  0.00     0.031 C 
ATOM     19  C   UNL A   1      41.020  28.574  26.891  1.00  0.00     0.029 A 
ATOM     20  N   UNL A   1      42.529  28.095  28.440  1.00  0.00    -0.354 N 
ATOM     21  C   UNL A   1      41.650  28.898  32.713  1.00  0.00     0.074 A 
ATOM     22  C   UNL A   1      40.293  28.428  32.779  1.00  0.00     0.031 C 
ATOM     23  C   UNL A   1      41.883  27.694  26.340  1.00  0.00     0.029 A 
ATOM     24  C   UNL A   1      42.862  27.306  27.341  1.00  0.00     0.049 A 
ATOM     25  H   UNL A   1      43.111  28.195  29.228  1.00  0.00     0.167 HD
ATOM     26  C   UNL A   1      42.684  28.727  33.584  1.00  0.00     0.034 A 
ATOM     27  C   UNL A   1      43.799  26.321  27.287  1.00  0.00     0.034 A 
ATOM     28  C   UNL A   1      43.814  29.547  33.237  1.00  0.00     0.049 A 
ATOM     29  C   UNL A   1      44.736  26.549  28.415  1.00  0.00     0.074 A 
ATOM     30  C   UNL A   1      44.018  30.908  33.109  1.00  0.00     0.029 A 
ATOM     31  N   UNL A   1      44.891  28.961  32.615  1.00  0.00    -0.354 N 
ATOM     32  N   UNL A   1      45.504  27.601  28.509  1.00  0.00    -0.248 NA
ATOM     33  C   UNL A   1      44.478  25.860  29.670  1.00  0.00     0.031 C 
ATOM     34  C   UNL A   1      44.881  31.041  31.981  1.00  0.00     0.029 A 
ATOM     35  C   UNL A   1      45.194  29.755  31.536  1.00  0.00     0.049 A 
ATOM     36  H   UNL A   1      45.354  28.137  32.889  1.00  0.00     0.167 HD
ATOM     37  C   UNL A   1      45.470  27.953  29.848  1.00  0.00     0.074 A 
ATOM     38  C   UNL A   1      44.905  26.789  30.531  1.00  0.00     0.031 C 
ATOM     39  C   UNL A   1      45.633  29.248  30.251  1.00  0.00     0.034 A 
BRANCH  26  40
ATOM     40  C   UNL A   1      42.785  27.586  34.574  1.00  0.00     0.023 A 
ATOM     41  C   UNL A   1      43.593  26.483  34.234  1.00  0.00     0.031 A 
ATOM     42  C   UNL A   1      41.916  27.396  35.673  1.00  0.00     0.131 A 
ATOM     43  C   UNL A   1      43.462  25.255  34.910  1.00  0.00     0.055 A 
ATOM     44  C   UNL A   1      41.839  26.196  36.385  1.00  0.00     0.041 A 
ATOM     45  F   UNL A   1      41.024  28.319  36.055  1.00  0.00    -0.206 F 
ATOM     46  C   UNL A   1      42.591  25.106  35.986  1.00  0.00     0.022 A 
BRANCH  43  47
ATOM     47  S   UNL A   1      44.304  23.797  34.237  1.00  0.00     0.124 S 
ATOM     48  O   UNL A   1      43.480  22.710  34.753  1.00  0.00    -0.237 OA
ATOM     49  O   UNL A   1      44.223  24.041  32.801  1.00  0.00    -0.237 OA
ATOM     50  O   UNL A   1      45.645  23.885  34.810  1.00  0.00    -0.744 OA
ENDBRANCH  43  47
ENDBRANCH  26  40
BRANCH  27  51
ATOM     51  C   UNL A   1      43.657  25.023  26.567  1.00  0.00     0.023 A 
ATOM     52  C   UNL A   1      42.709  24.040  26.919  1.00  0.00     0.031 A 
ATOM     53  C   UNL A   1      44.352  24.824  25.351  1.00  0.00     0.131 A 
ATOM     54  C   UNL A   1      42.510  22.913  26.083  1.00  0.00     0.055 A 
ATOM     55  C   UNL A   1      44.162  23.707  24.538  1.00  0.00     0.041 A 
ATOM     56  F   UNL A   1      45.190  25.757  24.868  1.00  0.00    -0.206 F 
ATOM     57  C   UNL A   1      43.234  22.746  24.899  1.00  0.00     0.022 A 
BRANCH  54  58
ATOM     58  S   UNL A   1      41.237  21.673  26.487  1.00  0.00     0.124 S 
ATOM     59  O   UNL A   1      41.361  21.560  27.935  1.00  0.00    -0.237 OA
ATOM     60  O   UNL A   1      40.020  22.301  25.986  1.00  0.00    -0.237 OA
ATOM     61  O   UNL A   1      41.664  20.488  25.740  1.00  0.00    -0.744 OA
ENDBRANCH  54  58
ENDBRANCH  27  51
BRANCH  39  62
ATOM     62  C   UNL A   1      46.067  30.275  29.224  1.00  0.00     0.023 A 
ATOM     63  C   UNL A   1      45.183  30.946  28.346  1.00  0.00     0.031 A 
ATOM     64  C   UNL A   1      47.407  30.696  29.246  1.00  0.00     0.131 A 
ATOM     65  C   UNL A   1      45.655  31.990  27.526  1.00  0.00     0.055 A 
ATOM     66  C   UNL A   1      47.868  31.741  28.444  1.00  0.00     0.041 A 
ATOM     67  F   UNL A   1      48.287  30.126  30.085  1.00  0.00    -0.206 F 
ATOM     68  C   UNL A   1      46.995  32.389  27.578  1.00  0.00     0.022 A 
BRANCH  65  69
ATOM     69  S   UNL A   1      44.531  32.851  26.377  1.00  0.00     0.124 S 
ATOM     70  O   UNL A   1      45.435  33.504  25.438  1.00  0.00    -0.237 OA
ATOM     71  O   UNL A   1      43.724  31.760  25.837  1.00  0.00    -0.237 OA
ATOM     72  O   UNL A   1      43.792  33.771  27.246  1.00  0.00    -0.744 OA
ENDBRANCH  65  69
ENDBRANCH  39  62
ENDBRANCH  13  14
ENDBRANCH   6   8
ENDBRANCH   3   4
ENDBRANCH   2   3
ENDBRANCH   1   2
BRANCH   1  73
ATOM     73  N   UNL A   1      32.897  35.768  29.703  1.00  0.00    -0.352 N 
ATOM     74  C   UNL A   1      33.088  35.857  31.060  1.00  0.00     0.251 C 
ATOM     75  H   UNL A   1      32.307  36.459  29.324  1.00  0.00     0.163 HD
ATOM     76  O   UNL A   1      32.430  36.639  31.722  1.00  0.00    -0.269 OA
BRANCH  74  77
ATOM     77  C   UNL A   1      34.083  34.989  31.724  1.00  0.00     0.039 A 
ATOM     78  C   UNL A   1      34.006  33.609  31.519  1.00  0.00     0.016 A 
ATOM     79  C   UNL A   1      35.040  35.523  32.591  1.00  0.00     0.016 A 
ATOM     80  C   UNL A   1      34.932  32.759  32.130  1.00  0.00     0.029 A 
ATOM     81  C   UNL A   1      35.956  34.676  33.218  1.00  0.00     0.029 A 
ATOM     82  C   UNL A   1      35.903  33.289  32.990  1.00  0.00     0.066 A 
BRANCH  82  83
ATOM     83  N   UNL A   1      36.787  32.416  33.667  1.00  0.00    -0.220 N 
ATOM     84  C   UNL A   1      37.493  32.673  34.814  1.00  0.00     0.141 A 
ATOM     85  N   UNL A   1      37.018  31.137  33.283  1.00  0.00    -0.062 NA
ATOM     86  C   UNL A   1      38.133  31.495  35.129  1.00  0.00     0.093 A 
ATOM     87  N   UNL A   1      37.864  30.581  34.147  1.00  0.00    -0.134 NA
BRANCH  86  88
ATOM     88  C   UNL A   1      39.109  31.243  36.208  1.00  0.00     0.138 C 
BRANCH  88  89
ATOM     89  S   UNL A   1      40.882  31.399  35.940  1.00  0.00    -0.081 SA
BRANCH  89  90
ATOM     90  C   UNL A   1      41.258  32.669  34.804  1.00  0.00     0.176 A 
ATOM     91  N   UNL A   1      41.026  32.309  33.573  1.00  0.00    -0.223 NA
ATOM     92  N   UNL A   1      41.713  33.943  35.118  1.00  0.00    -0.255 N 
ATOM     93  C   UNL A   1      41.347  33.199  32.544  1.00  0.00     0.079 A 
ATOM     94  C   UNL A   1      42.596  34.482  34.171  1.00  0.00     0.266 A 
ATOM     95  C   UNL A   1      40.826  33.040  31.260  1.00  0.00     0.029 A 
ATOM     96  C   UNL A   1      42.262  34.217  32.766  1.00  0.00     0.066 A 
ATOM     97  O   UNL A   1      43.596  35.158  34.406  1.00  0.00    -0.268 OA
ATOM     98  C   UNL A   1      41.266  33.858  30.211  1.00  0.00     0.002 A 
ATOM     99  C   UNL A   1      42.753  35.008  31.722  1.00  0.00     0.016 A 
ATOM    100  C   UNL A   1      42.253  34.820  30.436  1.00  0.00     0.001 A 
BRANCH  92 101
ATOM    101  C   UNL A   1      41.393  34.742  36.287  1.00  0.00     0.051 A 
ATOM    102  C   UNL A   1      40.245  35.565  36.282  1.00  0.00     0.028 A 
ATOM    103  C   UNL A   1      42.123  34.742  37.482  1.00  0.00     0.028 A 
ATOM    104  C   UNL A   1      39.976  36.491  37.296  1.00  0.00     0.022 A 
ATOM    105  C   UNL A   1      41.899  35.705  38.481  1.00  0.00     0.022 A 
ATOM    106  C   UNL A   1      40.848  36.603  38.362  1.00  0.00     0.041 A 
ATOM    107  Cl  UNL A   1      40.628  37.844  39.526  1.00  0.00    -0.084 Cl
ENDBRANCH  92 101
ENDBRANCH  89  90
ENDBRANCH  88  89
ENDBRANCH  86  88
ENDBRANCH  82  83
ENDBRANCH  74  77
ENDBRANCH   1  73
TORSDOF 18
ENDMDL
