MODEL 1
REMARK VINA RESULT:     -11.0      0.000      0.000
REMARK SMILES CCOc1c(F)cccc1C(=O)NCCCNC(=O)c1ccc(-c2c3nc(c(-c4cc(S(=O)(=O)[O-])ccc4F)c4ccc([nH]4)c(-c4cc(S(=O)(=O)[O-])ccc4F)c4nc(c(-c5cc(S(=O)(=O)[O-])ccc5F)c5ccc2[nH]5)C=C4)C=C3)cc1
REMARK SMILES IDX 15 1 14 2 13 3 11 4 12 5 10 7 4 8 5 9 6 10 7 11 9 12 8 13
REMARK SMILES IDX 3 14 2 15 1 16 16 17 17 18 18 19 19 21 20 22 21 23 82 24
REMARK SMILES IDX 22 25 81 26 23 27 24 28 25 29 75 30 26 31 80 32 74 33 76 34
REMARK SMILES IDX 27 35 79 36 73 37 72 38 28 40 60 41 40 42 59 43 41 44 44 45
REMARK SMILES IDX 58 46 77 47 42 48 43 49 57 51 78 52 45 53 29 54 30 55 38 56
REMARK SMILES IDX 31 57 37 58 39 59 36 60 32 61 33 62 34 63 35 64 61 65 62 66
REMARK SMILES IDX 70 67 63 68 69 69 71 70 68 71 64 72 65 73 66 74 67 75 46 76
REMARK SMILES IDX 47 77 55 78 48 79 54 80 56 81 53 82 49 83 50 84 51 85 52 86
REMARK H PARENT 13 6 17 20 76 39 44 50
REMARK Flexibility Score: inf
ROOT
ATOM      1  C   UNL A   1      33.357  29.030  23.908  1.00  0.00     0.042 C 
ENDROOT
BRANCH   1   2
ATOM      2  C   UNL A   1      32.296  28.476  22.957  1.00  0.00     0.118 C 
BRANCH   2   3
ATOM      3  N   UNL A   1      32.851  27.434  22.120  1.00  0.00    -0.352 N 
ATOM      4  C   UNL A   1      33.042  26.086  22.198  1.00  0.00     0.255 C 
ATOM      5  O   UNL A   1      33.633  25.631  21.208  1.00  0.00    -0.269 OA
ATOM      6  H   UNL A   1      33.180  27.797  21.266  1.00  0.00     0.163 HD
BRANCH   4   7
ATOM      7  C   UNL A   1      32.611  25.112  23.261  1.00  0.00     0.084 A 
ATOM      8  C   UNL A   1      33.281  24.618  24.390  1.00  0.00     0.167 A 
ATOM      9  C   UNL A   1      32.584  23.793  25.299  1.00  0.00     0.165 A 
ATOM     10  F   UNL A   1      33.157  23.429  26.456  1.00  0.00    -0.203 F 
ATOM     11  C   UNL A   1      31.288  23.353  25.071  1.00  0.00     0.043 A 
ATOM     12  C   UNL A   1      31.282  24.639  23.054  1.00  0.00     0.018 A 
ATOM     13  C   UNL A   1      30.634  23.765  23.929  1.00  0.00     0.004 A 
BRANCH   8  14
ATOM     14  O   UNL A   1      34.560  24.956  24.726  1.00  0.00    -0.490 OA
BRANCH  14  15
ATOM     15  C   UNL A   1      35.537  23.970  24.356  1.00  0.00     0.226 C 
ATOM     16  C   UNL A   1      36.591  23.751  25.427  1.00  0.00     0.049 C 
ENDBRANCH  14  15
ENDBRANCH   8  14
ENDBRANCH   4   7
ENDBRANCH   2   3
ENDBRANCH   1   2
BRANCH   1  17
ATOM     17  C   UNL A   1      32.885  29.105  25.360  1.00  0.00     0.118 C 
BRANCH  17  18
ATOM     18  N   UNL A   1      32.476  30.460  25.709  1.00  0.00    -0.352 N 
ATOM     19  C   UNL A   1      32.849  31.257  26.764  1.00  0.00     0.251 C 
ATOM     20  H   UNL A   1      31.830  30.871  25.090  1.00  0.00     0.163 HD
ATOM     21  O   UNL A   1      32.138  32.212  27.065  1.00  0.00    -0.269 OA
BRANCH  19  22
ATOM     22  C   UNL A   1      34.087  30.984  27.531  1.00  0.00     0.039 A 
ATOM     23  C   UNL A   1      34.967  32.039  27.795  1.00  0.00     0.014 A 
ATOM     24  C   UNL A   1      34.429  29.685  27.918  1.00  0.00     0.014 A 
ATOM     25  C   UNL A   1      36.159  31.799  28.486  1.00  0.00     0.010 A 
ATOM     26  C   UNL A   1      35.578  29.460  28.674  1.00  0.00     0.010 A 
ATOM     27  C   UNL A   1      36.462  30.511  28.955  1.00  0.00    -0.014 A 
BRANCH  27  28
ATOM     28  C   UNL A   1      37.706  30.233  29.721  1.00  0.00     0.031 A 
ATOM     29  C   UNL A   1      38.788  29.378  29.114  1.00  0.00     0.074 A 
ATOM     30  C   UNL A   1      37.836  30.696  30.980  1.00  0.00     0.049 A 
ATOM     31  N   UNL A   1      39.881  28.913  29.662  1.00  0.00    -0.248 NA
ATOM     32  C   UNL A   1      38.600  28.968  27.713  1.00  0.00     0.031 C 
ATOM     33  C   UNL A   1      36.849  31.517  31.684  1.00  0.00     0.029 A 
ATOM     34  N   UNL A   1      38.849  30.541  31.892  1.00  0.00    -0.354 N 
ATOM     35  C   UNL A   1      40.497  28.139  28.686  1.00  0.00     0.074 A 
ATOM     36  C   UNL A   1      39.632  28.160  27.525  1.00  0.00     0.031 C 
ATOM     37  C   UNL A   1      37.320  31.820  32.904  1.00  0.00     0.029 A 
ATOM     38  C   UNL A   1      38.615  31.176  33.090  1.00  0.00     0.049 A 
ATOM     39  H   UNL A   1      39.666  30.024  31.707  1.00  0.00     0.167 HD
ATOM     40  C   UNL A   1      41.684  27.488  28.744  1.00  0.00     0.034 A 
ATOM     41  C   UNL A   1      39.355  31.223  34.216  1.00  0.00     0.034 A 
ATOM     42  C   UNL A   1      42.553  27.508  29.892  1.00  0.00     0.049 A 
ATOM     43  C   UNL A   1      40.664  30.485  34.262  1.00  0.00     0.074 A 
ATOM     44  C   UNL A   1      43.799  26.922  30.038  1.00  0.00     0.029 A 
ATOM     45  N   UNL A   1      42.275  28.155  31.088  1.00  0.00    -0.354 N 
ATOM     46  N   UNL A   1      41.225  29.747  33.333  1.00  0.00    -0.248 NA
ATOM     47  C   UNL A   1      41.439  30.582  35.506  1.00  0.00     0.031 C 
ATOM     48  C   UNL A   1      44.251  27.172  31.338  1.00  0.00     0.029 A 
ATOM     49  C   UNL A   1      43.317  27.966  31.982  1.00  0.00     0.049 A 
ATOM     50  H   UNL A   1      41.458  28.671  31.274  1.00  0.00     0.167 HD
ATOM     51  C   UNL A   1      42.429  29.308  33.874  1.00  0.00     0.074 A 
ATOM     52  C   UNL A   1      42.516  29.865  35.208  1.00  0.00     0.031 C 
ATOM     53  C   UNL A   1      43.379  28.518  33.313  1.00  0.00     0.034 A 
BRANCH  40  54
ATOM     54  C   UNL A   1      42.106  26.691  27.536  1.00  0.00     0.023 A 
ATOM     55  C   UNL A   1      41.830  25.319  27.428  1.00  0.00     0.031 A 
ATOM     56  C   UNL A   1      42.781  27.318  26.472  1.00  0.00     0.131 A 
ATOM     57  C   UNL A   1      42.271  24.604  26.305  1.00  0.00     0.055 A 
ATOM     58  C   UNL A   1      43.159  26.614  25.327  1.00  0.00     0.041 A 
ATOM     59  F   UNL A   1      43.085  28.623  26.531  1.00  0.00    -0.206 F 
ATOM     60  C   UNL A   1      42.912  25.247  25.243  1.00  0.00     0.022 A 
BRANCH  57  61
ATOM     61  S   UNL A   1      42.071  22.802  26.287  1.00  0.00     0.124 S 
ATOM     62  O   UNL A   1      42.649  22.457  24.990  1.00  0.00    -0.237 OA
ATOM     63  O   UNL A   1      42.834  22.385  27.458  1.00  0.00    -0.237 OA
ATOM     64  O   UNL A   1      40.625  22.617  26.388  1.00  0.00    -0.744 OA
ENDBRANCH  57  61
ENDBRANCH  40  54
BRANCH  41  65
ATOM     65  C   UNL A   1      38.867  31.996  35.392  1.00  0.00     0.023 A 
ATOM     66  C   UNL A   1      38.245  31.348  36.469  1.00  0.00     0.031 A 
ATOM     67  C   UNL A   1      39.034  33.390  35.460  1.00  0.00     0.131 A 
ATOM     68  C   UNL A   1      37.792  32.097  37.566  1.00  0.00     0.055 A 
ATOM     69  C   UNL A   1      38.614  34.127  36.569  1.00  0.00     0.041 A 
ATOM     70  F   UNL A   1      39.636  34.052  34.459  1.00  0.00    -0.206 F 
ATOM     71  C   UNL A   1      37.983  33.480  37.629  1.00  0.00     0.022 A 
BRANCH  68  72
ATOM     72  S   UNL A   1      36.930  31.239  38.911  1.00  0.00     0.124 S 
ATOM     73  O   UNL A   1      37.888  31.363  40.004  1.00  0.00    -0.237 OA
ATOM     74  O   UNL A   1      35.706  32.023  39.037  1.00  0.00    -0.237 OA
ATOM     75  O   UNL A   1      36.747  29.887  38.388  1.00  0.00    -0.744 OA
ENDBRANCH  68  72
ENDBRANCH  41  65
BRANCH  53  76
ATOM     76  C   UNL A   1      44.611  28.235  34.128  1.00  0.00     0.023 A 
ATOM     77  C   UNL A   1      44.667  27.152  35.021  1.00  0.00     0.031 A 
ATOM     78  C   UNL A   1      45.759  29.032  33.971  1.00  0.00     0.131 A 
ATOM     79  C   UNL A   1      45.843  26.910  35.745  1.00  0.00     0.055 A 
ATOM     80  C   UNL A   1      46.939  28.761  34.660  1.00  0.00     0.041 A 
ATOM     81  F   UNL A   1      45.753  30.076  33.126  1.00  0.00    -0.206 F 
ATOM     82  C   UNL A   1      46.985  27.696  35.557  1.00  0.00     0.022 A 
BRANCH  79  83
ATOM     83  S   UNL A   1      45.859  25.564  36.960  1.00  0.00     0.124 S 
ATOM     84  O   UNL A   1      44.434  25.314  37.152  1.00  0.00    -0.237 OA
ATOM     85  O   UNL A   1      46.601  24.518  36.263  1.00  0.00    -0.237 OA
ATOM     86  O   UNL A   1      46.547  26.148  38.109  1.00  0.00    -0.744 OA
ENDBRANCH  79  83
ENDBRANCH  53  76
ENDBRANCH  27  28
ENDBRANCH  19  22
ENDBRANCH  17  18
ENDBRANCH   1  17
TORSDOF 15
ENDMDL
MODEL 2
REMARK VINA RESULT:     -10.9      2.554      3.553
REMARK SMILES CCOc1c(F)cccc1C(=O)NCCCNC(=O)c1ccc(-c2c3nc(c(-c4cc(S(=O)(=O)[O-])ccc4F)c4ccc([nH]4)c(-c4cc(S(=O)(=O)[O-])ccc4F)c4nc(c(-c5cc(S(=O)(=O)[O-])ccc5F)c5ccc2[nH]5)C=C4)C=C3)cc1
REMARK SMILES IDX 15 1 14 2 13 3 11 4 12 5 10 7 4 8 5 9 6 10 7 11 9 12 8 13
REMARK SMILES IDX 3 14 2 15 1 16 16 17 17 18 18 19 19 21 20 22 21 23 82 24
REMARK SMILES IDX 22 25 81 26 23 27 24 28 25 29 75 30 26 31 80 32 74 33 76 34
REMARK SMILES IDX 27 35 79 36 73 37 72 38 28 40 60 41 40 42 59 43 41 44 44 45
REMARK SMILES IDX 58 46 77 47 42 48 43 49 57 51 78 52 45 53 29 54 30 55 38 56
REMARK SMILES IDX 31 57 37 58 39 59 36 60 32 61 33 62 34 63 35 64 61 65 62 66
REMARK SMILES IDX 70 67 63 68 69 69 71 70 68 71 64 72 65 73 66 74 67 75 46 76
REMARK SMILES IDX 47 77 55 78 48 79 54 80 56 81 53 82 49 83 50 84 51 85 52 86
REMARK H PARENT 13 6 17 20 76 39 44 50
REMARK Flexibility Score: inf
ROOT
ATOM      1  C   UNL A   1      31.441  32.020  26.677  1.00  0.00     0.042 C 
ENDROOT
BRANCH   1   2
ATOM      2  C   UNL A   1      31.528  30.495  26.626  1.00  0.00     0.118 C 
BRANCH   2   3
ATOM      3  N   UNL A   1      32.186  30.058  25.413  1.00  0.00    -0.352 N 
ATOM      4  C   UNL A   1      31.848  29.371  24.285  1.00  0.00     0.255 C 
ATOM      5  O   UNL A   1      32.813  29.194  23.527  1.00  0.00    -0.269 OA
ATOM      6  H   UNL A   1      33.133  30.330  25.400  1.00  0.00     0.163 HD
BRANCH   4   7
ATOM      7  C   UNL A   1      30.507  28.857  23.837  1.00  0.00     0.084 A 
ATOM      8  C   UNL A   1      29.975  27.560  23.807  1.00  0.00     0.167 A 
ATOM      9  C   UNL A   1      28.622  27.376  23.445  1.00  0.00     0.165 A 
ATOM     10  F   UNL A   1      28.054  26.168  23.551  1.00  0.00    -0.203 F 
ATOM     11  C   UNL A   1      27.816  28.417  23.004  1.00  0.00     0.043 A 
ATOM     12  C   UNL A   1      29.654  29.903  23.376  1.00  0.00     0.018 A 
ATOM     13  C   UNL A   1      28.340  29.692  22.952  1.00  0.00     0.004 A 
BRANCH   8  14
ATOM     14  O   UNL A   1      30.660  26.446  24.199  1.00  0.00    -0.490 OA
BRANCH  14  15
ATOM     15  C   UNL A   1      30.377  26.036  25.547  1.00  0.00     0.226 C 
ATOM     16  C   UNL A   1      31.279  26.702  26.570  1.00  0.00     0.049 C 
ENDBRANCH  14  15
ENDBRANCH   8  14
ENDBRANCH   4   7
ENDBRANCH   2   3
ENDBRANCH   1   2
BRANCH   1  17
ATOM     17  C   UNL A   1      32.788  32.691  26.942  1.00  0.00     0.118 C 
BRANCH  17  18
ATOM     18  N   UNL A   1      32.609  34.026  27.498  1.00  0.00    -0.352 N 
ATOM     19  C   UNL A   1      33.115  34.586  28.646  1.00  0.00     0.251 C 
ATOM     20  H   UNL A   1      32.032  34.623  26.968  1.00  0.00     0.163 HD
ATOM     21  O   UNL A   1      32.571  35.587  29.106  1.00  0.00    -0.269 OA
BRANCH  19  22
ATOM     22  C   UNL A   1      34.298  34.008  29.324  1.00  0.00     0.039 A 
ATOM     23  C   UNL A   1      34.117  32.939  30.209  1.00  0.00     0.014 A 
ATOM     24  C   UNL A   1      35.571  34.562  29.162  1.00  0.00     0.014 A 
ATOM     25  C   UNL A   1      35.214  32.400  30.889  1.00  0.00     0.010 A 
ATOM     26  C   UNL A   1      36.674  33.976  29.779  1.00  0.00     0.010 A 
ATOM     27  C   UNL A   1      36.507  32.897  30.658  1.00  0.00    -0.014 A 
BRANCH  27  28
ATOM     28  C   UNL A   1      37.696  32.321  31.341  1.00  0.00     0.031 A 
ATOM     29  C   UNL A   1      38.464  31.198  30.695  1.00  0.00     0.074 A 
ATOM     30  C   UNL A   1      38.047  32.766  32.564  1.00  0.00     0.049 A 
ATOM     31  N   UNL A   1      39.441  30.477  31.182  1.00  0.00    -0.248 NA
ATOM     32  C   UNL A   1      38.059  30.817  29.333  1.00  0.00     0.031 C 
ATOM     33  C   UNL A   1      37.370  33.835  33.301  1.00  0.00     0.029 A 
ATOM     34  N   UNL A   1      39.058  32.374  33.405  1.00  0.00    -0.354 N 
ATOM     35  C   UNL A   1      39.752  29.544  30.199  1.00  0.00     0.074 A 
ATOM     36  C   UNL A   1      38.827  29.761  29.106  1.00  0.00     0.031 C 
ATOM     37  C   UNL A   1      38.003  34.035  34.467  1.00  0.00     0.029 A 
ATOM     38  C   UNL A   1      39.098  33.078  34.586  1.00  0.00     0.049 A 
ATOM     39  H   UNL A   1      39.695  31.656  33.183  1.00  0.00     0.167 HD
ATOM     40  C   UNL A   1      40.730  28.606  30.198  1.00  0.00     0.034 A 
ATOM     41  C   UNL A   1      39.916  32.958  35.651  1.00  0.00     0.034 A 
ATOM     42  C   UNL A   1      41.667  28.426  31.277  1.00  0.00     0.049 A 
ATOM     43  C   UNL A   1      40.989  31.903  35.633  1.00  0.00     0.074 A 
ATOM     44  C   UNL A   1      42.726  27.537  31.357  1.00  0.00     0.029 A 
ATOM     45  N   UNL A   1      41.668  29.153  32.459  1.00  0.00    -0.354 N 
ATOM     46  N   UNL A   1      41.259  31.021  34.699  1.00  0.00    -0.248 NA
ATOM     47  C   UNL A   1      41.864  31.825  36.810  1.00  0.00     0.031 C 
ATOM     48  C   UNL A   1      43.335  27.693  32.607  1.00  0.00     0.029 A 
ATOM     49  C   UNL A   1      42.696  28.721  33.281  1.00  0.00     0.049 A 
ATOM     50  H   UNL A   1      41.032  29.870  32.681  1.00  0.00     0.167 HD
ATOM     51  C   UNL A   1      42.349  30.295  35.170  1.00  0.00     0.074 A 
ATOM     52  C   UNL A   1      42.689  30.844  36.466  1.00  0.00     0.031 C 
ATOM     53  C   UNL A   1      43.011  29.270  34.577  1.00  0.00     0.034 A 
BRANCH  40  54
ATOM     54  C   UNL A   1      40.827  27.696  29.001  1.00  0.00     0.023 A 
ATOM     55  C   UNL A   1      41.768  27.920  27.982  1.00  0.00     0.031 A 
ATOM     56  C   UNL A   1      39.976  26.582  28.884  1.00  0.00     0.131 A 
ATOM     57  C   UNL A   1      41.803  27.073  26.866  1.00  0.00     0.055 A 
ATOM     58  C   UNL A   1      40.061  25.704  27.802  1.00  0.00     0.041 A 
ATOM     59  F   UNL A   1      39.048  26.331  29.819  1.00  0.00    -0.206 F 
ATOM     60  C   UNL A   1      40.973  25.952  26.780  1.00  0.00     0.022 A 
BRANCH  57  61
ATOM     61  S   UNL A   1      42.893  27.502  25.482  1.00  0.00     0.124 S 
ATOM     62  O   UNL A   1      44.102  27.929  26.184  1.00  0.00    -0.237 OA
ATOM     63  O   UNL A   1      42.991  26.243  24.751  1.00  0.00    -0.237 OA
ATOM     64  O   UNL A   1      42.169  28.568  24.793  1.00  0.00    -0.744 OA
ENDBRANCH  57  61
ENDBRANCH  40  54
BRANCH  41  65
ATOM     65  C   UNL A   1      39.747  33.860  36.822  1.00  0.00     0.023 A 
ATOM     66  C   UNL A   1      39.144  33.400  38.002  1.00  0.00     0.031 A 
ATOM     67  C   UNL A   1      40.201  35.190  36.782  1.00  0.00     0.131 A 
ATOM     68  C   UNL A   1      38.993  34.270  39.093  1.00  0.00     0.055 A 
ATOM     69  C   UNL A   1      40.081  36.042  37.882  1.00  0.00     0.041 A 
ATOM     70  F   UNL A   1      40.797  35.671  35.679  1.00  0.00    -0.206 F 
ATOM     71  C   UNL A   1      39.469  35.583  39.046  1.00  0.00     0.022 A 
BRANCH  68  72
ATOM     72  S   UNL A   1      38.147  33.665  40.579  1.00  0.00     0.124 S 
ATOM     73  O   UNL A   1      36.902  33.149  40.022  1.00  0.00    -0.237 OA
ATOM     74  O   UNL A   1      39.088  32.669  41.081  1.00  0.00    -0.237 OA
ATOM     75  O   UNL A   1      38.015  34.864  41.405  1.00  0.00    -0.744 OA
ENDBRANCH  68  72
ENDBRANCH  41  65
BRANCH  53  76
ATOM     76  C   UNL A   1      44.191  28.694  35.310  1.00  0.00     0.023 A 
ATOM     77  C   UNL A   1      44.034  27.688  36.277  1.00  0.00     0.031 A 
ATOM     78  C   UNL A   1      45.493  29.126  34.999  1.00  0.00     0.131 A 
ATOM     79  C   UNL A   1      45.163  27.163  36.921  1.00  0.00     0.055 A 
ATOM     80  C   UNL A   1      46.615  28.570  35.611  1.00  0.00     0.041 A 
ATOM     81  F   UNL A   1      45.692  30.083  34.078  1.00  0.00    -0.206 F 
ATOM     82  C   UNL A   1      46.453  27.584  36.582  1.00  0.00     0.022 A 
BRANCH  79  83
ATOM     83  S   UNL A   1      44.927  25.934  38.233  1.00  0.00     0.124 S 
ATOM     84  O   UNL A   1      46.252  25.885  38.843  1.00  0.00    -0.237 OA
ATOM     85  O   UNL A   1      43.874  26.536  39.045  1.00  0.00    -0.237 OA
ATOM     86  O   UNL A   1      44.533  24.728  37.507  1.00  0.00    -0.744 OA
ENDBRANCH  79  83
ENDBRANCH  53  76
ENDBRANCH  27  28
ENDBRANCH  19  22
ENDBRANCH  17  18
ENDBRANCH   1  17
TORSDOF 15
ENDMDL
MODEL 3
REMARK VINA RESULT:     -10.9      2.456      3.519
REMARK SMILES CCOc1c(F)cccc1C(=O)NCCCNC(=O)c1ccc(-c2c3nc(c(-c4cc(S(=O)(=O)[O-])ccc4F)c4ccc([nH]4)c(-c4cc(S(=O)(=O)[O-])ccc4F)c4nc(c(-c5cc(S(=O)(=O)[O-])ccc5F)c5ccc2[nH]5)C=C4)C=C3)cc1
REMARK SMILES IDX 15 1 14 2 13 3 11 4 12 5 10 7 4 8 5 9 6 10 7 11 9 12 8 13
REMARK SMILES IDX 3 14 2 15 1 16 16 17 17 18 18 19 19 21 20 22 21 23 82 24
REMARK SMILES IDX 22 25 81 26 23 27 24 28 25 29 75 30 26 31 80 32 74 33 76 34
REMARK SMILES IDX 27 35 79 36 73 37 72 38 28 40 60 41 40 42 59 43 41 44 44 45
REMARK SMILES IDX 58 46 77 47 42 48 43 49 57 51 78 52 45 53 29 54 30 55 38 56
REMARK SMILES IDX 31 57 37 58 39 59 36 60 32 61 33 62 34 63 35 64 61 65 62 66
REMARK SMILES IDX 70 67 63 68 69 69 71 70 68 71 64 72 65 73 66 74 67 75 46 76
REMARK SMILES IDX 47 77 55 78 48 79 54 80 56 81 53 82 49 83 50 84 51 85 52 86
REMARK H PARENT 13 6 17 20 76 39 44 50
REMARK Flexibility Score: inf
ROOT
ATOM      1  C   UNL A   1      31.378  32.078  26.509  1.00  0.00     0.042 C 
ENDROOT
BRANCH   1   2
ATOM      2  C   UNL A   1      31.540  30.754  25.762  1.00  0.00     0.118 C 
BRANCH   2   3
ATOM      3  N   UNL A   1      31.464  29.636  26.677  1.00  0.00    -0.352 N 
ATOM      4  C   UNL A   1      31.787  28.311  26.665  1.00  0.00     0.255 C 
ATOM      5  O   UNL A   1      31.467  27.733  27.714  1.00  0.00    -0.269 OA
ATOM      6  H   UNL A   1      31.074  29.904  27.541  1.00  0.00     0.163 HD
BRANCH   4   7
ATOM      7  C   UNL A   1      32.488  27.500  25.608  1.00  0.00     0.084 A 
ATOM      8  C   UNL A   1      32.594  27.681  24.221  1.00  0.00     0.167 A 
ATOM      9  C   UNL A   1      33.428  26.820  23.475  1.00  0.00     0.165 A 
ATOM     10  F   UNL A   1      33.660  27.062  22.178  1.00  0.00    -0.203 F 
ATOM     11  C   UNL A   1      34.069  25.724  24.037  1.00  0.00     0.043 A 
ATOM     12  C   UNL A   1      33.155  26.365  26.154  1.00  0.00     0.018 A 
ATOM     13  C   UNL A   1      33.918  25.481  25.386  1.00  0.00     0.004 A 
BRANCH   8  14
ATOM     14  O   UNL A   1      32.006  28.706  23.539  1.00  0.00    -0.490 OA
BRANCH  14  15
ATOM     15  C   UNL A   1      30.901  28.297  22.717  1.00  0.00     0.226 C 
ATOM     16  C   UNL A   1      29.715  27.798  23.524  1.00  0.00     0.049 C 
ENDBRANCH  14  15
ENDBRANCH   8  14
ENDBRANCH   4   7
ENDBRANCH   2   3
ENDBRANCH   1   2
BRANCH   1  17
ATOM     17  C   UNL A   1      32.642  32.506  27.255  1.00  0.00     0.118 C 
BRANCH  17  18
ATOM     18  N   UNL A   1      32.582  33.916  27.621  1.00  0.00    -0.352 N 
ATOM     19  C   UNL A   1      33.185  34.593  28.653  1.00  0.00     0.251 C 
ATOM     20  H   UNL A   1      32.020  34.473  27.035  1.00  0.00     0.163 HD
ATOM     21  O   UNL A   1      32.735  35.685  28.987  1.00  0.00    -0.269 OA
BRANCH  19  22
ATOM     22  C   UNL A   1      34.361  34.029  29.355  1.00  0.00     0.039 A 
ATOM     23  C   UNL A   1      34.156  33.120  30.399  1.00  0.00     0.014 A 
ATOM     24  C   UNL A   1      35.659  34.452  29.053  1.00  0.00     0.014 A 
ATOM     25  C   UNL A   1      35.249  32.602  31.101  1.00  0.00     0.010 A 
ATOM     26  C   UNL A   1      36.751  33.878  29.700  1.00  0.00     0.010 A 
ATOM     27  C   UNL A   1      36.559  32.956  30.739  1.00  0.00    -0.014 A 
BRANCH  27  28
ATOM     28  C   UNL A   1      37.741  32.396  31.445  1.00  0.00     0.031 A 
ATOM     29  C   UNL A   1      38.548  31.296  30.806  1.00  0.00     0.074 A 
ATOM     30  C   UNL A   1      38.052  32.832  32.682  1.00  0.00     0.049 A 
ATOM     31  N   UNL A   1      39.527  30.588  31.309  1.00  0.00    -0.248 NA
ATOM     32  C   UNL A   1      38.186  30.924  29.429  1.00  0.00     0.031 C 
ATOM     33  C   UNL A   1      37.335  33.879  33.414  1.00  0.00     0.029 A 
ATOM     34  N   UNL A   1      39.049  32.450  33.544  1.00  0.00    -0.354 N 
ATOM     35  C   UNL A   1      39.881  29.674  30.323  1.00  0.00     0.074 A 
ATOM     36  C   UNL A   1      38.981  29.887  29.210  1.00  0.00     0.031 C 
ATOM     37  C   UNL A   1      37.934  34.076  34.598  1.00  0.00     0.029 A 
ATOM     38  C   UNL A   1      39.045  33.140  34.734  1.00  0.00     0.049 A 
ATOM     39  H   UNL A   1      39.705  31.748  33.330  1.00  0.00     0.167 HD
ATOM     40  C   UNL A   1      40.877  28.755  30.337  1.00  0.00     0.034 A 
ATOM     41  C   UNL A   1      39.838  33.023  35.818  1.00  0.00     0.034 A 
ATOM     42  C   UNL A   1      41.791  28.581  31.437  1.00  0.00     0.049 A 
ATOM     43  C   UNL A   1      40.931  31.990  35.815  1.00  0.00     0.074 A 
ATOM     44  C   UNL A   1      42.865  27.713  31.534  1.00  0.00     0.029 A 
ATOM     45  N   UNL A   1      41.746  29.293  32.627  1.00  0.00    -0.354 N 
ATOM     46  N   UNL A   1      41.243  31.125  34.879  1.00  0.00    -0.248 NA
ATOM     47  C   UNL A   1      41.777  31.914  37.014  1.00  0.00     0.031 C 
ATOM     48  C   UNL A   1      43.438  27.865  32.801  1.00  0.00     0.029 A 
ATOM     49  C   UNL A   1      42.761  28.871  33.470  1.00  0.00     0.049 A 
ATOM     50  H   UNL A   1      41.090  29.995  32.841  1.00  0.00     0.167 HD
ATOM     51  C   UNL A   1      42.334  30.415  35.368  1.00  0.00     0.074 A 
ATOM     52  C   UNL A   1      42.630  30.954  36.680  1.00  0.00     0.031 C 
ATOM     53  C   UNL A   1      43.032  29.411  34.780  1.00  0.00     0.034 A 
BRANCH  40  54
ATOM     54  C   UNL A   1      41.024  27.863  29.132  1.00  0.00     0.023 A 
ATOM     55  C   UNL A   1      42.008  28.098  28.158  1.00  0.00     0.031 A 
ATOM     56  C   UNL A   1      40.176  26.754  28.962  1.00  0.00     0.131 A 
ATOM     57  C   UNL A   1      42.088  27.267  27.031  1.00  0.00     0.055 A 
ATOM     58  C   UNL A   1      40.305  25.891  27.872  1.00  0.00     0.041 A 
ATOM     59  F   UNL A   1      39.207  26.491  29.854  1.00  0.00    -0.206 F 
ATOM     60  C   UNL A   1      41.260  26.151  26.894  1.00  0.00     0.022 A 
BRANCH  57  61
ATOM     61  S   UNL A   1      43.238  27.713  25.702  1.00  0.00     0.124 S 
ATOM     62  O   UNL A   1      44.012  26.483  25.561  1.00  0.00    -0.237 OA
ATOM     63  O   UNL A   1      42.340  28.032  24.598  1.00  0.00    -0.237 OA
ATOM     64  O   UNL A   1      43.975  28.848  26.253  1.00  0.00    -0.744 OA
ENDBRANCH  57  61
ENDBRANCH  40  54
BRANCH  41  65
ATOM     65  C   UNL A   1      39.620  33.907  36.995  1.00  0.00     0.023 A 
ATOM     66  C   UNL A   1      38.969  33.429  38.142  1.00  0.00     0.031 A 
ATOM     67  C   UNL A   1      40.076  35.237  36.995  1.00  0.00     0.131 A 
ATOM     68  C   UNL A   1      38.773  34.282  39.239  1.00  0.00     0.055 A 
ATOM     69  C   UNL A   1      39.911  36.072  38.102  1.00  0.00     0.041 A 
ATOM     70  F   UNL A   1      40.717  35.735  35.925  1.00  0.00    -0.206 F 
ATOM     71  C   UNL A   1      39.250  35.596  39.232  1.00  0.00     0.022 A 
BRANCH  68  72
ATOM     72  S   UNL A   1      37.867  33.656  40.679  1.00  0.00     0.124 S 
ATOM     73  O   UNL A   1      38.815  32.694  41.231  1.00  0.00    -0.237 OA
ATOM     74  O   UNL A   1      37.655  34.871  41.459  1.00  0.00    -0.237 OA
ATOM     75  O   UNL A   1      36.658  33.078  40.094  1.00  0.00    -0.744 OA
ENDBRANCH  68  72
ENDBRANCH  41  65
BRANCH  53  76
ATOM     76  C   UNL A   1      44.204  28.849  35.537  1.00  0.00     0.023 A 
ATOM     77  C   UNL A   1      44.051  27.791  36.447  1.00  0.00     0.031 A 
ATOM     78  C   UNL A   1      45.498  29.351  35.305  1.00  0.00     0.131 A 
ATOM     79  C   UNL A   1      45.174  27.282  37.115  1.00  0.00     0.055 A 
ATOM     80  C   UNL A   1      46.616  28.812  35.939  1.00  0.00     0.041 A 
ATOM     81  F   UNL A   1      45.694  30.360  34.441  1.00  0.00    -0.206 F 
ATOM     82  C   UNL A   1      46.457  27.773  36.853  1.00  0.00     0.022 A 
BRANCH  79  83
ATOM     83  S   UNL A   1      44.937  25.980  38.354  1.00  0.00     0.124 S 
ATOM     84  O   UNL A   1      44.617  24.825  37.521  1.00  0.00    -0.237 OA
ATOM     85  O   UNL A   1      46.234  25.942  39.025  1.00  0.00    -0.237 OA
ATOM     86  O   UNL A   1      43.834  26.481  39.172  1.00  0.00    -0.744 OA
ENDBRANCH  79  83
ENDBRANCH  53  76
ENDBRANCH  27  28
ENDBRANCH  19  22
ENDBRANCH  17  18
ENDBRANCH   1  17
TORSDOF 15
ENDMDL
