MODEL 1
REMARK VINA RESULT:     -11.8      0.000      0.000
REMARK SMILES Cc1cc([C@@H]([NH3+])C[C@H](C)CC(=O)NCCCNC(=O)c2ccc(-c3c4nc(c(-c5cc(S(=O)(=O)[O-])ccc5F)c5ccc([nH]5)c(-c5cc(S(=O)(=O)[O-])ccc5F)c5nc(c(-c6cc(S(=O)(=O)[O-])ccc6F)c6ccc3[nH]6)C=C5)C=C4)cc2)ccc1F
REMARK SMILES IDX 14 1 13 2 11 3 12 4 10 6 8 7 9 8 7 9 5 10 4 11 1 12 2 13
REMARK SMILES IDX 3 14 85 15 84 16 86 17 83 18 6 19 15 23 16 24 17 25 18 26
REMARK SMILES IDX 19 28 20 29 21 30 82 31 22 32 81 33 23 34 24 35 25 36 75 37
REMARK SMILES IDX 26 38 80 39 74 40 76 41 27 42 79 43 73 44 72 45 28 47 60 48
REMARK SMILES IDX 40 49 59 50 41 51 44 52 58 53 77 54 42 55 43 56 57 58 78 59
REMARK SMILES IDX 45 60 29 61 30 62 38 63 31 64 37 65 39 66 36 67 32 68 33 69
REMARK SMILES IDX 34 70 35 71 61 72 62 73 70 74 63 75 69 76 71 77 68 78 64 79
REMARK SMILES IDX 65 80 66 81 67 82 46 83 47 84 55 85 48 86 54 87 56 88 53 89
REMARK SMILES IDX 49 90 50 91 51 92 52 93
REMARK H PARENT 13 5 6 20 6 21 6 22 17 27 76 46 44 57
REMARK Flexibility Score: inf
ROOT
ATOM      1  C   UNL A   1      32.195  29.009  27.230  1.00  0.00     0.117 C 
ENDROOT
BRANCH   1   2
ATOM      2  N   UNL A   1      31.420  27.789  27.326  1.00  0.00    -0.356 N 
ATOM      3  C   UNL A   1      31.010  26.963  26.320  1.00  0.00     0.220 C 
ATOM      4  O   UNL A   1      30.308  25.991  26.606  1.00  0.00    -0.275 OA
ATOM      5  H   UNL A   1      31.152  27.521  28.235  1.00  0.00     0.163 HD
BRANCH   3   6
ATOM      6  C   UNL A   1      31.434  27.232  24.876  1.00  0.00     0.103 C 
BRANCH   6   7
ATOM      7  C   UNL A   1      30.324  26.927  23.844  1.00  0.00     0.001 C 
ATOM      8  C   UNL A   1      29.795  28.228  23.202  1.00  0.00     0.008 C 
BRANCH   7   9
ATOM      9  C   UNL A   1      30.763  25.962  22.718  1.00  0.00     0.074 C 
BRANCH   9  10
ATOM     10  C   UNL A   1      32.303  25.858  22.534  1.00  0.00     0.212 C 
BRANCH  10  11
ATOM     11  C   UNL A   1      32.917  24.516  22.908  1.00  0.00     0.010 A 
ATOM     12  C   UNL A   1      36.385  23.153  23.811  1.00  0.00     0.047 C 
ATOM     13  C   UNL A   1      34.906  23.241  23.567  1.00  0.00    -0.015 A 
ATOM     14  C   UNL A   1      34.316  24.414  23.072  1.00  0.00     0.016 A 
ATOM     15  C   UNL A   1      34.085  22.150  23.850  1.00  0.00     0.126 A 
ATOM     16  C   UNL A   1      32.708  22.214  23.660  1.00  0.00     0.040 A 
ATOM     17  F   UNL A   1      34.616  21.020  24.337  1.00  0.00    -0.207 F 
ATOM     18  C   UNL A   1      32.124  23.393  23.190  1.00  0.00     0.013 A 
ENDBRANCH  10  11
BRANCH  10  19
ATOM     19  N   UNL A   1      32.627  26.217  21.147  1.00  0.00    -0.351 N 
ATOM     20  H   UNL A   1      31.764  26.398  20.633  1.00  0.00     0.345 HD
ATOM     21  H   UNL A   1      33.131  25.450  20.705  1.00  0.00     0.345 HD
ATOM     22  H   UNL A   1      33.208  27.056  21.140  1.00  0.00     0.345 HD
ENDBRANCH  10  19
ENDBRANCH   9  10
ENDBRANCH   7   9
ENDBRANCH   6   7
ENDBRANCH   3   6
ENDBRANCH   1   2
BRANCH   1  23
ATOM     23  C   UNL A   1      33.635  28.770  27.650  1.00  0.00     0.042 C 
BRANCH  23  24
ATOM     24  C   UNL A   1      34.589  29.436  26.719  1.00  0.00     0.118 C 
BRANCH  24  25
ATOM     25  N   UNL A   1      34.953  30.757  27.212  1.00  0.00    -0.352 N 
ATOM     26  C   UNL A   1      35.869  31.032  28.203  1.00  0.00     0.251 C 
ATOM     27  H   UNL A   1      34.502  31.529  26.797  1.00  0.00     0.163 HD
ATOM     28  O   UNL A   1      35.763  32.096  28.830  1.00  0.00    -0.269 OA
BRANCH  26  29
ATOM     29  C   UNL A   1      36.940  30.053  28.449  1.00  0.00     0.039 A 
ATOM     30  C   UNL A   1      37.013  29.221  29.564  1.00  0.00     0.014 A 
ATOM     31  C   UNL A   1      37.958  30.015  27.503  1.00  0.00     0.014 A 
ATOM     32  C   UNL A   1      38.162  28.449  29.733  1.00  0.00     0.010 A 
ATOM     33  C   UNL A   1      38.821  28.981  27.459  1.00  0.00     0.010 A 
ATOM     34  C   UNL A   1      39.079  28.397  28.680  1.00  0.00    -0.014 A 
BRANCH  34  35
ATOM     35  C   UNL A   1      40.441  27.914  28.727  1.00  0.00     0.031 A 
ATOM     36  C   UNL A   1      40.682  26.492  28.549  1.00  0.00     0.074 A 
ATOM     37  C   UNL A   1      41.409  28.867  28.726  1.00  0.00     0.049 A 
ATOM     38  N   UNL A   1      41.689  25.870  29.043  1.00  0.00    -0.248 NA
ATOM     39  C   UNL A   1      39.749  25.634  27.821  1.00  0.00     0.031 C 
ATOM     40  C   UNL A   1      42.816  28.776  28.382  1.00  0.00     0.029 A 
ATOM     41  N   UNL A   1      41.287  30.228  29.024  1.00  0.00    -0.354 N 
ATOM     42  C   UNL A   1      41.749  24.682  28.355  1.00  0.00     0.074 A 
ATOM     43  C   UNL A   1      40.414  24.477  27.842  1.00  0.00     0.031 C 
ATOM     44  C   UNL A   1      43.434  29.902  28.802  1.00  0.00     0.029 A 
ATOM     45  C   UNL A   1      42.474  30.655  29.596  1.00  0.00     0.049 A 
ATOM     46  H   UNL A   1      40.492  30.786  28.856  1.00  0.00     0.167 HD
ATOM     47  C   UNL A   1      42.979  24.180  28.043  1.00  0.00     0.034 A 
ATOM     48  C   UNL A   1      42.548  30.912  30.941  1.00  0.00     0.034 A 
ATOM     49  C   UNL A   1      44.044  25.044  28.597  1.00  0.00     0.049 A 
ATOM     50  C   UNL A   1      43.428  29.892  31.659  1.00  0.00     0.074 A 
ATOM     51  C   UNL A   1      44.931  25.947  28.028  1.00  0.00     0.029 A 
ATOM     52  N   UNL A   1      44.063  25.325  29.961  1.00  0.00    -0.354 N 
ATOM     53  N   UNL A   1      43.989  28.869  31.075  1.00  0.00    -0.248 NA
ATOM     54  C   UNL A   1      43.649  29.887  33.102  1.00  0.00     0.031 C 
ATOM     55  C   UNL A   1      45.457  26.782  29.064  1.00  0.00     0.029 A 
ATOM     56  C   UNL A   1      44.916  26.377  30.271  1.00  0.00     0.049 A 
ATOM     57  H   UNL A   1      43.532  24.834  30.628  1.00  0.00     0.167 HD
ATOM     58  C   UNL A   1      44.515  28.020  32.007  1.00  0.00     0.074 A 
ATOM     59  C   UNL A   1      44.287  28.715  33.266  1.00  0.00     0.031 C 
ATOM     60  C   UNL A   1      45.045  26.801  31.672  1.00  0.00     0.034 A 
BRANCH  47  61
ATOM     61  C   UNL A   1      43.209  23.111  26.981  1.00  0.00     0.023 A 
ATOM     62  C   UNL A   1      42.906  21.738  27.139  1.00  0.00     0.031 A 
ATOM     63  C   UNL A   1      43.721  23.455  25.715  1.00  0.00     0.131 A 
ATOM     64  C   UNL A   1      43.035  20.805  26.092  1.00  0.00     0.055 A 
ATOM     65  C   UNL A   1      43.878  22.525  24.676  1.00  0.00     0.041 A 
ATOM     66  F   UNL A   1      44.075  24.713  25.419  1.00  0.00    -0.206 F 
ATOM     67  C   UNL A   1      43.523  21.195  24.853  1.00  0.00     0.022 A 
BRANCH  64  68
ATOM     68  S   UNL A   1      42.521  19.073  26.308  1.00  0.00     0.124 S 
ATOM     69  O   UNL A   1      42.500  18.934  27.764  1.00  0.00    -0.237 OA
ATOM     70  O   UNL A   1      41.214  19.049  25.661  1.00  0.00    -0.237 OA
ATOM     71  O   UNL A   1      43.568  18.306  25.636  1.00  0.00    -0.744 OA
ENDBRANCH  64  68
ENDBRANCH  47  61
BRANCH  48  72
ATOM     72  C   UNL A   1      41.261  31.453  31.507  1.00  0.00     0.023 A 
ATOM     73  C   UNL A   1      40.417  30.646  32.287  1.00  0.00     0.031 A 
ATOM     74  C   UNL A   1      40.696  32.605  30.911  1.00  0.00     0.131 A 
ATOM     75  C   UNL A   1      39.037  30.918  32.334  1.00  0.00     0.055 A 
ATOM     76  C   UNL A   1      39.318  32.840  30.917  1.00  0.00     0.041 A 
ATOM     77  F   UNL A   1      41.463  33.433  30.180  1.00  0.00    -0.206 F 
ATOM     78  C   UNL A   1      38.476  31.968  31.599  1.00  0.00     0.022 A 
BRANCH  75  79
ATOM     79  S   UNL A   1      37.943  29.813  33.276  1.00  0.00     0.124 S 
ATOM     80  O   UNL A   1      38.111  30.333  34.629  1.00  0.00    -0.237 OA
ATOM     81  O   UNL A   1      36.631  30.045  32.681  1.00  0.00    -0.237 OA
ATOM     82  O   UNL A   1      38.511  28.495  33.020  1.00  0.00    -0.744 OA
ENDBRANCH  75  79
ENDBRANCH  48  72
BRANCH  60  83
ATOM     83  C   UNL A   1      45.690  25.849  32.655  1.00  0.00     0.023 A 
ATOM     84  C   UNL A   1      44.875  25.015  33.455  1.00  0.00     0.031 A 
ATOM     85  C   UNL A   1      47.072  25.628  32.768  1.00  0.00     0.131 A 
ATOM     86  C   UNL A   1      45.412  24.109  34.371  1.00  0.00     0.055 A 
ATOM     87  C   UNL A   1      47.616  24.766  33.729  1.00  0.00     0.041 A 
ATOM     88  F   UNL A   1      47.942  26.169  31.905  1.00  0.00    -0.206 F 
ATOM     89  C   UNL A   1      46.786  24.012  34.548  1.00  0.00     0.022 A 
BRANCH  86  90
ATOM     90  S   UNL A   1      44.337  22.976  35.292  1.00  0.00     0.124 S 
ATOM     91  O   UNL A   1      44.984  22.954  36.602  1.00  0.00    -0.237 OA
ATOM     92  O   UNL A   1      43.053  23.669  35.239  1.00  0.00    -0.237 OA
ATOM     93  O   UNL A   1      44.409  21.729  34.540  1.00  0.00    -0.744 OA
ENDBRANCH  86  90
ENDBRANCH  60  83
ENDBRANCH  34  35
ENDBRANCH  26  29
ENDBRANCH  24  25
ENDBRANCH  23  24
ENDBRANCH   1  23
TORSDOF 18
ENDMDL
MODEL 2
REMARK VINA RESULT:     -11.8      1.293      1.997
REMARK SMILES Cc1cc([C@@H]([NH3+])C[C@H](C)CC(=O)NCCCNC(=O)c2ccc(-c3c4nc(c(-c5cc(S(=O)(=O)[O-])ccc5F)c5ccc([nH]5)c(-c5cc(S(=O)(=O)[O-])ccc5F)c5nc(c(-c6cc(S(=O)(=O)[O-])ccc6F)c6ccc3[nH]6)C=C5)C=C4)cc2)ccc1F
REMARK SMILES IDX 14 1 13 2 11 3 12 4 10 6 8 7 9 8 7 9 5 10 4 11 1 12 2 13
REMARK SMILES IDX 3 14 85 15 84 16 86 17 83 18 6 19 15 23 16 24 17 25 18 26
REMARK SMILES IDX 19 28 20 29 21 30 82 31 22 32 81 33 23 34 24 35 25 36 75 37
REMARK SMILES IDX 26 38 80 39 74 40 76 41 27 42 79 43 73 44 72 45 28 47 60 48
REMARK SMILES IDX 40 49 59 50 41 51 44 52 58 53 77 54 42 55 43 56 57 58 78 59
REMARK SMILES IDX 45 60 29 61 30 62 38 63 31 64 37 65 39 66 36 67 32 68 33 69
REMARK SMILES IDX 34 70 35 71 61 72 62 73 70 74 63 75 69 76 71 77 68 78 64 79
REMARK SMILES IDX 65 80 66 81 67 82 46 83 47 84 55 85 48 86 54 87 56 88 53 89
REMARK SMILES IDX 49 90 50 91 51 92 52 93
REMARK H PARENT 13 5 6 20 6 21 6 22 17 27 76 46 44 57
REMARK Flexibility Score: inf
ROOT
ATOM      1  C   UNL A   1      32.853  29.604  25.099  1.00  0.00     0.117 C 
ENDROOT
BRANCH   1   2
ATOM      2  N   UNL A   1      31.745  28.821  24.591  1.00  0.00    -0.356 N 
ATOM      3  C   UNL A   1      31.756  27.541  24.119  1.00  0.00     0.220 C 
ATOM      4  O   UNL A   1      30.707  27.067  23.680  1.00  0.00    -0.275 OA
ATOM      5  H   UNL A   1      30.870  29.272  24.583  1.00  0.00     0.163 HD
BRANCH   3   6
ATOM      6  C   UNL A   1      33.041  26.713  24.158  1.00  0.00     0.103 C 
BRANCH   6   7
ATOM      7  C   UNL A   1      32.797  25.195  24.001  1.00  0.00     0.001 C 
ATOM      8  C   UNL A   1      33.309  24.692  22.633  1.00  0.00     0.008 C 
BRANCH   7   9
ATOM      9  C   UNL A   1      33.441  24.337  25.115  1.00  0.00     0.074 C 
BRANCH   9  10
ATOM     10  C   UNL A   1      34.012  22.977  24.622  1.00  0.00     0.212 C 
BRANCH  10  11
ATOM     11  C   UNL A   1      35.438  22.672  25.056  1.00  0.00     0.010 A 
ATOM     12  C   UNL A   1      37.889  19.732  24.827  1.00  0.00     0.047 C 
ATOM     13  C   UNL A   1      37.314  21.091  25.102  1.00  0.00    -0.015 A 
ATOM     14  C   UNL A   1      35.960  21.374  24.862  1.00  0.00     0.016 A 
ATOM     15  C   UNL A   1      38.132  22.111  25.587  1.00  0.00     0.126 A 
ATOM     16  C   UNL A   1      37.631  23.387  25.824  1.00  0.00     0.040 A 
ATOM     17  F   UNL A   1      39.432  21.877  25.813  1.00  0.00    -0.207 F 
ATOM     18  C   UNL A   1      36.289  23.669  25.559  1.00  0.00     0.013 A 
ENDBRANCH  10  11
BRANCH  10  19
ATOM     19  N   UNL A   1      33.093  21.912  25.043  1.00  0.00    -0.351 N 
ATOM     20  H   UNL A   1      32.348  22.312  25.614  1.00  0.00     0.345 HD
ATOM     21  H   UNL A   1      33.603  21.218  25.587  1.00  0.00     0.345 HD
ATOM     22  H   UNL A   1      32.687  21.468  24.219  1.00  0.00     0.345 HD
ENDBRANCH  10  19
ENDBRANCH   9  10
ENDBRANCH   7   9
ENDBRANCH   6   7
ENDBRANCH   3   6
ENDBRANCH   1   2
BRANCH   1  23
ATOM     23  C   UNL A   1      33.115  29.286  26.561  1.00  0.00     0.042 C 
BRANCH  23  24
ATOM     24  C   UNL A   1      34.572  29.327  26.872  1.00  0.00     0.118 C 
BRANCH  24  25
ATOM     25  N   UNL A   1      34.984  30.677  27.233  1.00  0.00    -0.352 N 
ATOM     26  C   UNL A   1      35.961  31.013  28.144  1.00  0.00     0.251 C 
ATOM     27  H   UNL A   1      34.521  31.420  26.782  1.00  0.00     0.163 HD
ATOM     28  O   UNL A   1      35.908  32.127  28.686  1.00  0.00    -0.269 OA
BRANCH  26  29
ATOM     29  C   UNL A   1      37.030  30.036  28.408  1.00  0.00     0.039 A 
ATOM     30  C   UNL A   1      37.103  29.227  29.540  1.00  0.00     0.014 A 
ATOM     31  C   UNL A   1      38.046  29.976  27.461  1.00  0.00     0.014 A 
ATOM     32  C   UNL A   1      38.250  28.455  29.722  1.00  0.00     0.010 A 
ATOM     33  C   UNL A   1      38.906  28.939  27.437  1.00  0.00     0.010 A 
ATOM     34  C   UNL A   1      39.165  28.379  28.669  1.00  0.00    -0.014 A 
BRANCH  34  35
ATOM     35  C   UNL A   1      40.525  27.893  28.723  1.00  0.00     0.031 A 
ATOM     36  C   UNL A   1      40.765  26.471  28.546  1.00  0.00     0.074 A 
ATOM     37  C   UNL A   1      41.496  28.845  28.728  1.00  0.00     0.049 A 
ATOM     38  N   UNL A   1      41.768  25.847  29.046  1.00  0.00    -0.248 NA
ATOM     39  C   UNL A   1      39.834  25.616  27.813  1.00  0.00     0.031 C 
ATOM     40  C   UNL A   1      42.904  28.751  28.391  1.00  0.00     0.029 A 
ATOM     41  N   UNL A   1      41.374  30.206  29.025  1.00  0.00    -0.354 N 
ATOM     42  C   UNL A   1      41.830  24.659  28.357  1.00  0.00     0.074 A 
ATOM     43  C   UNL A   1      40.497  24.457  27.837  1.00  0.00     0.031 C 
ATOM     44  C   UNL A   1      43.522  29.876  28.815  1.00  0.00     0.029 A 
ATOM     45  C   UNL A   1      42.559  30.630  29.604  1.00  0.00     0.049 A 
ATOM     46  H   UNL A   1      40.582  30.765  28.853  1.00  0.00     0.167 HD
ATOM     47  C   UNL A   1      43.060  24.155  28.052  1.00  0.00     0.034 A 
ATOM     48  C   UNL A   1      42.627  30.887  30.949  1.00  0.00     0.034 A 
ATOM     49  C   UNL A   1      44.124  25.017  28.612  1.00  0.00     0.049 A 
ATOM     50  C   UNL A   1      43.501  29.866  31.671  1.00  0.00     0.074 A 
ATOM     51  C   UNL A   1      45.016  25.918  28.048  1.00  0.00     0.029 A 
ATOM     52  N   UNL A   1      44.136  25.297  29.976  1.00  0.00    -0.354 N 
ATOM     53  N   UNL A   1      44.063  28.842  31.091  1.00  0.00    -0.248 NA
ATOM     54  C   UNL A   1      43.714  29.860  33.115  1.00  0.00     0.031 C 
ATOM     55  C   UNL A   1      45.537  26.752  29.087  1.00  0.00     0.029 A 
ATOM     56  C   UNL A   1      44.989  26.348  30.291  1.00  0.00     0.049 A 
ATOM     57  H   UNL A   1      43.601  24.807  30.641  1.00  0.00     0.167 HD
ATOM     58  C   UNL A   1      44.582  27.992  32.025  1.00  0.00     0.074 A 
ATOM     59  C   UNL A   1      44.348  28.686  33.283  1.00  0.00     0.031 C 
ATOM     60  C   UNL A   1      45.111  26.772  31.692  1.00  0.00     0.034 A 
BRANCH  47  61
ATOM     61  C   UNL A   1      43.294  23.085  26.991  1.00  0.00     0.023 A 
ATOM     62  C   UNL A   1      42.979  21.714  27.144  1.00  0.00     0.031 A 
ATOM     63  C   UNL A   1      43.822  23.427  25.731  1.00  0.00     0.131 A 
ATOM     64  C   UNL A   1      43.113  20.782  26.097  1.00  0.00     0.055 A 
ATOM     65  C   UNL A   1      43.983  22.498  24.692  1.00  0.00     0.041 A 
ATOM     66  F   UNL A   1      44.188  24.683  25.441  1.00  0.00    -0.206 F 
ATOM     67  C   UNL A   1      43.617  21.170  24.864  1.00  0.00     0.022 A 
BRANCH  64  68
ATOM     68  S   UNL A   1      42.585  19.053  26.306  1.00  0.00     0.124 S 
ATOM     69  O   UNL A   1      41.300  19.034  25.610  1.00  0.00    -0.237 OA
ATOM     70  O   UNL A   1      43.660  18.315  25.651  1.00  0.00    -0.237 OA
ATOM     71  O   UNL A   1      42.499  18.882  27.755  1.00  0.00    -0.744 OA
ENDBRANCH  64  68
ENDBRANCH  47  61
BRANCH  48  72
ATOM     72  C   UNL A   1      41.337  31.431  31.508  1.00  0.00     0.023 A 
ATOM     73  C   UNL A   1      40.508  30.638  32.317  1.00  0.00     0.031 A 
ATOM     74  C   UNL A   1      40.756  32.559  30.883  1.00  0.00     0.131 A 
ATOM     75  C   UNL A   1      39.126  30.896  32.366  1.00  0.00     0.055 A 
ATOM     76  C   UNL A   1      39.375  32.778  30.892  1.00  0.00     0.041 A 
ATOM     77  F   UNL A   1      41.508  33.373  30.122  1.00  0.00    -0.206 F 
ATOM     78  C   UNL A   1      38.548  31.918  31.605  1.00  0.00     0.022 A 
BRANCH  75  79
ATOM     79  S   UNL A   1      38.050  29.807  33.348  1.00  0.00     0.124 S 
ATOM     80  O   UNL A   1      38.655  28.505  33.092  1.00  0.00    -0.237 OA
ATOM     81  O   UNL A   1      38.209  30.309  34.709  1.00  0.00    -0.237 OA
ATOM     82  O   UNL A   1      36.735  30.030  32.758  1.00  0.00    -0.744 OA
ENDBRANCH  75  79
ENDBRANCH  48  72
BRANCH  60  83
ATOM     83  C   UNL A   1      45.750  25.818  32.679  1.00  0.00     0.023 A 
ATOM     84  C   UNL A   1      44.927  25.008  33.497  1.00  0.00     0.031 A 
ATOM     85  C   UNL A   1      47.128  25.572  32.780  1.00  0.00     0.131 A 
ATOM     86  C   UNL A   1      45.458  24.101  34.417  1.00  0.00     0.055 A 
ATOM     87  C   UNL A   1      47.667  24.711  33.744  1.00  0.00     0.041 A 
ATOM     88  F   UNL A   1      47.999  26.088  31.902  1.00  0.00    -0.206 F 
ATOM     89  C   UNL A   1      46.832  23.981  34.580  1.00  0.00     0.022 A 
BRANCH  86  90
ATOM     90  S   UNL A   1      44.372  22.999  35.361  1.00  0.00     0.124 S 
ATOM     91  O   UNL A   1      43.205  23.852  35.581  1.00  0.00    -0.237 OA
ATOM     92  O   UNL A   1      44.173  21.896  34.424  1.00  0.00    -0.237 OA
ATOM     93  O   UNL A   1      45.143  22.677  36.555  1.00  0.00    -0.744 OA
ENDBRANCH  86  90
ENDBRANCH  60  83
ENDBRANCH  34  35
ENDBRANCH  26  29
ENDBRANCH  24  25
ENDBRANCH  23  24
ENDBRANCH   1  23
TORSDOF 18
ENDMDL
MODEL 3
REMARK VINA RESULT:     -11.8      4.026      9.626
REMARK SMILES Cc1cc([C@@H]([NH3+])C[C@H](C)CC(=O)NCCCNC(=O)c2ccc(-c3c4nc(c(-c5cc(S(=O)(=O)[O-])ccc5F)c5ccc([nH]5)c(-c5cc(S(=O)(=O)[O-])ccc5F)c5nc(c(-c6cc(S(=O)(=O)[O-])ccc6F)c6ccc3[nH]6)C=C5)C=C4)cc2)ccc1F
REMARK SMILES IDX 14 1 13 2 11 3 12 4 10 6 8 7 9 8 7 9 5 10 4 11 1 12 2 13
REMARK SMILES IDX 3 14 85 15 84 16 86 17 83 18 6 19 15 23 16 24 17 25 18 26
REMARK SMILES IDX 19 28 20 29 21 30 82 31 22 32 81 33 23 34 24 35 25 36 75 37
REMARK SMILES IDX 26 38 80 39 74 40 76 41 27 42 79 43 73 44 72 45 28 47 60 48
REMARK SMILES IDX 40 49 59 50 41 51 44 52 58 53 77 54 42 55 43 56 57 58 78 59
REMARK SMILES IDX 45 60 29 61 30 62 38 63 31 64 37 65 39 66 36 67 32 68 33 69
REMARK SMILES IDX 34 70 35 71 61 72 62 73 70 74 63 75 69 76 71 77 68 78 64 79
REMARK SMILES IDX 65 80 66 81 67 82 46 83 47 84 55 85 48 86 54 87 56 88 53 89
REMARK SMILES IDX 49 90 50 91 51 92 52 93
REMARK H PARENT 13 5 6 20 6 21 6 22 17 27 76 46 44 57
REMARK Flexibility Score: inf
ROOT
ATOM      1  C   UNL A   1      35.807  22.962  24.250  1.00  0.00     0.117 C 
ENDROOT
BRANCH   1   2
ATOM      2  N   UNL A   1      34.835  22.100  24.892  1.00  0.00    -0.356 N 
ATOM      3  C   UNL A   1      33.524  21.909  24.567  1.00  0.00     0.220 C 
ATOM      4  O   UNL A   1      32.844  21.164  25.275  1.00  0.00    -0.275 OA
ATOM      5  H   UNL A   1      35.163  21.585  25.664  1.00  0.00     0.163 HD
BRANCH   3   6
ATOM      6  C   UNL A   1      32.924  22.592  23.337  1.00  0.00     0.103 C 
BRANCH   6   7
ATOM      7  C   UNL A   1      32.416  24.025  23.618  1.00  0.00     0.001 C 
ATOM      8  C   UNL A   1      32.327  24.845  22.312  1.00  0.00     0.008 C 
BRANCH   7   9
ATOM      9  C   UNL A   1      31.043  24.076  24.328  1.00  0.00     0.074 C 
BRANCH   9  10
ATOM     10  C   UNL A   1      31.072  24.774  25.718  1.00  0.00     0.212 C 
BRANCH  10  11
ATOM     11  C   UNL A   1      31.349  26.270  25.693  1.00  0.00     0.010 A 
ATOM     12  C   UNL A   1      33.831  28.707  27.305  1.00  0.00     0.047 C 
ATOM     13  C   UNL A   1      32.733  28.151  26.447  1.00  0.00    -0.015 A 
ATOM     14  C   UNL A   1      32.336  26.808  26.549  1.00  0.00     0.016 A 
ATOM     15  C   UNL A   1      32.094  28.965  25.513  1.00  0.00     0.126 A 
ATOM     16  C   UNL A   1      31.092  28.467  24.686  1.00  0.00     0.040 A 
ATOM     17  F   UNL A   1      32.459  30.248  25.382  1.00  0.00    -0.207 F 
ATOM     18  C   UNL A   1      30.719  27.124  24.774  1.00  0.00     0.013 A 
ENDBRANCH  10  11
BRANCH  10  19
ATOM     19  N   UNL A   1      29.807  24.483  26.406  1.00  0.00    -0.351 N 
ATOM     20  H   UNL A   1      30.003  24.161  27.354  1.00  0.00     0.345 HD
ATOM     21  H   UNL A   1      29.303  23.757  25.898  1.00  0.00     0.345 HD
ATOM     22  H   UNL A   1      29.239  25.329  26.445  1.00  0.00     0.345 HD
ENDBRANCH  10  19
ENDBRANCH   9  10
ENDBRANCH   7   9
ENDBRANCH   6   7
ENDBRANCH   3   6
ENDBRANCH   1   2
BRANCH   1  23
ATOM     23  C   UNL A   1      37.218  22.596  24.674  1.00  0.00     0.042 C 
BRANCH  23  24
ATOM     24  C   UNL A   1      37.687  23.455  25.798  1.00  0.00     0.118 C 
BRANCH  24  25
ATOM     25  N   UNL A   1      38.749  22.794  26.544  1.00  0.00    -0.352 N 
ATOM     26  C   UNL A   1      39.859  23.400  27.087  1.00  0.00     0.251 C 
ATOM     27  H   UNL A   1      38.665  21.821  26.672  1.00  0.00     0.163 HD
ATOM     28  O   UNL A   1      40.873  22.713  27.284  1.00  0.00    -0.269 OA
BRANCH  26  29
ATOM     29  C   UNL A   1      39.774  24.830  27.427  1.00  0.00     0.039 A 
ATOM     30  C   UNL A   1      40.151  25.870  26.581  1.00  0.00     0.014 A 
ATOM     31  C   UNL A   1      39.323  25.124  28.709  1.00  0.00     0.014 A 
ATOM     32  C   UNL A   1      40.151  27.167  27.093  1.00  0.00     0.010 A 
ATOM     33  C   UNL A   1      38.927  26.371  29.031  1.00  0.00     0.010 A 
ATOM     34  C   UNL A   1      39.582  27.375  28.352  1.00  0.00    -0.014 A 
BRANCH  34  35
ATOM     35  C   UNL A   1      39.720  28.542  29.194  1.00  0.00     0.031 A 
ATOM     36  C   UNL A   1      38.822  29.665  28.980  1.00  0.00     0.074 A 
ATOM     37  C   UNL A   1      40.549  28.410  30.262  1.00  0.00     0.049 A 
ATOM     38  N   UNL A   1      39.119  30.881  29.258  1.00  0.00    -0.248 NA
ATOM     39  C   UNL A   1      37.504  29.495  28.372  1.00  0.00     0.031 C 
ATOM     40  C   UNL A   1      40.631  29.181  31.489  1.00  0.00     0.029 A 
ATOM     41  N   UNL A   1      41.536  27.443  30.479  1.00  0.00    -0.354 N 
ATOM     42  C   UNL A   1      37.917  31.549  29.269  1.00  0.00     0.074 A 
ATOM     43  C   UNL A   1      37.031  30.741  28.464  1.00  0.00     0.031 C 
ATOM     44  C   UNL A   1      41.783  28.862  32.119  1.00  0.00     0.029 A 
ATOM     45  C   UNL A   1      42.556  28.023  31.216  1.00  0.00     0.049 A 
ATOM     46  H   UNL A   1      41.511  26.511  30.161  1.00  0.00     0.167 HD
ATOM     47  C   UNL A   1      37.734  32.529  30.200  1.00  0.00     0.034 A 
ATOM     48  C   UNL A   1      43.751  28.344  30.624  1.00  0.00     0.034 A 
ATOM     49  C   UNL A   1      38.961  32.711  31.006  1.00  0.00     0.049 A 
ATOM     50  C   UNL A   1      43.949  29.854  30.544  1.00  0.00     0.074 A 
ATOM     51  C   UNL A   1      39.305  32.371  32.307  1.00  0.00     0.029 A 
ATOM     52  N   UNL A   1      40.168  32.988  30.370  1.00  0.00    -0.354 N 
ATOM     53  N   UNL A   1      43.066  30.731  30.935  1.00  0.00    -0.248 NA
ATOM     54  C   UNL A   1      45.107  30.487  29.919  1.00  0.00     0.031 C 
ATOM     55  C   UNL A   1      40.730  32.425  32.428  1.00  0.00     0.029 A 
ATOM     56  C   UNL A   1      41.259  32.823  31.214  1.00  0.00     0.049 A 
ATOM     57  H   UNL A   1      40.239  33.268  29.429  1.00  0.00     0.167 HD
ATOM     58  C   UNL A   1      43.428  31.984  30.528  1.00  0.00     0.074 A 
ATOM     59  C   UNL A   1      44.727  31.777  29.905  1.00  0.00     0.031 C 
ATOM     60  C   UNL A   1      42.609  33.071  30.691  1.00  0.00     0.034 A 
BRANCH  47  61
ATOM     61  C   UNL A   1      36.366  33.080  30.586  1.00  0.00     0.023 A 
ATOM     62  C   UNL A   1      35.635  34.028  29.830  1.00  0.00     0.031 A 
ATOM     63  C   UNL A   1      35.710  32.626  31.746  1.00  0.00     0.131 A 
ATOM     64  C   UNL A   1      34.328  34.426  30.171  1.00  0.00     0.055 A 
ATOM     65  C   UNL A   1      34.418  33.040  32.106  1.00  0.00     0.041 A 
ATOM     66  F   UNL A   1      36.283  31.743  32.576  1.00  0.00    -0.206 F 
ATOM     67  C   UNL A   1      33.713  33.934  31.312  1.00  0.00     0.022 A 
BRANCH  64  68
ATOM     68  S   UNL A   1      33.383  35.558  29.103  1.00  0.00     0.124 S 
ATOM     69  O   UNL A   1      34.440  36.217  28.337  1.00  0.00    -0.237 OA
ATOM     70  O   UNL A   1      32.541  34.642  28.343  1.00  0.00    -0.237 OA
ATOM     71  O   UNL A   1      32.678  36.426  30.044  1.00  0.00    -0.744 OA
ENDBRANCH  64  68
ENDBRANCH  47  61
BRANCH  48  72
ATOM     72  C   UNL A   1      44.134  27.389  29.523  1.00  0.00     0.023 A 
ATOM     73  C   UNL A   1      44.033  27.762  28.173  1.00  0.00     0.031 A 
ATOM     74  C   UNL A   1      44.179  26.006  29.817  1.00  0.00     0.131 A 
ATOM     75  C   UNL A   1      43.837  26.776  27.188  1.00  0.00     0.055 A 
ATOM     76  C   UNL A   1      43.931  25.035  28.842  1.00  0.00     0.041 A 
ATOM     77  F   UNL A   1      44.308  25.589  31.088  1.00  0.00    -0.206 F 
ATOM     78  C   UNL A   1      43.718  25.424  27.524  1.00  0.00     0.022 A 
BRANCH  75  79
ATOM     79  S   UNL A   1      43.619  27.280  25.454  1.00  0.00     0.124 S 
ATOM     80  O   UNL A   1      45.005  27.469  25.037  1.00  0.00    -0.237 OA
ATOM     81  O   UNL A   1      42.940  26.138  24.852  1.00  0.00    -0.237 OA
ATOM     82  O   UNL A   1      42.813  28.490  25.565  1.00  0.00    -0.744 OA
ENDBRANCH  75  79
ENDBRANCH  48  72
BRANCH  60  83
ATOM     83  C   UNL A   1      42.983  34.488  30.311  1.00  0.00     0.023 A 
ATOM     84  C   UNL A   1      43.009  34.859  28.946  1.00  0.00     0.031 A 
ATOM     85  C   UNL A   1      43.203  35.532  31.223  1.00  0.00     0.131 A 
ATOM     86  C   UNL A   1      43.335  36.154  28.534  1.00  0.00     0.055 A 
ATOM     87  C   UNL A   1      43.592  36.814  30.815  1.00  0.00     0.041 A 
ATOM     88  F   UNL A   1      42.972  35.378  32.534  1.00  0.00    -0.206 F 
ATOM     89  C   UNL A   1      43.674  37.127  29.465  1.00  0.00     0.022 A 
BRANCH  86  90
ATOM     90  S   UNL A   1      43.242  36.619  26.785  1.00  0.00     0.124 S 
ATOM     91  O   UNL A   1      42.255  37.698  26.820  1.00  0.00    -0.237 OA
ATOM     92  O   UNL A   1      44.614  37.035  26.510  1.00  0.00    -0.237 OA
ATOM     93  O   UNL A   1      42.809  35.400  26.115  1.00  0.00    -0.744 OA
ENDBRANCH  86  90
ENDBRANCH  60  83
ENDBRANCH  34  35
ENDBRANCH  26  29
ENDBRANCH  24  25
ENDBRANCH  23  24
ENDBRANCH   1  23
TORSDOF 18
ENDMDL
