MODEL 1
REMARK VINA RESULT:     -12.2      0.000      0.000
REMARK SMILES CCc1ccc(Oc2ncnc(N3CCC(C(=O)NCCCNC(=O)c4ccc(-c5c6nc(c(-c7cc(S(=O)(=O)[O-])ccc7F)c7ccc([nH]7)c(-c7cc(S(=O)(=O)[O-])ccc7F)c7nc(c(-c8cc(S(=O)(=O)[O-])ccc8F)c8ccc5[nH]8)C=C7)C=C6)cc4)CC3)c2[N+](=O)[O-])cc1
REMARK SMILES IDX 20 1 19 2 17 3 18 4 16 6 13 7 14 8 90 9 15 10 89 11 12 12
REMARK SMILES IDX 8 13 9 14 91 15 10 16 11 17 7 18 6 19 3 20 4 21 96 22 5 23
REMARK SMILES IDX 95 24 2 25 1 26 92 27 93 28 94 29 21 30 22 31 23 32 24 33
REMARK SMILES IDX 25 35 26 36 27 37 88 38 28 39 87 40 29 41 30 42 31 43 81 44
REMARK SMILES IDX 32 45 86 46 80 47 82 48 33 49 85 50 79 51 78 52 34 54 66 55
REMARK SMILES IDX 46 56 65 57 47 58 50 59 64 60 83 61 48 62 49 63 63 65 84 66
REMARK SMILES IDX 51 67 35 68 36 69 44 70 37 71 43 72 45 73 42 74 38 75 39 76
REMARK SMILES IDX 40 77 41 78 67 79 68 80 76 81 69 82 75 83 77 84 74 85 70 86
REMARK SMILES IDX 71 87 72 88 73 89 52 90 53 91 61 92 54 93 60 94 62 95 59 96
REMARK SMILES IDX 55 97 56 98 57 99 58 100
REMARK H PARENT 19 5 23 34 82 53 50 64
REMARK Flexibility Score: inf
ROOT
ATOM      1  C   UNL A   1      38.318  21.553  25.612  1.00  0.00     0.117 C 
ENDROOT
BRANCH   1   2
ATOM      2  N   UNL A   1      37.784  22.100  24.370  1.00  0.00    -0.356 N 
ATOM      3  C   UNL A   1      36.519  22.478  24.031  1.00  0.00     0.223 C 
ATOM      4  O   UNL A   1      36.327  22.911  22.894  1.00  0.00    -0.275 OA
ATOM      5  H   UNL A   1      38.450  22.217  23.655  1.00  0.00     0.163 HD
BRANCH   3   6
ATOM      6  C   UNL A   1      35.376  22.403  25.031  1.00  0.00     0.082 C 
ATOM      7  N   UNL A   1      32.839  23.504  25.613  1.00  0.00    -0.351 N 
ATOM      8  C   UNL A   1      33.913  23.871  26.524  1.00  0.00     0.119 C 
ATOM      9  C   UNL A   1      32.833  22.135  25.131  1.00  0.00     0.119 C 
ATOM     10  C   UNL A   1      35.253  23.710  25.829  1.00  0.00     0.035 C 
ATOM     11  C   UNL A   1      34.105  21.890  24.333  1.00  0.00     0.035 C 
BRANCH   7  12
ATOM     12  C   UNL A   1      31.834  24.413  25.394  1.00  0.00     0.215 A 
ATOM     13  C   UNL A   1      30.579  25.996  24.155  1.00  0.00     0.305 A 
ATOM     14  N   UNL A   1      29.641  26.077  25.119  1.00  0.00    -0.195 NA
ATOM     15  C   UNL A   1      31.719  25.228  24.285  1.00  0.00     0.373 A 
ATOM     16  C   UNL A   1      29.844  25.299  26.184  1.00  0.00     0.228 A 
ATOM     17  N   UNL A   1      30.875  24.454  26.349  1.00  0.00    -0.212 NA
BRANCH  13  18
ATOM     18  O   UNL A   1      30.283  26.722  23.025  1.00  0.00    -0.434 OA
BRANCH  18  19
ATOM     19  C   UNL A   1      29.569  27.894  23.185  1.00  0.00     0.129 A 
ATOM     20  C   UNL A   1      28.338  30.426  23.344  1.00  0.00    -0.048 A 
ATOM     21  C   UNL A   1      29.725  30.287  23.511  1.00  0.00     0.007 A 
ATOM     22  C   UNL A   1      27.577  29.270  23.129  1.00  0.00     0.007 A 
ATOM     23  C   UNL A   1      30.335  29.033  23.433  1.00  0.00     0.047 A 
ATOM     24  C   UNL A   1      28.181  28.011  23.083  1.00  0.00     0.047 A 
BRANCH  20  25
ATOM     25  C   UNL A   1      27.731  31.809  23.318  1.00  0.00     0.032 C 
ATOM     26  C   UNL A   1      28.501  32.850  22.515  1.00  0.00     0.009 C 
ENDBRANCH  20  25
ENDBRANCH  18  19
ENDBRANCH  13  18
BRANCH  15  27
ATOM     27  N   UNL A   1      32.683  25.205  23.232  1.00  0.00     0.072 N 
ATOM     28  O   UNL A   1      33.646  25.982  23.311  1.00  0.00    -0.258 OA
ATOM     29  O   UNL A   1      32.475  24.421  22.296  1.00  0.00    -0.258 OA
ENDBRANCH  15  27
ENDBRANCH   7  12
ENDBRANCH   3   6
ENDBRANCH   1   2
BRANCH   1  30
ATOM     30  C   UNL A   1      39.058  20.243  25.392  1.00  0.00     0.042 C 
BRANCH  30  31
ATOM     31  C   UNL A   1      39.908  19.819  26.579  1.00  0.00     0.118 C 
BRANCH  31  32
ATOM     32  N   UNL A   1      41.173  19.223  26.172  1.00  0.00    -0.352 N 
ATOM     33  C   UNL A   1      42.376  19.826  25.896  1.00  0.00     0.251 C 
ATOM     34  H   UNL A   1      41.166  18.242  26.083  1.00  0.00     0.163 HD
ATOM     35  O   UNL A   1      43.270  19.178  25.357  1.00  0.00    -0.269 OA
BRANCH  33  36
ATOM     36  C   UNL A   1      42.576  21.253  26.224  1.00  0.00     0.039 A 
ATOM     37  C   UNL A   1      42.889  21.618  27.536  1.00  0.00     0.014 A 
ATOM     38  C   UNL A   1      42.466  22.231  25.233  1.00  0.00     0.014 A 
ATOM     39  C   UNL A   1      43.166  22.954  27.835  1.00  0.00     0.010 A 
ATOM     40  C   UNL A   1      42.837  23.540  25.510  1.00  0.00     0.010 A 
ATOM     41  C   UNL A   1      43.183  23.921  26.815  1.00  0.00    -0.014 A 
BRANCH  41  42
ATOM     42  C   UNL A   1      43.527  25.341  27.082  1.00  0.00     0.031 A 
ATOM     43  C   UNL A   1      44.935  25.820  26.847  1.00  0.00     0.074 A 
ATOM     44  C   UNL A   1      42.608  26.173  27.609  1.00  0.00     0.049 A 
ATOM     45  N   UNL A   1      45.482  26.971  27.141  1.00  0.00    -0.248 NA
ATOM     46  C   UNL A   1      45.859  24.854  26.233  1.00  0.00     0.031 C 
ATOM     47  C   UNL A   1      41.217  25.822  27.901  1.00  0.00     0.029 A 
ATOM     48  N   UNL A   1      42.709  27.484  28.004  1.00  0.00    -0.354 N 
ATOM     49  C   UNL A   1      46.816  26.861  26.766  1.00  0.00     0.074 A 
ATOM     50  C   UNL A   1      47.009  25.505  26.298  1.00  0.00     0.031 C 
ATOM     51  C   UNL A   1      40.587  26.900  28.398  1.00  0.00     0.029 A 
ATOM     52  C   UNL A   1      41.540  27.998  28.515  1.00  0.00     0.049 A 
ATOM     53  H   UNL A   1      43.540  28.007  27.928  1.00  0.00     0.167 HD
ATOM     54  C   UNL A   1      47.785  27.811  26.780  1.00  0.00     0.034 A 
ATOM     55  C   UNL A   1      41.272  29.214  29.035  1.00  0.00     0.034 A 
ATOM     56  C   UNL A   1      47.571  29.160  27.244  1.00  0.00     0.049 A 
ATOM     57  C   UNL A   1      42.380  30.236  29.105  1.00  0.00     0.074 A 
ATOM     58  C   UNL A   1      48.465  30.216  27.270  1.00  0.00     0.029 A 
ATOM     59  N   UNL A   1      46.378  29.639  27.772  1.00  0.00    -0.354 N 
ATOM     60  N   UNL A   1      43.631  30.129  28.718  1.00  0.00    -0.248 NA
ATOM     61  C   UNL A   1      42.037  31.545  29.678  1.00  0.00     0.031 C 
ATOM     62  C   UNL A   1      47.838  31.307  27.881  1.00  0.00     0.029 A 
ATOM     63  C   UNL A   1      46.524  30.963  28.157  1.00  0.00     0.049 A 
ATOM     64  H   UNL A   1      45.550  29.113  27.861  1.00  0.00     0.167 HD
ATOM     65  C   UNL A   1      44.209  31.373  28.959  1.00  0.00     0.074 A 
ATOM     66  C   UNL A   1      43.173  32.211  29.525  1.00  0.00     0.031 C 
ATOM     67  C   UNL A   1      45.481  31.787  28.720  1.00  0.00     0.034 A 
BRANCH  54  68
ATOM     68  C   UNL A   1      49.161  27.401  26.307  1.00  0.00     0.023 A 
ATOM     69  C   UNL A   1      49.657  27.799  25.052  1.00  0.00     0.031 A 
ATOM     70  C   UNL A   1      49.965  26.552  27.088  1.00  0.00     0.131 A 
ATOM     71  C   UNL A   1      50.862  27.265  24.571  1.00  0.00     0.055 A 
ATOM     72  C   UNL A   1      51.212  26.105  26.645  1.00  0.00     0.041 A 
ATOM     73  F   UNL A   1      49.541  26.118  28.286  1.00  0.00    -0.206 F 
ATOM     74  C   UNL A   1      51.657  26.444  25.371  1.00  0.00     0.022 A 
BRANCH  71  75
ATOM     75  S   UNL A   1      51.273  27.507  22.820  1.00  0.00     0.124 S 
ATOM     76  O   UNL A   1      52.591  26.882  22.740  1.00  0.00    -0.237 OA
ATOM     77  O   UNL A   1      50.190  26.804  22.143  1.00  0.00    -0.237 OA
ATOM     78  O   UNL A   1      51.271  28.960  22.665  1.00  0.00    -0.744 OA
ENDBRANCH  71  75
ENDBRANCH  54  68
BRANCH  55  79
ATOM     79  C   UNL A   1      39.903  29.541  29.528  1.00  0.00     0.023 A 
ATOM     80  C   UNL A   1      39.630  29.572  30.905  1.00  0.00     0.031 A 
ATOM     81  C   UNL A   1      38.843  29.789  28.640  1.00  0.00     0.131 A 
ATOM     82  C   UNL A   1      38.319  29.797  31.353  1.00  0.00     0.055 A 
ATOM     83  C   UNL A   1      37.553  30.070  29.092  1.00  0.00     0.041 A 
ATOM     84  F   UNL A   1      39.051  29.776  27.313  1.00  0.00    -0.206 F 
ATOM     85  C   UNL A   1      37.282  30.062  30.456  1.00  0.00     0.022 A 
BRANCH  82  86
ATOM     86  S   UNL A   1      37.974  29.657  33.128  1.00  0.00     0.124 S 
ATOM     87  O   UNL A   1      37.206  30.872  33.377  1.00  0.00    -0.237 OA
ATOM     88  O   UNL A   1      37.232  28.402  33.194  1.00  0.00    -0.237 OA
ATOM     89  O   UNL A   1      39.305  29.623  33.731  1.00  0.00    -0.744 OA
ENDBRANCH  82  86
ENDBRANCH  55  79
BRANCH  67  90
ATOM     90  C   UNL A   1      45.801  33.234  29.007  1.00  0.00     0.023 A 
ATOM     91  C   UNL A   1      45.572  34.252  28.067  1.00  0.00     0.031 A 
ATOM     92  C   UNL A   1      46.333  33.597  30.259  1.00  0.00     0.131 A 
ATOM     93  C   UNL A   1      45.913  35.579  28.376  1.00  0.00     0.055 A 
ATOM     94  C   UNL A   1      46.615  34.923  30.583  1.00  0.00     0.041 A 
ATOM     95  F   UNL A   1      46.576  32.664  31.194  1.00  0.00    -0.206 F 
ATOM     96  C   UNL A   1      46.415  35.922  29.635  1.00  0.00     0.022 A 
BRANCH  93  97
ATOM     97  S   UNL A   1      45.764  36.844  27.085  1.00  0.00     0.124 S 
ATOM     98  O   UNL A   1      46.425  36.202  25.953  1.00  0.00    -0.237 OA
ATOM     99  O   UNL A   1      44.319  37.005  26.971  1.00  0.00    -0.237 OA
ATOM    100  O   UNL A   1      46.473  37.992  27.646  1.00  0.00    -0.744 OA
ENDBRANCH  93  97
ENDBRANCH  67  90
ENDBRANCH  41  42
ENDBRANCH  33  36
ENDBRANCH  31  32
ENDBRANCH  30  31
ENDBRANCH   1  30
TORSDOF 18
ENDMDL
MODEL 2
REMARK VINA RESULT:     -12.1      0.762      7.492
REMARK SMILES CCc1ccc(Oc2ncnc(N3CCC(C(=O)NCCCNC(=O)c4ccc(-c5c6nc(c(-c7cc(S(=O)(=O)[O-])ccc7F)c7ccc([nH]7)c(-c7cc(S(=O)(=O)[O-])ccc7F)c7nc(c(-c8cc(S(=O)(=O)[O-])ccc8F)c8ccc5[nH]8)C=C7)C=C6)cc4)CC3)c2[N+](=O)[O-])cc1
REMARK SMILES IDX 20 1 19 2 17 3 18 4 16 6 13 7 14 8 90 9 15 10 89 11 12 12
REMARK SMILES IDX 8 13 9 14 91 15 10 16 11 17 7 18 6 19 3 20 4 21 96 22 5 23
REMARK SMILES IDX 95 24 2 25 1 26 92 27 93 28 94 29 21 30 22 31 23 32 24 33
REMARK SMILES IDX 25 35 26 36 27 37 88 38 28 39 87 40 29 41 30 42 31 43 81 44
REMARK SMILES IDX 32 45 86 46 80 47 82 48 33 49 85 50 79 51 78 52 34 54 66 55
REMARK SMILES IDX 46 56 65 57 47 58 50 59 64 60 83 61 48 62 49 63 63 65 84 66
REMARK SMILES IDX 51 67 35 68 36 69 44 70 37 71 43 72 45 73 42 74 38 75 39 76
REMARK SMILES IDX 40 77 41 78 67 79 68 80 76 81 69 82 75 83 77 84 74 85 70 86
REMARK SMILES IDX 71 87 72 88 73 89 52 90 53 91 61 92 54 93 60 94 62 95 59 96
REMARK SMILES IDX 55 97 56 98 57 99 58 100
REMARK H PARENT 19 5 23 34 82 53 50 64
REMARK Flexibility Score: inf
ROOT
ATOM      1  C   UNL A   1      38.303  21.754  25.524  1.00  0.00     0.117 C 
ENDROOT
BRANCH   1   2
ATOM      2  N   UNL A   1      37.729  22.253  24.280  1.00  0.00    -0.356 N 
ATOM      3  C   UNL A   1      36.449  22.590  23.960  1.00  0.00     0.223 C 
ATOM      4  O   UNL A   1      36.221  22.986  22.816  1.00  0.00    -0.275 OA
ATOM      5  H   UNL A   1      38.376  22.365  23.547  1.00  0.00     0.163 HD
BRANCH   3   6
ATOM      6  C   UNL A   1      35.329  22.516  24.987  1.00  0.00     0.082 C 
ATOM      7  N   UNL A   1      32.785  23.581  25.602  1.00  0.00    -0.351 N 
ATOM      8  C   UNL A   1      33.873  23.989  26.480  1.00  0.00     0.119 C 
ATOM      9  C   UNL A   1      32.796  22.202  25.151  1.00  0.00     0.119 C 
ATOM     10  C   UNL A   1      35.199  23.838  25.759  1.00  0.00     0.035 C 
ATOM     11  C   UNL A   1      34.053  21.963  24.329  1.00  0.00     0.035 C 
BRANCH   7  12
ATOM     12  C   UNL A   1      31.758  24.466  25.387  1.00  0.00     0.215 A 
ATOM     13  C   UNL A   1      30.455  26.008  24.147  1.00  0.00     0.305 A 
ATOM     14  N   UNL A   1      29.527  26.078  25.121  1.00  0.00    -0.195 NA
ATOM     15  C   UNL A   1      31.612  25.266  24.270  1.00  0.00     0.373 A 
ATOM     16  C   UNL A   1      29.759  25.316  26.192  1.00  0.00     0.228 A 
ATOM     17  N   UNL A   1      30.810  24.496  26.352  1.00  0.00    -0.212 NA
BRANCH  13  18
ATOM     18  O   UNL A   1      30.129  26.716  23.013  1.00  0.00    -0.434 OA
BRANCH  18  19
ATOM     19  C   UNL A   1      29.474  27.921  23.176  1.00  0.00     0.129 A 
ATOM     20  C   UNL A   1      28.386  30.516  23.367  1.00  0.00    -0.048 A 
ATOM     21  C   UNL A   1      29.743  30.283  23.635  1.00  0.00     0.007 A 
ATOM     22  C   UNL A   1      27.578  29.422  23.034  1.00  0.00     0.007 A 
ATOM     23  C   UNL A   1      30.283  28.997  23.542  1.00  0.00     0.047 A 
ATOM     24  C   UNL A   1      28.109  28.131  22.971  1.00  0.00     0.047 A 
BRANCH  20  25
ATOM     25  C   UNL A   1      27.866  31.933  23.365  1.00  0.00     0.032 C 
ATOM     26  C   UNL A   1      28.617  32.909  22.466  1.00  0.00     0.009 C 
ENDBRANCH  20  25
ENDBRANCH  18  19
ENDBRANCH  13  18
BRANCH  15  27
ATOM     27  N   UNL A   1      32.564  25.254  23.206  1.00  0.00     0.072 N 
ATOM     28  O   UNL A   1      33.480  26.089  23.237  1.00  0.00    -0.258 OA
ATOM     29  O   UNL A   1      32.392  24.417  22.309  1.00  0.00    -0.258 OA
ENDBRANCH  15  27
ENDBRANCH   7  12
ENDBRANCH   3   6
ENDBRANCH   1   2
BRANCH   1  30
ATOM     30  C   UNL A   1      38.886  20.357  25.370  1.00  0.00     0.042 C 
BRANCH  30  31
ATOM     31  C   UNL A   1      39.837  19.969  26.490  1.00  0.00     0.118 C 
BRANCH  31  32
ATOM     32  N   UNL A   1      41.003  19.242  26.004  1.00  0.00    -0.352 N 
ATOM     33  C   UNL A   1      42.264  19.704  25.714  1.00  0.00     0.251 C 
ATOM     34  H   UNL A   1      40.867  18.277  25.863  1.00  0.00     0.163 HD
ATOM     35  O   UNL A   1      43.050  18.981  25.107  1.00  0.00    -0.269 OA
BRANCH  33  36
ATOM     36  C   UNL A   1      42.654  21.074  26.109  1.00  0.00     0.039 A 
ATOM     37  C   UNL A   1      43.004  21.330  27.437  1.00  0.00     0.014 A 
ATOM     38  C   UNL A   1      42.687  22.102  25.166  1.00  0.00     0.014 A 
ATOM     39  C   UNL A   1      43.459  22.601  27.800  1.00  0.00     0.010 A 
ATOM     40  C   UNL A   1      43.232  23.334  25.504  1.00  0.00     0.010 A 
ATOM     41  C   UNL A   1      43.617  23.602  26.827  1.00  0.00    -0.014 A 
BRANCH  41  42
ATOM     42  C   UNL A   1      44.150  24.948  27.161  1.00  0.00     0.031 A 
ATOM     43  C   UNL A   1      43.224  25.993  27.725  1.00  0.00     0.074 A 
ATOM     44  C   UNL A   1      45.432  25.256  26.885  1.00  0.00     0.049 A 
ATOM     45  N   UNL A   1      43.445  27.261  27.958  1.00  0.00    -0.248 NA
ATOM     46  C   UNL A   1      41.855  25.554  28.031  1.00  0.00     0.031 C 
ATOM     47  C   UNL A   1      46.421  24.337  26.320  1.00  0.00     0.029 A 
ATOM     48  N   UNL A   1      46.121  26.434  27.033  1.00  0.00    -0.354 N 
ATOM     49  C   UNL A   1      42.238  27.775  28.418  1.00  0.00     0.074 A 
ATOM     50  C   UNL A   1      41.273  26.698  28.354  1.00  0.00     0.031 C 
ATOM     51  C   UNL A   1      47.597  24.976  26.200  1.00  0.00     0.029 A 
ATOM     52  C   UNL A   1      47.432  26.363  26.622  1.00  0.00     0.049 A 
ATOM     53  H   UNL A   1      45.715  27.253  27.400  1.00  0.00     0.167 HD
ATOM     54  C   UNL A   1      41.965  29.022  28.880  1.00  0.00     0.034 A 
ATOM     55  C   UNL A   1      48.387  27.314  26.575  1.00  0.00     0.034 A 
ATOM     56  C   UNL A   1      42.943  30.080  28.942  1.00  0.00     0.049 A 
ATOM     57  C   UNL A   1      48.047  28.712  27.030  1.00  0.00     0.074 A 
ATOM     58  C   UNL A   1      42.793  31.368  29.424  1.00  0.00     0.029 A 
ATOM     59  N   UNL A   1      44.257  29.975  28.498  1.00  0.00    -0.354 N 
ATOM     60  N   UNL A   1      46.909  29.177  27.493  1.00  0.00    -0.248 NA
ATOM     61  C   UNL A   1      49.122  29.710  26.962  1.00  0.00     0.031 C 
ATOM     62  C   UNL A   1      43.987  32.062  29.204  1.00  0.00     0.029 A 
ATOM     63  C   UNL A   1      44.914  31.184  28.666  1.00  0.00     0.049 A 
ATOM     64  H   UNL A   1      44.660  29.161  28.119  1.00  0.00     0.167 HD
ATOM     65  C   UNL A   1      47.148  30.512  27.812  1.00  0.00     0.074 A 
ATOM     66  C   UNL A   1      48.535  30.775  27.489  1.00  0.00     0.031 C 
ATOM     67  C   UNL A   1      46.299  31.432  28.339  1.00  0.00     0.034 A 
BRANCH  54  68
ATOM     68  C   UNL A   1      40.546  29.299  29.321  1.00  0.00     0.023 A 
ATOM     69  C   UNL A   1      40.196  29.359  30.682  1.00  0.00     0.031 A 
ATOM     70  C   UNL A   1      39.516  29.444  28.374  1.00  0.00     0.131 A 
ATOM     71  C   UNL A   1      38.848  29.449  31.058  1.00  0.00     0.055 A 
ATOM     72  C   UNL A   1      38.186  29.635  28.756  1.00  0.00     0.041 A 
ATOM     73  F   UNL A   1      39.779  29.375  27.060  1.00  0.00    -0.206 F 
ATOM     74  C   UNL A   1      37.843  29.616  30.105  1.00  0.00     0.022 A 
BRANCH  71  75
ATOM     75  S   UNL A   1      38.416  29.148  32.795  1.00  0.00     0.124 S 
ATOM     76  O   UNL A   1      39.434  28.175  33.185  1.00  0.00    -0.237 OA
ATOM     77  O   UNL A   1      38.543  30.476  33.385  1.00  0.00    -0.237 OA
ATOM     78  O   UNL A   1      37.056  28.621  32.723  1.00  0.00    -0.744 OA
ENDBRANCH  71  75
ENDBRANCH  54  68
BRANCH  55  79
ATOM     79  C   UNL A   1      49.757  26.986  26.085  1.00  0.00     0.023 A 
ATOM     80  C   UNL A   1      50.136  27.293  24.769  1.00  0.00     0.031 A 
ATOM     81  C   UNL A   1      50.692  26.332  26.905  1.00  0.00     0.131 A 
ATOM     82  C   UNL A   1      51.398  26.903  24.295  1.00  0.00     0.055 A 
ATOM     83  C   UNL A   1      51.968  25.997  26.447  1.00  0.00     0.041 A 
ATOM     84  F   UNL A   1      50.383  26.020  28.174  1.00  0.00    -0.206 F 
ATOM     85  C   UNL A   1      52.323  26.271  25.130  1.00  0.00     0.022 A 
BRANCH  82  86
ATOM     86  S   UNL A   1      51.783  27.161  22.542  1.00  0.00     0.124 S 
ATOM     87  O   UNL A   1      52.240  28.546  22.540  1.00  0.00    -0.237 OA
ATOM     88  O   UNL A   1      52.805  26.147  22.303  1.00  0.00    -0.237 OA
ATOM     89  O   UNL A   1      50.505  26.924  21.875  1.00  0.00    -0.744 OA
ENDBRANCH  82  86
ENDBRANCH  55  79
BRANCH  67  90
ATOM     90  C   UNL A   1      46.868  32.792  28.663  1.00  0.00     0.023 A 
ATOM     91  C   UNL A   1      46.814  33.862  27.755  1.00  0.00     0.031 A 
ATOM     92  C   UNL A   1      47.462  33.019  29.919  1.00  0.00     0.131 A 
ATOM     93  C   UNL A   1      47.382  35.099  28.098  1.00  0.00     0.055 A 
ATOM     94  C   UNL A   1      47.972  34.265  30.278  1.00  0.00     0.041 A 
ATOM     95  F   UNL A   1      47.544  32.030  30.824  1.00  0.00    -0.206 F 
ATOM     96  C   UNL A   1      47.944  35.313  29.361  1.00  0.00     0.022 A 
BRANCH  93  97
ATOM     97  S   UNL A   1      47.448  36.409  26.846  1.00  0.00     0.124 S 
ATOM     98  O   UNL A   1      47.040  35.697  25.639  1.00  0.00    -0.237 OA
ATOM     99  O   UNL A   1      46.494  37.384  27.363  1.00  0.00    -0.237 OA
ATOM    100  O   UNL A   1      48.845  36.838  26.870  1.00  0.00    -0.744 OA
ENDBRANCH  93  97
ENDBRANCH  67  90
ENDBRANCH  41  42
ENDBRANCH  33  36
ENDBRANCH  31  32
ENDBRANCH  30  31
ENDBRANCH   1  30
TORSDOF 18
ENDMDL
MODEL 3
REMARK VINA RESULT:     -12.0      5.652     10.356
REMARK SMILES CCc1ccc(Oc2ncnc(N3CCC(C(=O)NCCCNC(=O)c4ccc(-c5c6nc(c(-c7cc(S(=O)(=O)[O-])ccc7F)c7ccc([nH]7)c(-c7cc(S(=O)(=O)[O-])ccc7F)c7nc(c(-c8cc(S(=O)(=O)[O-])ccc8F)c8ccc5[nH]8)C=C7)C=C6)cc4)CC3)c2[N+](=O)[O-])cc1
REMARK SMILES IDX 20 1 19 2 17 3 18 4 16 6 13 7 14 8 90 9 15 10 89 11 12 12
REMARK SMILES IDX 8 13 9 14 91 15 10 16 11 17 7 18 6 19 3 20 4 21 96 22 5 23
REMARK SMILES IDX 95 24 2 25 1 26 92 27 93 28 94 29 21 30 22 31 23 32 24 33
REMARK SMILES IDX 25 35 26 36 27 37 88 38 28 39 87 40 29 41 30 42 31 43 81 44
REMARK SMILES IDX 32 45 86 46 80 47 82 48 33 49 85 50 79 51 78 52 34 54 66 55
REMARK SMILES IDX 46 56 65 57 47 58 50 59 64 60 83 61 48 62 49 63 63 65 84 66
REMARK SMILES IDX 51 67 35 68 36 69 44 70 37 71 43 72 45 73 42 74 38 75 39 76
REMARK SMILES IDX 40 77 41 78 67 79 68 80 76 81 69 82 75 83 77 84 74 85 70 86
REMARK SMILES IDX 71 87 72 88 73 89 52 90 53 91 61 92 54 93 60 94 62 95 59 96
REMARK SMILES IDX 55 97 56 98 57 99 58 100
REMARK H PARENT 19 5 23 34 82 53 50 64
REMARK Flexibility Score: inf
ROOT
ATOM      1  C   UNL A   1      31.847  30.836  26.068  1.00  0.00     0.117 C 
ENDROOT
BRANCH   1   2
ATOM      2  N   UNL A   1      32.727  29.859  26.699  1.00  0.00    -0.356 N 
ATOM      3  C   UNL A   1      32.917  28.534  26.445  1.00  0.00     0.223 C 
ATOM      4  O   UNL A   1      33.729  27.921  27.139  1.00  0.00    -0.275 OA
ATOM      5  H   UNL A   1      33.276  30.217  27.433  1.00  0.00     0.163 HD
BRANCH   3   6
ATOM      6  C   UNL A   1      32.179  27.830  25.317  1.00  0.00     0.082 C 
ATOM      7  N   UNL A   1      31.965  25.340  23.998  1.00  0.00    -0.351 N 
ATOM      8  C   UNL A   1      32.581  26.413  23.231  1.00  0.00     0.119 C 
ATOM      9  C   UNL A   1      30.839  25.704  24.838  1.00  0.00     0.119 C 
ATOM     10  C   UNL A   1      33.138  27.463  24.173  1.00  0.00     0.035 C 
ATOM     11  C   UNL A   1      31.310  26.696  25.890  1.00  0.00     0.035 C 
BRANCH   7  12
ATOM     12  C   UNL A   1      32.381  24.053  23.764  1.00  0.00     0.215 A 
ATOM     13  C   UNL A   1      33.451  22.000  24.268  1.00  0.00     0.305 A 
ATOM     14  N   UNL A   1      32.972  21.422  23.149  1.00  0.00    -0.195 NA
ATOM     15  C   UNL A   1      33.232  23.327  24.575  1.00  0.00     0.373 A 
ATOM     16  C   UNL A   1      32.199  22.198  22.387  1.00  0.00     0.228 A 
ATOM     17  N   UNL A   1      31.859  23.469  22.660  1.00  0.00    -0.212 NA
BRANCH  13  18
ATOM     18  O   UNL A   1      34.150  21.141  25.086  1.00  0.00    -0.434 OA
BRANCH  18  19
ATOM     19  C   UNL A   1      33.872  19.792  24.983  1.00  0.00     0.129 A 
ATOM     20  C   UNL A   1      33.593  16.987  24.896  1.00  0.00    -0.048 A 
ATOM     21  C   UNL A   1      34.795  17.603  24.516  1.00  0.00     0.007 A 
ATOM     22  C   UNL A   1      32.524  17.803  25.288  1.00  0.00     0.007 A 
ATOM     23  C   UNL A   1      34.933  18.993  24.558  1.00  0.00     0.047 A 
ATOM     24  C   UNL A   1      32.651  19.194  25.300  1.00  0.00     0.047 A 
BRANCH  20  25
ATOM     25  C   UNL A   1      33.519  15.479  24.949  1.00  0.00     0.032 C 
ATOM     26  C   UNL A   1      32.392  14.905  25.797  1.00  0.00     0.009 C 
ENDBRANCH  20  25
ENDBRANCH  18  19
ENDBRANCH  13  18
BRANCH  15  27
ATOM     27  N   UNL A   1      33.788  23.881  25.768  1.00  0.00     0.072 N 
ATOM     28  O   UNL A   1      33.170  23.711  26.830  1.00  0.00    -0.258 OA
ATOM     29  O   UNL A   1      34.845  24.517  25.653  1.00  0.00    -0.258 OA
ENDBRANCH  15  27
ENDBRANCH   7  12
ENDBRANCH   3   6
ENDBRANCH   1   2
BRANCH   1  30
ATOM     30  C   UNL A   1      31.560  32.023  26.976  1.00  0.00     0.042 C 
BRANCH  30  31
ATOM     31  C   UNL A   1      32.814  32.719  27.480  1.00  0.00     0.118 C 
BRANCH  31  32
ATOM     32  N   UNL A   1      32.599  34.138  27.731  1.00  0.00    -0.352 N 
ATOM     33  C   UNL A   1      33.172  34.956  28.674  1.00  0.00     0.251 C 
ATOM     34  H   UNL A   1      31.948  34.576  27.136  1.00  0.00     0.163 HD
ATOM     35  O   UNL A   1      32.702  36.074  28.873  1.00  0.00    -0.269 OA
BRANCH  33  36
ATOM     36  C   UNL A   1      34.328  34.477  29.461  1.00  0.00     0.039 A 
ATOM     37  C   UNL A   1      34.106  33.834  30.682  1.00  0.00     0.014 A 
ATOM     38  C   UNL A   1      35.629  34.651  28.987  1.00  0.00     0.014 A 
ATOM     39  C   UNL A   1      35.187  33.300  31.388  1.00  0.00     0.010 A 
ATOM     40  C   UNL A   1      36.690  34.034  29.639  1.00  0.00     0.010 A 
ATOM     41  C   UNL A   1      36.484  33.359  30.851  1.00  0.00    -0.014 A 
BRANCH  41  42
ATOM     42  C   UNL A   1      37.652  32.754  31.544  1.00  0.00     0.031 A 
ATOM     43  C   UNL A   1      38.377  31.601  30.904  1.00  0.00     0.074 A 
ATOM     44  C   UNL A   1      38.005  33.180  32.772  1.00  0.00     0.049 A 
ATOM     45  N   UNL A   1      39.325  30.842  31.391  1.00  0.00    -0.248 NA
ATOM     46  C   UNL A   1      37.947  31.231  29.547  1.00  0.00     0.031 C 
ATOM     47  C   UNL A   1      37.367  34.276  33.505  1.00  0.00     0.029 A 
ATOM     48  N   UNL A   1      38.983  32.736  33.626  1.00  0.00    -0.354 N 
ATOM     49  C   UNL A   1      39.591  29.894  30.409  1.00  0.00     0.074 A 
ATOM     50  C   UNL A   1      38.648  30.129  29.336  1.00  0.00     0.031 C 
ATOM     51  C   UNL A   1      37.991  34.438  34.683  1.00  0.00     0.029 A 
ATOM     52  C   UNL A   1      39.032  33.424  34.817  1.00  0.00     0.049 A 
ATOM     53  H   UNL A   1      39.593  31.994  33.407  1.00  0.00     0.167 HD
ATOM     54  C   UNL A   1      40.551  28.936  30.389  1.00  0.00     0.034 A 
ATOM     55  C   UNL A   1      39.816  33.246  35.899  1.00  0.00     0.034 A 
ATOM     56  C   UNL A   1      41.486  28.723  31.466  1.00  0.00     0.049 A 
ATOM     57  C   UNL A   1      40.834  32.131  35.885  1.00  0.00     0.074 A 
ATOM     58  C   UNL A   1      42.523  27.811  31.542  1.00  0.00     0.029 A 
ATOM     59  N   UNL A   1      41.492  29.428  32.664  1.00  0.00    -0.354 N 
ATOM     60  N   UNL A   1      41.096  31.261  34.937  1.00  0.00    -0.248 NA
ATOM     61  C   UNL A   1      41.665  31.980  37.087  1.00  0.00     0.031 C 
ATOM     62  C   UNL A   1      43.106  27.912  32.809  1.00  0.00     0.029 A 
ATOM     63  C   UNL A   1      42.493  28.947  33.495  1.00  0.00     0.049 A 
ATOM     64  H   UNL A   1      40.875  30.162  32.890  1.00  0.00     0.167 HD
ATOM     65  C   UNL A   1      42.153  30.489  35.413  1.00  0.00     0.074 A 
ATOM     66  C   UNL A   1      42.478  30.996  36.730  1.00  0.00     0.031 C 
ATOM     67  C   UNL A   1      42.806  29.463  34.807  1.00  0.00     0.034 A 
BRANCH  54  68
ATOM     68  C   UNL A   1      40.605  28.038  29.173  1.00  0.00     0.023 A 
ATOM     69  C   UNL A   1      41.559  28.232  28.158  1.00  0.00     0.031 A 
ATOM     70  C   UNL A   1      39.657  27.016  28.994  1.00  0.00     0.131 A 
ATOM     71  C   UNL A   1      41.477  27.493  26.968  1.00  0.00     0.055 A 
ATOM     72  C   UNL A   1      39.645  26.215  27.849  1.00  0.00     0.041 A 
ATOM     73  F   UNL A   1      38.707  26.794  29.916  1.00  0.00    -0.206 F 
ATOM     74  C   UNL A   1      40.545  26.467  26.818  1.00  0.00     0.022 A 
BRANCH  71  75
ATOM     75  S   UNL A   1      42.480  28.027  25.553  1.00  0.00     0.124 S 
ATOM     76  O   UNL A   1      42.465  26.830  24.714  1.00  0.00    -0.237 OA
ATOM     77  O   UNL A   1      41.729  29.170  25.048  1.00  0.00    -0.237 OA
ATOM     78  O   UNL A   1      43.775  28.343  26.150  1.00  0.00    -0.744 OA
ENDBRANCH  71  75
ENDBRANCH  54  68
BRANCH  55  79
ATOM     79  C   UNL A   1      39.681  34.138  37.086  1.00  0.00     0.023 A 
ATOM     80  C   UNL A   1      39.082  33.668  38.266  1.00  0.00     0.031 A 
ATOM     81  C   UNL A   1      40.109  35.476  37.051  1.00  0.00     0.131 A 
ATOM     82  C   UNL A   1      38.885  34.543  39.346  1.00  0.00     0.055 A 
ATOM     83  C   UNL A   1      39.962  36.326  38.148  1.00  0.00     0.041 A 
ATOM     84  F   UNL A   1      40.692  35.974  35.949  1.00  0.00    -0.206 F 
ATOM     85  C   UNL A   1      39.335  35.864  39.301  1.00  0.00     0.022 A 
BRANCH  82  86
ATOM     86  S   UNL A   1      37.954  33.947  40.784  1.00  0.00     0.124 S 
ATOM     87  O   UNL A   1      37.611  35.197  41.452  1.00  0.00    -0.237 OA
ATOM     88  O   UNL A   1      36.850  33.230  40.154  1.00  0.00    -0.237 OA
ATOM     89  O   UNL A   1      38.919  33.106  41.489  1.00  0.00    -0.744 OA
ENDBRANCH  82  86
ENDBRANCH  55  79
BRANCH  67  90
ATOM     90  C   UNL A   1      43.983  28.866  35.538  1.00  0.00     0.023 A 
ATOM     91  C   UNL A   1      43.844  27.784  36.424  1.00  0.00     0.031 A 
ATOM     92  C   UNL A   1      45.274  29.385  35.326  1.00  0.00     0.131 A 
ATOM     93  C   UNL A   1      44.970  27.284  37.097  1.00  0.00     0.055 A 
ATOM     94  C   UNL A   1      46.397  28.847  35.952  1.00  0.00     0.041 A 
ATOM     95  F   UNL A   1      45.464  30.422  34.493  1.00  0.00    -0.206 F 
ATOM     96  C   UNL A   1      46.248  27.796  36.852  1.00  0.00     0.022 A 
BRANCH  93  97
ATOM     97  S   UNL A   1      44.736  26.002  38.358  1.00  0.00     0.124 S 
ATOM     98  O   UNL A   1      44.536  24.807  37.544  1.00  0.00    -0.237 OA
ATOM     99  O   UNL A   1      45.990  26.062  39.102  1.00  0.00    -0.237 OA
ATOM    100  O   UNL A   1      43.557  26.454  39.094  1.00  0.00    -0.744 OA
ENDBRANCH  93  97
ENDBRANCH  67  90
ENDBRANCH  41  42
ENDBRANCH  33  36
ENDBRANCH  31  32
ENDBRANCH  30  31
ENDBRANCH   1  30
TORSDOF 18
ENDMDL
