MODEL 1
REMARK VINA RESULT:     -14.6      0.000      0.000
REMARK SMILES Cc1c(C(=O)NCCCNC(=O)c2ccc(-c3c4nc(c(-c5cc(S(=O)(=O)[O-])ccc5F)c5ccc([nH]5)c(-c5cc(S(=O)(=O)[O-])ccc5F)c5nc(c(-c6cc(S(=O)(=O)[O-])ccc6F)c6ccc3[nH]6)C=C5)C=C4)cc2)oc2c1/C(=N/NC(=O)C(c1ccccc1)c1ccccc1)CCC2
REMARK SMILES IDX 8 1 7 2 6 3 4 4 5 5 3 7 1 8 2 9 78 10 76 11 77 12 79 13
REMARK SMILES IDX 99 14 80 15 97 16 98 17 81 18 82 19 83 21 84 22 85 23 86 24
REMARK SMILES IDX 90 25 87 26 89 27 88 28 91 29 92 30 96 31 93 32 95 33 94 34
REMARK SMILES IDX 9 35 10 36 11 37 12 39 13 40 14 41 75 42 15 43 74 44 16 45
REMARK SMILES IDX 17 46 18 47 68 48 19 49 73 50 67 51 69 52 20 53 72 54 66 55
REMARK SMILES IDX 65 56 21 58 53 59 33 60 52 61 34 62 37 63 51 64 70 65 35 66
REMARK SMILES IDX 36 67 50 69 71 70 38 71 22 72 23 73 31 74 24 75 30 76 32 77
REMARK SMILES IDX 29 78 25 79 26 80 27 81 28 82 54 83 55 84 63 85 56 86 62 87
REMARK SMILES IDX 64 88 61 89 57 90 58 91 59 92 60 93 39 94 40 95 48 96 41 97
REMARK SMILES IDX 47 98 49 99 46 100 42 101 43 102 44 103 45 104
REMARK H PARENT 6 6 81 20 10 38 69 57 37 68
REMARK Flexibility Score: inf
ROOT
ATOM      1  C   UNL A   1      33.807  29.481  26.879  1.00  0.00     0.042 C 
ENDROOT
BRANCH   1   2
ATOM      2  C   UNL A   1      33.684  29.280  25.355  1.00  0.00     0.118 C 
BRANCH   2   3
ATOM      3  N   UNL A   1      32.406  29.732  24.799  1.00  0.00    -0.349 N 
ATOM      4  C   UNL A   1      31.367  28.973  24.266  1.00  0.00     0.287 C 
ATOM      5  O   UNL A   1      30.302  29.510  24.030  1.00  0.00    -0.266 OA
ATOM      6  H   UNL A   1      32.261  30.706  24.805  1.00  0.00     0.163 HD
BRANCH   4   7
ATOM      7  C   UNL A   1      31.617  27.560  24.091  1.00  0.00     0.195 A 
ATOM      8  C   UNL A   1      31.784  26.517  26.460  1.00  0.00     0.049 C 
ATOM      9  C   UNL A   1      31.846  26.509  24.972  1.00  0.00     0.010 A 
ATOM     10  C   UNL A   1      32.322  25.453  24.133  1.00  0.00     0.043 A 
ATOM     11  O   UNL A   1      31.743  27.118  22.814  1.00  0.00    -0.455 OA
ATOM     12  C   UNL A   1      32.293  25.916  22.847  1.00  0.00     0.114 A 
ATOM     13  C   UNL A   1      32.918  24.173  24.415  1.00  0.00     0.072 C 
ATOM     14  C   UNL A   1      32.895  25.401  21.605  1.00  0.00     0.076 C 
ATOM     15  N   UNL A   1      32.659  23.814  25.651  1.00  0.00    -0.177 NA
ATOM     16  C   UNL A   1      33.814  23.717  23.196  1.00  0.00     0.059 C 
ATOM     17  C   UNL A   1      33.184  23.929  21.808  1.00  0.00     0.014 C 
BRANCH  15  18
ATOM     18  N   UNL A   1      32.959  22.789  26.524  1.00  0.00    -0.246 N 
ATOM     19  C   UNL A   1      33.655  21.608  26.410  1.00  0.00     0.252 C 
ATOM     20  H   UNL A   1      32.594  22.936  27.426  1.00  0.00     0.193 HD
ATOM     21  O   UNL A   1      33.654  20.774  27.319  1.00  0.00    -0.272 OA
BRANCH  19  22
ATOM     22  C   UNL A   1      34.431  21.396  25.145  1.00  0.00     0.140 C 
BRANCH  22  23
ATOM     23  C   UNL A   1      35.961  21.893  25.449  1.00  0.00    -0.031 A 
ATOM     24  C   UNL A   1      36.317  23.257  25.716  1.00  0.00     0.005 A 
ATOM     25  C   UNL A   1      37.085  21.061  25.349  1.00  0.00     0.005 A 
ATOM     26  C   UNL A   1      37.576  23.704  26.146  1.00  0.00     0.000 A 
ATOM     27  C   UNL A   1      38.399  21.537  25.649  1.00  0.00     0.000 A 
ATOM     28  C   UNL A   1      38.634  22.830  26.118  1.00  0.00     0.000 A 
ENDBRANCH  22  23
BRANCH  22  29
ATOM     29  C   UNL A   1      33.769  20.014  24.528  1.00  0.00    -0.031 A 
ATOM     30  C   UNL A   1      34.458  18.794  24.587  1.00  0.00     0.005 A 
ATOM     31  C   UNL A   1      32.677  19.950  23.598  1.00  0.00     0.005 A 
ATOM     32  C   UNL A   1      34.031  17.643  23.853  1.00  0.00     0.000 A 
ATOM     33  C   UNL A   1      32.179  18.806  22.955  1.00  0.00     0.000 A 
ATOM     34  C   UNL A   1      32.876  17.635  23.072  1.00  0.00     0.000 A 
ENDBRANCH  22  29
ENDBRANCH  19  22
ENDBRANCH  15  18
ENDBRANCH   4   7
ENDBRANCH   2   3
ENDBRANCH   1   2
BRANCH   1  35
ATOM     35  C   UNL A   1      35.238  29.333  27.338  1.00  0.00     0.118 C 
BRANCH  35  36
ATOM     36  N   UNL A   1      35.450  29.986  28.627  1.00  0.00    -0.352 N 
ATOM     37  C   UNL A   1      36.465  29.783  29.537  1.00  0.00     0.251 C 
ATOM     38  H   UNL A   1      34.778  30.659  28.881  1.00  0.00     0.163 HD
ATOM     39  O   UNL A   1      36.316  30.127  30.704  1.00  0.00    -0.269 OA
BRANCH  37  40
ATOM     40  C   UNL A   1      37.712  29.145  29.079  1.00  0.00     0.039 A 
ATOM     41  C   UNL A   1      38.391  29.610  27.952  1.00  0.00     0.014 A 
ATOM     42  C   UNL A   1      38.219  28.080  29.821  1.00  0.00     0.014 A 
ATOM     43  C   UNL A   1      39.623  29.042  27.632  1.00  0.00     0.010 A 
ATOM     44  C   UNL A   1      39.501  27.645  29.612  1.00  0.00     0.010 A 
ATOM     45  C   UNL A   1      40.186  28.075  28.485  1.00  0.00    -0.014 A 
BRANCH  45  46
ATOM     46  C   UNL A   1      41.572  27.634  28.333  1.00  0.00     0.031 A 
ATOM     47  C   UNL A   1      41.671  26.349  27.590  1.00  0.00     0.074 A 
ATOM     48  C   UNL A   1      42.641  28.417  28.612  1.00  0.00     0.049 A 
ATOM     49  N   UNL A   1      41.920  25.181  28.080  1.00  0.00    -0.248 NA
ATOM     50  C   UNL A   1      41.201  26.306  26.192  1.00  0.00     0.031 C 
ATOM     51  C   UNL A   1      42.632  29.812  29.072  1.00  0.00     0.029 A 
ATOM     52  N   UNL A   1      43.976  28.175  28.459  1.00  0.00    -0.354 N 
ATOM     53  C   UNL A   1      41.952  24.318  26.989  1.00  0.00     0.074 A 
ATOM     54  C   UNL A   1      41.239  24.995  25.944  1.00  0.00     0.031 C 
ATOM     55  C   UNL A   1      43.867  30.351  28.948  1.00  0.00     0.029 A 
ATOM     56  C   UNL A   1      44.798  29.307  28.557  1.00  0.00     0.049 A 
ATOM     57  H   UNL A   1      44.336  27.274  28.290  1.00  0.00     0.167 HD
ATOM     58  C   UNL A   1      42.845  23.288  26.956  1.00  0.00     0.034 A 
ATOM     59  C   UNL A   1      46.145  29.387  28.348  1.00  0.00     0.034 A 
ATOM     60  C   UNL A   1      43.409  23.085  28.276  1.00  0.00     0.049 A 
ATOM     61  C   UNL A   1      46.667  28.011  28.505  1.00  0.00     0.074 A 
ATOM     62  C   UNL A   1      42.914  22.732  29.515  1.00  0.00     0.029 A 
ATOM     63  N   UNL A   1      44.630  23.679  28.502  1.00  0.00    -0.354 N 
ATOM     64  N   UNL A   1      46.634  27.365  29.636  1.00  0.00    -0.248 NA
ATOM     65  C   UNL A   1      46.783  27.176  27.320  1.00  0.00     0.031 C 
ATOM     66  C   UNL A   1      43.673  23.496  30.454  1.00  0.00     0.029 A 
ATOM     67  C   UNL A   1      44.664  24.203  29.769  1.00  0.00     0.049 A 
ATOM     68  H   UNL A   1      45.369  23.721  27.853  1.00  0.00     0.167 HD
ATOM     69  C   UNL A   1      46.261  26.074  29.297  1.00  0.00     0.074 A 
ATOM     70  C   UNL A   1      46.508  25.983  27.858  1.00  0.00     0.031 C 
ATOM     71  C   UNL A   1      45.512  25.321  30.158  1.00  0.00     0.034 A 
BRANCH  58  72
ATOM     72  C   UNL A   1      43.568  22.794  25.710  1.00  0.00     0.023 A 
ATOM     73  C   UNL A   1      43.704  21.397  25.573  1.00  0.00     0.031 A 
ATOM     74  C   UNL A   1      44.363  23.565  24.832  1.00  0.00     0.131 A 
ATOM     75  C   UNL A   1      44.669  20.837  24.717  1.00  0.00     0.055 A 
ATOM     76  C   UNL A   1      45.283  23.001  23.941  1.00  0.00     0.041 A 
ATOM     77  F   UNL A   1      44.363  24.901  24.825  1.00  0.00    -0.206 F 
ATOM     78  C   UNL A   1      45.467  21.632  23.904  1.00  0.00     0.022 A 
BRANCH  75  79
ATOM     79  S   UNL A   1      44.979  19.056  24.819  1.00  0.00     0.124 S 
ATOM     80  O   UNL A   1      46.267  19.025  25.501  1.00  0.00    -0.237 OA
ATOM     81  O   UNL A   1      43.827  18.595  25.587  1.00  0.00    -0.237 OA
ATOM     82  O   UNL A   1      45.002  18.638  23.419  1.00  0.00    -0.744 OA
ENDBRANCH  75  79
ENDBRANCH  58  72
BRANCH  59  83
ATOM     83  C   UNL A   1      46.945  30.490  27.726  1.00  0.00     0.023 A 
ATOM     84  C   UNL A   1      46.378  31.610  27.064  1.00  0.00     0.031 A 
ATOM     85  C   UNL A   1      48.321  30.577  28.032  1.00  0.00     0.131 A 
ATOM     86  C   UNL A   1      47.179  32.742  26.748  1.00  0.00     0.055 A 
ATOM     87  C   UNL A   1      49.100  31.697  27.728  1.00  0.00     0.041 A 
ATOM     88  F   UNL A   1      48.935  29.606  28.724  1.00  0.00    -0.206 F 
ATOM     89  C   UNL A   1      48.531  32.788  27.093  1.00  0.00     0.022 A 
BRANCH  86  90
ATOM     90  S   UNL A   1      46.467  34.222  25.938  1.00  0.00     0.124 S 
ATOM     91  O   UNL A   1      45.284  33.684  25.278  1.00  0.00    -0.237 OA
ATOM     92  O   UNL A   1      46.233  35.117  27.065  1.00  0.00    -0.237 OA
ATOM     93  O   UNL A   1      47.528  34.658  25.026  1.00  0.00    -0.744 OA
ENDBRANCH  86  90
ENDBRANCH  59  83
BRANCH  71  94
ATOM     94  C   UNL A   1      45.455  25.759  31.611  1.00  0.00     0.023 A 
ATOM     95  C   UNL A   1      46.456  25.535  32.587  1.00  0.00     0.031 A 
ATOM     96  C   UNL A   1      44.336  26.520  31.992  1.00  0.00     0.131 A 
ATOM     97  C   UNL A   1      46.302  26.061  33.887  1.00  0.00     0.055 A 
ATOM     98  C   UNL A   1      44.201  27.062  33.267  1.00  0.00     0.041 A 
ATOM     99  F   UNL A   1      43.358  26.781  31.108  1.00  0.00    -0.206 F 
ATOM    100  C   UNL A   1      45.181  26.829  34.223  1.00  0.00     0.022 A 
BRANCH  97 101
ATOM    101  S   UNL A   1      47.539  25.734  35.188  1.00  0.00     0.124 S 
ATOM    102  O   UNL A   1      46.815  24.911  36.150  1.00  0.00    -0.237 OA
ATOM    103  O   UNL A   1      48.606  25.064  34.450  1.00  0.00    -0.237 OA
ATOM    104  O   UNL A   1      47.886  27.073  35.672  1.00  0.00    -0.744 OA
ENDBRANCH  97 101
ENDBRANCH  71  94
ENDBRANCH  45  46
ENDBRANCH  37  40
ENDBRANCH  35  36
ENDBRANCH   1  35
TORSDOF 17
ENDMDL
MODEL 2
REMARK VINA RESULT:     -14.4      2.057      6.811
REMARK SMILES Cc1c(C(=O)NCCCNC(=O)c2ccc(-c3c4nc(c(-c5cc(S(=O)(=O)[O-])ccc5F)c5ccc([nH]5)c(-c5cc(S(=O)(=O)[O-])ccc5F)c5nc(c(-c6cc(S(=O)(=O)[O-])ccc6F)c6ccc3[nH]6)C=C5)C=C4)cc2)oc2c1/C(=N/NC(=O)C(c1ccccc1)c1ccccc1)CCC2
REMARK SMILES IDX 8 1 7 2 6 3 4 4 5 5 3 7 1 8 2 9 78 10 76 11 77 12 79 13
REMARK SMILES IDX 99 14 80 15 97 16 98 17 81 18 82 19 83 21 84 22 85 23 86 24
REMARK SMILES IDX 90 25 87 26 89 27 88 28 91 29 92 30 96 31 93 32 95 33 94 34
REMARK SMILES IDX 9 35 10 36 11 37 12 39 13 40 14 41 75 42 15 43 74 44 16 45
REMARK SMILES IDX 17 46 18 47 68 48 19 49 73 50 67 51 69 52 20 53 72 54 66 55
REMARK SMILES IDX 65 56 21 58 53 59 33 60 52 61 34 62 37 63 51 64 70 65 35 66
REMARK SMILES IDX 36 67 50 69 71 70 38 71 22 72 23 73 31 74 24 75 30 76 32 77
REMARK SMILES IDX 29 78 25 79 26 80 27 81 28 82 54 83 55 84 63 85 56 86 62 87
REMARK SMILES IDX 64 88 61 89 57 90 58 91 59 92 60 93 39 94 40 95 48 96 41 97
REMARK SMILES IDX 47 98 49 99 46 100 42 101 43 102 44 103 45 104
REMARK H PARENT 6 6 81 20 10 38 69 57 37 68
REMARK Flexibility Score: inf
ROOT
ATOM      1  C   UNL A   1      33.177  30.127  27.007  1.00  0.00     0.042 C 
ENDROOT
BRANCH   1   2
ATOM      2  C   UNL A   1      33.092  29.610  25.557  1.00  0.00     0.118 C 
BRANCH   2   3
ATOM      3  N   UNL A   1      31.838  29.952  24.879  1.00  0.00    -0.349 N 
ATOM      4  C   UNL A   1      30.931  29.110  24.243  1.00  0.00     0.287 C 
ATOM      5  O   UNL A   1      29.850  29.552  23.904  1.00  0.00    -0.266 OA
ATOM      6  H   UNL A   1      31.606  30.909  24.874  1.00  0.00     0.163 HD
BRANCH   4   7
ATOM      7  C   UNL A   1      31.323  27.727  24.088  1.00  0.00     0.195 A 
ATOM      8  C   UNL A   1      31.547  26.727  26.471  1.00  0.00     0.049 C 
ATOM      9  C   UNL A   1      31.639  26.712  24.985  1.00  0.00     0.010 A 
ATOM     10  C   UNL A   1      32.235  25.701  24.166  1.00  0.00     0.043 A 
ATOM     11  O   UNL A   1      31.518  27.288  22.819  1.00  0.00    -0.455 OA
ATOM     12  C   UNL A   1      32.185  26.147  22.875  1.00  0.00     0.114 A 
ATOM     13  C   UNL A   1      32.950  24.490  24.473  1.00  0.00     0.072 C 
ATOM     14  C   UNL A   1      32.860  25.685  21.651  1.00  0.00     0.076 C 
ATOM     15  N   UNL A   1      32.703  24.118  25.708  1.00  0.00    -0.177 NA
ATOM     16  C   UNL A   1      33.911  24.115  23.276  1.00  0.00     0.059 C 
ATOM     17  C   UNL A   1      33.290  24.250  21.875  1.00  0.00     0.014 C 
BRANCH  15  18
ATOM     18  N   UNL A   1      33.086  23.136  26.598  1.00  0.00    -0.246 N 
ATOM     19  C   UNL A   1      33.914  22.040  26.516  1.00  0.00     0.252 C 
ATOM     20  H   UNL A   1      32.677  23.244  27.487  1.00  0.00     0.193 HD
ATOM     21  O   UNL A   1      33.975  21.214  27.430  1.00  0.00    -0.272 OA
BRANCH  19  22
ATOM     22  C   UNL A   1      34.749  21.911  25.278  1.00  0.00     0.140 C 
BRANCH  22  23
ATOM     23  C   UNL A   1      36.255  22.414  25.680  1.00  0.00    -0.031 A 
ATOM     24  C   UNL A   1      37.401  21.552  25.713  1.00  0.00     0.005 A 
ATOM     25  C   UNL A   1      36.545  23.700  26.157  1.00  0.00     0.005 A 
ATOM     26  C   UNL A   1      38.731  21.966  25.884  1.00  0.00     0.000 A 
ATOM     27  C   UNL A   1      37.880  24.099  26.473  1.00  0.00     0.000 A 
ATOM     28  C   UNL A   1      38.977  23.261  26.265  1.00  0.00     0.000 A 
ENDBRANCH  22  23
BRANCH  22  29
ATOM     29  C   UNL A   1      34.141  20.556  24.555  1.00  0.00    -0.031 A 
ATOM     30  C   UNL A   1      32.848  20.546  24.012  1.00  0.00     0.005 A 
ATOM     31  C   UNL A   1      34.651  19.223  24.709  1.00  0.00     0.005 A 
ATOM     32  C   UNL A   1      32.203  19.336  23.605  1.00  0.00     0.000 A 
ATOM     33  C   UNL A   1      34.081  18.037  24.218  1.00  0.00     0.000 A 
ATOM     34  C   UNL A   1      32.829  18.092  23.669  1.00  0.00     0.000 A 
ENDBRANCH  22  29
ENDBRANCH  19  22
ENDBRANCH  15  18
ENDBRANCH   4   7
ENDBRANCH   2   3
ENDBRANCH   1   2
BRANCH   1  35
ATOM     35  C   UNL A   1      34.601  30.456  27.389  1.00  0.00     0.118 C 
BRANCH  35  36
ATOM     36  N   UNL A   1      34.644  31.431  28.476  1.00  0.00    -0.352 N 
ATOM     37  C   UNL A   1      35.522  31.497  29.536  1.00  0.00     0.251 C 
ATOM     38  H   UNL A   1      33.956  32.133  28.448  1.00  0.00     0.163 HD
ATOM     39  O   UNL A   1      35.221  32.134  30.539  1.00  0.00    -0.269 OA
BRANCH  37  40
ATOM     40  C   UNL A   1      36.810  30.786  29.439  1.00  0.00     0.039 A 
ATOM     41  C   UNL A   1      38.023  31.473  29.518  1.00  0.00     0.014 A 
ATOM     42  C   UNL A   1      36.789  29.401  29.296  1.00  0.00     0.014 A 
ATOM     43  C   UNL A   1      39.207  30.738  29.534  1.00  0.00     0.010 A 
ATOM     44  C   UNL A   1      37.934  28.672  29.488  1.00  0.00     0.010 A 
ATOM     45  C   UNL A   1      39.153  29.332  29.546  1.00  0.00    -0.014 A 
BRANCH  45  46
ATOM     46  C   UNL A   1      40.342  28.523  29.812  1.00  0.00     0.031 A 
ATOM     47  C   UNL A   1      40.625  28.408  31.267  1.00  0.00     0.074 A 
ATOM     48  C   UNL A   1      40.961  27.770  28.871  1.00  0.00     0.049 A 
ATOM     49  N   UNL A   1      41.549  29.014  31.934  1.00  0.00    -0.248 NA
ATOM     50  C   UNL A   1      39.627  27.743  32.128  1.00  0.00     0.031 C 
ATOM     51  C   UNL A   1      40.568  27.594  27.467  1.00  0.00     0.029 A 
ATOM     52  N   UNL A   1      42.024  26.921  28.980  1.00  0.00    -0.354 N 
ATOM     53  C   UNL A   1      41.435  28.547  33.239  1.00  0.00     0.074 A 
ATOM     54  C   UNL A   1      40.105  28.019  33.343  1.00  0.00     0.031 C 
ATOM     55  C   UNL A   1      41.231  26.545  26.927  1.00  0.00     0.029 A 
ATOM     56  C   UNL A   1      42.217  26.071  27.882  1.00  0.00     0.049 A 
ATOM     57  H   UNL A   1      42.611  26.905  29.770  1.00  0.00     0.167 HD
ATOM     58  C   UNL A   1      42.552  28.339  33.993  1.00  0.00     0.034 A 
ATOM     59  C   UNL A   1      43.125  25.059  27.753  1.00  0.00     0.034 A 
ATOM     60  C   UNL A   1      43.693  28.980  33.366  1.00  0.00     0.049 A 
ATOM     61  C   UNL A   1      44.194  25.339  28.738  1.00  0.00     0.074 A 
ATOM     62  C   UNL A   1      44.041  30.276  33.047  1.00  0.00     0.029 A 
ATOM     63  N   UNL A   1      44.485  28.164  32.591  1.00  0.00    -0.354 N 
ATOM     64  N   UNL A   1      44.975  26.379  28.659  1.00  0.00    -0.248 NA
ATOM     65  C   UNL A   1      44.089  24.744  30.060  1.00  0.00     0.031 C 
ATOM     66  C   UNL A   1      44.737  30.182  31.803  1.00  0.00     0.029 A 
ATOM     67  C   UNL A   1      44.878  28.834  31.462  1.00  0.00     0.049 A 
ATOM     68  H   UNL A   1      44.734  27.238  32.814  1.00  0.00     0.167 HD
ATOM     69  C   UNL A   1      45.085  26.840  29.962  1.00  0.00     0.074 A 
ATOM     70  C   UNL A   1      44.642  25.718  30.790  1.00  0.00     0.031 C 
ATOM     71  C   UNL A   1      45.233  28.175  30.213  1.00  0.00     0.034 A 
BRANCH  58  72
ATOM     72  C   UNL A   1      42.741  27.201  34.987  1.00  0.00     0.023 A 
ATOM     73  C   UNL A   1      43.548  26.124  34.567  1.00  0.00     0.031 A 
ATOM     74  C   UNL A   1      41.980  26.964  36.155  1.00  0.00     0.131 A 
ATOM     75  C   UNL A   1      43.477  24.868  35.196  1.00  0.00     0.055 A 
ATOM     76  C   UNL A   1      41.955  25.728  36.811  1.00  0.00     0.041 A 
ATOM     77  F   UNL A   1      41.160  27.871  36.693  1.00  0.00    -0.206 F 
ATOM     78  C   UNL A   1      42.677  24.660  36.313  1.00  0.00     0.022 A 
BRANCH  75  79
ATOM     79  S   UNL A   1      44.317  23.467  34.416  1.00  0.00     0.124 S 
ATOM     80  O   UNL A   1      44.409  22.529  35.529  1.00  0.00    -0.237 OA
ATOM     81  O   UNL A   1      43.387  23.117  33.348  1.00  0.00    -0.237 OA
ATOM     82  O   UNL A   1      45.586  24.039  33.974  1.00  0.00    -0.744 OA
ENDBRANCH  75  79
ENDBRANCH  58  72
BRANCH  59  83
ATOM     83  C   UNL A   1      42.977  23.732  27.074  1.00  0.00     0.023 A 
ATOM     84  C   UNL A   1      43.801  23.285  26.008  1.00  0.00     0.031 A 
ATOM     85  C   UNL A   1      42.158  22.755  27.681  1.00  0.00     0.131 A 
ATOM     86  C   UNL A   1      43.782  21.921  25.606  1.00  0.00     0.055 A 
ATOM     87  C   UNL A   1      42.151  21.413  27.287  1.00  0.00     0.041 A 
ATOM     88  F   UNL A   1      41.398  23.057  28.746  1.00  0.00    -0.206 F 
ATOM     89  C   UNL A   1      42.970  20.989  26.254  1.00  0.00     0.022 A 
BRANCH  86  90
ATOM     90  S   UNL A   1      44.868  21.303  24.268  1.00  0.00     0.124 S 
ATOM     91  O   UNL A   1      44.361  19.955  24.045  1.00  0.00    -0.237 OA
ATOM     92  O   UNL A   1      44.636  22.269  23.200  1.00  0.00    -0.237 OA
ATOM     93  O   UNL A   1      46.208  21.360  24.858  1.00  0.00    -0.744 OA
ENDBRANCH  86  90
ENDBRANCH  59  83
BRANCH  71  94
ATOM     94  C   UNL A   1      45.679  29.064  29.065  1.00  0.00     0.023 A 
ATOM     95  C   UNL A   1      44.864  29.982  28.359  1.00  0.00     0.031 A 
ATOM     96  C   UNL A   1      47.044  29.018  28.730  1.00  0.00     0.131 A 
ATOM     97  C   UNL A   1      45.428  30.798  27.356  1.00  0.00     0.055 A 
ATOM     98  C   UNL A   1      47.603  29.845  27.760  1.00  0.00     0.041 A 
ATOM     99  F   UNL A   1      47.874  28.178  29.373  1.00  0.00    -0.206 F 
ATOM    100  C   UNL A   1      46.795  30.735  27.064  1.00  0.00     0.022 A 
BRANCH  97 101
ATOM    101  S   UNL A   1      44.394  31.941  26.381  1.00  0.00     0.124 S 
ATOM    102  O   UNL A   1      45.277  32.366  25.301  1.00  0.00    -0.237 OA
ATOM    103  O   UNL A   1      43.268  31.097  25.991  1.00  0.00    -0.237 OA
ATOM    104  O   UNL A   1      44.056  32.997  27.340  1.00  0.00    -0.744 OA
ENDBRANCH  97 101
ENDBRANCH  71  94
ENDBRANCH  45  46
ENDBRANCH  37  40
ENDBRANCH  35  36
ENDBRANCH   1  35
TORSDOF 17
ENDMDL
MODEL 3
REMARK VINA RESULT:     -14.4      1.593      2.946
REMARK SMILES Cc1c(C(=O)NCCCNC(=O)c2ccc(-c3c4nc(c(-c5cc(S(=O)(=O)[O-])ccc5F)c5ccc([nH]5)c(-c5cc(S(=O)(=O)[O-])ccc5F)c5nc(c(-c6cc(S(=O)(=O)[O-])ccc6F)c6ccc3[nH]6)C=C5)C=C4)cc2)oc2c1/C(=N/NC(=O)C(c1ccccc1)c1ccccc1)CCC2
REMARK SMILES IDX 8 1 7 2 6 3 4 4 5 5 3 7 1 8 2 9 78 10 76 11 77 12 79 13
REMARK SMILES IDX 99 14 80 15 97 16 98 17 81 18 82 19 83 21 84 22 85 23 86 24
REMARK SMILES IDX 90 25 87 26 89 27 88 28 91 29 92 30 96 31 93 32 95 33 94 34
REMARK SMILES IDX 9 35 10 36 11 37 12 39 13 40 14 41 75 42 15 43 74 44 16 45
REMARK SMILES IDX 17 46 18 47 68 48 19 49 73 50 67 51 69 52 20 53 72 54 66 55
REMARK SMILES IDX 65 56 21 58 53 59 33 60 52 61 34 62 37 63 51 64 70 65 35 66
REMARK SMILES IDX 36 67 50 69 71 70 38 71 22 72 23 73 31 74 24 75 30 76 32 77
REMARK SMILES IDX 29 78 25 79 26 80 27 81 28 82 54 83 55 84 63 85 56 86 62 87
REMARK SMILES IDX 64 88 61 89 57 90 58 91 59 92 60 93 39 94 40 95 48 96 41 97
REMARK SMILES IDX 47 98 49 99 46 100 42 101 43 102 44 103 45 104
REMARK H PARENT 6 6 81 20 10 38 69 57 37 68
REMARK Flexibility Score: inf
ROOT
ATOM      1  C   UNL A   1      34.684  29.462  27.095  1.00  0.00     0.042 C 
ENDROOT
BRANCH   1   2
ATOM      2  C   UNL A   1      33.327  29.982  27.613  1.00  0.00     0.118 C 
BRANCH   2   3
ATOM      3  N   UNL A   1      32.448  30.495  26.558  1.00  0.00    -0.349 N 
ATOM      4  C   UNL A   1      31.710  29.786  25.614  1.00  0.00     0.287 C 
ATOM      5  O   UNL A   1      30.887  30.376  24.942  1.00  0.00    -0.266 OA
ATOM      6  H   UNL A   1      32.369  31.475  26.511  1.00  0.00     0.163 HD
BRANCH   4   7
ATOM      7  C   UNL A   1      31.933  28.359  25.551  1.00  0.00     0.195 A 
ATOM      8  C   UNL A   1      33.969  27.974  23.991  1.00  0.00     0.049 C 
ATOM      9  C   UNL A   1      32.828  27.557  24.852  1.00  0.00     0.010 A 
ATOM     10  C   UNL A   1      32.302  26.236  25.008  1.00  0.00     0.043 A 
ATOM     11  O   UNL A   1      31.065  27.576  26.241  1.00  0.00    -0.455 OA
ATOM     12  C   UNL A   1      31.198  26.333  25.809  1.00  0.00     0.114 A 
ATOM     13  C   UNL A   1      32.622  24.976  24.390  1.00  0.00     0.072 C 
ATOM     14  C   UNL A   1      30.111  25.384  26.101  1.00  0.00     0.076 C 
ATOM     15  N   UNL A   1      33.816  25.027  23.846  1.00  0.00    -0.177 NA
ATOM     16  C   UNL A   1      31.365  24.019  24.435  1.00  0.00     0.059 C 
ATOM     17  C   UNL A   1      30.614  23.992  25.778  1.00  0.00     0.014 C 
BRANCH  15  18
ATOM     18  N   UNL A   1      34.656  24.232  23.095  1.00  0.00    -0.246 N 
ATOM     19  C   UNL A   1      35.371  23.085  23.353  1.00  0.00     0.252 C 
ATOM     20  H   UNL A   1      34.769  24.556  22.173  1.00  0.00     0.193 HD
ATOM     21  O   UNL A   1      36.184  22.640  22.539  1.00  0.00    -0.272 OA
BRANCH  19  22
ATOM     22  C   UNL A   1      35.099  22.393  24.655  1.00  0.00     0.140 C 
BRANCH  22  23
ATOM     23  C   UNL A   1      34.153  21.103  24.305  1.00  0.00    -0.031 A 
ATOM     24  C   UNL A   1      32.906  21.197  23.603  1.00  0.00     0.005 A 
ATOM     25  C   UNL A   1      34.403  19.804  24.771  1.00  0.00     0.005 A 
ATOM     26  C   UNL A   1      32.147  20.113  23.134  1.00  0.00     0.000 A 
ATOM     27  C   UNL A   1      33.559  18.706  24.418  1.00  0.00     0.000 A 
ATOM     28  C   UNL A   1      32.481  18.846  23.543  1.00  0.00     0.000 A 
ENDBRANCH  22  23
BRANCH  22  29
ATOM     29  C   UNL A   1      36.510  22.595  25.489  1.00  0.00    -0.031 A 
ATOM     30  C   UNL A   1      36.871  23.848  26.004  1.00  0.00     0.005 A 
ATOM     31  C   UNL A   1      37.631  21.698  25.471  1.00  0.00     0.005 A 
ATOM     32  C   UNL A   1      38.182  24.114  26.509  1.00  0.00     0.000 A 
ATOM     33  C   UNL A   1      38.889  21.904  26.059  1.00  0.00     0.000 A 
ATOM     34  C   UNL A   1      39.175  23.138  26.574  1.00  0.00     0.000 A 
ENDBRANCH  22  29
ENDBRANCH  19  22
ENDBRANCH  15  18
ENDBRANCH   4   7
ENDBRANCH   2   3
ENDBRANCH   1   2
BRANCH   1  35
ATOM     35  C   UNL A   1      35.830  30.272  27.653  1.00  0.00     0.118 C 
BRANCH  35  36
ATOM     36  N   UNL A   1      35.827  30.253  29.114  1.00  0.00    -0.352 N 
ATOM     37  C   UNL A   1      36.645  29.544  29.967  1.00  0.00     0.251 C 
ATOM     38  H   UNL A   1      35.151  30.822  29.547  1.00  0.00     0.163 HD
ATOM     39  O   UNL A   1      36.298  29.351  31.126  1.00  0.00    -0.269 OA
BRANCH  37  40
ATOM     40  C   UNL A   1      37.926  29.025  29.454  1.00  0.00     0.039 A 
ATOM     41  C   UNL A   1      38.624  29.690  28.445  1.00  0.00     0.014 A 
ATOM     42  C   UNL A   1      38.443  27.865  30.026  1.00  0.00     0.014 A 
ATOM     43  C   UNL A   1      39.883  29.216  28.079  1.00  0.00     0.010 A 
ATOM     44  C   UNL A   1      39.745  27.504  29.794  1.00  0.00     0.010 A 
ATOM     45  C   UNL A   1      40.450  28.135  28.779  1.00  0.00    -0.014 A 
BRANCH  45  46
ATOM     46  C   UNL A   1      41.854  27.763  28.605  1.00  0.00     0.031 A 
ATOM     47  C   UNL A   1      42.005  26.491  27.849  1.00  0.00     0.074 A 
ATOM     48  C   UNL A   1      42.887  28.594  28.879  1.00  0.00     0.049 A 
ATOM     49  N   UNL A   1      42.316  25.332  28.324  1.00  0.00    -0.248 NA
ATOM     50  C   UNL A   1      41.520  26.439  26.456  1.00  0.00     0.031 C 
ATOM     51  C   UNL A   1      42.817  29.982  29.353  1.00  0.00     0.029 A 
ATOM     52  N   UNL A   1      44.230  28.418  28.707  1.00  0.00    -0.354 N 
ATOM     53  C   UNL A   1      42.375  24.482  27.224  1.00  0.00     0.074 A 
ATOM     54  C   UNL A   1      41.617  25.133  26.195  1.00  0.00     0.031 C 
ATOM     55  C   UNL A   1      44.023  30.581  29.219  1.00  0.00     0.029 A 
ATOM     56  C   UNL A   1      44.998  29.586  28.807  1.00  0.00     0.049 A 
ATOM     57  H   UNL A   1      44.631  27.537  28.525  1.00  0.00     0.167 HD
ATOM     58  C   UNL A   1      43.315  23.496  27.170  1.00  0.00     0.034 A 
ATOM     59  C   UNL A   1      46.337  29.733  28.581  1.00  0.00     0.034 A 
ATOM     60  C   UNL A   1      43.906  23.308  28.481  1.00  0.00     0.049 A 
ATOM     61  C   UNL A   1      46.926  28.383  28.718  1.00  0.00     0.074 A 
ATOM     62  C   UNL A   1      43.444  22.921  29.722  1.00  0.00     0.029 A 
ATOM     63  N   UNL A   1      45.100  23.958  28.698  1.00  0.00    -0.354 N 
ATOM     64  N   UNL A   1      46.939  27.725  29.844  1.00  0.00    -0.248 NA
ATOM     65  C   UNL A   1      47.067  27.565  27.524  1.00  0.00     0.031 C 
ATOM     66  C   UNL A   1      44.177  23.711  30.659  1.00  0.00     0.029 A 
ATOM     67  C   UNL A   1      45.125  24.472  29.969  1.00  0.00     0.049 A 
ATOM     68  H   UNL A   1      45.827  24.042  28.040  1.00  0.00     0.167 HD
ATOM     69  C   UNL A   1      46.624  26.421  29.496  1.00  0.00     0.074 A 
ATOM     70  C   UNL A   1      46.856  26.356  28.053  1.00  0.00     0.031 C 
ATOM     71  C   UNL A   1      45.923  25.625  30.359  1.00  0.00     0.034 A 
BRANCH  58  72
ATOM     72  C   UNL A   1      44.045  23.049  25.910  1.00  0.00     0.023 A 
ATOM     73  C   UNL A   1      44.099  21.660  25.673  1.00  0.00     0.031 A 
ATOM     74  C   UNL A   1      44.914  23.830  25.114  1.00  0.00     0.131 A 
ATOM     75  C   UNL A   1      45.054  21.103  24.804  1.00  0.00     0.055 A 
ATOM     76  C   UNL A   1      45.825  23.275  24.208  1.00  0.00     0.041 A 
ATOM     77  F   UNL A   1      44.996  25.160  25.206  1.00  0.00    -0.206 F 
ATOM     78  C   UNL A   1      45.925  21.903  24.074  1.00  0.00     0.022 A 
BRANCH  75  79
ATOM     79  S   UNL A   1      45.251  19.304  24.781  1.00  0.00     0.124 S 
ATOM     80  O   UNL A   1      46.601  19.153  25.309  1.00  0.00    -0.237 OA
ATOM     81  O   UNL A   1      44.162  18.873  25.650  1.00  0.00    -0.237 OA
ATOM     82  O   UNL A   1      45.091  18.966  23.368  1.00  0.00    -0.744 OA
ENDBRANCH  75  79
ENDBRANCH  58  72
BRANCH  59  83
ATOM     83  C   UNL A   1      47.075  30.880  27.961  1.00  0.00     0.023 A 
ATOM     84  C   UNL A   1      46.467  31.877  27.155  1.00  0.00     0.031 A 
ATOM     85  C   UNL A   1      48.389  31.150  28.401  1.00  0.00     0.131 A 
ATOM     86  C   UNL A   1      47.167  33.072  26.835  1.00  0.00     0.055 A 
ATOM     87  C   UNL A   1      49.069  32.332  28.092  1.00  0.00     0.041 A 
ATOM     88  F   UNL A   1      49.025  30.307  29.230  1.00  0.00    -0.206 F 
ATOM     89  C   UNL A   1      48.458  33.302  27.316  1.00  0.00     0.022 A 
BRANCH  86  90
ATOM     90  S   UNL A   1      46.393  34.399  25.839  1.00  0.00     0.124 S 
ATOM     91  O   UNL A   1      45.894  35.312  26.860  1.00  0.00    -0.237 OA
ATOM     92  O   UNL A   1      47.507  34.877  25.028  1.00  0.00    -0.237 OA
ATOM     93  O   UNL A   1      45.350  33.699  25.086  1.00  0.00    -0.744 OA
ENDBRANCH  86  90
ENDBRANCH  59  83
BRANCH  71  94
ATOM     94  C   UNL A   1      45.863  26.046  31.817  1.00  0.00     0.023 A 
ATOM     95  C   UNL A   1      44.768  26.677  32.455  1.00  0.00     0.031 A 
ATOM     96  C   UNL A   1      46.971  25.707  32.613  1.00  0.00     0.131 A 
ATOM     97  C   UNL A   1      44.822  26.951  33.838  1.00  0.00     0.055 A 
ATOM     98  C   UNL A   1      47.009  25.953  33.983  1.00  0.00     0.041 A 
ATOM     99  F   UNL A   1      48.037  25.094  32.070  1.00  0.00    -0.206 F 
ATOM    100  C   UNL A   1      45.936  26.582  34.600  1.00  0.00     0.022 A 
BRANCH  97 101
ATOM    101  S   UNL A   1      43.458  27.823  34.679  1.00  0.00     0.124 S 
ATOM    102  O   UNL A   1      43.738  29.230  34.418  1.00  0.00    -0.237 OA
ATOM    103  O   UNL A   1      42.276  27.274  34.020  1.00  0.00    -0.237 OA
ATOM    104  O   UNL A   1      43.611  27.423  36.080  1.00  0.00    -0.744 OA
ENDBRANCH  97 101
ENDBRANCH  71  94
ENDBRANCH  45  46
ENDBRANCH  37  40
ENDBRANCH  35  36
ENDBRANCH   1  35
TORSDOF 17
ENDMDL
