MODEL 1
REMARK VINA RESULT:     -12.4      0.000      0.000
REMARK SMILES CCCCN(c1ccccc1C(=O)NCCCNC(=O)c1ccc(-c2c3nc(c(-c4cc(S(=O)(=O)[O-])ccc4F)c4ccc([nH]4)c(-c4cc(S(=O)(=O)[O-])ccc4F)c4nc(c(-c5cc(S(=O)(=O)[O-])ccc5F)c5ccc2[nH]5)C=C4)C=C3)cc1)S(=O)(=O)c1ccc2c(c1)oc(=O)n2C
REMARK SMILES IDX 15 1 14 2 12 3 13 4 11 6 6 7 7 8 8 9 10 10 9 11 5 12 4 13
REMARK SMILES IDX 3 14 2 15 1 16 84 17 85 18 86 19 87 20 88 21 92 22 89 23
REMARK SMILES IDX 91 24 90 25 93 26 96 27 94 28 97 29 95 30 16 31 17 32 18 33
REMARK SMILES IDX 19 34 20 36 21 37 22 38 83 39 23 40 82 41 24 42 25 43 26 44
REMARK SMILES IDX 76 45 27 46 81 47 75 48 77 49 28 50 80 51 74 52 73 53 29 55
REMARK SMILES IDX 61 56 41 57 60 58 42 59 45 60 59 61 78 62 43 63 44 64 58 66
REMARK SMILES IDX 79 67 46 68 30 69 31 70 39 71 32 72 38 73 40 74 37 75 33 76
REMARK SMILES IDX 34 77 35 78 36 79 62 80 63 81 71 82 64 83 70 84 72 85 69 86
REMARK SMILES IDX 65 87 66 88 67 89 68 90 47 91 48 92 56 93 49 94 55 95 57 96
REMARK SMILES IDX 54 97 50 98 51 99 52 100 53 101
REMARK H PARENT 14 5 18 35 77 54 45 65
REMARK Flexibility Score: inf
ROOT
ATOM      1  C   UNL A   1      32.389  27.380  26.639  1.00  0.00     0.118 C 
ENDROOT
BRANCH   1   2
ATOM      2  N   UNL A   1      31.568  26.237  26.750  1.00  0.00    -0.352 N 
ATOM      3  C   UNL A   1      31.971  24.937  26.571  1.00  0.00     0.253 C 
ATOM      4  O   UNL A   1      31.273  24.120  27.191  1.00  0.00    -0.269 OA
ATOM      5  H   UNL A   1      30.622  26.385  26.978  1.00  0.00     0.163 HD
BRANCH   3   6
ATOM      6  C   UNL A   1      33.095  24.387  25.685  1.00  0.00     0.064 A 
ATOM      7  C   UNL A   1      33.552  24.559  24.338  1.00  0.00     0.065 A 
ATOM      8  C   UNL A   1      34.822  24.022  23.989  1.00  0.00     0.028 A 
ATOM      9  C   UNL A   1      35.578  23.224  24.843  1.00  0.00     0.002 A 
ATOM     10  C   UNL A   1      33.898  23.538  26.510  1.00  0.00     0.016 A 
ATOM     11  C   UNL A   1      35.095  22.951  26.103  1.00  0.00     0.001 A 
BRANCH   7  12
ATOM     12  N   UNL A   1      32.869  25.007  23.110  1.00  0.00    -0.266 N 
BRANCH  12  13
ATOM     13  C   UNL A   1      32.579  24.027  22.014  1.00  0.00     0.136 C 
BRANCH  13  14
ATOM     14  C   UNL A   1      32.925  22.563  22.287  1.00  0.00     0.022 C 
BRANCH  14  15
ATOM     15  C   UNL A   1      31.897  21.738  23.077  1.00  0.00    -0.002 C 
ATOM     16  C   UNL A   1      32.457  20.637  23.979  1.00  0.00     0.004 C 
ENDBRANCH  14  15
ENDBRANCH  13  14
ENDBRANCH  12  13
BRANCH  12  17
ATOM     17  S   UNL A   1      33.307  26.640  22.657  1.00  0.00     0.264 S 
ATOM     18  O   UNL A   1      34.220  27.173  23.649  1.00  0.00    -0.201 OA
ATOM     19  O   UNL A   1      33.651  26.674  21.256  1.00  0.00    -0.201 OA
BRANCH  17  20
ATOM     20  C   UNL A   1      31.801  27.585  22.817  1.00  0.00     0.091 A 
ATOM     21  C   UNL A   1      31.802  28.945  22.424  1.00  0.00     0.025 A 
ATOM     22  C   UNL A   1      30.618  26.939  23.195  1.00  0.00     0.071 A 
ATOM     23  C   UNL A   1      30.620  29.689  22.433  1.00  0.00     0.032 A 
ATOM     24  C   UNL A   1      29.468  27.700  23.189  1.00  0.00     0.157 A 
ATOM     25  C   UNL A   1      29.471  29.033  22.817  1.00  0.00     0.090 A 
ATOM     26  O   UNL A   1      28.202  27.242  23.519  1.00  0.00    -0.408 OA
ATOM     27  N   UNL A   1      28.167  29.453  22.912  1.00  0.00    -0.277 N 
ATOM     28  C   UNL A   1      27.402  28.377  23.318  1.00  0.00     0.419 A 
ATOM     29  C   UNL A   1      27.654  30.745  22.565  1.00  0.00     0.157 C 
ATOM     30  O   UNL A   1      26.192  28.385  23.498  1.00  0.00    -0.223 OA
ENDBRANCH  17  20
ENDBRANCH  12  17
ENDBRANCH   7  12
ENDBRANCH   3   6
ENDBRANCH   1   2
BRANCH   1  31
ATOM     31  C   UNL A   1      31.779  28.752  26.731  1.00  0.00     0.042 C 
BRANCH  31  32
ATOM     32  C   UNL A   1      32.565  29.830  26.008  1.00  0.00     0.118 C 
BRANCH  32  33
ATOM     33  N   UNL A   1      32.467  31.180  26.581  1.00  0.00    -0.352 N 
ATOM     34  C   UNL A   1      33.327  31.918  27.367  1.00  0.00     0.251 C 
ATOM     35  H   UNL A   1      31.628  31.645  26.361  1.00  0.00     0.163 HD
ATOM     36  O   UNL A   1      32.988  33.046  27.720  1.00  0.00    -0.269 OA
BRANCH  34  37
ATOM     37  C   UNL A   1      34.614  31.351  27.822  1.00  0.00     0.039 A 
ATOM     38  C   UNL A   1      35.723  32.186  28.004  1.00  0.00     0.014 A 
ATOM     39  C   UNL A   1      34.720  29.998  28.116  1.00  0.00     0.014 A 
ATOM     40  C   UNL A   1      36.882  31.680  28.603  1.00  0.00     0.010 A 
ATOM     41  C   UNL A   1      35.798  29.540  28.856  1.00  0.00     0.010 A 
ATOM     42  C   UNL A   1      36.904  30.367  29.097  1.00  0.00    -0.014 A 
BRANCH  42  43
ATOM     43  C   UNL A   1      38.062  29.783  29.827  1.00  0.00     0.031 A 
ATOM     44  C   UNL A   1      38.342  30.249  31.236  1.00  0.00     0.074 A 
ATOM     45  C   UNL A   1      38.926  28.959  29.203  1.00  0.00     0.049 A 
ATOM     46  N   UNL A   1      39.412  30.088  31.969  1.00  0.00    -0.248 NA
ATOM     47  C   UNL A   1      37.294  31.061  31.877  1.00  0.00     0.031 C 
ATOM     48  C   UNL A   1      38.791  28.463  27.831  1.00  0.00     0.029 A 
ATOM     49  N   UNL A   1      40.109  28.409  29.634  1.00  0.00    -0.354 N 
ATOM     50  C   UNL A   1      39.186  30.821  33.131  1.00  0.00     0.074 A 
ATOM     51  C   UNL A   1      37.912  31.485  32.967  1.00  0.00     0.031 C 
ATOM     52  C   UNL A   1      39.834  27.667  27.544  1.00  0.00     0.029 A 
ATOM     53  C   UNL A   1      40.749  27.649  28.681  1.00  0.00     0.049 A 
ATOM     54  H   UNL A   1      40.467  28.548  30.541  1.00  0.00     0.167 HD
ATOM     55  C   UNL A   1      39.955  30.908  34.243  1.00  0.00     0.034 A 
ATOM     56  C   UNL A   1      41.947  27.031  28.711  1.00  0.00     0.034 A 
ATOM     57  C   UNL A   1      41.198  30.197  34.404  1.00  0.00     0.049 A 
ATOM     58  C   UNL A   1      42.792  27.145  29.958  1.00  0.00     0.074 A 
ATOM     59  C   UNL A   1      42.022  30.147  35.513  1.00  0.00     0.029 A 
ATOM     60  N   UNL A   1      41.793  29.408  33.428  1.00  0.00    -0.354 N 
ATOM     61  N   UNL A   1      42.549  27.811  31.064  1.00  0.00    -0.248 NA
ATOM     62  C   UNL A   1      44.071  26.423  29.962  1.00  0.00     0.031 C 
ATOM     63  C   UNL A   1      43.149  29.388  35.185  1.00  0.00     0.029 A 
ATOM     64  C   UNL A   1      42.988  28.891  33.900  1.00  0.00     0.049 A 
ATOM     65  H   UNL A   1      41.420  29.240  32.532  1.00  0.00     0.167 HD
ATOM     66  C   UNL A   1      43.626  27.554  31.907  1.00  0.00     0.074 A 
ATOM     67  C   UNL A   1      44.515  26.667  31.186  1.00  0.00     0.031 C 
ATOM     68  C   UNL A   1      43.860  28.005  33.166  1.00  0.00     0.034 A 
BRANCH  55  69
ATOM     69  C   UNL A   1      39.478  31.813  35.354  1.00  0.00     0.023 A 
ATOM     70  C   UNL A   1      39.918  33.144  35.467  1.00  0.00     0.031 A 
ATOM     71  C   UNL A   1      38.594  31.331  36.336  1.00  0.00     0.131 A 
ATOM     72  C   UNL A   1      39.547  33.914  36.578  1.00  0.00     0.055 A 
ATOM     73  C   UNL A   1      38.153  32.134  37.390  1.00  0.00     0.041 A 
ATOM     74  F   UNL A   1      38.154  30.063  36.297  1.00  0.00    -0.206 F 
ATOM     75  C   UNL A   1      38.644  33.429  37.526  1.00  0.00     0.022 A 
BRANCH  72  76
ATOM     76  S   UNL A   1      40.387  35.498  36.851  1.00  0.00     0.124 S 
ATOM     77  O   UNL A   1      40.226  35.672  38.293  1.00  0.00    -0.237 OA
ATOM     78  O   UNL A   1      41.742  35.221  36.388  1.00  0.00    -0.237 OA
ATOM     79  O   UNL A   1      39.625  36.436  36.028  1.00  0.00    -0.744 OA
ENDBRANCH  72  76
ENDBRANCH  55  69
BRANCH  56  80
ATOM     80  C   UNL A   1      42.438  26.261  27.529  1.00  0.00     0.023 A 
ATOM     81  C   UNL A   1      42.261  24.871  27.451  1.00  0.00     0.031 A 
ATOM     82  C   UNL A   1      43.135  26.894  26.484  1.00  0.00     0.131 A 
ATOM     83  C   UNL A   1      42.820  24.150  26.384  1.00  0.00     0.055 A 
ATOM     84  C   UNL A   1      43.635  26.181  25.393  1.00  0.00     0.041 A 
ATOM     85  F   UNL A   1      43.334  28.222  26.506  1.00  0.00    -0.206 F 
ATOM     86  C   UNL A   1      43.492  24.798  25.346  1.00  0.00     0.022 A 
BRANCH  83  87
ATOM     87  S   UNL A   1      42.743  22.338  26.426  1.00  0.00     0.124 S 
ATOM     88  O   UNL A   1      41.776  22.059  25.371  1.00  0.00    -0.237 OA
ATOM     89  O   UNL A   1      44.126  21.969  26.143  1.00  0.00    -0.237 OA
ATOM     90  O   UNL A   1      42.287  22.049  27.783  1.00  0.00    -0.744 OA
ENDBRANCH  83  87
ENDBRANCH  56  80
BRANCH  68  91
ATOM     91  C   UNL A   1      45.096  27.495  33.867  1.00  0.00     0.023 A 
ATOM     92  C   UNL A   1      45.095  26.296  34.599  1.00  0.00     0.031 A 
ATOM     93  C   UNL A   1      46.298  28.219  33.782  1.00  0.00     0.131 A 
ATOM     94  C   UNL A   1      46.262  25.881  35.258  1.00  0.00     0.055 A 
ATOM     95  C   UNL A   1      47.472  27.769  34.387  1.00  0.00     0.041 A 
ATOM     96  F   UNL A   1      46.355  29.373  33.098  1.00  0.00    -0.206 F 
ATOM     97  C   UNL A   1      47.455  26.598  35.139  1.00  0.00     0.022 A 
BRANCH  94  98
ATOM     98  S   UNL A   1      46.182  24.428  36.341  1.00  0.00     0.124 S 
ATOM     99  O   UNL A   1      44.889  23.855  35.984  1.00  0.00    -0.237 OA
ATOM    100  O   UNL A   1      47.354  23.664  35.926  1.00  0.00    -0.237 OA
ATOM    101  O   UNL A   1      46.260  24.998  37.685  1.00  0.00    -0.744 OA
ENDBRANCH  94  98
ENDBRANCH  68  91
ENDBRANCH  42  43
ENDBRANCH  34  37
ENDBRANCH  32  33
ENDBRANCH  31  32
ENDBRANCH   1  31
TORSDOF 19
ENDMDL
MODEL 2
REMARK VINA RESULT:     -12.0      4.619      9.561
REMARK SMILES CCCCN(c1ccccc1C(=O)NCCCNC(=O)c1ccc(-c2c3nc(c(-c4cc(S(=O)(=O)[O-])ccc4F)c4ccc([nH]4)c(-c4cc(S(=O)(=O)[O-])ccc4F)c4nc(c(-c5cc(S(=O)(=O)[O-])ccc5F)c5ccc2[nH]5)C=C4)C=C3)cc1)S(=O)(=O)c1ccc2c(c1)oc(=O)n2C
REMARK SMILES IDX 15 1 14 2 12 3 13 4 11 6 6 7 7 8 8 9 10 10 9 11 5 12 4 13
REMARK SMILES IDX 3 14 2 15 1 16 84 17 85 18 86 19 87 20 88 21 92 22 89 23
REMARK SMILES IDX 91 24 90 25 93 26 96 27 94 28 97 29 95 30 16 31 17 32 18 33
REMARK SMILES IDX 19 34 20 36 21 37 22 38 83 39 23 40 82 41 24 42 25 43 26 44
REMARK SMILES IDX 76 45 27 46 81 47 75 48 77 49 28 50 80 51 74 52 73 53 29 55
REMARK SMILES IDX 61 56 41 57 60 58 42 59 45 60 59 61 78 62 43 63 44 64 58 66
REMARK SMILES IDX 79 67 46 68 30 69 31 70 39 71 32 72 38 73 40 74 37 75 33 76
REMARK SMILES IDX 34 77 35 78 36 79 62 80 63 81 71 82 64 83 70 84 72 85 69 86
REMARK SMILES IDX 65 87 66 88 67 89 68 90 47 91 48 92 56 93 49 94 55 95 57 96
REMARK SMILES IDX 54 97 50 98 51 99 52 100 53 101
REMARK H PARENT 14 5 18 35 77 54 45 65
REMARK Flexibility Score: inf
ROOT
ATOM      1  C   UNL A   1      35.402  23.109  26.523  1.00  0.00     0.118 C 
ENDROOT
BRANCH   1   2
ATOM      2  N   UNL A   1      34.121  23.303  27.086  1.00  0.00    -0.352 N 
ATOM      3  C   UNL A   1      32.936  22.849  26.562  1.00  0.00     0.253 C 
ATOM      4  O   UNL A   1      32.057  22.679  27.420  1.00  0.00    -0.269 OA
ATOM      5  H   UNL A   1      34.074  23.807  27.930  1.00  0.00     0.163 HD
BRANCH   3   6
ATOM      6  C   UNL A   1      32.561  22.594  25.098  1.00  0.00     0.064 A 
ATOM      7  C   UNL A   1      32.397  23.369  23.904  1.00  0.00     0.065 A 
ATOM      8  C   UNL A   1      32.277  22.677  22.668  1.00  0.00     0.028 A 
ATOM      9  C   UNL A   1      32.174  21.292  22.572  1.00  0.00     0.002 A 
ATOM     10  C   UNL A   1      32.421  21.179  24.943  1.00  0.00     0.016 A 
ATOM     11  C   UNL A   1      32.211  20.539  23.723  1.00  0.00     0.001 A 
BRANCH   7  12
ATOM     12  N   UNL A   1      32.093  24.796  23.683  1.00  0.00    -0.266 N 
BRANCH  12  13
ATOM     13  C   UNL A   1      30.872  25.191  22.909  1.00  0.00     0.136 C 
BRANCH  13  14
ATOM     14  C   UNL A   1      29.598  25.451  23.714  1.00  0.00     0.022 C 
BRANCH  14  15
ATOM     15  C   UNL A   1      29.765  26.108  25.093  1.00  0.00    -0.002 C 
ATOM     16  C   UNL A   1      29.941  25.162  26.282  1.00  0.00     0.004 C 
ENDBRANCH  14  15
ENDBRANCH  13  14
ENDBRANCH  12  13
BRANCH  12  17
ATOM     17  S   UNL A   1      33.536  25.767  23.491  1.00  0.00     0.264 S 
ATOM     18  O   UNL A   1      34.676  25.018  23.985  1.00  0.00    -0.201 OA
ATOM     19  O   UNL A   1      33.559  26.337  22.166  1.00  0.00    -0.201 OA
BRANCH  17  20
ATOM     20  C   UNL A   1      33.326  27.138  24.614  1.00  0.00     0.091 A 
ATOM     21  C   UNL A   1      34.285  27.341  25.635  1.00  0.00     0.025 A 
ATOM     22  C   UNL A   1      32.301  28.065  24.386  1.00  0.00     0.071 A 
ATOM     23  C   UNL A   1      34.215  28.462  26.465  1.00  0.00     0.032 A 
ATOM     24  C   UNL A   1      32.262  29.163  25.220  1.00  0.00     0.157 A 
ATOM     25  C   UNL A   1      33.193  29.354  26.226  1.00  0.00     0.090 A 
ATOM     26  O   UNL A   1      31.336  30.192  25.148  1.00  0.00    -0.408 OA
ATOM     27  N   UNL A   1      32.858  30.542  26.828  1.00  0.00    -0.277 N 
ATOM     28  C   UNL A   1      31.754  31.054  26.173  1.00  0.00     0.419 A 
ATOM     29  C   UNL A   1      33.568  31.200  27.884  1.00  0.00     0.157 C 
ATOM     30  O   UNL A   1      31.189  32.106  26.437  1.00  0.00    -0.223 OA
ENDBRANCH  17  20
ENDBRANCH  12  17
ENDBRANCH   7  12
ENDBRANCH   3   6
ENDBRANCH   1   2
BRANCH   1  31
ATOM     31  C   UNL A   1      35.782  21.761  25.976  1.00  0.00     0.042 C 
BRANCH  31  32
ATOM     32  C   UNL A   1      36.992  21.783  25.059  1.00  0.00     0.118 C 
BRANCH  32  33
ATOM     33  N   UNL A   1      38.063  20.837  25.398  1.00  0.00    -0.352 N 
ATOM     34  C   UNL A   1      39.259  20.992  26.069  1.00  0.00     0.251 C 
ATOM     35  H   UNL A   1      37.896  19.918  25.088  1.00  0.00     0.163 HD
ATOM     36  O   UNL A   1      39.990  20.015  26.212  1.00  0.00    -0.269 OA
BRANCH  34  37
ATOM     37  C   UNL A   1      39.683  22.318  26.565  1.00  0.00     0.039 A 
ATOM     38  C   UNL A   1      40.822  22.434  27.371  1.00  0.00     0.014 A 
ATOM     39  C   UNL A   1      38.985  23.462  26.199  1.00  0.00     0.014 A 
ATOM     40  C   UNL A   1      41.321  23.702  27.690  1.00  0.00     0.010 A 
ATOM     41  C   UNL A   1      39.568  24.706  26.372  1.00  0.00     0.010 A 
ATOM     42  C   UNL A   1      40.736  24.850  27.134  1.00  0.00    -0.014 A 
BRANCH  42  43
ATOM     43  C   UNL A   1      41.261  26.225  27.348  1.00  0.00     0.031 A 
ATOM     44  C   UNL A   1      42.622  26.578  26.795  1.00  0.00     0.074 A 
ATOM     45  C   UNL A   1      40.603  27.100  28.134  1.00  0.00     0.049 A 
ATOM     46  N   UNL A   1      43.390  27.600  27.064  1.00  0.00    -0.248 NA
ATOM     47  C   UNL A   1      43.220  25.608  25.863  1.00  0.00     0.031 C 
ATOM     48  C   UNL A   1      39.299  26.869  28.761  1.00  0.00     0.029 A 
ATOM     49  N   UNL A   1      40.954  28.357  28.565  1.00  0.00    -0.354 N 
ATOM     50  C   UNL A   1      44.577  27.369  26.375  1.00  0.00     0.074 A 
ATOM     51  C   UNL A   1      44.452  26.075  25.743  1.00  0.00     0.031 C 
ATOM     52  C   UNL A   1      38.952  27.954  29.472  1.00  0.00     0.029 A 
ATOM     53  C   UNL A   1      40.035  28.931  29.413  1.00  0.00     0.049 A 
ATOM     54  H   UNL A   1      41.788  28.804  28.292  1.00  0.00     0.167 HD
ATOM     55  C   UNL A   1      45.661  28.175  26.256  1.00  0.00     0.034 A 
ATOM     56  C   UNL A   1      40.073  30.099  30.087  1.00  0.00     0.034 A 
ATOM     57  C   UNL A   1      45.744  29.483  26.854  1.00  0.00     0.049 A 
ATOM     58  C   UNL A   1      41.292  30.979  29.947  1.00  0.00     0.074 A 
ATOM     59  C   UNL A   1      46.756  30.419  26.739  1.00  0.00     0.029 A 
ATOM     60  N   UNL A   1      44.775  30.043  27.677  1.00  0.00    -0.354 N 
ATOM     61  N   UNL A   1      42.392  30.765  29.262  1.00  0.00    -0.248 NA
ATOM     62  C   UNL A   1      41.273  32.259  30.666  1.00  0.00     0.031 C 
ATOM     63  C   UNL A   1      46.433  31.512  27.547  1.00  0.00     0.029 A 
ATOM     64  C   UNL A   1      45.180  31.298  28.099  1.00  0.00     0.049 A 
ATOM     65  H   UNL A   1      43.925  29.611  27.923  1.00  0.00     0.167 HD
ATOM     66  C   UNL A   1      43.177  31.902  29.439  1.00  0.00     0.074 A 
ATOM     67  C   UNL A   1      42.421  32.800  30.286  1.00  0.00     0.031 C 
ATOM     68  C   UNL A   1      44.409  32.182  28.942  1.00  0.00     0.034 A 
BRANCH  55  69
ATOM     69  C   UNL A   1      46.837  27.652  25.467  1.00  0.00     0.023 A 
ATOM     70  C   UNL A   1      47.093  28.075  24.150  1.00  0.00     0.031 A 
ATOM     71  C   UNL A   1      47.699  26.691  26.024  1.00  0.00     0.131 A 
ATOM     72  C   UNL A   1      48.123  27.477  23.408  1.00  0.00     0.055 A 
ATOM     73  C   UNL A   1      48.781  26.169  25.313  1.00  0.00     0.041 A 
ATOM     74  F   UNL A   1      47.496  26.229  27.269  1.00  0.00    -0.206 F 
ATOM     75  C   UNL A   1      48.987  26.548  23.990  1.00  0.00     0.022 A 
BRANCH  72  76
ATOM     76  S   UNL A   1      48.213  27.814  21.629  1.00  0.00     0.124 S 
ATOM     77  O   UNL A   1      49.262  28.831  21.575  1.00  0.00    -0.237 OA
ATOM     78  O   UNL A   1      48.559  26.510  21.078  1.00  0.00    -0.237 OA
ATOM     79  O   UNL A   1      46.873  28.295  21.302  1.00  0.00    -0.744 OA
ENDBRANCH  72  76
ENDBRANCH  55  69
BRANCH  56  80
ATOM     80  C   UNL A   1      38.940  30.506  30.970  1.00  0.00     0.023 A 
ATOM     81  C   UNL A   1      37.931  31.362  30.498  1.00  0.00     0.031 A 
ATOM     82  C   UNL A   1      38.872  30.089  32.312  1.00  0.00     0.131 A 
ATOM     83  C   UNL A   1      36.931  31.818  31.371  1.00  0.00     0.055 A 
ATOM     84  C   UNL A   1      37.840  30.496  33.160  1.00  0.00     0.041 A 
ATOM     85  F   UNL A   1      39.809  29.271  32.817  1.00  0.00    -0.206 F 
ATOM     86  C   UNL A   1      36.869  31.378  32.695  1.00  0.00     0.022 A 
BRANCH  83  87
ATOM     87  S   UNL A   1      35.768  33.077  30.777  1.00  0.00     0.124 S 
ATOM     88  O   UNL A   1      36.113  33.154  29.362  1.00  0.00    -0.237 OA
ATOM     89  O   UNL A   1      34.478  32.473  31.092  1.00  0.00    -0.237 OA
ATOM     90  O   UNL A   1      36.112  34.257  31.568  1.00  0.00    -0.744 OA
ENDBRANCH  83  87
ENDBRANCH  56  80
BRANCH  68  91
ATOM     91  C   UNL A   1      44.989  33.541  29.252  1.00  0.00     0.023 A 
ATOM     92  C   UNL A   1      44.773  34.649  28.417  1.00  0.00     0.031 A 
ATOM     93  C   UNL A   1      45.757  33.726  30.415  1.00  0.00     0.131 A 
ATOM     94  C   UNL A   1      45.359  35.885  28.734  1.00  0.00     0.055 A 
ATOM     95  C   UNL A   1      46.284  34.971  30.758  1.00  0.00     0.041 A 
ATOM     96  F   UNL A   1      45.997  32.700  31.247  1.00  0.00    -0.206 F 
ATOM     97  C   UNL A   1      46.095  36.057  29.908  1.00  0.00     0.022 A 
BRANCH  94  98
ATOM     98  S   UNL A   1      45.213  37.248  27.547  1.00  0.00     0.124 S 
ATOM     99  O   UNL A   1      43.842  37.092  27.071  1.00  0.00    -0.237 OA
ATOM    100  O   UNL A   1      45.468  38.418  28.381  1.00  0.00    -0.237 OA
ATOM    101  O   UNL A   1      46.251  36.956  26.559  1.00  0.00    -0.744 OA
ENDBRANCH  94  98
ENDBRANCH  68  91
ENDBRANCH  42  43
ENDBRANCH  34  37
ENDBRANCH  32  33
ENDBRANCH  31  32
ENDBRANCH   1  31
TORSDOF 19
ENDMDL
MODEL 3
REMARK VINA RESULT:     -11.9      2.076      4.372
REMARK SMILES CCCCN(c1ccccc1C(=O)NCCCNC(=O)c1ccc(-c2c3nc(c(-c4cc(S(=O)(=O)[O-])ccc4F)c4ccc([nH]4)c(-c4cc(S(=O)(=O)[O-])ccc4F)c4nc(c(-c5cc(S(=O)(=O)[O-])ccc5F)c5ccc2[nH]5)C=C4)C=C3)cc1)S(=O)(=O)c1ccc2c(c1)oc(=O)n2C
REMARK SMILES IDX 15 1 14 2 12 3 13 4 11 6 6 7 7 8 8 9 10 10 9 11 5 12 4 13
REMARK SMILES IDX 3 14 2 15 1 16 84 17 85 18 86 19 87 20 88 21 92 22 89 23
REMARK SMILES IDX 91 24 90 25 93 26 96 27 94 28 97 29 95 30 16 31 17 32 18 33
REMARK SMILES IDX 19 34 20 36 21 37 22 38 83 39 23 40 82 41 24 42 25 43 26 44
REMARK SMILES IDX 76 45 27 46 81 47 75 48 77 49 28 50 80 51 74 52 73 53 29 55
REMARK SMILES IDX 61 56 41 57 60 58 42 59 45 60 59 61 78 62 43 63 44 64 58 66
REMARK SMILES IDX 79 67 46 68 30 69 31 70 39 71 32 72 38 73 40 74 37 75 33 76
REMARK SMILES IDX 34 77 35 78 36 79 62 80 63 81 71 82 64 83 70 84 72 85 69 86
REMARK SMILES IDX 65 87 66 88 67 89 68 90 47 91 48 92 56 93 49 94 55 95 57 96
REMARK SMILES IDX 54 97 50 98 51 99 52 100 53 101
REMARK H PARENT 14 5 18 35 77 54 45 65
REMARK Flexibility Score: inf
ROOT
ATOM      1  C   UNL A   1      30.723  30.817  25.185  1.00  0.00     0.118 C 
ENDROOT
BRANCH   1   2
ATOM      2  N   UNL A   1      31.805  30.163  24.556  1.00  0.00    -0.352 N 
ATOM      3  C   UNL A   1      31.726  29.010  23.815  1.00  0.00     0.253 C 
ATOM      4  O   UNL A   1      32.632  28.908  22.975  1.00  0.00    -0.269 OA
ATOM      5  H   UNL A   1      32.695  30.571  24.657  1.00  0.00     0.163 HD
BRANCH   3   6
ATOM      6  C   UNL A   1      30.731  27.850  23.935  1.00  0.00     0.064 A 
ATOM      7  C   UNL A   1      30.699  26.550  24.537  1.00  0.00     0.065 A 
ATOM      8  C   UNL A   1      29.447  25.880  24.618  1.00  0.00     0.028 A 
ATOM      9  C   UNL A   1      28.282  26.359  24.023  1.00  0.00     0.002 A 
ATOM     10  C   UNL A   1      29.514  28.279  23.318  1.00  0.00     0.016 A 
ATOM     11  C   UNL A   1      28.324  27.552  23.337  1.00  0.00     0.001 A 
BRANCH   7  12
ATOM     12  N   UNL A   1      31.768  25.609  24.921  1.00  0.00    -0.266 N 
BRANCH  12  13
ATOM     13  C   UNL A   1      32.501  25.796  26.215  1.00  0.00     0.136 C 
BRANCH  13  14
ATOM     14  C   UNL A   1      33.485  26.963  26.290  1.00  0.00     0.022 C 
BRANCH  14  15
ATOM     15  C   UNL A   1      33.049  28.196  27.097  1.00  0.00    -0.002 C 
ATOM     16  C   UNL A   1      31.656  28.140  27.726  1.00  0.00     0.004 C 
ENDBRANCH  14  15
ENDBRANCH  13  14
ENDBRANCH  12  13
BRANCH  12  17
ATOM     17  S   UNL A   1      32.673  25.023  23.542  1.00  0.00     0.264 S 
ATOM     18  O   UNL A   1      32.020  25.471  22.327  1.00  0.00    -0.201 OA
ATOM     19  O   UNL A   1      34.079  25.272  23.749  1.00  0.00    -0.201 OA
BRANCH  17  20
ATOM     20  C   UNL A   1      32.477  23.249  23.579  1.00  0.00     0.091 A 
ATOM     21  C   UNL A   1      32.249  22.560  22.364  1.00  0.00     0.025 A 
ATOM     22  C   UNL A   1      32.687  22.557  24.778  1.00  0.00     0.071 A 
ATOM     23  C   UNL A   1      32.197  21.165  22.336  1.00  0.00     0.032 A 
ATOM     24  C   UNL A   1      32.634  21.181  24.716  1.00  0.00     0.157 A 
ATOM     25  C   UNL A   1      32.398  20.508  23.530  1.00  0.00     0.090 A 
ATOM     26  O   UNL A   1      32.826  20.321  25.787  1.00  0.00    -0.408 OA
ATOM     27  N   UNL A   1      32.435  19.171  23.842  1.00  0.00    -0.277 N 
ATOM     28  C   UNL A   1      32.706  19.056  25.192  1.00  0.00     0.419 A 
ATOM     29  C   UNL A   1      32.312  18.072  22.930  1.00  0.00     0.157 C 
ATOM     30  O   UNL A   1      32.820  18.009  25.814  1.00  0.00    -0.223 OA
ENDBRANCH  17  20
ENDBRANCH  12  17
ENDBRANCH   7  12
ENDBRANCH   3   6
ENDBRANCH   1   2
BRANCH   1  31
ATOM     31  C   UNL A   1      30.962  31.637  26.423  1.00  0.00     0.042 C 
BRANCH  31  32
ATOM     32  C   UNL A   1      32.389  32.130  26.575  1.00  0.00     0.118 C 
BRANCH  32  33
ATOM     33  N   UNL A   1      32.546  33.423  27.254  1.00  0.00    -0.352 N 
ATOM     34  C   UNL A   1      33.540  33.929  28.066  1.00  0.00     0.251 C 
ATOM     35  H   UNL A   1      31.800  34.046  27.101  1.00  0.00     0.163 HD
ATOM     36  O   UNL A   1      33.416  35.065  28.518  1.00  0.00    -0.269 OA
BRANCH  34  37
ATOM     37  C   UNL A   1      34.713  33.106  28.430  1.00  0.00     0.039 A 
ATOM     38  C   UNL A   1      35.989  33.681  28.463  1.00  0.00     0.014 A 
ATOM     39  C   UNL A   1      34.554  31.773  28.785  1.00  0.00     0.014 A 
ATOM     40  C   UNL A   1      37.067  32.951  28.978  1.00  0.00     0.010 A 
ATOM     41  C   UNL A   1      35.577  31.112  29.445  1.00  0.00     0.010 A 
ATOM     42  C   UNL A   1      36.855  31.682  29.538  1.00  0.00    -0.014 A 
BRANCH  42  43
ATOM     43  C   UNL A   1      37.927  30.881  30.188  1.00  0.00     0.031 A 
ATOM     44  C   UNL A   1      38.240  31.132  31.644  1.00  0.00     0.074 A 
ATOM     45  C   UNL A   1      38.697  30.046  29.464  1.00  0.00     0.049 A 
ATOM     46  N   UNL A   1      39.275  30.758  32.349  1.00  0.00    -0.248 NA
ATOM     47  C   UNL A   1      37.285  31.975  32.382  1.00  0.00     0.031 C 
ATOM     48  C   UNL A   1      38.524  29.744  28.041  1.00  0.00     0.029 A 
ATOM     49  N   UNL A   1      39.803  29.312  29.821  1.00  0.00    -0.354 N 
ATOM     50  C   UNL A   1      39.119  31.361  33.593  1.00  0.00     0.074 A 
ATOM     51  C   UNL A   1      37.933  32.185  33.516  1.00  0.00     0.031 C 
ATOM     52  C   UNL A   1      39.472  28.873  27.655  1.00  0.00     0.029 A 
ATOM     53  C   UNL A   1      40.363  28.607  28.780  1.00  0.00     0.049 A 
ATOM     54  H   UNL A   1      40.163  29.295  30.738  1.00  0.00     0.167 HD
ATOM     55  C   UNL A   1      39.878  31.219  34.707  1.00  0.00     0.034 A 
ATOM     56  C   UNL A   1      41.481  27.854  28.731  1.00  0.00     0.034 A 
ATOM     57  C   UNL A   1      41.028  30.354  34.777  1.00  0.00     0.049 A 
ATOM     58  C   UNL A   1      42.317  27.713  29.981  1.00  0.00     0.074 A 
ATOM     59  C   UNL A   1      41.826  30.070  35.870  1.00  0.00     0.029 A 
ATOM     60  N   UNL A   1      41.540  29.627  33.708  1.00  0.00    -0.354 N 
ATOM     61  N   UNL A   1      42.138  28.260  31.162  1.00  0.00    -0.248 NA
ATOM     62  C   UNL A   1      43.503  26.852  29.894  1.00  0.00     0.031 C 
ATOM     63  C   UNL A   1      42.861  29.231  35.448  1.00  0.00     0.029 A 
ATOM     64  C   UNL A   1      42.661  28.920  34.111  1.00  0.00     0.049 A 
ATOM     65  H   UNL A   1      41.162  29.617  32.799  1.00  0.00     0.167 HD
ATOM     66  C   UNL A   1      43.167  27.776  31.965  1.00  0.00     0.074 A 
ATOM     67  C   UNL A   1      43.956  26.888  31.138  1.00  0.00     0.031 C 
ATOM     68  C   UNL A   1      43.434  28.036  33.271  1.00  0.00     0.034 A 
BRANCH  55  69
ATOM     69  C   UNL A   1      39.494  32.028  35.923  1.00  0.00     0.023 A 
ATOM     70  C   UNL A   1      38.711  31.486  36.957  1.00  0.00     0.031 A 
ATOM     71  C   UNL A   1      39.888  33.373  36.037  1.00  0.00     0.131 A 
ATOM     72  C   UNL A   1      38.274  32.304  38.010  1.00  0.00     0.055 A 
ATOM     73  C   UNL A   1      39.529  34.157  37.135  1.00  0.00     0.041 A 
ATOM     74  F   UNL A   1      40.618  33.957  35.072  1.00  0.00    -0.206 F 
ATOM     75  C   UNL A   1      38.702  33.628  38.122  1.00  0.00     0.022 A 
BRANCH  72  76
ATOM     76  S   UNL A   1      37.013  31.657  39.140  1.00  0.00     0.124 S 
ATOM     77  O   UNL A   1      37.716  31.699  40.421  1.00  0.00    -0.237 OA
ATOM     78  O   UNL A   1      35.924  32.613  38.978  1.00  0.00    -0.237 OA
ATOM     79  O   UNL A   1      36.748  30.315  38.627  1.00  0.00    -0.744 OA
ENDBRANCH  72  76
ENDBRANCH  55  69
BRANCH  56  80
ATOM     80  C   UNL A   1      41.895  27.186  27.462  1.00  0.00     0.023 A 
ATOM     81  C   UNL A   1      41.816  25.791  27.323  1.00  0.00     0.031 A 
ATOM     82  C   UNL A   1      42.423  27.923  26.387  1.00  0.00     0.131 A 
ATOM     83  C   UNL A   1      42.306  25.171  26.163  1.00  0.00     0.055 A 
ATOM     84  C   UNL A   1      42.852  27.307  25.209  1.00  0.00     0.041 A 
ATOM     85  F   UNL A   1      42.523  29.260  26.463  1.00  0.00    -0.206 F 
ATOM     86  C   UNL A   1      42.809  25.921  25.098  1.00  0.00     0.022 A 
BRANCH  83  87
ATOM     87  S   UNL A   1      42.371  23.359  26.109  1.00  0.00     0.124 S 
ATOM     88  O   UNL A   1      42.937  23.123  24.786  1.00  0.00    -0.237 OA
ATOM     89  O   UNL A   1      43.237  23.051  27.242  1.00  0.00    -0.237 OA
ATOM     90  O   UNL A   1      40.974  22.964  26.269  1.00  0.00    -0.744 OA
ENDBRANCH  83  87
ENDBRANCH  56  80
BRANCH  68  91
ATOM     91  C   UNL A   1      44.593  27.302  33.901  1.00  0.00     0.023 A 
ATOM     92  C   UNL A   1      44.483  25.970  34.333  1.00  0.00     0.031 A 
ATOM     93  C   UNL A   1      45.832  27.949  34.053  1.00  0.00     0.131 A 
ATOM     94  C   UNL A   1      45.582  25.342  34.940  1.00  0.00     0.055 A 
ATOM     95  C   UNL A   1      46.939  27.299  34.600  1.00  0.00     0.041 A 
ATOM     96  F   UNL A   1      45.992  29.223  33.659  1.00  0.00    -0.206 F 
ATOM     97  C   UNL A   1      46.813  25.991  35.057  1.00  0.00     0.022 A 
BRANCH  94  98
ATOM     98  S   UNL A   1      45.357  23.689  35.650  1.00  0.00     0.124 S 
ATOM     99  O   UNL A   1      46.181  23.760  36.853  1.00  0.00    -0.237 OA
ATOM    100  O   UNL A   1      43.916  23.634  35.868  1.00  0.00    -0.237 OA
ATOM    101  O   UNL A   1      45.859  22.796  34.606  1.00  0.00    -0.744 OA
ENDBRANCH  94  98
ENDBRANCH  68  91
ENDBRANCH  42  43
ENDBRANCH  34  37
ENDBRANCH  32  33
ENDBRANCH  31  32
ENDBRANCH   1  31
TORSDOF 19
ENDMDL
