MODEL 1
REMARK VINA RESULT:     -14.2      0.000      0.000
REMARK SMILES Cc1ccc([C@@H](C)Nc2ccc(N)cc2C(=O)NCCCNC(=O)c2ccc(-c3c4nc(c(-c5cc(S(=O)(=O)[O-])ccc5F)c5ccc([nH]5)c(-c5cc(S(=O)(=O)[O-])ccc5F)c5nc(c(-c6cc(S(=O)(=O)[O-])ccc6F)c6ccc3[nH]6)C=C5)C=C4)cc2)cc1F
REMARK SMILES IDX 20 1 19 2 18 3 16 4 17 5 15 7 9 8 10 9 11 10 14 11 12 12
REMARK SMILES IDX 8 13 6 15 7 16 5 17 1 18 2 19 3 20 89 21 4 22 88 23 90 24
REMARK SMILES IDX 13 25 21 28 22 29 23 30 24 32 25 33 26 34 87 35 27 36 86 37
REMARK SMILES IDX 28 38 29 39 30 40 80 41 31 42 85 43 79 44 81 45 32 46 84 47
REMARK SMILES IDX 78 48 77 49 33 51 65 52 45 53 64 54 46 55 49 56 63 57 82 58
REMARK SMILES IDX 47 59 48 60 62 62 83 63 50 64 34 65 35 66 43 67 36 68 42 69
REMARK SMILES IDX 44 70 41 71 37 72 38 73 39 74 40 75 66 76 67 77 75 78 68 79
REMARK SMILES IDX 74 80 76 81 73 82 69 83 70 84 71 85 72 86 51 87 52 88 60 89
REMARK SMILES IDX 53 90 59 91 61 92 58 93 54 94 55 95 56 96 57 97
REMARK H PARENT 18 6 8 14 13 26 13 27 22 31 81 50 49 61
REMARK Flexibility Score: inf
ROOT
ATOM      1  C   UNL A   1      35.399  23.550  25.097  1.00  0.00     0.042 C 
ENDROOT
BRANCH   1   2
ATOM      2  C   UNL A   1      34.753  23.652  23.495  1.00  0.00     0.118 C 
BRANCH   2   3
ATOM      3  N   UNL A   1      33.839  22.640  22.964  1.00  0.00    -0.352 N 
ATOM      4  C   UNL A   1      32.487  22.486  23.160  1.00  0.00     0.253 C 
ATOM      5  O   UNL A   1      31.836  21.736  22.435  1.00  0.00    -0.269 OA
ATOM      6  H   UNL A   1      34.256  21.968  22.378  1.00  0.00     0.163 HD
BRANCH   4   7
ATOM      7  C   UNL A   1      31.870  23.056  24.374  1.00  0.00     0.065 A 
ATOM      8  C   UNL A   1      31.474  24.388  24.518  1.00  0.00     0.048 A 
ATOM      9  C   UNL A   1      31.639  24.916  25.811  1.00  0.00     0.028 A 
ATOM     10  C   UNL A   1      32.026  24.121  26.901  1.00  0.00     0.027 A 
ATOM     11  C   UNL A   1      32.077  22.220  25.487  1.00  0.00     0.041 A 
ATOM     12  C   UNL A   1      32.136  22.743  26.767  1.00  0.00     0.032 A 
BRANCH   8  13
ATOM     13  N   UNL A   1      30.956  25.227  23.550  1.00  0.00    -0.378 N 
ATOM     14  H   UNL A   1      30.004  25.080  23.349  1.00  0.00     0.161 HD
BRANCH  13  15
ATOM     15  C   UNL A   1      31.582  26.296  22.771  1.00  0.00     0.106 C 
ATOM     16  C   UNL A   1      32.520  25.835  21.669  1.00  0.00     0.036 C 
BRANCH  15  17
ATOM     17  C   UNL A   1      31.970  27.410  23.712  1.00  0.00    -0.023 A 
ATOM     18  C   UNL A   1      33.638  30.735  27.231  1.00  0.00     0.047 C 
ATOM     19  C   UNL A   1      33.165  29.808  26.157  1.00  0.00    -0.015 A 
ATOM     20  C   UNL A   1      34.155  28.373  25.750  1.00  0.00     0.007 A 
ATOM     21  C   UNL A   1      31.548  30.029  25.374  1.00  0.00     0.126 A 
ATOM     22  C   UNL A   1      33.602  27.205  24.483  1.00  0.00     0.006 A 
ATOM     23  C   UNL A   1      30.944  28.851  24.153  1.00  0.00     0.045 A 
ATOM     24  F   UNL A   1      30.814  31.109  25.669  1.00  0.00    -0.207 F 
ENDBRANCH  15  17
ENDBRANCH  13  15
ENDBRANCH   8  13
BRANCH  12  25
ATOM     25  N   UNL A   1      32.508  21.937  27.829  1.00  0.00    -0.399 N 
ATOM     26  H   UNL A   1      32.081  21.059  27.955  1.00  0.00     0.156 HD
ATOM     27  H   UNL A   1      33.202  22.241  28.459  1.00  0.00     0.156 HD
ENDBRANCH  12  25
ENDBRANCH   4   7
ENDBRANCH   2   3
ENDBRANCH   1   2
BRANCH   1  28
ATOM     28  C   UNL A   1      37.349  23.831  26.051  1.00  0.00     0.118 C 
BRANCH  28  29
ATOM     29  N   UNL A   1      38.527  22.810  26.476  1.00  0.00    -0.352 N 
ATOM     30  C   UNL A   1      39.811  23.131  26.882  1.00  0.00     0.251 C 
ATOM     31  H   UNL A   1      38.307  21.851  26.442  1.00  0.00     0.163 HD
ATOM     32  O   UNL A   1      40.645  22.266  27.096  1.00  0.00    -0.269 OA
BRANCH  30  33
ATOM     33  C   UNL A   1      40.010  24.538  27.229  1.00  0.00     0.039 A 
ATOM     34  C   UNL A   1      40.485  25.517  26.355  1.00  0.00     0.014 A 
ATOM     35  C   UNL A   1      39.452  24.857  28.465  1.00  0.00     0.014 A 
ATOM     36  C   UNL A   1      40.538  26.828  26.812  1.00  0.00     0.010 A 
ATOM     37  C   UNL A   1      39.153  26.153  28.707  1.00  0.00     0.010 A 
ATOM     38  C   UNL A   1      39.906  27.103  28.019  1.00  0.00    -0.014 A 
BRANCH  38  39
ATOM     39  C   UNL A   1      40.081  28.297  28.815  1.00  0.00     0.031 A 
ATOM     40  C   UNL A   1      39.160  29.408  28.604  1.00  0.00     0.074 A 
ATOM     41  C   UNL A   1      40.930  28.086  29.855  1.00  0.00     0.049 A 
ATOM     42  N   UNL A   1      39.470  30.643  28.770  1.00  0.00    -0.248 NA
ATOM     43  C   UNL A   1      37.805  29.228  28.071  1.00  0.00     0.031 C 
ATOM     44  C   UNL A   1      40.963  28.658  31.183  1.00  0.00     0.029 A 
ATOM     45  N   UNL A   1      41.956  27.124  29.906  1.00  0.00    -0.354 N 
ATOM     46  C   UNL A   1      38.257  31.295  28.859  1.00  0.00     0.074 A 
ATOM     47  C   UNL A   1      37.322  30.475  28.132  1.00  0.00     0.031 C 
ATOM     48  C   UNL A   1      42.088  28.246  31.806  1.00  0.00     0.029 A 
ATOM     49  C   UNL A   1      42.906  27.521  30.840  1.00  0.00     0.049 A 
ATOM     50  H   UNL A   1      41.996  26.302  29.367  1.00  0.00     0.167 HD
ATOM     51  C   UNL A   1      38.076  32.212  29.853  1.00  0.00     0.034 A 
ATOM     52  C   UNL A   1      44.171  27.837  30.424  1.00  0.00     0.034 A 
ATOM     53  C   UNL A   1      39.261  32.228  30.731  1.00  0.00     0.049 A 
ATOM     54  C   UNL A   1      44.329  29.352  30.380  1.00  0.00     0.074 A 
ATOM     55  C   UNL A   1      39.525  31.733  31.998  1.00  0.00     0.029 A 
ATOM     56  N   UNL A   1      40.502  32.478  30.174  1.00  0.00    -0.354 N 
ATOM     57  N   UNL A   1      43.422  30.194  30.793  1.00  0.00    -0.248 NA
ATOM     58  C   UNL A   1      45.474  30.034  29.783  1.00  0.00     0.031 C 
ATOM     59  C   UNL A   1      40.942  31.744  32.201  1.00  0.00     0.029 A 
ATOM     60  C   UNL A   1      41.541  32.236  31.056  1.00  0.00     0.049 A 
ATOM     61  H   UNL A   1      40.633  32.794  29.251  1.00  0.00     0.167 HD
ATOM     62  C   UNL A   1      43.749  31.466  30.420  1.00  0.00     0.074 A 
ATOM     63  C   UNL A   1      45.060  31.314  29.806  1.00  0.00     0.031 C 
ATOM     64  C   UNL A   1      42.900  32.525  30.598  1.00  0.00     0.034 A 
BRANCH  51  65
ATOM     65  C   UNL A   1      36.759  32.881  30.208  1.00  0.00     0.023 A 
ATOM     66  C   UNL A   1      36.199  32.934  31.508  1.00  0.00     0.031 A 
ATOM     67  C   UNL A   1      35.969  33.460  29.192  1.00  0.00     0.131 A 
ATOM     68  C   UNL A   1      34.964  33.573  31.755  1.00  0.00     0.055 A 
ATOM     69  C   UNL A   1      34.729  34.064  29.433  1.00  0.00     0.041 A 
ATOM     70  F   UNL A   1      36.364  33.476  27.911  1.00  0.00    -0.206 F 
ATOM     71  C   UNL A   1      34.224  34.133  30.719  1.00  0.00     0.022 A 
BRANCH  68  72
ATOM     72  S   UNL A   1      34.287  33.738  33.437  1.00  0.00     0.124 S 
ATOM     73  O   UNL A   1      34.222  35.190  33.604  1.00  0.00    -0.237 OA
ATOM     74  O   UNL A   1      32.994  33.070  33.326  1.00  0.00    -0.237 OA
ATOM     75  O   UNL A   1      35.274  33.070  34.281  1.00  0.00    -0.744 OA
ENDBRANCH  68  72
ENDBRANCH  51  65
BRANCH  52  76
ATOM     76  C   UNL A   1      44.677  26.878  29.381  1.00  0.00     0.023 A 
ATOM     77  C   UNL A   1      44.642  27.209  28.016  1.00  0.00     0.031 A 
ATOM     78  C   UNL A   1      44.732  25.505  29.723  1.00  0.00     0.131 A 
ATOM     79  C   UNL A   1      44.480  26.191  27.059  1.00  0.00     0.055 A 
ATOM     80  C   UNL A   1      44.562  24.499  28.768  1.00  0.00     0.041 A 
ATOM     81  F   UNL A   1      44.810  25.134  31.013  1.00  0.00    -0.206 F 
ATOM     82  C   UNL A   1      44.385  24.845  27.432  1.00  0.00     0.022 A 
BRANCH  79  83
ATOM     83  S   UNL A   1      44.242  26.608  25.305  1.00  0.00     0.124 S 
ATOM     84  O   UNL A   1      45.617  26.660  24.819  1.00  0.00    -0.237 OA
ATOM     85  O   UNL A   1      43.454  25.489  24.812  1.00  0.00    -0.237 OA
ATOM     86  O   UNL A   1      43.542  27.887  25.358  1.00  0.00    -0.744 OA
ENDBRANCH  79  83
ENDBRANCH  52  76
BRANCH  64  87
ATOM     87  C   UNL A   1      43.236  33.962  30.264  1.00  0.00     0.023 A 
ATOM     88  C   UNL A   1      43.279  34.385  28.914  1.00  0.00     0.031 A 
ATOM     89  C   UNL A   1      43.399  34.976  31.215  1.00  0.00     0.131 A 
ATOM     90  C   UNL A   1      43.584  35.696  28.549  1.00  0.00     0.055 A 
ATOM     91  C   UNL A   1      43.755  36.282  30.858  1.00  0.00     0.041 A 
ATOM     92  F   UNL A   1      43.143  34.763  32.514  1.00  0.00    -0.206 F 
ATOM     93  C   UNL A   1      43.869  36.643  29.520  1.00  0.00     0.022 A 
BRANCH  90  94
ATOM     94  S   UNL A   1      43.537  36.200  26.808  1.00  0.00     0.124 S 
ATOM     95  O   UNL A   1      43.157  34.951  26.152  1.00  0.00    -0.237 OA
ATOM     96  O   UNL A   1      42.511  37.238  26.824  1.00  0.00    -0.237 OA
ATOM     97  O   UNL A   1      44.893  36.661  26.536  1.00  0.00    -0.744 OA
ENDBRANCH  90  94
ENDBRANCH  64  87
ENDBRANCH  38  39
ENDBRANCH  30  33
ENDBRANCH  28  29
ENDBRANCH   1  28
TORSDOF 17
ENDMDL
MODEL 2
REMARK VINA RESULT:     -13.8      1.940      2.217
REMARK SMILES Cc1ccc([C@@H](C)Nc2ccc(N)cc2C(=O)NCCCNC(=O)c2ccc(-c3c4nc(c(-c5cc(S(=O)(=O)[O-])ccc5F)c5ccc([nH]5)c(-c5cc(S(=O)(=O)[O-])ccc5F)c5nc(c(-c6cc(S(=O)(=O)[O-])ccc6F)c6ccc3[nH]6)C=C5)C=C4)cc2)cc1F
REMARK SMILES IDX 20 1 19 2 18 3 16 4 17 5 15 7 9 8 10 9 11 10 14 11 12 12
REMARK SMILES IDX 8 13 6 15 7 16 5 17 1 18 2 19 3 20 89 21 4 22 88 23 90 24
REMARK SMILES IDX 13 25 21 28 22 29 23 30 24 32 25 33 26 34 87 35 27 36 86 37
REMARK SMILES IDX 28 38 29 39 30 40 80 41 31 42 85 43 79 44 81 45 32 46 84 47
REMARK SMILES IDX 78 48 77 49 33 51 65 52 45 53 64 54 46 55 49 56 63 57 82 58
REMARK SMILES IDX 47 59 48 60 62 62 83 63 50 64 34 65 35 66 43 67 36 68 42 69
REMARK SMILES IDX 44 70 41 71 37 72 38 73 39 74 40 75 66 76 67 77 75 78 68 79
REMARK SMILES IDX 74 80 76 81 73 82 69 83 70 84 71 85 72 86 51 87 52 88 60 89
REMARK SMILES IDX 53 90 59 91 61 92 58 93 54 94 55 95 56 96 57 97
REMARK H PARENT 18 6 8 14 13 26 13 27 22 31 81 50 49 61
REMARK Flexibility Score: inf
ROOT
ATOM      1  C   UNL A   1      35.406  23.479  26.126  1.00  0.00     0.042 C 
ENDROOT
BRANCH   1   2
ATOM      2  C   UNL A   1      34.275  22.177  26.265  1.00  0.00     0.118 C 
BRANCH   2   3
ATOM      3  N   UNL A   1      33.689  21.533  25.089  1.00  0.00    -0.352 N 
ATOM      4  C   UNL A   1      32.685  21.968  24.256  1.00  0.00     0.253 C 
ATOM      5  O   UNL A   1      32.497  21.420  23.172  1.00  0.00    -0.269 OA
ATOM      6  H   UNL A   1      34.071  20.656  24.860  1.00  0.00     0.163 HD
BRANCH   4   7
ATOM      7  C   UNL A   1      31.707  22.949  24.766  1.00  0.00     0.065 A 
ATOM      8  C   UNL A   1      31.931  24.325  24.862  1.00  0.00     0.048 A 
ATOM      9  C   UNL A   1      31.322  24.947  25.966  1.00  0.00     0.028 A 
ATOM     10  C   UNL A   1      30.436  24.265  26.815  1.00  0.00     0.027 A 
ATOM     11  C   UNL A   1      30.686  22.312  25.496  1.00  0.00     0.041 A 
ATOM     12  C   UNL A   1      30.023  22.973  26.516  1.00  0.00     0.032 A 
BRANCH   8  13
ATOM     13  N   UNL A   1      32.673  25.123  24.013  1.00  0.00    -0.378 N 
ATOM     14  H   UNL A   1      33.602  24.825  23.880  1.00  0.00     0.161 HD
BRANCH  13  15
ATOM     15  C   UNL A   1      32.314  26.337  23.279  1.00  0.00     0.106 C 
ATOM     16  C   UNL A   1      32.739  26.367  21.821  1.00  0.00     0.036 C 
BRANCH  15  17
ATOM     17  C   UNL A   1      32.536  27.525  24.181  1.00  0.00    -0.023 A 
ATOM     18  C   UNL A   1      33.599  31.140  27.650  1.00  0.00     0.047 C 
ATOM     19  C   UNL A   1      33.308  30.125  26.590  1.00  0.00    -0.015 A 
ATOM     20  C   UNL A   1      34.380  28.700  26.434  1.00  0.00     0.007 A 
ATOM     21  C   UNL A   1      31.817  30.238  25.571  1.00  0.00     0.126 A 
ATOM     22  C   UNL A   1      34.044  27.429  25.189  1.00  0.00     0.006 A 
ATOM     23  C   UNL A   1      31.423  28.958  24.366  1.00  0.00     0.045 A 
ATOM     24  F   UNL A   1      31.023  31.309  25.679  1.00  0.00    -0.207 F 
ENDBRANCH  15  17
ENDBRANCH  13  15
ENDBRANCH   8  13
BRANCH  12  25
ATOM     25  N   UNL A   1      29.145  22.283  27.334  1.00  0.00    -0.399 N 
ATOM     26  H   UNL A   1      29.242  21.311  27.452  1.00  0.00     0.156 HD
ATOM     27  H   UNL A   1      28.422  22.765  27.798  1.00  0.00     0.156 HD
ENDBRANCH  12  25
ENDBRANCH   4   7
ENDBRANCH   2   3
ENDBRANCH   1   2
BRANCH   1  28
ATOM     28  C   UNL A   1      37.581  23.699  26.027  1.00  0.00     0.118 C 
BRANCH  28  29
ATOM     29  N   UNL A   1      38.808  22.733  26.441  1.00  0.00    -0.352 N 
ATOM     30  C   UNL A   1      40.072  23.112  26.857  1.00  0.00     0.251 C 
ATOM     31  H   UNL A   1      38.636  21.764  26.393  1.00  0.00     0.163 HD
ATOM     32  O   UNL A   1      40.949  22.287  27.062  1.00  0.00    -0.269 OA
BRANCH  30  33
ATOM     33  C   UNL A   1      40.199  24.523  27.225  1.00  0.00     0.039 A 
ATOM     34  C   UNL A   1      40.589  25.543  26.355  1.00  0.00     0.014 A 
ATOM     35  C   UNL A   1      39.663  24.787  28.483  1.00  0.00     0.014 A 
ATOM     36  C   UNL A   1      40.580  26.846  26.835  1.00  0.00     0.010 A 
ATOM     37  C   UNL A   1      39.296  26.058  28.758  1.00  0.00     0.010 A 
ATOM     38  C   UNL A   1      39.970  27.062  28.066  1.00  0.00    -0.014 A 
BRANCH  38  39
ATOM     39  C   UNL A   1      40.099  28.251  28.879  1.00  0.00     0.031 A 
ATOM     40  C   UNL A   1      39.125  29.321  28.697  1.00  0.00     0.074 A 
ATOM     41  C   UNL A   1      40.971  28.064  29.905  1.00  0.00     0.049 A 
ATOM     42  N   UNL A   1      39.379  30.566  28.878  1.00  0.00    -0.248 NA
ATOM     43  C   UNL A   1      37.773  29.086  28.177  1.00  0.00     0.031 C 
ATOM     44  C   UNL A   1      40.994  28.617  31.241  1.00  0.00     0.029 A 
ATOM     45  N   UNL A   1      42.041  27.151  29.928  1.00  0.00    -0.354 N 
ATOM     46  C   UNL A   1      38.139  31.160  28.993  1.00  0.00     0.074 A 
ATOM     47  C   UNL A   1      37.233  30.307  28.264  1.00  0.00     0.031 C 
ATOM     48  C   UNL A   1      42.145  28.248  31.843  1.00  0.00     0.029 A 
ATOM     49  C   UNL A   1      42.983  27.577  30.856  1.00  0.00     0.049 A 
ATOM     50  H   UNL A   1      42.112  26.340  29.375  1.00  0.00     0.167 HD
ATOM     51  C   UNL A   1      37.928  32.052  30.004  1.00  0.00     0.034 A 
ATOM     52  C   UNL A   1      44.227  27.958  30.430  1.00  0.00     0.034 A 
ATOM     53  C   UNL A   1      39.122  32.109  30.868  1.00  0.00     0.049 A 
ATOM     54  C   UNL A   1      44.313  29.480  30.409  1.00  0.00     0.074 A 
ATOM     55  C   UNL A   1      39.425  31.607  32.123  1.00  0.00     0.029 A 
ATOM     56  N   UNL A   1      40.342  32.426  30.300  1.00  0.00    -0.354 N 
ATOM     57  N   UNL A   1      43.373  30.272  30.846  1.00  0.00    -0.248 NA
ATOM     58  C   UNL A   1      45.418  30.224  29.809  1.00  0.00     0.031 C 
ATOM     59  C   UNL A   1      40.842  31.682  32.309  1.00  0.00     0.029 A 
ATOM     60  C   UNL A   1      41.402  32.219  31.165  1.00  0.00     0.049 A 
ATOM     61  H   UNL A   1      40.446  32.761  29.380  1.00  0.00     0.167 HD
ATOM     62  C   UNL A   1      43.636  31.563  30.490  1.00  0.00     0.074 A 
ATOM     63  C   UNL A   1      44.944  31.482  29.858  1.00  0.00     0.031 C 
ATOM     64  C   UNL A   1      42.740  32.579  30.695  1.00  0.00     0.034 A 
BRANCH  51  65
ATOM     65  C   UNL A   1      36.585  32.652  30.386  1.00  0.00     0.023 A 
ATOM     66  C   UNL A   1      35.891  33.634  29.636  1.00  0.00     0.031 A 
ATOM     67  C   UNL A   1      35.966  32.276  31.598  1.00  0.00     0.131 A 
ATOM     68  C   UNL A   1      34.646  34.145  30.062  1.00  0.00     0.055 A 
ATOM     69  C   UNL A   1      34.748  32.808  32.035  1.00  0.00     0.041 A 
ATOM     70  F   UNL A   1      36.511  31.366  32.417  1.00  0.00    -0.206 F 
ATOM     71  C   UNL A   1      34.075  33.740  31.265  1.00  0.00     0.022 A 
BRANCH  68  72
ATOM     72  S   UNL A   1      33.697  35.328  29.055  1.00  0.00     0.124 S 
ATOM     73  O   UNL A   1      34.690  35.766  28.074  1.00  0.00    -0.237 OA
ATOM     74  O   UNL A   1      32.622  34.498  28.518  1.00  0.00    -0.237 OA
ATOM     75  O   UNL A   1      33.287  36.354  30.010  1.00  0.00    -0.744 OA
ENDBRANCH  68  72
ENDBRANCH  51  65
BRANCH  52  76
ATOM     76  C   UNL A   1      44.763  27.041  29.366  1.00  0.00     0.023 A 
ATOM     77  C   UNL A   1      44.671  27.378  28.006  1.00  0.00     0.031 A 
ATOM     78  C   UNL A   1      44.913  25.671  29.694  1.00  0.00     0.131 A 
ATOM     79  C   UNL A   1      44.547  26.359  27.044  1.00  0.00     0.055 A 
ATOM     80  C   UNL A   1      44.781  24.663  28.735  1.00  0.00     0.041 A 
ATOM     81  F   UNL A   1      45.049  25.296  30.978  1.00  0.00    -0.206 F 
ATOM     82  C   UNL A   1      44.547  25.007  27.408  1.00  0.00     0.022 A 
BRANCH  79  83
ATOM     83  S   UNL A   1      44.237  26.773  25.301  1.00  0.00     0.124 S 
ATOM     84  O   UNL A   1      43.445  25.630  24.857  1.00  0.00    -0.237 OA
ATOM     85  O   UNL A   1      43.510  28.030  25.393  1.00  0.00    -0.237 OA
ATOM     86  O   UNL A   1      45.578  26.869  24.736  1.00  0.00    -0.744 OA
ENDBRANCH  79  83
ENDBRANCH  52  76
BRANCH  64  87
ATOM     87  C   UNL A   1      43.005  34.035  30.380  1.00  0.00     0.023 A 
ATOM     88  C   UNL A   1      43.294  34.944  31.426  1.00  0.00     0.031 A 
ATOM     89  C   UNL A   1      43.107  34.557  29.086  1.00  0.00     0.131 A 
ATOM     90  C   UNL A   1      43.544  36.296  31.195  1.00  0.00     0.055 A 
ATOM     91  C   UNL A   1      43.308  35.923  28.848  1.00  0.00     0.041 A 
ATOM     92  F   UNL A   1      43.098  33.760  28.009  1.00  0.00    -0.206 F 
ATOM     93  C   UNL A   1      43.508  36.803  29.905  1.00  0.00     0.022 A 
BRANCH  90  94
ATOM     94  S   UNL A   1      43.996  37.395  32.564  1.00  0.00     0.124 S 
ATOM     95  O   UNL A   1      43.626  38.702  32.025  1.00  0.00    -0.237 OA
ATOM     96  O   UNL A   1      43.147  36.898  33.642  1.00  0.00    -0.237 OA
ATOM     97  O   UNL A   1      45.427  37.175  32.739  1.00  0.00    -0.744 OA
ENDBRANCH  90  94
ENDBRANCH  64  87
ENDBRANCH  38  39
ENDBRANCH  30  33
ENDBRANCH  28  29
ENDBRANCH   1  28
TORSDOF 17
ENDMDL
MODEL 3
REMARK VINA RESULT:     -13.7      3.727      9.253
REMARK SMILES Cc1ccc([C@@H](C)Nc2ccc(N)cc2C(=O)NCCCNC(=O)c2ccc(-c3c4nc(c(-c5cc(S(=O)(=O)[O-])ccc5F)c5ccc([nH]5)c(-c5cc(S(=O)(=O)[O-])ccc5F)c5nc(c(-c6cc(S(=O)(=O)[O-])ccc6F)c6ccc3[nH]6)C=C5)C=C4)cc2)cc1F
REMARK SMILES IDX 20 1 19 2 18 3 16 4 17 5 15 7 9 8 10 9 11 10 14 11 12 12
REMARK SMILES IDX 8 13 6 15 7 16 5 17 1 18 2 19 3 20 89 21 4 22 88 23 90 24
REMARK SMILES IDX 13 25 21 28 22 29 23 30 24 32 25 33 26 34 87 35 27 36 86 37
REMARK SMILES IDX 28 38 29 39 30 40 80 41 31 42 85 43 79 44 81 45 32 46 84 47
REMARK SMILES IDX 78 48 77 49 33 51 65 52 45 53 64 54 46 55 49 56 63 57 82 58
REMARK SMILES IDX 47 59 48 60 62 62 83 63 50 64 34 65 35 66 43 67 36 68 42 69
REMARK SMILES IDX 44 70 41 71 37 72 38 73 39 74 40 75 66 76 67 77 75 78 68 79
REMARK SMILES IDX 74 80 76 81 73 82 69 83 70 84 71 85 72 86 51 87 52 88 60 89
REMARK SMILES IDX 53 90 59 91 61 92 58 93 54 94 55 95 56 96 57 97
REMARK H PARENT 18 6 8 14 13 26 13 27 22 31 81 50 49 61
REMARK Flexibility Score: inf
ROOT
ATOM      1  C   UNL A   1      33.173  27.703  26.898  1.00  0.00     0.042 C 
ENDROOT
BRANCH   1   2
ATOM      2  C   UNL A   1      31.460  27.603  26.675  1.00  0.00     0.118 C 
BRANCH   2   3
ATOM      3  N   UNL A   1      30.776  26.320  26.509  1.00  0.00    -0.352 N 
ATOM      4  C   UNL A   1      30.409  25.660  25.361  1.00  0.00     0.253 C 
ATOM      5  O   UNL A   1      30.075  24.477  25.403  1.00  0.00    -0.269 OA
ATOM      6  H   UNL A   1      30.546  25.859  27.348  1.00  0.00     0.163 HD
BRANCH   4   7
ATOM      7  C   UNL A   1      30.211  26.437  24.121  1.00  0.00     0.065 A 
ATOM      8  C   UNL A   1      31.221  27.118  23.435  1.00  0.00     0.048 A 
ATOM      9  C   UNL A   1      30.815  28.318  22.825  1.00  0.00     0.028 A 
ATOM     10  C   UNL A   1      29.470  28.718  22.781  1.00  0.00     0.027 A 
ATOM     11  C   UNL A   1      28.850  26.735  23.923  1.00  0.00     0.041 A 
ATOM     12  C   UNL A   1      28.465  27.871  23.230  1.00  0.00     0.032 A 
BRANCH   8  13
ATOM     13  N   UNL A   1      32.546  26.752  23.299  1.00  0.00    -0.378 N 
ATOM     14  H   UNL A   1      33.159  27.192  23.931  1.00  0.00     0.161 HD
BRANCH  13  15
ATOM     15  C   UNL A   1      33.194  25.822  22.373  1.00  0.00     0.106 C 
ATOM     16  C   UNL A   1      32.664  25.844  20.950  1.00  0.00     0.036 C 
BRANCH  15  17
ATOM     17  C   UNL A   1      33.441  24.521  23.095  1.00  0.00    -0.023 A 
ATOM     18  C   UNL A   1      33.619  20.040  25.568  1.00  0.00     0.047 C 
ATOM     19  C   UNL A   1      33.613  21.327  24.806  1.00  0.00    -0.015 A 
ATOM     20  C   UNL A   1      32.221  21.702  23.744  1.00  0.00     0.007 A 
ATOM     21  C   UNL A   1      34.908  22.567  25.053  1.00  0.00     0.126 A 
ATOM     22  C   UNL A   1      32.156  23.264  22.831  1.00  0.00     0.006 A 
ATOM     23  C   UNL A   1      34.840  24.155  24.206  1.00  0.00     0.045 A 
ATOM     24  F   UNL A   1      35.954  22.282  25.837  1.00  0.00    -0.207 F 
ENDBRANCH  15  17
ENDBRANCH  13  15
ENDBRANCH   8  13
BRANCH  12  25
ATOM     25  N   UNL A   1      27.131  28.240  23.190  1.00  0.00    -0.399 N 
ATOM     26  H   UNL A   1      26.874  29.117  22.825  1.00  0.00     0.156 HD
ATOM     27  H   UNL A   1      26.440  27.625  23.526  1.00  0.00     0.156 HD
ENDBRANCH  12  25
ENDBRANCH   4   7
ENDBRANCH   2   3
ENDBRANCH   1   2
BRANCH   1  28
ATOM     28  C   UNL A   1      34.708  29.260  26.783  1.00  0.00     0.118 C 
BRANCH  28  29
ATOM     29  N   UNL A   1      34.759  30.797  27.278  1.00  0.00    -0.352 N 
ATOM     30  C   UNL A   1      35.594  31.343  28.238  1.00  0.00     0.251 C 
ATOM     31  H   UNL A   1      34.124  31.416  26.849  1.00  0.00     0.163 HD
ATOM     32  O   UNL A   1      35.482  32.506  28.592  1.00  0.00    -0.269 OA
BRANCH  30  33
ATOM     33  C   UNL A   1      36.724  30.495  28.621  1.00  0.00     0.039 A 
ATOM     34  C   UNL A   1      36.756  29.668  29.745  1.00  0.00     0.014 A 
ATOM     35  C   UNL A   1      37.686  30.418  27.616  1.00  0.00     0.014 A 
ATOM     36  C   UNL A   1      37.871  28.859  29.926  1.00  0.00     0.010 A 
ATOM     37  C   UNL A   1      38.522  29.357  27.625  1.00  0.00     0.010 A 
ATOM     38  C   UNL A   1      38.763  28.766  28.863  1.00  0.00    -0.014 A 
BRANCH  38  39
ATOM     39  C   UNL A   1      40.107  28.236  28.929  1.00  0.00     0.031 A 
ATOM     40  C   UNL A   1      40.301  26.812  28.677  1.00  0.00     0.074 A 
ATOM     41  C   UNL A   1      41.036  29.227  28.947  1.00  0.00     0.049 A 
ATOM     42  N   UNL A   1      41.232  26.106  29.207  1.00  0.00    -0.248 NA
ATOM     43  C   UNL A   1      39.374  26.015  27.866  1.00  0.00     0.031 C 
ATOM     44  C   UNL A   1      42.381  29.275  28.417  1.00  0.00     0.029 A 
ATOM     45  N   UNL A   1      40.840  30.540  29.416  1.00  0.00    -0.354 N 
ATOM     46  C   UNL A   1      41.299  24.974  28.421  1.00  0.00     0.074 A 
ATOM     47  C   UNL A   1      39.987  24.826  27.844  1.00  0.00     0.031 C 
ATOM     48  C   UNL A   1      42.964  30.426  28.817  1.00  0.00     0.029 A 
ATOM     49  C   UNL A   1      42.070  31.089  29.759  1.00  0.00     0.049 A 
ATOM     50  H   UNL A   1      39.972  30.996  29.490  1.00  0.00     0.167 HD
ATOM     51  C   UNL A   1      42.523  24.527  28.016  1.00  0.00     0.034 A 
ATOM     52  C   UNL A   1      42.328  31.403  31.065  1.00  0.00     0.034 A 
ATOM     53  C   UNL A   1      43.564  25.475  28.454  1.00  0.00     0.049 A 
ATOM     54  C   UNL A   1      43.215  30.327  31.682  1.00  0.00     0.074 A 
ATOM     55  C   UNL A   1      44.320  26.439  27.806  1.00  0.00     0.029 A 
ATOM     56  N   UNL A   1      43.671  25.776  29.799  1.00  0.00    -0.354 N 
ATOM     57  N   UNL A   1      43.731  29.333  31.012  1.00  0.00    -0.248 NA
ATOM     58  C   UNL A   1      43.511  30.234  33.109  1.00  0.00     0.031 C 
ATOM     59  C   UNL A   1      44.920  27.282  28.794  1.00  0.00     0.029 A 
ATOM     60  C   UNL A   1      44.521  26.841  30.042  1.00  0.00     0.049 A 
ATOM     61  H   UNL A   1      43.194  25.287  30.508  1.00  0.00     0.167 HD
ATOM     62  C   UNL A   1      44.282  28.420  31.865  1.00  0.00     0.074 A 
ATOM     63  C   UNL A   1      44.135  29.044  33.171  1.00  0.00     0.031 C 
ATOM     64  C   UNL A   1      44.762  27.211  31.437  1.00  0.00     0.034 A 
BRANCH  51  65
ATOM     65  C   UNL A   1      42.768  23.418  27.007  1.00  0.00     0.023 A 
ATOM     66  C   UNL A   1      42.401  22.061  27.186  1.00  0.00     0.031 A 
ATOM     67  C   UNL A   1      43.458  23.698  25.808  1.00  0.00     0.131 A 
ATOM     68  C   UNL A   1      42.668  21.087  26.198  1.00  0.00     0.055 A 
ATOM     69  C   UNL A   1      43.752  22.726  24.846  1.00  0.00     0.041 A 
ATOM     70  F   UNL A   1      43.878  24.935  25.507  1.00  0.00    -0.206 F 
ATOM     71  C   UNL A   1      43.350  21.415  25.031  1.00  0.00     0.022 A 
BRANCH  68  72
ATOM     72  S   UNL A   1      42.109  19.364  26.372  1.00  0.00     0.124 S 
ATOM     73  O   UNL A   1      40.676  19.474  26.097  1.00  0.00    -0.237 OA
ATOM     74  O   UNL A   1      42.884  18.673  25.346  1.00  0.00    -0.237 OA
ATOM     75  O   UNL A   1      42.441  19.023  27.752  1.00  0.00    -0.744 OA
ENDBRANCH  68  72
ENDBRANCH  51  65
BRANCH  52  76
ATOM     76  C   UNL A   1      41.144  32.044  31.737  1.00  0.00     0.023 A 
ATOM     77  C   UNL A   1      40.299  31.301  32.576  1.00  0.00     0.031 A 
ATOM     78  C   UNL A   1      40.621  33.225  31.156  1.00  0.00     0.131 A 
ATOM     79  C   UNL A   1      38.937  31.642  32.668  1.00  0.00     0.055 A 
ATOM     80  C   UNL A   1      39.265  33.554  31.244  1.00  0.00     0.041 A 
ATOM     81  F   UNL A   1      41.400  33.997  30.378  1.00  0.00    -0.206 F 
ATOM     82  C   UNL A   1      38.406  32.729  31.964  1.00  0.00     0.022 A 
BRANCH  79  83
ATOM     83  S   UNL A   1      37.786  30.585  33.597  1.00  0.00     0.124 S 
ATOM     84  O   UNL A   1      36.532  30.807  32.885  1.00  0.00    -0.237 OA
ATOM     85  O   UNL A   1      38.362  29.259  33.434  1.00  0.00    -0.237 OA
ATOM     86  O   UNL A   1      37.849  31.128  34.949  1.00  0.00    -0.744 OA
ENDBRANCH  79  83
ENDBRANCH  52  76
BRANCH  64  87
ATOM     87  C   UNL A   1      45.440  26.192  32.326  1.00  0.00     0.023 A 
ATOM     88  C   UNL A   1      44.668  25.213  32.997  1.00  0.00     0.031 A 
ATOM     89  C   UNL A   1      46.826  26.054  32.455  1.00  0.00     0.131 A 
ATOM     90  C   UNL A   1      45.239  24.251  33.829  1.00  0.00     0.055 A 
ATOM     91  C   UNL A   1      47.405  25.124  33.327  1.00  0.00     0.041 A 
ATOM     92  F   UNL A   1      47.672  26.756  31.686  1.00  0.00    -0.206 F 
ATOM     93  C   UNL A   1      46.610  24.229  34.035  1.00  0.00     0.022 A 
BRANCH  90  94
ATOM     94  S   UNL A   1      44.211  22.968  34.593  1.00  0.00     0.124 S 
ATOM     95  O   UNL A   1      43.050  22.956  33.705  1.00  0.00    -0.237 OA
ATOM     96  O   UNL A   1      45.078  21.797  34.506  1.00  0.00    -0.237 OA
ATOM     97  O   UNL A   1      43.962  23.467  35.940  1.00  0.00    -0.744 OA
ENDBRANCH  90  94
ENDBRANCH  64  87
ENDBRANCH  38  39
ENDBRANCH  30  33
ENDBRANCH  28  29
ENDBRANCH   1  28
TORSDOF 17
ENDMDL
