MODEL 1
REMARK VINA RESULT:     -11.1      0.000      0.000
REMARK SMILES CCC(CC)(CC)NC(=O)NC[C@@H]1CC[C@H](C(=O)NCCCNC(=O)c2ccc(-c3c4nc(c(-c5cc(S(=O)(=O)[O-])ccc5F)c5ccc([nH]5)c(-c5cc(S(=O)(=O)[O-])ccc5F)c5nc(c(-c6cc(S(=O)(=O)[O-])ccc6F)c6ccc3[nH]6)C=C5)C=C4)cc2)O1
REMARK SMILES IDX 20 1 19 2 17 3 18 4 16 6 13 7 14 8 89 9 15 10 12 11 11 12
REMARK SMILES IDX 8 13 9 14 10 16 3 18 2 19 1 20 4 21 5 22 6 23 7 24 21 25
REMARK SMILES IDX 22 26 23 27 24 28 25 30 26 31 27 32 88 33 28 34 87 35 29 36
REMARK SMILES IDX 30 37 31 38 81 39 32 40 86 41 80 42 82 43 33 44 85 45 79 46
REMARK SMILES IDX 78 47 34 49 66 50 46 51 65 52 47 53 50 54 64 55 83 56 48 57
REMARK SMILES IDX 49 58 63 60 84 61 51 62 35 63 36 64 44 65 37 66 43 67 45 68
REMARK SMILES IDX 42 69 38 70 39 71 40 72 41 73 67 74 68 75 76 76 69 77 75 78
REMARK SMILES IDX 77 79 74 80 70 81 71 82 72 83 73 84 52 85 53 86 61 87 54 88
REMARK SMILES IDX 60 89 62 90 59 91 55 92 56 93 57 94 58 95
REMARK H PARENT 19 5 8 15 11 17 23 29 82 48 50 59
REMARK Flexibility Score: inf
ROOT
ATOM      1  C   UNL A   1      31.354  29.298  25.174  1.00  0.00     0.117 C 
ENDROOT
BRANCH   1   2
ATOM      2  N   UNL A   1      30.676  29.907  24.051  1.00  0.00    -0.354 N 
ATOM      3  C   UNL A   1      30.053  29.331  22.982  1.00  0.00     0.249 C 
ATOM      4  O   UNL A   1      29.544  30.091  22.151  1.00  0.00    -0.272 OA
ATOM      5  H   UNL A   1      30.662  30.891  24.059  1.00  0.00     0.163 HD
BRANCH   3   6
ATOM      6  C   UNL A   1      30.023  27.797  22.758  1.00  0.00     0.207 C 
ATOM      7  C   UNL A   1      30.537  25.889  24.060  1.00  0.00     0.138 C 
ATOM      8  C   UNL A   1      31.801  26.320  23.319  1.00  0.00     0.037 C 
ATOM      9  O   UNL A   1      29.621  26.999  23.878  1.00  0.00    -0.363 OA
ATOM     10  C   UNL A   1      31.344  27.265  22.238  1.00  0.00     0.045 C 
BRANCH   7  11
ATOM     11  C   UNL A   1      30.573  25.554  25.597  1.00  0.00     0.149 C 
BRANCH  11  12
ATOM     12  N   UNL A   1      29.892  24.341  26.076  1.00  0.00    -0.336 N 
ATOM     13  N   UNL A   1      31.337  22.494  26.654  1.00  0.00    -0.333 N 
ATOM     14  C   UNL A   1      30.265  23.288  26.834  1.00  0.00     0.315 C 
ATOM     15  H   UNL A   1      31.372  21.793  27.345  1.00  0.00     0.165 HD
ATOM     16  O   UNL A   1      29.476  22.955  27.726  1.00  0.00    -0.249 OA
ATOM     17  H   UNL A   1      28.955  24.284  25.777  1.00  0.00     0.165 HD
BRANCH  13  18
ATOM     18  C   UNL A   1      32.485  22.367  25.718  1.00  0.00     0.041 C 
BRANCH  18  19
ATOM     19  C   UNL A   1      33.380  23.593  25.847  1.00  0.00     0.025 C 
ATOM     20  C   UNL A   1      34.777  23.291  26.418  1.00  0.00     0.006 C 
ENDBRANCH  18  19
BRANCH  18  21
ATOM     21  C   UNL A   1      32.020  22.346  24.206  1.00  0.00     0.025 C 
ATOM     22  C   UNL A   1      33.050  22.948  23.226  1.00  0.00     0.006 C 
ENDBRANCH  18  21
BRANCH  18  23
ATOM     23  C   UNL A   1      33.205  20.996  25.950  1.00  0.00     0.025 C 
ATOM     24  C   UNL A   1      32.705  19.777  25.185  1.00  0.00     0.006 C 
ENDBRANCH  18  23
ENDBRANCH  13  18
ENDBRANCH  11  12
ENDBRANCH   7  11
ENDBRANCH   3   6
ENDBRANCH   1   2
BRANCH   1  25
ATOM     25  C   UNL A   1      32.854  29.550  25.148  1.00  0.00     0.042 C 
BRANCH  25  26
ATOM     26  C   UNL A   1      33.491  29.618  26.528  1.00  0.00     0.118 C 
BRANCH  26  27
ATOM     27  N   UNL A   1      33.514  30.982  27.049  1.00  0.00    -0.352 N 
ATOM     28  C   UNL A   1      34.329  31.581  27.975  1.00  0.00     0.251 C 
ATOM     29  H   UNL A   1      32.825  31.574  26.670  1.00  0.00     0.163 HD
ATOM     30  O   UNL A   1      33.986  32.683  28.426  1.00  0.00    -0.269 OA
BRANCH  28  31
ATOM     31  C   UNL A   1      35.577  30.947  28.459  1.00  0.00     0.039 A 
ATOM     32  C   UNL A   1      36.808  31.459  28.032  1.00  0.00     0.014 A 
ATOM     33  C   UNL A   1      35.556  29.817  29.279  1.00  0.00     0.014 A 
ATOM     34  C   UNL A   1      38.003  30.876  28.471  1.00  0.00     0.010 A 
ATOM     35  C   UNL A   1      36.743  29.303  29.798  1.00  0.00     0.010 A 
ATOM     36  C   UNL A   1      37.982  29.815  29.389  1.00  0.00    -0.014 A 
BRANCH  36  37
ATOM     37  C   UNL A   1      39.235  29.203  29.912  1.00  0.00     0.031 A 
ATOM     38  C   UNL A   1      39.917  29.798  31.118  1.00  0.00     0.074 A 
ATOM     39  C   UNL A   1      39.795  28.160  29.268  1.00  0.00     0.049 A 
ATOM     40  N   UNL A   1      41.072  29.494  31.653  1.00  0.00    -0.248 NA
ATOM     41  C   UNL A   1      39.222  30.908  31.789  1.00  0.00     0.031 C 
ATOM     42  C   UNL A   1      39.248  27.510  28.074  1.00  0.00     0.029 A 
ATOM     43  N   UNL A   1      40.955  27.467  29.516  1.00  0.00    -0.354 N 
ATOM     44  C   UNL A   1      41.249  30.383  32.710  1.00  0.00     0.074 A 
ATOM     45  C   UNL A   1      40.113  31.280  32.695  1.00  0.00     0.031 C 
ATOM     46  C   UNL A   1      40.054  26.499  27.714  1.00  0.00     0.029 A 
ATOM     47  C   UNL A   1      41.206  26.463  28.610  1.00  0.00     0.049 A 
ATOM     48  H   UNL A   1      41.551  27.671  30.273  1.00  0.00     0.167 HD
ATOM     49  C   UNL A   1      42.250  30.431  33.624  1.00  0.00     0.034 A 
ATOM     50  C   UNL A   1      42.253  25.620  28.500  1.00  0.00     0.034 A 
ATOM     51  C   UNL A   1      43.366  29.517  33.638  1.00  0.00     0.049 A 
ATOM     52  C   UNL A   1      43.375  25.720  29.504  1.00  0.00     0.074 A 
ATOM     53  C   UNL A   1      44.411  29.445  34.543  1.00  0.00     0.029 A 
ATOM     54  N   UNL A   1      43.587  28.517  32.700  1.00  0.00    -0.354 N 
ATOM     55  N   UNL A   1      43.507  26.543  30.519  1.00  0.00    -0.248 NA
ATOM     56  C   UNL A   1      44.485  24.769  29.353  1.00  0.00     0.031 C 
ATOM     57  C   UNL A   1      45.298  28.453  34.113  1.00  0.00     0.029 A 
ATOM     58  C   UNL A   1      44.766  27.846  32.988  1.00  0.00     0.049 A 
ATOM     59  H   UNL A   1      42.993  28.313  31.941  1.00  0.00     0.167 HD
ATOM     60  C   UNL A   1      44.697  26.184  31.146  1.00  0.00     0.074 A 
ATOM     61  C   UNL A   1      45.233  25.060  30.406  1.00  0.00     0.031 C 
ATOM     62  C   UNL A   1      45.293  26.730  32.238  1.00  0.00     0.034 A 
BRANCH  49  63
ATOM     63  C   UNL A   1      42.188  31.518  34.671  1.00  0.00     0.023 A 
ATOM     64  C   UNL A   1      41.212  31.516  35.684  1.00  0.00     0.031 A 
ATOM     65  C   UNL A   1      43.107  32.583  34.651  1.00  0.00     0.131 A 
ATOM     66  C   UNL A   1      41.128  32.590  36.582  1.00  0.00     0.055 A 
ATOM     67  C   UNL A   1      43.073  33.605  35.603  1.00  0.00     0.041 A 
ATOM     68  F   UNL A   1      44.050  32.654  33.699  1.00  0.00    -0.206 F 
ATOM     69  C   UNL A   1      42.070  33.620  36.567  1.00  0.00     0.022 A 
BRANCH  66  70
ATOM     70  S   UNL A   1      39.684  32.693  37.675  1.00  0.00     0.124 S 
ATOM     71  O   UNL A   1      39.165  34.020  37.350  1.00  0.00    -0.237 OA
ATOM     72  O   UNL A   1      38.872  31.564  37.232  1.00  0.00    -0.237 OA
ATOM     73  O   UNL A   1      40.256  32.566  39.012  1.00  0.00    -0.744 OA
ENDBRANCH  66  70
ENDBRANCH  49  63
BRANCH  50  74
ATOM     74  C   UNL A   1      42.309  24.616  27.397  1.00  0.00     0.023 A 
ATOM     75  C   UNL A   1      41.543  23.441  27.453  1.00  0.00     0.031 A 
ATOM     76  C   UNL A   1      43.172  24.786  26.300  1.00  0.00     0.131 A 
ATOM     77  C   UNL A   1      41.697  22.456  26.466  1.00  0.00     0.055 A 
ATOM     78  C   UNL A   1      43.275  23.832  25.285  1.00  0.00     0.041 A 
ATOM     79  F   UNL A   1      43.926  25.892  26.192  1.00  0.00    -0.206 F 
ATOM     80  C   UNL A   1      42.546  22.649  25.373  1.00  0.00     0.022 A 
BRANCH  77  81
ATOM     81  S   UNL A   1      40.850  20.867  26.686  1.00  0.00     0.124 S 
ATOM     82  O   UNL A   1      41.737  19.958  25.969  1.00  0.00    -0.237 OA
ATOM     83  O   UNL A   1      40.833  20.734  28.139  1.00  0.00    -0.237 OA
ATOM     84  O   UNL A   1      39.546  21.088  26.065  1.00  0.00    -0.744 OA
ENDBRANCH  77  81
ENDBRANCH  50  74
BRANCH  62  85
ATOM     85  C   UNL A   1      46.567  26.080  32.722  1.00  0.00     0.023 A 
ATOM     86  C   UNL A   1      46.553  25.001  33.623  1.00  0.00     0.031 A 
ATOM     87  C   UNL A   1      47.815  26.558  32.282  1.00  0.00     0.131 A 
ATOM     88  C   UNL A   1      47.764  24.476  34.102  1.00  0.00     0.055 A 
ATOM     89  C   UNL A   1      49.013  25.987  32.709  1.00  0.00     0.041 A 
ATOM     90  F   UNL A   1      47.888  27.589  31.424  1.00  0.00    -0.206 F 
ATOM     91  C   UNL A   1      48.993  24.949  33.637  1.00  0.00     0.022 A 
BRANCH  88  92
ATOM     92  S   UNL A   1      47.710  23.230  35.420  1.00  0.00     0.124 S 
ATOM     93  O   UNL A   1      47.646  21.987  34.659  1.00  0.00    -0.237 OA
ATOM     94  O   UNL A   1      48.958  23.478  36.134  1.00  0.00    -0.237 OA
ATOM     95  O   UNL A   1      46.495  23.568  36.160  1.00  0.00    -0.744 OA
ENDBRANCH  88  92
ENDBRANCH  62  85
ENDBRANCH  36  37
ENDBRANCH  28  31
ENDBRANCH  26  27
ENDBRANCH  25  26
ENDBRANCH   1  25
TORSDOF 19
ENDMDL
MODEL 2
REMARK VINA RESULT:     -11.1      1.851      2.307
REMARK SMILES CCC(CC)(CC)NC(=O)NC[C@@H]1CC[C@H](C(=O)NCCCNC(=O)c2ccc(-c3c4nc(c(-c5cc(S(=O)(=O)[O-])ccc5F)c5ccc([nH]5)c(-c5cc(S(=O)(=O)[O-])ccc5F)c5nc(c(-c6cc(S(=O)(=O)[O-])ccc6F)c6ccc3[nH]6)C=C5)C=C4)cc2)O1
REMARK SMILES IDX 20 1 19 2 17 3 18 4 16 6 13 7 14 8 89 9 15 10 12 11 11 12
REMARK SMILES IDX 8 13 9 14 10 16 3 18 2 19 1 20 4 21 5 22 6 23 7 24 21 25
REMARK SMILES IDX 22 26 23 27 24 28 25 30 26 31 27 32 88 33 28 34 87 35 29 36
REMARK SMILES IDX 30 37 31 38 81 39 32 40 86 41 80 42 82 43 33 44 85 45 79 46
REMARK SMILES IDX 78 47 34 49 66 50 46 51 65 52 47 53 50 54 64 55 83 56 48 57
REMARK SMILES IDX 49 58 63 60 84 61 51 62 35 63 36 64 44 65 37 66 43 67 45 68
REMARK SMILES IDX 42 69 38 70 39 71 40 72 41 73 67 74 68 75 76 76 69 77 75 78
REMARK SMILES IDX 77 79 74 80 70 81 71 82 72 83 73 84 52 85 53 86 61 87 54 88
REMARK SMILES IDX 60 89 62 90 59 91 55 92 56 93 57 94 58 95
REMARK H PARENT 19 5 8 15 11 17 23 29 82 48 50 59
REMARK Flexibility Score: inf
ROOT
ATOM      1  C   UNL A   1      31.499  29.167  25.155  1.00  0.00     0.117 C 
ENDROOT
BRANCH   1   2
ATOM      2  N   UNL A   1      30.806  29.834  24.075  1.00  0.00    -0.354 N 
ATOM      3  C   UNL A   1      30.086  29.314  23.039  1.00  0.00     0.249 C 
ATOM      4  O   UNL A   1      29.588  30.117  22.242  1.00  0.00    -0.272 OA
ATOM      5  H   UNL A   1      30.863  30.816  24.090  1.00  0.00     0.163 HD
BRANCH   3   6
ATOM      6  C   UNL A   1      29.934  27.789  22.808  1.00  0.00     0.207 C 
ATOM      7  C   UNL A   1      30.451  25.834  24.037  1.00  0.00     0.138 C 
ATOM      8  C   UNL A   1      31.659  26.193  23.175  1.00  0.00     0.037 C 
ATOM      9  O   UNL A   1      29.595  27.002  23.956  1.00  0.00    -0.363 OA
ATOM     10  C   UNL A   1      31.159  27.180  22.154  1.00  0.00     0.045 C 
BRANCH   7  11
ATOM     11  C   UNL A   1      30.618  25.475  25.560  1.00  0.00     0.149 C 
BRANCH  11  12
ATOM     12  N   UNL A   1      29.948  24.276  26.086  1.00  0.00    -0.336 N 
ATOM     13  N   UNL A   1      31.380  22.374  26.488  1.00  0.00    -0.333 N 
ATOM     14  C   UNL A   1      30.359  23.197  26.786  1.00  0.00     0.315 C 
ATOM     15  H   UNL A   1      31.460  21.659  27.160  1.00  0.00     0.165 HD
ATOM     16  O   UNL A   1      29.652  22.873  27.747  1.00  0.00    -0.249 OA
ATOM     17  H   UNL A   1      28.984  24.255  25.881  1.00  0.00     0.165 HD
BRANCH  13  18
ATOM     18  C   UNL A   1      32.424  22.228  25.440  1.00  0.00     0.041 C 
BRANCH  18  19
ATOM     19  C   UNL A   1      33.206  20.943  25.680  1.00  0.00     0.025 C 
ATOM     20  C   UNL A   1      32.547  19.687  25.085  1.00  0.00     0.006 C 
ENDBRANCH  18  19
BRANCH  18  21
ATOM     21  C   UNL A   1      33.497  23.389  25.502  1.00  0.00     0.025 C 
ATOM     22  C   UNL A   1      34.441  23.305  26.720  1.00  0.00     0.006 C 
ENDBRANCH  18  21
BRANCH  18  23
ATOM     23  C   UNL A   1      31.768  22.346  24.022  1.00  0.00     0.025 C 
ATOM     24  C   UNL A   1      32.671  22.623  22.827  1.00  0.00     0.006 C 
ENDBRANCH  18  23
ENDBRANCH  13  18
ENDBRANCH  11  12
ENDBRANCH   7  11
ENDBRANCH   3   6
ENDBRANCH   1   2
BRANCH   1  25
ATOM     25  C   UNL A   1      33.004  29.121  24.934  1.00  0.00     0.042 C 
BRANCH  25  26
ATOM     26  C   UNL A   1      33.817  29.214  26.216  1.00  0.00     0.118 C 
BRANCH  26  27
ATOM     27  N   UNL A   1      33.824  30.569  26.759  1.00  0.00    -0.352 N 
ATOM     28  C   UNL A   1      34.601  31.150  27.728  1.00  0.00     0.251 C 
ATOM     29  H   UNL A   1      33.153  31.170  26.361  1.00  0.00     0.163 HD
ATOM     30  O   UNL A   1      34.243  32.245  28.182  1.00  0.00    -0.269 OA
BRANCH  28  31
ATOM     31  C   UNL A   1      35.824  30.502  28.254  1.00  0.00     0.039 A 
ATOM     32  C   UNL A   1      37.032  30.673  27.566  1.00  0.00     0.014 A 
ATOM     33  C   UNL A   1      35.793  29.679  29.381  1.00  0.00     0.014 A 
ATOM     34  C   UNL A   1      38.203  30.068  28.039  1.00  0.00     0.010 A 
ATOM     35  C   UNL A   1      36.976  29.165  29.909  1.00  0.00     0.010 A 
ATOM     36  C   UNL A   1      38.193  29.339  29.237  1.00  0.00    -0.014 A 
BRANCH  36  37
ATOM     37  C   UNL A   1      39.431  28.724  29.793  1.00  0.00     0.031 A 
ATOM     38  C   UNL A   1      40.078  29.311  31.021  1.00  0.00     0.074 A 
ATOM     39  C   UNL A   1      40.008  27.683  29.159  1.00  0.00     0.049 A 
ATOM     40  N   UNL A   1      41.217  29.003  31.588  1.00  0.00    -0.248 NA
ATOM     41  C   UNL A   1      39.365  30.418  31.678  1.00  0.00     0.031 C 
ATOM     42  C   UNL A   1      39.495  27.040  27.947  1.00  0.00     0.029 A 
ATOM     43  N   UNL A   1      41.160  26.988  29.437  1.00  0.00    -0.354 N 
ATOM     44  C   UNL A   1      41.364  29.886  32.654  1.00  0.00     0.074 A 
ATOM     45  C   UNL A   1      40.230  30.784  32.611  1.00  0.00     0.031 C 
ATOM     46  C   UNL A   1      40.311  26.031  27.604  1.00  0.00     0.029 A 
ATOM     47  C   UNL A   1      41.436  25.989  28.533  1.00  0.00     0.049 A 
ATOM     48  H   UNL A   1      41.734  27.187  30.212  1.00  0.00     0.167 HD
ATOM     49  C   UNL A   1      42.338  29.928  33.597  1.00  0.00     0.034 A 
ATOM     50  C   UNL A   1      42.485  25.146  28.448  1.00  0.00     0.034 A 
ATOM     51  C   UNL A   1      43.453  29.014  33.637  1.00  0.00     0.049 A 
ATOM     52  C   UNL A   1      43.578  25.239  29.484  1.00  0.00     0.074 A 
ATOM     53  C   UNL A   1      44.472  28.936  34.572  1.00  0.00     0.029 A 
ATOM     54  N   UNL A   1      43.701  28.018  32.701  1.00  0.00    -0.354 N 
ATOM     55  N   UNL A   1      43.681  26.057  30.507  1.00  0.00    -0.248 NA
ATOM     56  C   UNL A   1      44.691  24.289  29.360  1.00  0.00     0.031 C 
ATOM     57  C   UNL A   1      45.370  27.946  34.162  1.00  0.00     0.029 A 
ATOM     58  C   UNL A   1      44.871  27.345  33.018  1.00  0.00     0.049 A 
ATOM     59  H   UNL A   1      43.129  27.819  31.924  1.00  0.00     0.167 HD
ATOM     60  C   UNL A   1      44.853  25.693  31.166  1.00  0.00     0.074 A 
ATOM     61  C   UNL A   1      45.410  24.573  30.436  1.00  0.00     0.031 C 
ATOM     62  C   UNL A   1      45.418  26.233  32.278  1.00  0.00     0.034 A 
BRANCH  49  63
ATOM     63  C   UNL A   1      42.247  31.010  34.648  1.00  0.00     0.023 A 
ATOM     64  C   UNL A   1      42.778  32.295  34.434  1.00  0.00     0.031 A 
ATOM     65  C   UNL A   1      41.636  30.753  35.888  1.00  0.00     0.131 A 
ATOM     66  C   UNL A   1      42.758  33.244  35.466  1.00  0.00     0.055 A 
ATOM     67  C   UNL A   1      41.541  31.731  36.881  1.00  0.00     0.041 A 
ATOM     68  F   UNL A   1      41.129  29.541  36.161  1.00  0.00    -0.206 F 
ATOM     69  C   UNL A   1      42.117  32.981  36.679  1.00  0.00     0.022 A 
BRANCH  66  70
ATOM     70  S   UNL A   1      43.710  34.774  35.254  1.00  0.00     0.124 S 
ATOM     71  O   UNL A   1      43.044  35.376  34.101  1.00  0.00    -0.237 OA
ATOM     72  O   UNL A   1      43.509  35.450  36.532  1.00  0.00    -0.237 OA
ATOM     73  O   UNL A   1      45.068  34.301  35.004  1.00  0.00    -0.744 OA
ENDBRANCH  66  70
ENDBRANCH  49  63
BRANCH  50  74
ATOM     74  C   UNL A   1      42.573  24.148  27.342  1.00  0.00     0.023 A 
ATOM     75  C   UNL A   1      41.943  22.898  27.448  1.00  0.00     0.031 A 
ATOM     76  C   UNL A   1      43.335  24.404  26.188  1.00  0.00     0.131 A 
ATOM     77  C   UNL A   1      42.133  21.930  26.450  1.00  0.00     0.055 A 
ATOM     78  C   UNL A   1      43.469  23.461  25.166  1.00  0.00     0.041 A 
ATOM     79  F   UNL A   1      43.956  25.584  26.030  1.00  0.00    -0.206 F 
ATOM     80  C   UNL A   1      42.879  22.208  25.302  1.00  0.00     0.022 A 
BRANCH  77  81
ATOM     81  S   UNL A   1      41.478  20.260  26.725  1.00  0.00     0.124 S 
ATOM     82  O   UNL A   1      40.104  20.544  27.120  1.00  0.00    -0.237 OA
ATOM     83  O   UNL A   1      41.656  19.648  25.413  1.00  0.00    -0.237 OA
ATOM     84  O   UNL A   1      42.336  19.729  27.782  1.00  0.00    -0.744 OA
ENDBRANCH  77  81
ENDBRANCH  50  74
BRANCH  62  85
ATOM     85  C   UNL A   1      46.677  25.580  32.795  1.00  0.00     0.023 A 
ATOM     86  C   UNL A   1      47.941  25.872  32.253  1.00  0.00     0.031 A 
ATOM     87  C   UNL A   1      46.607  24.641  33.840  1.00  0.00     0.131 A 
ATOM     88  C   UNL A   1      49.075  25.187  32.718  1.00  0.00     0.055 A 
ATOM     89  C   UNL A   1      47.746  24.014  34.343  1.00  0.00     0.041 A 
ATOM     90  F   UNL A   1      45.425  24.321  34.394  1.00  0.00    -0.206 F 
ATOM     91  C   UNL A   1      48.989  24.274  33.771  1.00  0.00     0.022 A 
BRANCH  88  92
ATOM     92  S   UNL A   1      50.652  25.433  31.855  1.00  0.00     0.124 S 
ATOM     93  O   UNL A   1      50.313  26.477  30.894  1.00  0.00    -0.237 OA
ATOM     94  O   UNL A   1      51.542  25.831  32.941  1.00  0.00    -0.237 OA
ATOM     95  O   UNL A   1      50.932  24.121  31.274  1.00  0.00    -0.744 OA
ENDBRANCH  88  92
ENDBRANCH  62  85
ENDBRANCH  36  37
ENDBRANCH  28  31
ENDBRANCH  26  27
ENDBRANCH  25  26
ENDBRANCH   1  25
TORSDOF 19
ENDMDL
MODEL 3
REMARK VINA RESULT:     -11.0      2.011      7.963
REMARK SMILES CCC(CC)(CC)NC(=O)NC[C@@H]1CC[C@H](C(=O)NCCCNC(=O)c2ccc(-c3c4nc(c(-c5cc(S(=O)(=O)[O-])ccc5F)c5ccc([nH]5)c(-c5cc(S(=O)(=O)[O-])ccc5F)c5nc(c(-c6cc(S(=O)(=O)[O-])ccc6F)c6ccc3[nH]6)C=C5)C=C4)cc2)O1
REMARK SMILES IDX 20 1 19 2 17 3 18 4 16 6 13 7 14 8 89 9 15 10 12 11 11 12
REMARK SMILES IDX 8 13 9 14 10 16 3 18 2 19 1 20 4 21 5 22 6 23 7 24 21 25
REMARK SMILES IDX 22 26 23 27 24 28 25 30 26 31 27 32 88 33 28 34 87 35 29 36
REMARK SMILES IDX 30 37 31 38 81 39 32 40 86 41 80 42 82 43 33 44 85 45 79 46
REMARK SMILES IDX 78 47 34 49 66 50 46 51 65 52 47 53 50 54 64 55 83 56 48 57
REMARK SMILES IDX 49 58 63 60 84 61 51 62 35 63 36 64 44 65 37 66 43 67 45 68
REMARK SMILES IDX 42 69 38 70 39 71 40 72 41 73 67 74 68 75 76 76 69 77 75 78
REMARK SMILES IDX 77 79 74 80 70 81 71 82 72 83 73 84 52 85 53 86 61 87 54 88
REMARK SMILES IDX 60 89 62 90 59 91 55 92 56 93 57 94 58 95
REMARK H PARENT 19 5 8 15 11 17 23 29 82 48 50 59
REMARK Flexibility Score: inf
ROOT
ATOM      1  C   UNL A   1      32.894  28.186  22.927  1.00  0.00     0.117 C 
ENDROOT
BRANCH   1   2
ATOM      2  N   UNL A   1      31.897  28.865  22.129  1.00  0.00    -0.354 N 
ATOM      3  C   UNL A   1      30.571  29.075  22.370  1.00  0.00     0.249 C 
ATOM      4  O   UNL A   1      29.934  29.696  21.512  1.00  0.00    -0.272 OA
ATOM      5  H   UNL A   1      32.228  29.234  21.278  1.00  0.00     0.163 HD
BRANCH   3   6
ATOM      6  C   UNL A   1      29.850  28.516  23.624  1.00  0.00     0.207 C 
ATOM      7  C   UNL A   1      29.681  26.401  24.673  1.00  0.00     0.138 C 
ATOM      8  C   UNL A   1      28.551  26.524  23.653  1.00  0.00     0.037 C 
ATOM      9  O   UNL A   1      30.556  27.518  24.371  1.00  0.00    -0.363 OA
ATOM     10  C   UNL A   1      28.466  27.986  23.305  1.00  0.00     0.045 C 
BRANCH   7  11
ATOM     11  C   UNL A   1      30.573  25.107  24.744  1.00  0.00     0.149 C 
BRANCH  11  12
ATOM     12  N   UNL A   1      30.128  23.981  25.579  1.00  0.00    -0.336 N 
ATOM     13  N   UNL A   1      31.881  22.540  26.406  1.00  0.00    -0.333 N 
ATOM     14  C   UNL A   1      30.720  23.212  26.518  1.00  0.00     0.315 C 
ATOM     15  H   UNL A   1      32.081  22.049  27.235  1.00  0.00     0.165 HD
ATOM     16  O   UNL A   1      30.070  23.022  27.552  1.00  0.00    -0.249 OA
ATOM     17  H   UNL A   1      29.189  23.732  25.418  1.00  0.00     0.165 HD
BRANCH  13  18
ATOM     18  C   UNL A   1      32.950  22.324  25.397  1.00  0.00     0.041 C 
BRANCH  18  19
ATOM     19  C   UNL A   1      32.406  21.471  24.258  1.00  0.00     0.025 C 
ATOM     20  C   UNL A   1      32.210  22.237  22.939  1.00  0.00     0.006 C 
ENDBRANCH  18  19
BRANCH  18  21
ATOM     21  C   UNL A   1      34.169  21.506  25.986  1.00  0.00     0.025 C 
ATOM     22  C   UNL A   1      34.790  20.502  24.991  1.00  0.00     0.006 C 
ENDBRANCH  18  21
BRANCH  18  23
ATOM     23  C   UNL A   1      33.550  23.703  24.960  1.00  0.00     0.025 C 
ATOM     24  C   UNL A   1      34.888  24.131  25.549  1.00  0.00     0.006 C 
ENDBRANCH  18  23
ENDBRANCH  13  18
ENDBRANCH  11  12
ENDBRANCH   7  11
ENDBRANCH   3   6
ENDBRANCH   1   2
BRANCH   1  25
ATOM     25  C   UNL A   1      33.650  29.139  23.840  1.00  0.00     0.042 C 
BRANCH  25  26
ATOM     26  C   UNL A   1      33.201  29.088  25.292  1.00  0.00     0.118 C 
BRANCH  26  27
ATOM     27  N   UNL A   1      32.734  30.389  25.763  1.00  0.00    -0.352 N 
ATOM     28  C   UNL A   1      33.144  31.170  26.814  1.00  0.00     0.251 C 
ATOM     29  H   UNL A   1      31.996  30.772  25.236  1.00  0.00     0.163 HD
ATOM     30  O   UNL A   1      32.422  32.118  27.151  1.00  0.00    -0.269 OA
BRANCH  28  31
ATOM     31  C   UNL A   1      34.397  30.901  27.557  1.00  0.00     0.039 A 
ATOM     32  C   UNL A   1      35.325  31.936  27.719  1.00  0.00     0.014 A 
ATOM     33  C   UNL A   1      34.702  29.629  28.046  1.00  0.00     0.014 A 
ATOM     34  C   UNL A   1      36.519  31.708  28.414  1.00  0.00     0.010 A 
ATOM     35  C   UNL A   1      35.839  29.431  28.826  1.00  0.00     0.010 A 
ATOM     36  C   UNL A   1      36.771  30.462  29.007  1.00  0.00    -0.014 A 
BRANCH  36  37
ATOM     37  C   UNL A   1      38.008  30.201  29.793  1.00  0.00     0.031 A 
ATOM     38  C   UNL A   1      39.047  29.243  29.267  1.00  0.00     0.074 A 
ATOM     39  C   UNL A   1      38.169  30.770  31.005  1.00  0.00     0.049 A 
ATOM     40  N   UNL A   1      40.128  28.788  29.848  1.00  0.00    -0.248 NA
ATOM     41  C   UNL A   1      38.818  28.696  27.920  1.00  0.00     0.031 C 
ATOM     42  C   UNL A   1      37.225  31.694  31.638  1.00  0.00     0.029 A 
ATOM     43  N   UNL A   1      39.178  30.648  31.929  1.00  0.00    -0.354 N 
ATOM     44  C   UNL A   1      40.697  27.892  28.948  1.00  0.00     0.074 A 
ATOM     45  C   UNL A   1      39.804  27.819  27.812  1.00  0.00     0.031 C 
ATOM     46  C   UNL A   1      37.713  32.076  32.828  1.00  0.00     0.029 A 
ATOM     47  C   UNL A   1      38.972  31.381  33.075  1.00  0.00     0.049 A 
ATOM     48  H   UNL A   1      39.975  30.088  31.783  1.00  0.00     0.167 HD
ATOM     49  C   UNL A   1      41.868  27.214  29.046  1.00  0.00     0.034 A 
ATOM     50  C   UNL A   1      39.703  31.470  34.204  1.00  0.00     0.034 A 
ATOM     51  C   UNL A   1      42.758  27.312  30.177  1.00  0.00     0.049 A 
ATOM     52  C   UNL A   1      40.981  30.674  34.307  1.00  0.00     0.074 A 
ATOM     53  C   UNL A   1      43.989  26.707  30.362  1.00  0.00     0.029 A 
ATOM     54  N   UNL A   1      42.511  28.062  31.321  1.00  0.00    -0.354 N 
ATOM     55  N   UNL A   1      41.523  29.860  33.430  1.00  0.00    -0.248 NA
ATOM     56  C   UNL A   1      41.752  30.817  35.550  1.00  0.00     0.031 C 
ATOM     57  C   UNL A   1      44.451  27.032  31.640  1.00  0.00     0.029 A 
ATOM     58  C   UNL A   1      43.551  27.908  32.225  1.00  0.00     0.049 A 
ATOM     59  H   UNL A   1      41.714  28.621  31.469  1.00  0.00     0.167 HD
ATOM     60  C   UNL A   1      42.714  29.424  34.003  1.00  0.00     0.074 A 
ATOM     61  C   UNL A   1      42.820  30.078  35.290  1.00  0.00     0.031 C 
ATOM     62  C   UNL A   1      43.641  28.562  33.509  1.00  0.00     0.034 A 
BRANCH  49  63
ATOM     63  C   UNL A   1      42.241  26.295  27.906  1.00  0.00     0.023 A 
ATOM     64  C   UNL A   1      41.733  24.986  27.816  1.00  0.00     0.031 A 
ATOM     65  C   UNL A   1      43.128  26.723  26.903  1.00  0.00     0.131 A 
ATOM     66  C   UNL A   1      42.174  24.131  26.796  1.00  0.00     0.055 A 
ATOM     67  C   UNL A   1      43.494  25.894  25.840  1.00  0.00     0.041 A 
ATOM     68  F   UNL A   1      43.663  27.953  26.943  1.00  0.00    -0.206 F 
ATOM     69  C   UNL A   1      43.029  24.584  25.790  1.00  0.00     0.022 A 
BRANCH  66  70
ATOM     70  S   UNL A   1      41.728  22.374  26.887  1.00  0.00     0.124 S 
ATOM     71  O   UNL A   1      42.588  21.909  27.973  1.00  0.00    -0.237 OA
ATOM     72  O   UNL A   1      40.300  22.426  27.181  1.00  0.00    -0.237 OA
ATOM     73  O   UNL A   1      42.076  21.864  25.564  1.00  0.00    -0.744 OA
ENDBRANCH  66  70
ENDBRANCH  49  63
BRANCH  50  74
ATOM     74  C   UNL A   1      39.251  32.328  35.338  1.00  0.00     0.023 A 
ATOM     75  C   UNL A   1      39.695  33.655  35.459  1.00  0.00     0.031 A 
ATOM     76  C   UNL A   1      38.417  31.820  36.350  1.00  0.00     0.131 A 
ATOM     77  C   UNL A   1      39.352  34.408  36.592  1.00  0.00     0.055 A 
ATOM     78  C   UNL A   1      38.027  32.593  37.445  1.00  0.00     0.041 A 
ATOM     79  F   UNL A   1      37.960  30.559  36.285  1.00  0.00    -0.206 F 
ATOM     80  C   UNL A   1      38.509  33.892  37.579  1.00  0.00     0.022 A 
BRANCH  77  81
ATOM     81  S   UNL A   1      40.116  36.039  36.812  1.00  0.00     0.124 S 
ATOM     82  O   UNL A   1      39.489  36.493  38.049  1.00  0.00    -0.237 OA
ATOM     83  O   UNL A   1      41.532  35.699  36.897  1.00  0.00    -0.237 OA
ATOM     84  O   UNL A   1      39.720  36.765  35.608  1.00  0.00    -0.744 OA
ENDBRANCH  77  81
ENDBRANCH  50  74
BRANCH  62  85
ATOM     85  C   UNL A   1      44.874  28.323  34.348  1.00  0.00     0.023 A 
ATOM     86  C   UNL A   1      44.941  27.279  35.287  1.00  0.00     0.031 A 
ATOM     87  C   UNL A   1      45.994  29.163  34.212  1.00  0.00     0.131 A 
ATOM     88  C   UNL A   1      46.080  27.139  36.095  1.00  0.00     0.055 A 
ATOM     89  C   UNL A   1      47.149  28.977  34.971  1.00  0.00     0.041 A 
ATOM     90  F   UNL A   1      45.984  30.179  33.333  1.00  0.00    -0.206 F 
ATOM     91  C   UNL A   1      47.191  27.969  35.931  1.00  0.00     0.022 A 
BRANCH  88  92
ATOM     92  S   UNL A   1      46.049  25.918  37.437  1.00  0.00     0.124 S 
ATOM     93  O   UNL A   1      44.816  26.267  38.136  1.00  0.00    -0.237 OA
ATOM     94  O   UNL A   1      46.032  24.654  36.708  1.00  0.00    -0.237 OA
ATOM     95  O   UNL A   1      47.280  26.191  38.176  1.00  0.00    -0.744 OA
ENDBRANCH  88  92
ENDBRANCH  62  85
ENDBRANCH  36  37
ENDBRANCH  28  31
ENDBRANCH  26  27
ENDBRANCH  25  26
ENDBRANCH   1  25
TORSDOF 19
ENDMDL
