MODEL 1
REMARK VINA RESULT:     -12.0      0.000      0.000
REMARK SMILES C[C@H](C(=O)NCCCNC(=O)c1ccc(-c2c3nc(c(-c4cc(S(=O)(=O)[O-])ccc4F)c4ccc([nH]4)c(-c4cc(S(=O)(=O)[O-])ccc4F)c4nc(c(-c5cc(S(=O)(=O)[O-])ccc5F)c5ccc2[nH]5)C=C4)C=C3)cc1)c1ccc(C[C@H]2CCC[C@@H]2O)cc1
REMARK SMILES IDX 6 1 5 2 3 3 4 4 2 6 1 7 75 8 76 9 87 10 77 11 86 12 78 13
REMARK SMILES IDX 79 14 80 15 81 16 84 17 82 18 83 19 85 20 7 22 8 23 9 24
REMARK SMILES IDX 10 25 11 27 12 28 13 29 74 30 14 31 73 32 15 33 16 34 17 35
REMARK SMILES IDX 67 36 18 37 72 38 66 39 68 40 19 41 71 42 65 43 64 44 20 46
REMARK SMILES IDX 52 47 32 48 51 49 33 50 36 51 50 52 69 53 34 54 35 55 49 57
REMARK SMILES IDX 70 58 37 59 21 60 22 61 30 62 23 63 29 64 31 65 28 66 24 67
REMARK SMILES IDX 25 68 26 69 27 70 53 71 54 72 62 73 55 74 61 75 63 76 60 77
REMARK SMILES IDX 56 78 57 79 58 80 59 81 38 82 39 83 47 84 40 85 46 86 48 87
REMARK SMILES IDX 45 88 41 89 42 90 43 91 44 92
REMARK H PARENT 5 5 85 21 9 26 68 45 36 56
REMARK Flexibility Score: inf
ROOT
ATOM      1  C   UNL A   1      31.829  30.220  26.309  1.00  0.00     0.117 C 
ENDROOT
BRANCH   1   2
ATOM      2  N   UNL A   1      32.289  29.900  24.970  1.00  0.00    -0.356 N 
ATOM      3  C   UNL A   1      31.834  28.976  24.077  1.00  0.00     0.227 C 
ATOM      4  O   UNL A   1      32.363  28.959  22.962  1.00  0.00    -0.274 OA
ATOM      5  H   UNL A   1      33.052  30.438  24.655  1.00  0.00     0.163 HD
BRANCH   3   6
ATOM      6  C   UNL A   1      30.709  28.001  24.427  1.00  0.00     0.105 C 
ATOM      7  C   UNL A   1      29.758  27.799  23.243  1.00  0.00     0.023 C 
BRANCH   6   8
ATOM      8  C   UNL A   1      31.141  26.697  25.089  1.00  0.00    -0.036 A 
ATOM      9  C   UNL A   1      30.161  25.784  25.509  1.00  0.00     0.005 A 
ATOM     10  C   UNL A   1      32.483  26.373  25.333  1.00  0.00     0.005 A 
ATOM     11  C   UNL A   1      30.511  24.591  26.140  1.00  0.00     0.004 A 
ATOM     12  C   UNL A   1      32.835  25.177  25.957  1.00  0.00     0.004 A 
ATOM     13  C   UNL A   1      31.850  24.291  26.402  1.00  0.00    -0.048 A 
BRANCH  13  14
ATOM     14  C   UNL A   1      32.232  23.081  27.216  1.00  0.00     0.041 C 
BRANCH  14  15
ATOM     15  C   UNL A   1      32.711  21.872  26.393  1.00  0.00     0.022 C 
ATOM     16  C   UNL A   1      32.040  21.683  25.020  1.00  0.00     0.007 C 
ATOM     17  C   UNL A   1      34.211  21.829  26.088  1.00  0.00     0.117 C 
ATOM     18  C   UNL A   1      33.130  21.160  24.081  1.00  0.00     0.003 C 
ATOM     19  C   UNL A   1      34.298  20.790  24.982  1.00  0.00     0.032 C 
BRANCH  17  20
ATOM     20  O   UNL A   1      34.970  21.427  27.214  1.00  0.00    -0.393 OA
ATOM     21  H   UNL A   1      35.833  21.094  26.921  1.00  0.00     0.210 HD
ENDBRANCH  17  20
ENDBRANCH  14  15
ENDBRANCH  13  14
ENDBRANCH   6   8
ENDBRANCH   3   6
ENDBRANCH   1   2
BRANCH   1  22
ATOM     22  C   UNL A   1      31.661  31.716  26.525  1.00  0.00     0.042 C 
BRANCH  22  23
ATOM     23  C   UNL A   1      32.819  32.364  27.271  1.00  0.00     0.118 C 
BRANCH  23  24
ATOM     24  N   UNL A   1      32.587  33.775  27.548  1.00  0.00    -0.352 N 
ATOM     25  C   UNL A   1      33.162  34.590  28.491  1.00  0.00     0.251 C 
ATOM     26  H   UNL A   1      31.917  34.208  26.973  1.00  0.00     0.163 HD
ATOM     27  O   UNL A   1      32.682  35.706  28.693  1.00  0.00    -0.269 OA
BRANCH  25  28
ATOM     28  C   UNL A   1      34.325  34.123  29.279  1.00  0.00     0.039 A 
ATOM     29  C   UNL A   1      34.097  33.385  30.443  1.00  0.00     0.014 A 
ATOM     30  C   UNL A   1      35.633  34.406  28.877  1.00  0.00     0.014 A 
ATOM     31  C   UNL A   1      35.181  32.866  31.156  1.00  0.00     0.010 A 
ATOM     32  C   UNL A   1      36.707  33.813  29.537  1.00  0.00     0.010 A 
ATOM     33  C   UNL A   1      36.493  33.034  30.683  1.00  0.00    -0.014 A 
BRANCH  33  34
ATOM     34  C   UNL A   1      37.646  32.390  31.367  1.00  0.00     0.031 A 
ATOM     35  C   UNL A   1      38.392  31.265  30.701  1.00  0.00     0.074 A 
ATOM     36  C   UNL A   1      37.985  32.783  32.612  1.00  0.00     0.049 A 
ATOM     37  N   UNL A   1      39.378  30.539  31.163  1.00  0.00    -0.248 NA
ATOM     38  C   UNL A   1      37.958  30.890  29.346  1.00  0.00     0.031 C 
ATOM     39  C   UNL A   1      37.313  33.839  33.376  1.00  0.00     0.029 A 
ATOM     40  N   UNL A   1      38.971  32.342  33.460  1.00  0.00    -0.354 N 
ATOM     41  C   UNL A   1      39.675  29.617  30.164  1.00  0.00     0.074 A 
ATOM     42  C   UNL A   1      38.726  29.840  29.094  1.00  0.00     0.031 C 
ATOM     43  C   UNL A   1      37.925  33.982  34.562  1.00  0.00     0.029 A 
ATOM     44  C   UNL A   1      38.993  32.995  34.672  1.00  0.00     0.049 A 
ATOM     45  H   UNL A   1      39.604  31.627  33.223  1.00  0.00     0.167 HD
ATOM     46  C   UNL A   1      40.660  28.687  30.135  1.00  0.00     0.034 A 
ATOM     47  C   UNL A   1      39.773  32.809  35.757  1.00  0.00     0.034 A 
ATOM     48  C   UNL A   1      41.605  28.485  31.206  1.00  0.00     0.049 A 
ATOM     49  C   UNL A   1      40.836  31.738  35.711  1.00  0.00     0.074 A 
ATOM     50  C   UNL A   1      42.678  27.610  31.252  1.00  0.00     0.029 A 
ATOM     51  N   UNL A   1      41.590  29.155  32.422  1.00  0.00    -0.354 N 
ATOM     52  N   UNL A   1      41.138  30.915  34.733  1.00  0.00    -0.248 NA
ATOM     53  C   UNL A   1      41.668  31.578  36.910  1.00  0.00     0.031 C 
ATOM     54  C   UNL A   1      43.257  27.692  32.523  1.00  0.00     0.029 A 
ATOM     55  C   UNL A   1      42.607  28.684  33.238  1.00  0.00     0.049 A 
ATOM     56  H   UNL A   1      40.950  29.862  32.669  1.00  0.00     0.167 HD
ATOM     57  C   UNL A   1      42.220  30.166  35.190  1.00  0.00     0.074 A 
ATOM     58  C   UNL A   1      42.527  30.649  36.519  1.00  0.00     0.031 C 
ATOM     59  C   UNL A   1      42.900  29.169  34.567  1.00  0.00     0.034 A 
BRANCH  46  60
ATOM     60  C   UNL A   1      40.753  27.797  28.918  1.00  0.00     0.023 A 
ATOM     61  C   UNL A   1      41.715  28.008  27.915  1.00  0.00     0.031 A 
ATOM     62  C   UNL A   1      39.870  26.713  28.764  1.00  0.00     0.131 A 
ATOM     63  C   UNL A   1      41.737  27.185  26.780  1.00  0.00     0.055 A 
ATOM     64  C   UNL A   1      39.948  25.849  27.670  1.00  0.00     0.041 A 
ATOM     65  F   UNL A   1      38.915  26.474  29.676  1.00  0.00    -0.206 F 
ATOM     66  C   UNL A   1      40.879  26.088  26.664  1.00  0.00     0.022 A 
BRANCH  63  67
ATOM     67  S   UNL A   1      42.821  27.638  25.399  1.00  0.00     0.124 S 
ATOM     68  O   UNL A   1      43.045  26.341  24.763  1.00  0.00    -0.237 OA
ATOM     69  O   UNL A   1      42.001  28.583  24.651  1.00  0.00    -0.237 OA
ATOM     70  O   UNL A   1      43.993  28.211  26.056  1.00  0.00    -0.744 OA
ENDBRANCH  63  67
ENDBRANCH  46  60
BRANCH  47  71
ATOM     71  C   UNL A   1      39.576  33.627  36.990  1.00  0.00     0.023 A 
ATOM     72  C   UNL A   1      40.375  34.753  37.247  1.00  0.00     0.031 A 
ATOM     73  C   UNL A   1      38.634  33.255  37.967  1.00  0.00     0.131 A 
ATOM     74  C   UNL A   1      40.266  35.425  38.475  1.00  0.00     0.055 A 
ATOM     75  C   UNL A   1      38.481  33.968  39.157  1.00  0.00     0.041 A 
ATOM     76  F   UNL A   1      37.841  32.188  37.776  1.00  0.00    -0.206 F 
ATOM     77  C   UNL A   1      39.314  35.050  39.424  1.00  0.00     0.022 A 
BRANCH  74  78
ATOM     78  S   UNL A   1      41.476  36.720  38.864  1.00  0.00     0.124 S 
ATOM     79  O   UNL A   1      42.268  36.080  39.907  1.00  0.00    -0.237 OA
ATOM     80  O   UNL A   1      42.138  36.910  37.578  1.00  0.00    -0.237 OA
ATOM     81  O   UNL A   1      40.645  37.837  39.308  1.00  0.00    -0.744 OA
ENDBRANCH  74  78
ENDBRANCH  47  71
BRANCH  59  82
ATOM     82  C   UNL A   1      44.077  28.575  35.303  1.00  0.00     0.023 A 
ATOM     83  C   UNL A   1      43.920  27.537  36.238  1.00  0.00     0.031 A 
ATOM     84  C   UNL A   1      45.375  29.064  35.071  1.00  0.00     0.131 A 
ATOM     85  C   UNL A   1      45.032  27.066  36.952  1.00  0.00     0.055 A 
ATOM     86  C   UNL A   1      46.486  28.542  35.734  1.00  0.00     0.041 A 
ATOM     87  F   UNL A   1      45.585  30.057  34.192  1.00  0.00    -0.206 F 
ATOM     88  C   UNL A   1      46.317  27.548  36.691  1.00  0.00     0.022 A 
BRANCH  85  89
ATOM     89  S   UNL A   1      44.762  25.886  38.304  1.00  0.00     0.124 S 
ATOM     90  O   UNL A   1      43.820  26.609  39.153  1.00  0.00    -0.237 OA
ATOM     91  O   UNL A   1      44.225  24.725  37.603  1.00  0.00    -0.237 OA
ATOM     92  O   UNL A   1      46.096  25.705  38.872  1.00  0.00    -0.744 OA
ENDBRANCH  85  89
ENDBRANCH  59  82
ENDBRANCH  33  34
ENDBRANCH  25  28
ENDBRANCH  23  24
ENDBRANCH  22  23
ENDBRANCH   1  22
TORSDOF 17
ENDMDL
MODEL 2
REMARK VINA RESULT:     -11.8      2.742      8.304
REMARK SMILES C[C@H](C(=O)NCCCNC(=O)c1ccc(-c2c3nc(c(-c4cc(S(=O)(=O)[O-])ccc4F)c4ccc([nH]4)c(-c4cc(S(=O)(=O)[O-])ccc4F)c4nc(c(-c5cc(S(=O)(=O)[O-])ccc5F)c5ccc2[nH]5)C=C4)C=C3)cc1)c1ccc(C[C@H]2CCC[C@@H]2O)cc1
REMARK SMILES IDX 6 1 5 2 3 3 4 4 2 6 1 7 75 8 76 9 87 10 77 11 86 12 78 13
REMARK SMILES IDX 79 14 80 15 81 16 84 17 82 18 83 19 85 20 7 22 8 23 9 24
REMARK SMILES IDX 10 25 11 27 12 28 13 29 74 30 14 31 73 32 15 33 16 34 17 35
REMARK SMILES IDX 67 36 18 37 72 38 66 39 68 40 19 41 71 42 65 43 64 44 20 46
REMARK SMILES IDX 52 47 32 48 51 49 33 50 36 51 50 52 69 53 34 54 35 55 49 57
REMARK SMILES IDX 70 58 37 59 21 60 22 61 30 62 23 63 29 64 31 65 28 66 24 67
REMARK SMILES IDX 25 68 26 69 27 70 53 71 54 72 62 73 55 74 61 75 63 76 60 77
REMARK SMILES IDX 56 78 57 79 58 80 59 81 38 82 39 83 47 84 40 85 46 86 48 87
REMARK SMILES IDX 45 88 41 89 42 90 43 91 44 92
REMARK H PARENT 5 5 85 21 9 26 68 45 36 56
REMARK Flexibility Score: inf
ROOT
ATOM      1  C   UNL A   1      31.043  30.140  24.963  1.00  0.00     0.117 C 
ENDROOT
BRANCH   1   2
ATOM      2  N   UNL A   1      30.705  29.647  23.640  1.00  0.00    -0.356 N 
ATOM      3  C   UNL A   1      30.317  28.406  23.233  1.00  0.00     0.227 C 
ATOM      4  O   UNL A   1      30.014  28.269  22.044  1.00  0.00    -0.274 OA
ATOM      5  H   UNL A   1      30.766  30.317  22.920  1.00  0.00     0.163 HD
BRANCH   3   6
ATOM      6  C   UNL A   1      30.246  27.224  24.201  1.00  0.00     0.105 C 
ATOM      7  C   UNL A   1      29.065  26.306  23.875  1.00  0.00     0.023 C 
BRANCH   6   8
ATOM      8  C   UNL A   1      31.554  26.474  24.432  1.00  0.00    -0.036 A 
ATOM      9  C   UNL A   1      31.702  25.695  25.590  1.00  0.00     0.005 A 
ATOM     10  C   UNL A   1      32.642  26.549  23.551  1.00  0.00     0.005 A 
ATOM     11  C   UNL A   1      32.890  25.013  25.852  1.00  0.00     0.004 A 
ATOM     12  C   UNL A   1      33.828  25.861  23.808  1.00  0.00     0.004 A 
ATOM     13  C   UNL A   1      33.976  25.116  24.981  1.00  0.00    -0.048 A 
BRANCH  13  14
ATOM     14  C   UNL A   1      35.312  24.509  25.327  1.00  0.00     0.041 C 
BRANCH  14  15
ATOM     15  C   UNL A   1      35.500  23.053  24.865  1.00  0.00     0.022 C 
ATOM     16  C   UNL A   1      36.773  22.764  24.049  1.00  0.00     0.007 C 
ATOM     17  C   UNL A   1      35.518  22.001  25.978  1.00  0.00     0.117 C 
ATOM     18  C   UNL A   1      37.240  21.367  24.469  1.00  0.00     0.003 C 
ATOM     19  C   UNL A   1      36.092  20.781  25.276  1.00  0.00     0.032 C 
BRANCH  17  20
ATOM     20  O   UNL A   1      34.220  21.729  26.473  1.00  0.00    -0.393 OA
ATOM     21  H   UNL A   1      33.897  22.494  26.975  1.00  0.00     0.210 HD
ENDBRANCH  17  20
ENDBRANCH  14  15
ENDBRANCH  13  14
ENDBRANCH   6   8
ENDBRANCH   3   6
ENDBRANCH   1   2
BRANCH   1  22
ATOM     22  C   UNL A   1      32.460  29.773  25.377  1.00  0.00     0.042 C 
BRANCH  22  23
ATOM     23  C   UNL A   1      32.800  30.151  26.812  1.00  0.00     0.118 C 
BRANCH  23  24
ATOM     24  N   UNL A   1      32.906  31.591  27.002  1.00  0.00    -0.352 N 
ATOM     25  C   UNL A   1      33.864  32.321  27.661  1.00  0.00     0.251 C 
ATOM     26  H   UNL A   1      32.183  32.120  26.596  1.00  0.00     0.163 HD
ATOM     27  O   UNL A   1      33.665  33.516  27.877  1.00  0.00    -0.269 OA
BRANCH  25  28
ATOM     28  C   UNL A   1      35.107  31.673  28.135  1.00  0.00     0.039 A 
ATOM     29  C   UNL A   1      36.274  32.436  28.223  1.00  0.00     0.014 A 
ATOM     30  C   UNL A   1      35.130  30.322  28.492  1.00  0.00     0.014 A 
ATOM     31  C   UNL A   1      37.437  31.864  28.744  1.00  0.00     0.010 A 
ATOM     32  C   UNL A   1      36.263  29.780  29.094  1.00  0.00     0.010 A 
ATOM     33  C   UNL A   1      37.430  30.546  29.230  1.00  0.00    -0.014 A 
BRANCH  33  34
ATOM     34  C   UNL A   1      38.626  29.962  29.893  1.00  0.00     0.031 A 
ATOM     35  C   UNL A   1      39.039  30.430  31.263  1.00  0.00     0.074 A 
ATOM     36  C   UNL A   1      39.371  29.050  29.236  1.00  0.00     0.049 A 
ATOM     37  N   UNL A   1      40.083  30.087  31.973  1.00  0.00    -0.248 NA
ATOM     38  C   UNL A   1      38.178  31.431  31.911  1.00  0.00     0.031 C 
ATOM     39  C   UNL A   1      39.092  28.544  27.889  1.00  0.00     0.029 A 
ATOM     40  N   UNL A   1      40.517  28.388  29.603  1.00  0.00    -0.354 N 
ATOM     41  C   UNL A   1      40.012  30.837  33.143  1.00  0.00     0.074 A 
ATOM     42  C   UNL A   1      38.852  31.693  33.022  1.00  0.00     0.031 C 
ATOM     43  C   UNL A   1      40.021  27.634  27.558  1.00  0.00     0.029 A 
ATOM     44  C   UNL A   1      40.995  27.528  28.639  1.00  0.00     0.049 A 
ATOM     45  H   UNL A   1      40.955  28.515  30.475  1.00  0.00     0.167 HD
ATOM     46  C   UNL A   1      40.827  30.798  34.226  1.00  0.00     0.034 A 
ATOM     47  C   UNL A   1      42.101  26.756  28.620  1.00  0.00     0.034 A 
ATOM     48  C   UNL A   1      41.974  29.930  34.336  1.00  0.00     0.049 A 
ATOM     49  C   UNL A   1      43.012  26.763  29.823  1.00  0.00     0.074 A 
ATOM     50  C   UNL A   1      42.831  29.770  35.412  1.00  0.00     0.029 A 
ATOM     51  N   UNL A   1      42.434  29.083  33.336  1.00  0.00    -0.354 N 
ATOM     52  N   UNL A   1      42.894  27.437  30.944  1.00  0.00    -0.248 NA
ATOM     53  C   UNL A   1      44.197  25.900  29.762  1.00  0.00     0.031 C 
ATOM     54  C   UNL A   1      43.852  28.893  35.034  1.00  0.00     0.029 A 
ATOM     55  C   UNL A   1      43.584  28.431  33.756  1.00  0.00     0.049 A 
ATOM     56  H   UNL A   1      42.006  28.962  32.457  1.00  0.00     0.167 HD
ATOM     57  C   UNL A   1      43.974  27.048  31.734  1.00  0.00     0.074 A 
ATOM     58  C   UNL A   1      44.716  26.069  30.969  1.00  0.00     0.031 C 
ATOM     59  C   UNL A   1      44.320  27.460  32.980  1.00  0.00     0.034 A 
BRANCH  46  60
ATOM     60  C   UNL A   1      40.525  31.738  35.369  1.00  0.00     0.023 A 
ATOM     61  C   UNL A   1      39.440  31.526  36.237  1.00  0.00     0.031 A 
ATOM     62  C   UNL A   1      41.343  32.859  35.599  1.00  0.00     0.131 A 
ATOM     63  C   UNL A   1      39.170  32.448  37.259  1.00  0.00     0.055 A 
ATOM     64  C   UNL A   1      41.115  33.730  36.666  1.00  0.00     0.041 A 
ATOM     65  F   UNL A   1      42.380  33.127  34.790  1.00  0.00    -0.206 F 
ATOM     66  C   UNL A   1      40.017  33.534  37.497  1.00  0.00     0.022 A 
BRANCH  63  67
ATOM     67  S   UNL A   1      37.627  32.279  38.196  1.00  0.00     0.124 S 
ATOM     68  O   UNL A   1      38.027  32.768  39.513  1.00  0.00    -0.237 OA
ATOM     69  O   UNL A   1      36.710  33.132  37.450  1.00  0.00    -0.237 OA
ATOM     70  O   UNL A   1      37.341  30.848  38.131  1.00  0.00    -0.744 OA
ENDBRANCH  63  67
ENDBRANCH  46  60
BRANCH  47  71
ATOM     71  C   UNL A   1      42.434  25.928  27.423  1.00  0.00     0.023 A 
ATOM     72  C   UNL A   1      41.998  24.597  27.320  1.00  0.00     0.031 A 
ATOM     73  C   UNL A   1      43.254  26.430  26.396  1.00  0.00     0.131 A 
ATOM     74  C   UNL A   1      42.438  23.796  26.254  1.00  0.00     0.055 A 
ATOM     75  C   UNL A   1      43.631  25.650  25.302  1.00  0.00     0.041 A 
ATOM     76  F   UNL A   1      43.700  27.696  26.439  1.00  0.00    -0.206 F 
ATOM     77  C   UNL A   1      43.238  24.318  25.237  1.00  0.00     0.022 A 
BRANCH  74  78
ATOM     78  S   UNL A   1      42.050  22.023  26.285  1.00  0.00     0.124 S 
ATOM     79  O   UNL A   1      42.927  21.510  25.240  1.00  0.00    -0.237 OA
ATOM     80  O   UNL A   1      42.401  21.662  27.655  1.00  0.00    -0.237 OA
ATOM     81  O   UNL A   1      40.622  21.983  25.978  1.00  0.00    -0.744 OA
ENDBRANCH  74  78
ENDBRANCH  47  71
BRANCH  59  82
ATOM     82  C   UNL A   1      45.529  26.810  33.609  1.00  0.00     0.023 A 
ATOM     83  C   UNL A   1      45.427  25.628  34.363  1.00  0.00     0.031 A 
ATOM     84  C   UNL A   1      46.802  27.391  33.461  1.00  0.00     0.131 A 
ATOM     85  C   UNL A   1      46.566  25.099  34.991  1.00  0.00     0.055 A 
ATOM     86  C   UNL A   1      47.940  26.822  34.031  1.00  0.00     0.041 A 
ATOM     87  F   UNL A   1      46.958  28.523  32.756  1.00  0.00    -0.206 F 
ATOM     88  C   UNL A   1      47.824  25.678  34.813  1.00  0.00     0.022 A 
BRANCH  85  89
ATOM     89  S   UNL A   1      46.361  23.704  36.133  1.00  0.00     0.124 S 
ATOM     90  O   UNL A   1      46.407  24.367  37.433  1.00  0.00    -0.237 OA
ATOM     91  O   UNL A   1      45.063  23.166  35.739  1.00  0.00    -0.237 OA
ATOM     92  O   UNL A   1      47.505  22.845  35.833  1.00  0.00    -0.744 OA
ENDBRANCH  85  89
ENDBRANCH  59  82
ENDBRANCH  33  34
ENDBRANCH  25  28
ENDBRANCH  23  24
ENDBRANCH  22  23
ENDBRANCH   1  22
TORSDOF 17
ENDMDL
MODEL 3
REMARK VINA RESULT:     -11.7      2.226      2.599
REMARK SMILES C[C@H](C(=O)NCCCNC(=O)c1ccc(-c2c3nc(c(-c4cc(S(=O)(=O)[O-])ccc4F)c4ccc([nH]4)c(-c4cc(S(=O)(=O)[O-])ccc4F)c4nc(c(-c5cc(S(=O)(=O)[O-])ccc5F)c5ccc2[nH]5)C=C4)C=C3)cc1)c1ccc(C[C@H]2CCC[C@@H]2O)cc1
REMARK SMILES IDX 6 1 5 2 3 3 4 4 2 6 1 7 75 8 76 9 87 10 77 11 86 12 78 13
REMARK SMILES IDX 79 14 80 15 81 16 84 17 82 18 83 19 85 20 7 22 8 23 9 24
REMARK SMILES IDX 10 25 11 27 12 28 13 29 74 30 14 31 73 32 15 33 16 34 17 35
REMARK SMILES IDX 67 36 18 37 72 38 66 39 68 40 19 41 71 42 65 43 64 44 20 46
REMARK SMILES IDX 52 47 32 48 51 49 33 50 36 51 50 52 69 53 34 54 35 55 49 57
REMARK SMILES IDX 70 58 37 59 21 60 22 61 30 62 23 63 29 64 31 65 28 66 24 67
REMARK SMILES IDX 25 68 26 69 27 70 53 71 54 72 62 73 55 74 61 75 63 76 60 77
REMARK SMILES IDX 56 78 57 79 58 80 59 81 38 82 39 83 47 84 40 85 46 86 48 87
REMARK SMILES IDX 45 88 41 89 42 90 43 91 44 92
REMARK H PARENT 5 5 85 21 9 26 68 45 36 56
REMARK Flexibility Score: inf
ROOT
ATOM      1  C   UNL A   1      31.784  29.817  25.798  1.00  0.00     0.117 C 
ENDROOT
BRANCH   1   2
ATOM      2  N   UNL A   1      31.575  29.769  24.362  1.00  0.00    -0.356 N 
ATOM      3  C   UNL A   1      31.038  28.790  23.580  1.00  0.00     0.227 C 
ATOM      4  O   UNL A   1      30.906  29.036  22.378  1.00  0.00    -0.274 OA
ATOM      5  H   UNL A   1      31.868  30.573  23.874  1.00  0.00     0.163 HD
BRANCH   3   6
ATOM      6  C   UNL A   1      30.605  27.442  24.158  1.00  0.00     0.105 C 
ATOM      7  C   UNL A   1      29.143  27.135  23.820  1.00  0.00     0.023 C 
BRANCH   6   8
ATOM      8  C   UNL A   1      31.548  26.272  23.897  1.00  0.00    -0.036 A 
ATOM      9  C   UNL A   1      32.908  26.405  24.216  1.00  0.00     0.005 A 
ATOM     10  C   UNL A   1      31.126  25.067  23.317  1.00  0.00     0.005 A 
ATOM     11  C   UNL A   1      33.809  25.369  23.971  1.00  0.00     0.004 A 
ATOM     12  C   UNL A   1      32.025  24.028  23.079  1.00  0.00     0.004 A 
ATOM     13  C   UNL A   1      33.383  24.183  23.369  1.00  0.00    -0.048 A 
BRANCH  13  14
ATOM     14  C   UNL A   1      34.370  23.118  22.961  1.00  0.00     0.041 C 
BRANCH  14  15
ATOM     15  C   UNL A   1      35.128  22.458  24.127  1.00  0.00     0.022 C 
ATOM     16  C   UNL A   1      34.558  21.118  24.628  1.00  0.00     0.007 C 
ATOM     17  C   UNL A   1      36.610  22.168  23.875  1.00  0.00     0.117 C 
ATOM     18  C   UNL A   1      35.766  20.258  25.009  1.00  0.00     0.003 C 
ATOM     19  C   UNL A   1      36.957  21.203  24.998  1.00  0.00     0.032 C 
BRANCH  17  20
ATOM     20  O   UNL A   1      37.402  23.338  23.958  1.00  0.00    -0.393 OA
ATOM     21  H   UNL A   1      36.834  24.120  23.870  1.00  0.00     0.210 HD
ENDBRANCH  17  20
ENDBRANCH  14  15
ENDBRANCH  13  14
ENDBRANCH   6   8
ENDBRANCH   3   6
ENDBRANCH   1   2
BRANCH   1  22
ATOM     22  C   UNL A   1      31.499  31.192  26.382  1.00  0.00     0.042 C 
BRANCH  22  23
ATOM     23  C   UNL A   1      32.716  31.861  27.006  1.00  0.00     0.118 C 
BRANCH  23  24
ATOM     24  N   UNL A   1      32.499  33.274  27.279  1.00  0.00    -0.352 N 
ATOM     25  C   UNL A   1      33.098  34.091  28.206  1.00  0.00     0.251 C 
ATOM     26  H   UNL A   1      31.821  33.709  26.715  1.00  0.00     0.163 HD
ATOM     27  O   UNL A   1      32.630  35.211  28.411  1.00  0.00    -0.269 OA
BRANCH  25  28
ATOM     28  C   UNL A   1      34.273  33.620  28.973  1.00  0.00     0.039 A 
ATOM     29  C   UNL A   1      34.071  32.755  30.051  1.00  0.00     0.014 A 
ATOM     30  C   UNL A   1      35.568  34.024  28.637  1.00  0.00     0.014 A 
ATOM     31  C   UNL A   1      35.171  32.235  30.737  1.00  0.00     0.010 A 
ATOM     32  C   UNL A   1      36.665  33.435  29.262  1.00  0.00     0.010 A 
ATOM     33  C   UNL A   1      36.479  32.532  30.319  1.00  0.00    -0.014 A 
BRANCH  33  34
ATOM     34  C   UNL A   1      37.658  31.895  30.964  1.00  0.00     0.031 A 
ATOM     35  C   UNL A   1      38.460  30.856  30.227  1.00  0.00     0.074 A 
ATOM     36  C   UNL A   1      37.972  32.214  32.237  1.00  0.00     0.049 A 
ATOM     37  N   UNL A   1      39.476  30.146  30.644  1.00  0.00    -0.248 NA
ATOM     38  C   UNL A   1      38.050  30.559  28.845  1.00  0.00     0.031 C 
ATOM     39  C   UNL A   1      37.247  33.180  33.068  1.00  0.00     0.029 A 
ATOM     40  N   UNL A   1      38.973  31.761  33.060  1.00  0.00    -0.354 N 
ATOM     41  C   UNL A   1      39.821  29.312  29.586  1.00  0.00     0.074 A 
ATOM     42  C   UNL A   1      38.868  29.566  28.526  1.00  0.00     0.031 C 
ATOM     43  C   UNL A   1      37.846  33.267  34.266  1.00  0.00     0.029 A 
ATOM     44  C   UNL A   1      38.959  32.326  34.315  1.00  0.00     0.049 A 
ATOM     45  H   UNL A   1      39.640  31.094  32.778  1.00  0.00     0.167 HD
ATOM     46  C   UNL A   1      40.849  28.433  29.499  1.00  0.00     0.034 A 
ATOM     47  C   UNL A   1      39.741  32.099  35.391  1.00  0.00     0.034 A 
ATOM     48  C   UNL A   1      41.797  28.200  30.561  1.00  0.00     0.049 A 
ATOM     49  C   UNL A   1      40.853  31.085  35.278  1.00  0.00     0.074 A 
ATOM     50  C   UNL A   1      42.909  27.375  30.554  1.00  0.00     0.029 A 
ATOM     51  N   UNL A   1      41.744  28.781  31.821  1.00  0.00    -0.354 N 
ATOM     52  N   UNL A   1      41.199  30.349  34.247  1.00  0.00    -0.248 NA
ATOM     53  C   UNL A   1      41.686  30.879  36.469  1.00  0.00     0.031 C 
ATOM     54  C   UNL A   1      43.477  27.393  31.832  1.00  0.00     0.029 A 
ATOM     55  C   UNL A   1      42.778  28.300  32.610  1.00  0.00     0.049 A 
ATOM     56  H   UNL A   1      41.070  29.438  32.112  1.00  0.00     0.167 HD
ATOM     57  C   UNL A   1      42.312  29.620  34.658  1.00  0.00     0.074 A 
ATOM     58  C   UNL A   1      42.590  30.021  36.021  1.00  0.00     0.031 C 
ATOM     59  C   UNL A   1      43.041  28.703  33.973  1.00  0.00     0.034 A 
BRANCH  46  60
ATOM     60  C   UNL A   1      40.989  27.637  28.223  1.00  0.00     0.023 A 
ATOM     61  C   UNL A   1      40.590  26.291  28.140  1.00  0.00     0.031 A 
ATOM     62  C   UNL A   1      41.520  28.237  27.067  1.00  0.00     0.131 A 
ATOM     63  C   UNL A   1      40.779  25.576  26.948  1.00  0.00     0.055 A 
ATOM     64  C   UNL A   1      41.633  27.543  25.861  1.00  0.00     0.041 A 
ATOM     65  F   UNL A   1      41.940  29.512  27.091  1.00  0.00    -0.206 F 
ATOM     66  C   UNL A   1      41.271  26.201  25.799  1.00  0.00     0.022 A 
BRANCH  63  67
ATOM     67  S   UNL A   1      40.488  23.787  26.953  1.00  0.00     0.124 S 
ATOM     68  O   UNL A   1      39.125  23.709  26.432  1.00  0.00    -0.237 OA
ATOM     69  O   UNL A   1      41.538  23.294  26.069  1.00  0.00    -0.237 OA
ATOM     70  O   UNL A   1      40.631  23.419  28.359  1.00  0.00    -0.744 OA
ENDBRANCH  63  67
ENDBRANCH  46  60
BRANCH  47  71
ATOM     71  C   UNL A   1      39.500  32.818  36.677  1.00  0.00     0.023 A 
ATOM     72  C   UNL A   1      38.619  32.300  37.641  1.00  0.00     0.031 A 
ATOM     73  C   UNL A   1      40.088  34.071  36.931  1.00  0.00     0.131 A 
ATOM     74  C   UNL A   1      38.301  33.059  38.778  1.00  0.00     0.055 A 
ATOM     75  C   UNL A   1      39.822  34.790  38.098  1.00  0.00     0.041 A 
ATOM     76  F   UNL A   1      40.939  34.616  36.046  1.00  0.00    -0.206 F 
ATOM     77  C   UNL A   1      38.908  34.293  39.021  1.00  0.00     0.022 A 
BRANCH  74  78
ATOM     78  S   UNL A   1      36.983  32.464  39.875  1.00  0.00     0.124 S 
ATOM     79  O   UNL A   1      37.526  31.186  40.322  1.00  0.00    -0.237 OA
ATOM     80  O   UNL A   1      36.925  33.523  40.877  1.00  0.00    -0.237 OA
ATOM     81  O   UNL A   1      35.822  32.377  38.993  1.00  0.00    -0.744 OA
ENDBRANCH  74  78
ENDBRANCH  47  71
BRANCH  59  82
ATOM     82  C   UNL A   1      44.241  28.113  34.674  1.00  0.00     0.023 A 
ATOM     83  C   UNL A   1      44.175  26.880  35.346  1.00  0.00     0.031 A 
ATOM     84  C   UNL A   1      45.467  28.803  34.678  1.00  0.00     0.131 A 
ATOM     85  C   UNL A   1      45.295  26.405  36.047  1.00  0.00     0.055 A 
ATOM     86  C   UNL A   1      46.596  28.292  35.318  1.00  0.00     0.041 A 
ATOM     87  F   UNL A   1      45.587  29.987  34.057  1.00  0.00    -0.206 F 
ATOM     88  C   UNL A   1      46.510  27.094  36.020  1.00  0.00     0.022 A 
BRANCH  85  89
ATOM     89  S   UNL A   1      45.111  24.928  37.082  1.00  0.00     0.124 S 
ATOM     90  O   UNL A   1      44.585  25.490  38.323  1.00  0.00    -0.237 OA
ATOM     91  O   UNL A   1      44.178  24.116  36.307  1.00  0.00    -0.237 OA
ATOM     92  O   UNL A   1      46.470  24.398  37.169  1.00  0.00    -0.744 OA
ENDBRANCH  85  89
ENDBRANCH  59  82
ENDBRANCH  33  34
ENDBRANCH  25  28
ENDBRANCH  23  24
ENDBRANCH  22  23
ENDBRANCH   1  22
TORSDOF 17
ENDMDL
