MODEL 1
REMARK VINA RESULT:     -11.9      0.000      0.000
REMARK SMILES O=C(NCCCNC(=O)[C@H]1CC[C@@H](CNc2nncs2)CC1)c1ccc(-c2c3nc(c(-c4cc(S(=O)(=O)[O-])ccc4F)c4ccc([nH]4)c(-c4cc(S(=O)(=O)[O-])ccc4F)c4nc(c(-c5cc(S(=O)(=O)[O-])ccc5F)c5ccc2[nH]5)C=C4)C=C3)cc1
REMARK SMILES IDX 5 1 4 2 3 3 1 4 2 5 23 7 24 8 85 9 25 10 84 11 26 12 27 13
REMARK SMILES IDX 28 14 78 15 29 16 83 17 77 18 79 19 30 20 82 21 76 22 75 23
REMARK SMILES IDX 31 25 63 26 43 27 62 28 44 29 47 30 61 31 80 32 45 33 46 34
REMARK SMILES IDX 60 36 81 37 48 38 32 39 33 40 41 41 34 42 40 43 42 44 39 45
REMARK SMILES IDX 35 46 36 47 37 48 38 49 64 50 65 51 73 52 66 53 72 54 74 55
REMARK SMILES IDX 71 56 67 57 68 58 69 59 70 60 49 61 50 62 58 63 51 64 57 65
REMARK SMILES IDX 59 66 56 67 52 68 53 69 54 70 55 71 6 72 7 73 8 74 9 76
REMARK SMILES IDX 10 77 22 78 11 79 21 80 12 81 13 82 14 83 15 84 16 86 17 87
REMARK SMILES IDX 20 88 18 89 19 90
REMARK H PARENT 3 6 79 24 47 35 7 75 15 85
REMARK Flexibility Score: inf
ROOT
ATOM      1  C   UNL A   1      31.641  28.194  26.743  1.00  0.00     0.042 C 
ENDROOT
BRANCH   1   2
ATOM      2  C   UNL A   1      32.731  29.031  26.087  1.00  0.00     0.118 C 
BRANCH   2   3
ATOM      3  N   UNL A   1      32.499  30.464  26.252  1.00  0.00    -0.352 N 
ATOM      4  O   UNL A   1      32.600  32.478  27.249  1.00  0.00    -0.269 OA
ATOM      5  C   UNL A   1      33.121  31.383  27.064  1.00  0.00     0.251 C 
ATOM      6  H   UNL A   1      31.779  30.832  25.690  1.00  0.00     0.163 HD
BRANCH   5   7
ATOM      7  C   UNL A   1      34.407  31.047  27.712  1.00  0.00     0.039 A 
ATOM      8  C   UNL A   1      34.667  29.738  28.111  1.00  0.00     0.014 A 
ATOM      9  C   UNL A   1      35.370  32.040  27.905  1.00  0.00     0.014 A 
ATOM     10  C   UNL A   1      35.789  29.461  28.876  1.00  0.00     0.010 A 
ATOM     11  C   UNL A   1      36.565  31.729  28.565  1.00  0.00     0.010 A 
ATOM     12  C   UNL A   1      36.764  30.445  29.097  1.00  0.00    -0.014 A 
BRANCH  12  13
ATOM     13  C   UNL A   1      37.988  30.079  29.857  1.00  0.00     0.031 A 
ATOM     14  C   UNL A   1      38.202  30.566  31.264  1.00  0.00     0.074 A 
ATOM     15  C   UNL A   1      38.879  29.246  29.281  1.00  0.00     0.049 A 
ATOM     16  N   UNL A   1      39.189  30.309  32.083  1.00  0.00    -0.248 NA
ATOM     17  C   UNL A   1      37.184  31.469  31.818  1.00  0.00     0.031 C 
ATOM     18  C   UNL A   1      38.770  28.710  27.920  1.00  0.00     0.029 A 
ATOM     19  N   UNL A   1      40.024  28.673  29.768  1.00  0.00    -0.354 N 
ATOM     20  C   UNL A   1      38.929  31.039  33.239  1.00  0.00     0.074 A 
ATOM     21  C   UNL A   1      37.707  31.776  32.996  1.00  0.00     0.031 C 
ATOM     22  C   UNL A   1      39.760  27.832  27.711  1.00  0.00     0.029 A 
ATOM     23  C   UNL A   1      40.623  27.805  28.884  1.00  0.00     0.049 A 
ATOM     24  H   UNL A   1      40.383  28.863  30.664  1.00  0.00     0.167 HD
ATOM     25  C   UNL A   1      39.643  31.084  34.393  1.00  0.00     0.034 A 
ATOM     26  C   UNL A   1      41.752  27.080  28.995  1.00  0.00     0.034 A 
ATOM     27  C   UNL A   1      40.854  30.328  34.614  1.00  0.00     0.049 A 
ATOM     28  C   UNL A   1      42.539  27.171  30.273  1.00  0.00     0.074 A 
ATOM     29  C   UNL A   1      41.642  30.274  35.752  1.00  0.00     0.029 A 
ATOM     30  N   UNL A   1      41.461  29.499  33.676  1.00  0.00    -0.354 N 
ATOM     31  N   UNL A   1      42.274  27.861  31.360  1.00  0.00    -0.248 NA
ATOM     32  C   UNL A   1      43.774  26.383  30.342  1.00  0.00     0.031 C 
ATOM     33  C   UNL A   1      42.758  29.475  35.477  1.00  0.00     0.029 A 
ATOM     34  C   UNL A   1      42.627  28.957  34.199  1.00  0.00     0.049 A 
ATOM     35  H   UNL A   1      41.115  29.323  32.771  1.00  0.00     0.167 HD
ATOM     36  C   UNL A   1      43.298  27.564  32.253  1.00  0.00     0.074 A 
ATOM     37  C   UNL A   1      44.171  26.621  31.583  1.00  0.00     0.031 C 
ATOM     38  C   UNL A   1      43.496  28.026  33.515  1.00  0.00     0.034 A 
BRANCH  25  39
ATOM     39  C   UNL A   1      39.159  32.024  35.475  1.00  0.00     0.023 A 
ATOM     40  C   UNL A   1      39.590  33.360  35.554  1.00  0.00     0.031 A 
ATOM     41  C   UNL A   1      38.276  31.561  36.469  1.00  0.00     0.131 A 
ATOM     42  C   UNL A   1      39.206  34.159  36.644  1.00  0.00     0.055 A 
ATOM     43  C   UNL A   1      37.829  32.387  37.503  1.00  0.00     0.041 A 
ATOM     44  F   UNL A   1      37.846  30.290  36.463  1.00  0.00    -0.206 F 
ATOM     45  C   UNL A   1      38.308  33.690  37.605  1.00  0.00     0.022 A 
BRANCH  42  46
ATOM     46  S   UNL A   1      40.026  35.761  36.876  1.00  0.00     0.124 S 
ATOM     47  O   UNL A   1      39.677  36.456  35.638  1.00  0.00    -0.237 OA
ATOM     48  O   UNL A   1      39.395  36.265  38.090  1.00  0.00    -0.237 OA
ATOM     49  O   UNL A   1      41.439  35.409  37.005  1.00  0.00    -0.744 OA
ENDBRANCH  42  46
ENDBRANCH  25  39
BRANCH  26  50
ATOM     50  C   UNL A   1      42.213  26.226  27.864  1.00  0.00     0.023 A 
ATOM     51  C   UNL A   1      41.747  24.912  27.712  1.00  0.00     0.031 A 
ATOM     52  C   UNL A   1      43.148  26.707  26.929  1.00  0.00     0.131 A 
ATOM     53  C   UNL A   1      42.246  24.109  26.675  1.00  0.00     0.055 A 
ATOM     54  C   UNL A   1      43.598  25.924  25.866  1.00  0.00     0.041 A 
ATOM     55  F   UNL A   1      43.624  27.960  27.025  1.00  0.00    -0.206 F 
ATOM     56  C   UNL A   1      43.156  24.611  25.742  1.00  0.00     0.022 A 
BRANCH  53  57
ATOM     57  S   UNL A   1      41.750  22.366  26.611  1.00  0.00     0.124 S 
ATOM     58  O   UNL A   1      42.380  21.923  25.372  1.00  0.00    -0.237 OA
ATOM     59  O   UNL A   1      42.325  21.843  27.846  1.00  0.00    -0.237 OA
ATOM     60  O   UNL A   1      40.291  22.428  26.583  1.00  0.00    -0.744 OA
ENDBRANCH  53  57
ENDBRANCH  26  50
BRANCH  38  61
ATOM     61  C   UNL A   1      44.678  27.461  34.265  1.00  0.00     0.023 A 
ATOM     62  C   UNL A   1      44.577  26.297  35.045  1.00  0.00     0.031 A 
ATOM     63  C   UNL A   1      45.917  28.125  34.225  1.00  0.00     0.131 A 
ATOM     64  C   UNL A   1      45.673  25.872  35.812  1.00  0.00     0.055 A 
ATOM     65  C   UNL A   1      47.024  27.658  34.935  1.00  0.00     0.041 A 
ATOM     66  F   UNL A   1      46.072  29.244  33.500  1.00  0.00    -0.206 F 
ATOM     67  C   UNL A   1      46.900  26.535  35.749  1.00  0.00     0.022 A 
BRANCH  64  68
ATOM     68  S   UNL A   1      45.436  24.511  36.988  1.00  0.00     0.124 S 
ATOM     69  O   UNL A   1      46.783  24.336  37.525  1.00  0.00    -0.237 OA
ATOM     70  O   UNL A   1      44.450  25.064  37.910  1.00  0.00    -0.237 OA
ATOM     71  O   UNL A   1      44.955  23.414  36.151  1.00  0.00    -0.744 OA
ENDBRANCH  64  68
ENDBRANCH  38  61
ENDBRANCH  12  13
ENDBRANCH   5   7
ENDBRANCH   2   3
ENDBRANCH   1   2
BRANCH   1  72
ATOM     72  C   UNL A   1      31.169  27.064  25.844  1.00  0.00     0.117 C 
BRANCH  72  73
ATOM     73  N   UNL A   1      31.069  25.807  26.566  1.00  0.00    -0.356 N 
ATOM     74  C   UNL A   1      31.651  24.592  26.465  1.00  0.00     0.223 C 
ATOM     75  H   UNL A   1      30.423  25.852  27.307  1.00  0.00     0.163 HD
ATOM     76  O   UNL A   1      31.233  23.752  27.276  1.00  0.00    -0.275 OA
BRANCH  74  77
ATOM     77  C   UNL A   1      32.713  24.189  25.424  1.00  0.00     0.078 C 
ATOM     78  C   UNL A   1      34.013  23.600  25.973  1.00  0.00     0.014 C 
ATOM     79  C   UNL A   1      32.007  23.234  24.428  1.00  0.00     0.014 C 
ATOM     80  C   UNL A   1      34.873  22.848  24.968  1.00  0.00     0.006 C 
ATOM     81  C   UNL A   1      32.936  22.476  23.487  1.00  0.00     0.006 C 
ATOM     82  C   UNL A   1      34.081  21.775  24.224  1.00  0.00     0.008 C 
BRANCH  82  83
ATOM     83  C   UNL A   1      33.616  20.655  25.182  1.00  0.00     0.119 C 
BRANCH  83  84
ATOM     84  N   UNL A   1      34.454  19.488  25.018  1.00  0.00    -0.360 N 
ATOM     85  H   UNL A   1      35.427  19.611  25.113  1.00  0.00     0.162 HD
BRANCH  84  86
ATOM     86  C   UNL A   1      34.007  18.244  24.744  1.00  0.00     0.205 A 
ATOM     87  N   UNL A   1      34.622  17.449  23.889  1.00  0.00    -0.121 NA
ATOM     88  S   UNL A   1      32.590  17.521  25.420  1.00  0.00    -0.083 S 
ATOM     89  N   UNL A   1      34.036  16.205  23.776  1.00  0.00    -0.145 NA
ATOM     90  C   UNL A   1      32.961  16.114  24.524  1.00  0.00     0.204 A 
ENDBRANCH  84  86
ENDBRANCH  83  84
ENDBRANCH  82  83
ENDBRANCH  74  77
ENDBRANCH  72  73
ENDBRANCH   1  72
TORSDOF 16
ENDMDL
MODEL 2
REMARK VINA RESULT:     -11.8      1.594      1.879
REMARK SMILES O=C(NCCCNC(=O)[C@H]1CC[C@@H](CNc2nncs2)CC1)c1ccc(-c2c3nc(c(-c4cc(S(=O)(=O)[O-])ccc4F)c4ccc([nH]4)c(-c4cc(S(=O)(=O)[O-])ccc4F)c4nc(c(-c5cc(S(=O)(=O)[O-])ccc5F)c5ccc2[nH]5)C=C4)C=C3)cc1
REMARK SMILES IDX 5 1 4 2 3 3 1 4 2 5 23 7 24 8 85 9 25 10 84 11 26 12 27 13
REMARK SMILES IDX 28 14 78 15 29 16 83 17 77 18 79 19 30 20 82 21 76 22 75 23
REMARK SMILES IDX 31 25 63 26 43 27 62 28 44 29 47 30 61 31 80 32 45 33 46 34
REMARK SMILES IDX 60 36 81 37 48 38 32 39 33 40 41 41 34 42 40 43 42 44 39 45
REMARK SMILES IDX 35 46 36 47 37 48 38 49 64 50 65 51 73 52 66 53 72 54 74 55
REMARK SMILES IDX 71 56 67 57 68 58 69 59 70 60 49 61 50 62 58 63 51 64 57 65
REMARK SMILES IDX 59 66 56 67 52 68 53 69 54 70 55 71 6 72 7 73 8 74 9 76
REMARK SMILES IDX 10 77 22 78 11 79 21 80 12 81 13 82 14 83 15 84 16 86 17 87
REMARK SMILES IDX 20 88 18 89 19 90
REMARK H PARENT 3 6 79 24 47 35 7 75 15 85
REMARK Flexibility Score: inf
ROOT
ATOM      1  C   UNL A   1      31.881  28.173  26.009  1.00  0.00     0.042 C 
ENDROOT
BRANCH   1   2
ATOM      2  C   UNL A   1      32.860  29.227  25.512  1.00  0.00     0.118 C 
BRANCH   2   3
ATOM      3  N   UNL A   1      32.464  30.576  25.907  1.00  0.00    -0.352 N 
ATOM      4  O   UNL A   1      32.312  32.386  27.235  1.00  0.00    -0.269 OA
ATOM      5  C   UNL A   1      32.957  31.402  26.891  1.00  0.00     0.251 C 
ATOM      6  H   UNL A   1      31.722  30.958  25.384  1.00  0.00     0.163 HD
BRANCH   5   7
ATOM      7  C   UNL A   1      34.256  31.097  27.529  1.00  0.00     0.039 A 
ATOM      8  C   UNL A   1      34.597  29.778  27.824  1.00  0.00     0.014 A 
ATOM      9  C   UNL A   1      35.150  32.130  27.816  1.00  0.00     0.014 A 
ATOM     10  C   UNL A   1      35.727  29.513  28.582  1.00  0.00     0.010 A 
ATOM     11  C   UNL A   1      36.356  31.844  28.467  1.00  0.00     0.010 A 
ATOM     12  C   UNL A   1      36.633  30.536  28.896  1.00  0.00    -0.014 A 
BRANCH  12  13
ATOM     13  C   UNL A   1      37.871  30.189  29.642  1.00  0.00     0.031 A 
ATOM     14  C   UNL A   1      38.054  30.604  31.076  1.00  0.00     0.074 A 
ATOM     15  C   UNL A   1      38.805  29.435  29.027  1.00  0.00     0.049 A 
ATOM     16  N   UNL A   1      39.050  30.349  31.887  1.00  0.00    -0.248 NA
ATOM     17  C   UNL A   1      36.990  31.422  31.674  1.00  0.00     0.031 C 
ATOM     18  C   UNL A   1      38.729  28.973  27.636  1.00  0.00     0.029 A 
ATOM     19  N   UNL A   1      39.975  28.892  29.488  1.00  0.00    -0.354 N 
ATOM     20  C   UNL A   1      38.748  30.998  33.081  1.00  0.00     0.074 A 
ATOM     21  C   UNL A   1      37.492  31.686  32.871  1.00  0.00     0.031 C 
ATOM     22  C   UNL A   1      39.762  28.159  27.385  1.00  0.00     0.029 A 
ATOM     23  C   UNL A   1      40.621  28.108  28.561  1.00  0.00     0.049 A 
ATOM     24  H   UNL A   1      40.321  29.049  30.396  1.00  0.00     0.167 HD
ATOM     25  C   UNL A   1      39.454  31.012  34.240  1.00  0.00     0.034 A 
ATOM     26  C   UNL A   1      41.784  27.434  28.638  1.00  0.00     0.034 A 
ATOM     27  C   UNL A   1      40.701  30.307  34.427  1.00  0.00     0.049 A 
ATOM     28  C   UNL A   1      42.560  27.491  29.925  1.00  0.00     0.074 A 
ATOM     29  C   UNL A   1      41.486  30.226  35.565  1.00  0.00     0.029 A 
ATOM     30  N   UNL A   1      41.353  29.564  33.447  1.00  0.00    -0.354 N 
ATOM     31  N   UNL A   1      42.257  28.104  31.047  1.00  0.00    -0.248 NA
ATOM     32  C   UNL A   1      43.833  26.763  29.957  1.00  0.00     0.031 C 
ATOM     33  C   UNL A   1      42.641  29.501  35.253  1.00  0.00     0.029 A 
ATOM     34  C   UNL A   1      42.542  29.051  33.946  1.00  0.00     0.049 A 
ATOM     35  H   UNL A   1      41.019  29.423  32.532  1.00  0.00     0.167 HD
ATOM     36  C   UNL A   1      43.290  27.808  31.929  1.00  0.00     0.074 A 
ATOM     37  C   UNL A   1      44.212  26.949  31.213  1.00  0.00     0.031 C 
ATOM     38  C   UNL A   1      43.459  28.205  33.217  1.00  0.00     0.034 A 
BRANCH  25  39
ATOM     39  C   UNL A   1      38.919  31.864  35.371  1.00  0.00     0.023 A 
ATOM     40  C   UNL A   1      38.424  31.302  36.562  1.00  0.00     0.031 A 
ATOM     41  C   UNL A   1      38.871  33.264  35.238  1.00  0.00     0.131 A 
ATOM     42  C   UNL A   1      37.830  32.125  37.532  1.00  0.00     0.055 A 
ATOM     43  C   UNL A   1      38.357  34.085  36.245  1.00  0.00     0.041 A 
ATOM     44  F   UNL A   1      39.307  33.860  34.117  1.00  0.00    -0.206 F 
ATOM     45  C   UNL A   1      37.816  33.515  37.393  1.00  0.00     0.022 A 
BRANCH  42  46
ATOM     46  S   UNL A   1      36.928  31.342  38.898  1.00  0.00     0.124 S 
ATOM     47  O   UNL A   1      36.674  30.007  38.360  1.00  0.00    -0.237 OA
ATOM     48  O   UNL A   1      37.887  31.417  39.993  1.00  0.00    -0.237 OA
ATOM     49  O   UNL A   1      35.739  32.179  39.050  1.00  0.00    -0.744 OA
ENDBRANCH  42  46
ENDBRANCH  25  39
BRANCH  26  50
ATOM     50  C   UNL A   1      42.292  26.671  27.463  1.00  0.00     0.023 A 
ATOM     51  C   UNL A   1      42.013  25.305  27.313  1.00  0.00     0.031 A 
ATOM     52  C   UNL A   1      43.087  27.294  26.484  1.00  0.00     0.131 A 
ATOM     53  C   UNL A   1      42.557  24.596  26.230  1.00  0.00     0.055 A 
ATOM     54  C   UNL A   1      43.578  26.599  25.379  1.00  0.00     0.041 A 
ATOM     55  F   UNL A   1      43.380  28.602  26.577  1.00  0.00    -0.206 F 
ATOM     56  C   UNL A   1      43.324  25.237  25.254  1.00  0.00     0.022 A 
BRANCH  53  57
ATOM     57  S   UNL A   1      42.316  22.800  26.160  1.00  0.00     0.124 S 
ATOM     58  O   UNL A   1      43.069  22.353  27.327  1.00  0.00    -0.237 OA
ATOM     59  O   UNL A   1      40.864  22.686  26.251  1.00  0.00    -0.237 OA
ATOM     60  O   UNL A   1      42.889  22.430  24.868  1.00  0.00    -0.744 OA
ENDBRANCH  53  57
ENDBRANCH  26  50
BRANCH  38  61
ATOM     61  C   UNL A   1      44.665  27.658  33.941  1.00  0.00     0.023 A 
ATOM     62  C   UNL A   1      44.639  26.415  34.596  1.00  0.00     0.031 A 
ATOM     63  C   UNL A   1      45.848  28.415  34.008  1.00  0.00     0.131 A 
ATOM     64  C   UNL A   1      45.747  25.997  35.350  1.00  0.00     0.055 A 
ATOM     65  C   UNL A   1      46.972  27.963  34.701  1.00  0.00     0.041 A 
ATOM     66  F   UNL A   1      45.930  29.612  33.405  1.00  0.00    -0.206 F 
ATOM     67  C   UNL A   1      46.919  26.756  35.392  1.00  0.00     0.022 A 
BRANCH  64  68
ATOM     68  S   UNL A   1      45.592  24.508  36.373  1.00  0.00     0.124 S 
ATOM     69  O   UNL A   1      45.258  25.070  37.678  1.00  0.00    -0.237 OA
ATOM     70  O   UNL A   1      44.523  23.778  35.701  1.00  0.00    -0.237 OA
ATOM     71  O   UNL A   1      46.915  23.892  36.284  1.00  0.00    -0.744 OA
ENDBRANCH  64  68
ENDBRANCH  38  61
ENDBRANCH  12  13
ENDBRANCH   5   7
ENDBRANCH   2   3
ENDBRANCH   1   2
BRANCH   1  72
ATOM     72  C   UNL A   1      32.341  26.763  25.680  1.00  0.00     0.117 C 
BRANCH  72  73
ATOM     73  N   UNL A   1      31.531  25.761  26.351  1.00  0.00    -0.356 N 
ATOM     74  C   UNL A   1      31.711  24.478  26.734  1.00  0.00     0.223 C 
ATOM     75  H   UNL A   1      30.636  26.098  26.583  1.00  0.00     0.163 HD
ATOM     76  O   UNL A   1      30.716  23.950  27.251  1.00  0.00    -0.275 OA
BRANCH  74  77
ATOM     77  C   UNL A   1      32.997  23.654  26.534  1.00  0.00     0.078 C 
ATOM     78  C   UNL A   1      33.201  22.471  27.482  1.00  0.00     0.014 C 
ATOM     79  C   UNL A   1      33.014  23.225  25.044  1.00  0.00     0.014 C 
ATOM     80  C   UNL A   1      34.234  21.443  27.042  1.00  0.00     0.006 C 
ATOM     81  C   UNL A   1      34.038  22.155  24.688  1.00  0.00     0.006 C 
ATOM     82  C   UNL A   1      33.976  20.943  25.622  1.00  0.00     0.008 C 
BRANCH  82  83
ATOM     83  C   UNL A   1      32.649  20.154  25.537  1.00  0.00     0.119 C 
BRANCH  83  84
ATOM     84  N   UNL A   1      32.819  18.841  26.118  1.00  0.00    -0.360 N 
ATOM     85  H   UNL A   1      32.686  18.753  27.089  1.00  0.00     0.162 HD
BRANCH  84  86
ATOM     86  C   UNL A   1      33.149  17.726  25.430  1.00  0.00     0.205 A 
ATOM     87  N   UNL A   1      32.793  16.522  25.834  1.00  0.00    -0.121 NA
ATOM     88  S   UNL A   1      34.081  17.689  23.976  1.00  0.00    -0.083 S 
ATOM     89  N   UNL A   1      33.188  15.516  24.976  1.00  0.00    -0.145 NA
ATOM     90  C   UNL A   1      33.874  15.993  23.964  1.00  0.00     0.204 A 
ENDBRANCH  84  86
ENDBRANCH  83  84
ENDBRANCH  82  83
ENDBRANCH  74  77
ENDBRANCH  72  73
ENDBRANCH   1  72
TORSDOF 16
ENDMDL
MODEL 3
REMARK VINA RESULT:     -11.7      5.429     10.649
REMARK SMILES O=C(NCCCNC(=O)[C@H]1CC[C@@H](CNc2nncs2)CC1)c1ccc(-c2c3nc(c(-c4cc(S(=O)(=O)[O-])ccc4F)c4ccc([nH]4)c(-c4cc(S(=O)(=O)[O-])ccc4F)c4nc(c(-c5cc(S(=O)(=O)[O-])ccc5F)c5ccc2[nH]5)C=C4)C=C3)cc1
REMARK SMILES IDX 5 1 4 2 3 3 1 4 2 5 23 7 24 8 85 9 25 10 84 11 26 12 27 13
REMARK SMILES IDX 28 14 78 15 29 16 83 17 77 18 79 19 30 20 82 21 76 22 75 23
REMARK SMILES IDX 31 25 63 26 43 27 62 28 44 29 47 30 61 31 80 32 45 33 46 34
REMARK SMILES IDX 60 36 81 37 48 38 32 39 33 40 41 41 34 42 40 43 42 44 39 45
REMARK SMILES IDX 35 46 36 47 37 48 38 49 64 50 65 51 73 52 66 53 72 54 74 55
REMARK SMILES IDX 71 56 67 57 68 58 69 59 70 60 49 61 50 62 58 63 51 64 57 65
REMARK SMILES IDX 59 66 56 67 52 68 53 69 54 70 55 71 6 72 7 73 8 74 9 76
REMARK SMILES IDX 10 77 22 78 11 79 21 80 12 81 13 82 14 83 15 84 16 86 17 87
REMARK SMILES IDX 20 88 18 89 19 90
REMARK H PARENT 3 6 79 24 47 35 7 75 15 85
REMARK Flexibility Score: inf
ROOT
ATOM      1  C   UNL A   1      35.586  22.710  24.279  1.00  0.00     0.042 C 
ENDROOT
BRANCH   1   2
ATOM      2  C   UNL A   1      36.134  22.475  25.680  1.00  0.00     0.118 C 
BRANCH   2   3
ATOM      3  N   UNL A   1      37.105  21.385  25.715  1.00  0.00    -0.352 N 
ATOM      4  O   UNL A   1      39.131  20.412  25.621  1.00  0.00    -0.269 OA
ATOM      5  C   UNL A   1      38.470  21.408  25.891  1.00  0.00     0.251 C 
ATOM      6  H   UNL A   1      36.721  20.487  25.594  1.00  0.00     0.163 HD
BRANCH   5   7
ATOM      7  C   UNL A   1      39.130  22.630  26.397  1.00  0.00     0.039 A 
ATOM      8  C   UNL A   1      38.691  23.885  25.980  1.00  0.00     0.014 A 
ATOM      9  C   UNL A   1      40.180  22.526  27.312  1.00  0.00     0.014 A 
ATOM     10  C   UNL A   1      39.422  25.015  26.311  1.00  0.00     0.010 A 
ATOM     11  C   UNL A   1      40.836  23.683  27.750  1.00  0.00     0.010 A 
ATOM     12  C   UNL A   1      40.491  24.935  27.217  1.00  0.00    -0.014 A 
BRANCH  12  13
ATOM     13  C   UNL A   1      41.194  26.186  27.603  1.00  0.00     0.031 A 
ATOM     14  C   UNL A   1      42.564  26.502  27.068  1.00  0.00     0.074 A 
ATOM     15  C   UNL A   1      40.552  27.068  28.396  1.00  0.00     0.049 A 
ATOM     16  N   UNL A   1      43.302  27.565  27.268  1.00  0.00    -0.248 NA
ATOM     17  C   UNL A   1      43.194  25.490  26.210  1.00  0.00     0.031 C 
ATOM     18  C   UNL A   1      39.218  26.865  28.970  1.00  0.00     0.029 A 
ATOM     19  N   UNL A   1      40.906  28.319  28.826  1.00  0.00    -0.354 N 
ATOM     20  C   UNL A   1      44.493  27.339  26.586  1.00  0.00     0.074 A 
ATOM     21  C   UNL A   1      44.389  26.020  25.997  1.00  0.00     0.031 C 
ATOM     22  C   UNL A   1      38.838  27.979  29.610  1.00  0.00     0.029 A 
ATOM     23  C   UNL A   1      39.930  28.943  29.569  1.00  0.00     0.049 A 
ATOM     24  H   UNL A   1      41.776  28.733  28.624  1.00  0.00     0.167 HD
ATOM     25  C   UNL A   1      45.568  28.159  26.463  1.00  0.00     0.034 A 
ATOM     26  C   UNL A   1      39.918  30.148  30.168  1.00  0.00     0.034 A 
ATOM     27  C   UNL A   1      45.642  29.476  27.051  1.00  0.00     0.049 A 
ATOM     28  C   UNL A   1      41.134  31.024  30.039  1.00  0.00     0.074 A 
ATOM     29  C   UNL A   1      46.667  30.403  26.966  1.00  0.00     0.029 A 
ATOM     30  N   UNL A   1      44.654  30.054  27.843  1.00  0.00    -0.354 N 
ATOM     31  N   UNL A   1      42.250  30.798  29.384  1.00  0.00    -0.248 NA
ATOM     32  C   UNL A   1      41.087  32.318  30.727  1.00  0.00     0.031 C 
ATOM     33  C   UNL A   1      46.332  31.505  27.763  1.00  0.00     0.029 A 
ATOM     34  C   UNL A   1      45.060  31.308  28.276  1.00  0.00     0.049 A 
ATOM     35  H   UNL A   1      43.792  29.633  28.064  1.00  0.00     0.167 HD
ATOM     36  C   UNL A   1      43.026  31.938  29.558  1.00  0.00     0.074 A 
ATOM     37  C   UNL A   1      42.242  32.854  30.362  1.00  0.00     0.031 C 
ATOM     38  C   UNL A   1      44.273  32.207  29.090  1.00  0.00     0.034 A 
BRANCH  25  39
ATOM     39  C   UNL A   1      46.768  27.625  25.710  1.00  0.00     0.023 A 
ATOM     40  C   UNL A   1      47.064  28.023  24.394  1.00  0.00     0.031 A 
ATOM     41  C   UNL A   1      47.611  26.671  26.311  1.00  0.00     0.131 A 
ATOM     42  C   UNL A   1      48.118  27.412  23.697  1.00  0.00     0.055 A 
ATOM     43  C   UNL A   1      48.710  26.130  25.641  1.00  0.00     0.041 A 
ATOM     44  F   UNL A   1      47.369  26.233  27.556  1.00  0.00    -0.206 F 
ATOM     45  C   UNL A   1      48.960  26.487  24.319  1.00  0.00     0.022 A 
BRANCH  42  46
ATOM     46  S   UNL A   1      48.272  27.720  21.915  1.00  0.00     0.124 S 
ATOM     47  O   UNL A   1      46.940  28.222  21.584  1.00  0.00    -0.237 OA
ATOM     48  O   UNL A   1      49.354  28.696  21.856  1.00  0.00    -0.237 OA
ATOM     49  O   UNL A   1      48.587  26.403  21.363  1.00  0.00    -0.744 OA
ENDBRANCH  42  46
ENDBRANCH  25  39
BRANCH  26  50
ATOM     50  C   UNL A   1      38.731  30.586  30.955  1.00  0.00     0.023 A 
ATOM     51  C   UNL A   1      37.663  31.256  30.341  1.00  0.00     0.031 A 
ATOM     52  C   UNL A   1      38.660  30.362  32.342  1.00  0.00     0.131 A 
ATOM     53  C   UNL A   1      36.586  31.714  31.117  1.00  0.00     0.055 A 
ATOM     54  C   UNL A   1      37.561  30.768  33.100  1.00  0.00     0.041 A 
ATOM     55  F   UNL A   1      39.653  29.721  32.980  1.00  0.00    -0.206 F 
ATOM     56  C   UNL A   1      36.521  31.461  32.489  1.00  0.00     0.022 A 
BRANCH  53  57
ATOM     57  S   UNL A   1      35.307  32.722  30.319  1.00  0.00     0.124 S 
ATOM     58  O   UNL A   1      34.378  32.949  31.420  1.00  0.00    -0.237 OA
ATOM     59  O   UNL A   1      36.071  33.883  29.875  1.00  0.00    -0.237 OA
ATOM     60  O   UNL A   1      34.811  31.858  29.251  1.00  0.00    -0.744 OA
ENDBRANCH  53  57
ENDBRANCH  26  50
BRANCH  38  61
ATOM     61  C   UNL A   1      44.831  33.576  29.396  1.00  0.00     0.023 A 
ATOM     62  C   UNL A   1      44.706  34.649  28.497  1.00  0.00     0.031 A 
ATOM     63  C   UNL A   1      45.532  33.797  30.595  1.00  0.00     0.131 A 
ATOM     64  C   UNL A   1      45.336  35.871  28.775  1.00  0.00     0.055 A 
ATOM     65  C   UNL A   1      46.097  35.035  30.899  1.00  0.00     0.041 A 
ATOM     66  F   UNL A   1      45.686  32.807  31.490  1.00  0.00    -0.206 F 
ATOM     67  C   UNL A   1      46.016  36.077  29.978  1.00  0.00     0.022 A 
BRANCH  64  68
ATOM     68  S   UNL A   1      45.359  37.151  27.490  1.00  0.00     0.124 S 
ATOM     69  O   UNL A   1      43.942  37.279  27.164  1.00  0.00    -0.237 OA
ATOM     70  O   UNL A   1      45.957  38.283  28.189  1.00  0.00    -0.237 OA
ATOM     71  O   UNL A   1      46.187  36.565  26.437  1.00  0.00    -0.744 OA
ENDBRANCH  64  68
ENDBRANCH  38  61
ENDBRANCH  12  13
ENDBRANCH   5   7
ENDBRANCH   2   3
ENDBRANCH   1   2
BRANCH   1  72
ATOM     72  C   UNL A   1      34.070  22.619  24.235  1.00  0.00     0.117 C 
BRANCH  72  73
ATOM     73  N   UNL A   1      33.517  23.367  23.118  1.00  0.00    -0.356 N 
ATOM     74  C   UNL A   1      33.300  24.672  22.849  1.00  0.00     0.223 C 
ATOM     75  H   UNL A   1      33.232  22.780  22.382  1.00  0.00     0.163 HD
ATOM     76  O   UNL A   1      32.743  24.888  21.763  1.00  0.00    -0.275 OA
BRANCH  74  77
ATOM     77  C   UNL A   1      33.642  25.850  23.781  1.00  0.00     0.078 C 
ATOM     78  C   UNL A   1      33.601  27.245  23.157  1.00  0.00     0.014 C 
ATOM     79  C   UNL A   1      32.699  25.724  25.005  1.00  0.00     0.014 C 
ATOM     80  C   UNL A   1      33.541  28.406  24.139  1.00  0.00     0.006 C 
ATOM     81  C   UNL A   1      32.650  26.945  25.916  1.00  0.00     0.006 C 
ATOM     82  C   UNL A   1      32.404  28.246  25.147  1.00  0.00     0.008 C 
BRANCH  82  83
ATOM     83  C   UNL A   1      31.024  28.313  24.453  1.00  0.00     0.119 C 
BRANCH  83  84
ATOM     84  N   UNL A   1      31.040  29.327  23.423  1.00  0.00    -0.360 N 
ATOM     85  H   UNL A   1      31.917  29.682  23.149  1.00  0.00     0.162 HD
BRANCH  84  86
ATOM     86  C   UNL A   1      29.945  29.827  22.810  1.00  0.00     0.205 A 
ATOM     87  N   UNL A   1      29.593  29.458  21.593  1.00  0.00    -0.121 NA
ATOM     88  S   UNL A   1      28.878  31.010  23.480  1.00  0.00    -0.083 S 
ATOM     89  N   UNL A   1      28.424  30.049  21.158  1.00  0.00    -0.145 NA
ATOM     90  C   UNL A   1      27.950  30.886  22.052  1.00  0.00     0.204 A 
ENDBRANCH  84  86
ENDBRANCH  83  84
ENDBRANCH  82  83
ENDBRANCH  74  77
ENDBRANCH  72  73
ENDBRANCH   1  72
TORSDOF 16
ENDMDL
