MODEL 1
REMARK VINA RESULT:     -13.1      0.000      0.000
REMARK SMILES Cc1ccnc(C(=O)c2[nH]c3cc(F)ccc3c2CC(=O)NCCCNC(=O)c2ccc(-c3c4nc(c(-c5cc(S(=O)(=O)[O-])ccc5F)c5ccc([nH]5)c(-c5cc(S(=O)(=O)[O-])ccc5F)c5nc(c(-c6cc(S(=O)(=O)[O-])ccc6F)c6ccc3[nH]6)C=C5)C=C4)cc2)c1
REMARK SMILES IDX 24 1 23 2 22 3 20 4 21 5 19 7 18 8 9 9 10 10 11 11 17 13
REMARK SMILES IDX 12 14 16 15 13 16 15 17 14 18 7 19 8 20 6 21 1 22 2 23 3 24
REMARK SMILES IDX 92 25 4 26 5 27 25 28 26 29 27 30 28 32 29 33 30 34 91 35
REMARK SMILES IDX 31 36 90 37 32 38 33 39 34 40 84 41 35 42 89 43 83 44 85 45
REMARK SMILES IDX 36 46 88 47 82 48 81 49 37 51 69 52 49 53 68 54 50 55 53 56
REMARK SMILES IDX 67 57 86 58 51 59 52 60 66 62 87 63 54 64 38 65 39 66 47 67
REMARK SMILES IDX 40 68 46 69 48 70 45 71 41 72 42 73 43 74 44 75 70 76 71 77
REMARK SMILES IDX 79 78 72 79 78 80 80 81 77 82 73 83 74 84 75 85 76 86 55 87
REMARK SMILES IDX 56 88 64 89 57 90 63 91 65 92 62 93 58 94 59 95 60 96 61 97
REMARK H PARENT 22 6 10 12 26 31 85 50 53 61
REMARK Flexibility Score: inf
ROOT
ATOM      1  C   UNL A   1      31.919  28.214  26.059  1.00  0.00     0.042 C 
ENDROOT
BRANCH   1   2
ATOM      2  C   UNL A   1      32.669  26.943  26.451  1.00  0.00     0.117 C 
BRANCH   2   3
ATOM      3  N   UNL A   1      31.802  25.842  26.823  1.00  0.00    -0.356 N 
ATOM      4  C   UNL A   1      31.965  24.499  26.630  1.00  0.00     0.224 C 
ATOM      5  O   UNL A   1      31.190  23.730  27.205  1.00  0.00    -0.275 OA
ATOM      6  H   UNL A   1      30.971  26.100  27.284  1.00  0.00     0.163 HD
BRANCH   4   7
ATOM      7  C   UNL A   1      33.142  23.963  25.837  1.00  0.00     0.138 C 
BRANCH   7   8
ATOM      8  C   UNL A   1      32.807  23.374  24.497  1.00  0.00    -0.002 A 
ATOM      9  C   UNL A   1      32.563  24.051  23.305  1.00  0.00     0.093 A 
ATOM     10  N   UNL A   1      32.342  23.107  22.328  1.00  0.00    -0.351 N 
ATOM     11  C   UNL A   1      32.324  21.845  22.868  1.00  0.00     0.049 A 
ATOM     12  H   UNL A   1      32.215  23.308  21.373  1.00  0.00     0.167 HD
ATOM     13  C   UNL A   1      32.606  21.977  24.228  1.00  0.00     0.004 A 
ATOM     14  C   UNL A   1      32.096  20.608  22.256  1.00  0.00     0.066 A 
ATOM     15  C   UNL A   1      32.654  20.807  25.020  1.00  0.00     0.013 A 
ATOM     16  C   UNL A   1      32.150  19.477  23.068  1.00  0.00     0.125 A 
ATOM     17  C   UNL A   1      32.423  19.562  24.426  1.00  0.00     0.040 A 
ATOM     18  F   UNL A   1      31.925  18.274  22.524  1.00  0.00    -0.207 F 
BRANCH   9  19
ATOM     19  C   UNL A   1      32.590  25.479  23.025  1.00  0.00     0.227 C 
ATOM     20  O   UNL A   1      33.625  26.038  22.681  1.00  0.00    -0.285 OA
BRANCH  19  21
ATOM     21  C   UNL A   1      31.294  26.248  23.136  1.00  0.00     0.113 A 
ATOM     22  C   UNL A   1      29.723  29.569  22.193  1.00  0.00     0.044 C 
ATOM     23  C   UNL A   1      29.933  28.197  22.758  1.00  0.00    -0.047 A 
ATOM     24  C   UNL A   1      28.896  27.548  23.430  1.00  0.00     0.023 A 
ATOM     25  C   UNL A   1      31.148  27.524  22.592  1.00  0.00     0.036 A 
ATOM     26  C   UNL A   1      29.119  26.275  23.928  1.00  0.00     0.112 A 
ATOM     27  N   UNL A   1      30.290  25.618  23.802  1.00  0.00    -0.253 NA
ENDBRANCH  19  21
ENDBRANCH   9  19
ENDBRANCH   7   8
ENDBRANCH   4   7
ENDBRANCH   2   3
ENDBRANCH   1   2
BRANCH   1  28
ATOM     28  C   UNL A   1      32.794  29.326  25.484  1.00  0.00     0.118 C 
BRANCH  28  29
ATOM     29  N   UNL A   1      32.336  30.650  25.873  1.00  0.00    -0.352 N 
ATOM     30  C   UNL A   1      32.792  31.505  26.846  1.00  0.00     0.251 C 
ATOM     31  H   UNL A   1      31.573  30.990  25.353  1.00  0.00     0.163 HD
ATOM     32  O   UNL A   1      32.113  32.490  27.130  1.00  0.00    -0.269 OA
BRANCH  30  33
ATOM     33  C   UNL A   1      34.067  31.263  27.561  1.00  0.00     0.039 A 
ATOM     34  C   UNL A   1      34.349  29.964  28.003  1.00  0.00     0.014 A 
ATOM     35  C   UNL A   1      34.943  32.305  27.882  1.00  0.00     0.014 A 
ATOM     36  C   UNL A   1      35.523  29.700  28.714  1.00  0.00     0.010 A 
ATOM     37  C   UNL A   1      36.133  32.035  28.560  1.00  0.00     0.010 A 
ATOM     38  C   UNL A   1      36.433  30.731  28.984  1.00  0.00    -0.014 A 
BRANCH  38  39
ATOM     39  C   UNL A   1      37.693  30.474  29.727  1.00  0.00     0.031 A 
ATOM     40  C   UNL A   1      38.753  29.592  29.132  1.00  0.00     0.074 A 
ATOM     41  C   UNL A   1      37.855  30.973  30.966  1.00  0.00     0.049 A 
ATOM     42  N   UNL A   1      39.831  29.104  29.688  1.00  0.00    -0.248 NA
ATOM     43  C   UNL A   1      38.559  29.190  27.731  1.00  0.00     0.031 C 
ATOM     44  C   UNL A   1      36.898  31.827  31.672  1.00  0.00     0.029 A 
ATOM     45  N   UNL A   1      38.882  30.811  31.862  1.00  0.00    -0.354 N 
ATOM     46  C   UNL A   1      40.423  28.297  28.723  1.00  0.00     0.074 A 
ATOM     47  C   UNL A   1      39.586  28.374  27.543  1.00  0.00     0.031 C 
ATOM     48  C   UNL A   1      37.378  32.104  32.896  1.00  0.00     0.029 A 
ATOM     49  C   UNL A   1      38.659  31.426  33.070  1.00  0.00     0.049 A 
ATOM     50  H   UNL A   1      39.700  30.302  31.658  1.00  0.00     0.167 HD
ATOM     51  C   UNL A   1      41.551  27.551  28.815  1.00  0.00     0.034 A 
ATOM     52  C   UNL A   1      39.388  31.419  34.201  1.00  0.00     0.034 A 
ATOM     53  C   UNL A   1      42.405  27.501  29.974  1.00  0.00     0.049 A 
ATOM     54  C   UNL A   1      40.664  30.632  34.261  1.00  0.00     0.074 A 
ATOM     55  C   UNL A   1      43.590  26.804  30.148  1.00  0.00     0.029 A 
ATOM     56  N   UNL A   1      42.168  28.180  31.159  1.00  0.00    -0.354 N 
ATOM     57  N   UNL A   1      41.189  29.845  33.354  1.00  0.00    -0.248 NA
ATOM     58  C   UNL A   1      41.439  30.728  35.505  1.00  0.00     0.031 C 
ATOM     59  C   UNL A   1      44.058  27.048  31.447  1.00  0.00     0.029 A 
ATOM     60  C   UNL A   1      43.177  27.916  32.071  1.00  0.00     0.049 A 
ATOM     61  H   UNL A   1      41.394  28.765  31.329  1.00  0.00     0.167 HD
ATOM     62  C   UNL A   1      42.352  29.340  33.924  1.00  0.00     0.074 A 
ATOM     63  C   UNL A   1      42.457  29.917  35.249  1.00  0.00     0.031 C 
ATOM     64  C   UNL A   1      43.253  28.477  33.394  1.00  0.00     0.034 A 
BRANCH  51  65
ATOM     65  C   UNL A   1      41.882  26.681  27.636  1.00  0.00     0.023 A 
ATOM     66  C   UNL A   1      41.511  25.328  27.590  1.00  0.00     0.031 A 
ATOM     67  C   UNL A   1      42.624  27.210  26.565  1.00  0.00     0.131 A 
ATOM     68  C   UNL A   1      41.925  24.533  26.513  1.00  0.00     0.055 A 
ATOM     69  C   UNL A   1      42.995  26.424  25.473  1.00  0.00     0.041 A 
ATOM     70  F   UNL A   1      43.020  28.492  26.578  1.00  0.00    -0.206 F 
ATOM     71  C   UNL A   1      42.654  25.074  25.448  1.00  0.00     0.022 A 
BRANCH  68  72
ATOM     72  S   UNL A   1      41.587  22.752  26.564  1.00  0.00     0.124 S 
ATOM     73  O   UNL A   1      40.127  22.726  26.591  1.00  0.00    -0.237 OA
ATOM     74  O   UNL A   1      42.214  22.278  25.336  1.00  0.00    -0.237 OA
ATOM     75  O   UNL A   1      42.233  22.317  27.801  1.00  0.00    -0.744 OA
ENDBRANCH  68  72
ENDBRANCH  51  65
BRANCH  52  76
ATOM     76  C   UNL A   1      38.886  32.126  35.402  1.00  0.00     0.023 A 
ATOM     77  C   UNL A   1      38.244  31.430  36.435  1.00  0.00     0.031 A 
ATOM     78  C   UNL A   1      39.054  33.516  35.523  1.00  0.00     0.131 A 
ATOM     79  C   UNL A   1      37.777  32.138  37.552  1.00  0.00     0.055 A 
ATOM     80  C   UNL A   1      38.593  34.214  36.639  1.00  0.00     0.041 A 
ATOM     81  F   UNL A   1      39.677  34.209  34.557  1.00  0.00    -0.206 F 
ATOM     82  C   UNL A   1      37.949  33.523  37.660  1.00  0.00     0.022 A 
BRANCH  79  83
ATOM     83  S   UNL A   1      36.945  31.223  38.877  1.00  0.00     0.124 S 
ATOM     84  O   UNL A   1      37.891  31.365  39.978  1.00  0.00    -0.237 OA
ATOM     85  O   UNL A   1      35.690  31.956  39.009  1.00  0.00    -0.237 OA
ATOM     86  O   UNL A   1      36.819  29.874  38.330  1.00  0.00    -0.744 OA
ENDBRANCH  79  83
ENDBRANCH  52  76
BRANCH  64  87
ATOM     87  C   UNL A   1      44.429  28.123  34.256  1.00  0.00     0.023 A 
ATOM     88  C   UNL A   1      44.388  27.011  35.112  1.00  0.00     0.031 A 
ATOM     89  C   UNL A   1      45.588  28.914  34.232  1.00  0.00     0.131 A 
ATOM     90  C   UNL A   1      45.489  26.731  35.935  1.00  0.00     0.055 A 
ATOM     91  C   UNL A   1      46.687  28.622  35.041  1.00  0.00     0.041 A 
ATOM     92  F   UNL A   1      45.662  29.990  33.433  1.00  0.00    -0.206 F 
ATOM     93  C   UNL A   1      46.639  27.527  35.900  1.00  0.00     0.022 A 
BRANCH  90  94
ATOM     94  S   UNL A   1      45.393  25.325  37.077  1.00  0.00     0.124 S 
ATOM     95  O   UNL A   1      44.597  24.367  36.315  1.00  0.00    -0.237 OA
ATOM     96  O   UNL A   1      46.798  24.978  37.268  1.00  0.00    -0.237 OA
ATOM     97  O   UNL A   1      44.730  25.884  38.253  1.00  0.00    -0.744 OA
ENDBRANCH  90  94
ENDBRANCH  64  87
ENDBRANCH  38  39
ENDBRANCH  30  33
ENDBRANCH  28  29
ENDBRANCH   1  28
TORSDOF 16
ENDMDL
MODEL 2
REMARK VINA RESULT:     -12.8      2.973      8.542
REMARK SMILES Cc1ccnc(C(=O)c2[nH]c3cc(F)ccc3c2CC(=O)NCCCNC(=O)c2ccc(-c3c4nc(c(-c5cc(S(=O)(=O)[O-])ccc5F)c5ccc([nH]5)c(-c5cc(S(=O)(=O)[O-])ccc5F)c5nc(c(-c6cc(S(=O)(=O)[O-])ccc6F)c6ccc3[nH]6)C=C5)C=C4)cc2)c1
REMARK SMILES IDX 24 1 23 2 22 3 20 4 21 5 19 7 18 8 9 9 10 10 11 11 17 13
REMARK SMILES IDX 12 14 16 15 13 16 15 17 14 18 7 19 8 20 6 21 1 22 2 23 3 24
REMARK SMILES IDX 92 25 4 26 5 27 25 28 26 29 27 30 28 32 29 33 30 34 91 35
REMARK SMILES IDX 31 36 90 37 32 38 33 39 34 40 84 41 35 42 89 43 83 44 85 45
REMARK SMILES IDX 36 46 88 47 82 48 81 49 37 51 69 52 49 53 68 54 50 55 53 56
REMARK SMILES IDX 67 57 86 58 51 59 52 60 66 62 87 63 54 64 38 65 39 66 47 67
REMARK SMILES IDX 40 68 46 69 48 70 45 71 41 72 42 73 43 74 44 75 70 76 71 77
REMARK SMILES IDX 79 78 72 79 78 80 80 81 77 82 73 83 74 84 75 85 76 86 55 87
REMARK SMILES IDX 56 88 64 89 57 90 63 91 65 92 62 93 58 94 59 95 60 96 61 97
REMARK H PARENT 22 6 10 12 26 31 85 50 53 61
REMARK Flexibility Score: inf
ROOT
ATOM      1  C   UNL A   1      33.049  27.720  26.588  1.00  0.00     0.042 C 
ENDROOT
BRANCH   1   2
ATOM      2  C   UNL A   1      32.990  26.367  25.882  1.00  0.00     0.117 C 
BRANCH   2   3
ATOM      3  N   UNL A   1      32.336  25.330  26.656  1.00  0.00    -0.356 N 
ATOM      4  C   UNL A   1      32.235  23.990  26.411  1.00  0.00     0.224 C 
ATOM      5  O   UNL A   1      31.799  23.264  27.310  1.00  0.00    -0.275 OA
ATOM      6  H   UNL A   1      31.898  25.637  27.484  1.00  0.00     0.163 HD
BRANCH   4   7
ATOM      7  C   UNL A   1      32.765  23.391  25.121  1.00  0.00     0.138 C 
BRANCH   7   8
ATOM      8  C   UNL A   1      33.906  22.427  25.274  1.00  0.00    -0.002 A 
ATOM      9  C   UNL A   1      33.849  21.036  25.307  1.00  0.00     0.093 A 
ATOM     10  N   UNL A   1      35.139  20.570  25.417  1.00  0.00    -0.351 N 
ATOM     11  C   UNL A   1      36.020  21.611  25.569  1.00  0.00     0.049 A 
ATOM     12  H   UNL A   1      35.395  19.620  25.390  1.00  0.00     0.167 HD
ATOM     13  C   UNL A   1      35.279  22.790  25.490  1.00  0.00     0.004 A 
ATOM     14  C   UNL A   1      37.407  21.596  25.752  1.00  0.00     0.066 A 
ATOM     15  C   UNL A   1      35.963  24.022  25.610  1.00  0.00     0.013 A 
ATOM     16  C   UNL A   1      38.047  22.828  25.869  1.00  0.00     0.125 A 
ATOM     17  C   UNL A   1      37.348  24.026  25.800  1.00  0.00     0.040 A 
ATOM     18  F   UNL A   1      39.373  22.859  26.058  1.00  0.00    -0.207 F 
BRANCH   9  19
ATOM     19  C   UNL A   1      32.702  20.151  25.179  1.00  0.00     0.227 C 
ATOM     20  O   UNL A   1      31.560  20.562  25.351  1.00  0.00    -0.285 OA
BRANCH  19  21
ATOM     21  C   UNL A   1      32.957  18.712  24.792  1.00  0.00     0.113 A 
ATOM     22  C   UNL A   1      32.383  15.165  26.008  1.00  0.00     0.044 C 
ATOM     23  C   UNL A   1      32.823  16.342  25.191  1.00  0.00    -0.047 A 
ATOM     24  C   UNL A   1      33.505  16.147  23.989  1.00  0.00     0.023 A 
ATOM     25  C   UNL A   1      32.527  17.650  25.588  1.00  0.00     0.036 A 
ATOM     26  C   UNL A   1      33.884  17.256  23.250  1.00  0.00     0.112 A 
ATOM     27  N   UNL A   1      33.632  18.526  23.627  1.00  0.00    -0.253 NA
ENDBRANCH  19  21
ENDBRANCH   9  19
ENDBRANCH   7   8
ENDBRANCH   4   7
ENDBRANCH   2   3
ENDBRANCH   1   2
BRANCH   1  28
ATOM     28  C   UNL A   1      34.023  28.723  25.974  1.00  0.00     0.118 C 
BRANCH  28  29
ATOM     29  N   UNL A   1      33.888  30.052  26.550  1.00  0.00    -0.352 N 
ATOM     30  C   UNL A   1      34.618  30.683  27.527  1.00  0.00     0.251 C 
ATOM     31  H   UNL A   1      33.151  30.588  26.178  1.00  0.00     0.163 HD
ATOM     32  O   UNL A   1      34.187  31.734  27.998  1.00  0.00    -0.269 OA
BRANCH  30  33
ATOM     33  C   UNL A   1      35.895  30.124  28.030  1.00  0.00     0.039 A 
ATOM     34  C   UNL A   1      35.918  29.556  29.310  1.00  0.00     0.014 A 
ATOM     35  C   UNL A   1      37.084  30.230  27.301  1.00  0.00     0.014 A 
ATOM     36  C   UNL A   1      37.111  29.051  29.836  1.00  0.00     0.010 A 
ATOM     37  C   UNL A   1      38.268  29.694  27.812  1.00  0.00     0.010 A 
ATOM     38  C   UNL A   1      38.292  29.101  29.084  1.00  0.00    -0.014 A 
BRANCH  38  39
ATOM     39  C   UNL A   1      39.569  28.561  29.616  1.00  0.00     0.031 A 
ATOM     40  C   UNL A   1      40.281  29.273  30.731  1.00  0.00     0.074 A 
ATOM     41  C   UNL A   1      40.127  27.475  29.050  1.00  0.00     0.049 A 
ATOM     42  N   UNL A   1      41.482  29.069  31.209  1.00  0.00    -0.248 NA
ATOM     43  C   UNL A   1      39.551  30.373  31.377  1.00  0.00     0.031 C 
ATOM     44  C   UNL A   1      39.555  26.701  27.948  1.00  0.00     0.029 A 
ATOM     45  N   UNL A   1      41.320  26.849  29.315  1.00  0.00    -0.354 N 
ATOM     46  C   UNL A   1      41.673  30.044  32.181  1.00  0.00     0.074 A 
ATOM     47  C   UNL A   1      40.457  30.831  32.229  1.00  0.00     0.031 C 
ATOM     48  C   UNL A   1      40.402  25.709  27.622  1.00  0.00     0.029 A 
ATOM     49  C   UNL A   1      41.585  25.797  28.473  1.00  0.00     0.049 A 
ATOM     50  H   UNL A   1      41.926  27.128  30.039  1.00  0.00     0.167 HD
ATOM     51  C   UNL A   1      42.764  30.273  32.951  1.00  0.00     0.034 A 
ATOM     52  C   UNL A   1      42.673  25.011  28.374  1.00  0.00     0.034 A 
ATOM     53  C   UNL A   1      43.961  29.471  32.932  1.00  0.00     0.049 A 
ATOM     54  C   UNL A   1      43.848  25.246  29.278  1.00  0.00     0.074 A 
ATOM     55  C   UNL A   1      45.104  29.601  33.703  1.00  0.00     0.029 A 
ATOM     56  N   UNL A   1      44.168  28.382  32.098  1.00  0.00    -0.354 N 
ATOM     57  N   UNL A   1      44.028  26.195  30.164  1.00  0.00    -0.248 NA
ATOM     58  C   UNL A   1      44.970  24.305  29.159  1.00  0.00     0.031 C 
ATOM     59  C   UNL A   1      46.010  28.602  33.321  1.00  0.00     0.029 A 
ATOM     60  C   UNL A   1      45.419  27.835  32.330  1.00  0.00     0.049 A 
ATOM     61  H   UNL A   1      43.520  28.047  31.437  1.00  0.00     0.167 HD
ATOM     62  C   UNL A   1      45.291  25.973  30.699  1.00  0.00     0.074 A 
ATOM     63  C   UNL A   1      45.825  24.796  30.045  1.00  0.00     0.031 C 
ATOM     64  C   UNL A   1      45.947  26.681  31.651  1.00  0.00     0.034 A 
BRANCH  51  65
ATOM     65  C   UNL A   1      42.722  31.485  33.838  1.00  0.00     0.023 A 
ATOM     66  C   UNL A   1      42.333  31.400  35.184  1.00  0.00     0.031 A 
ATOM     67  C   UNL A   1      43.031  32.749  33.307  1.00  0.00     0.131 A 
ATOM     68  C   UNL A   1      42.218  32.571  35.946  1.00  0.00     0.055 A 
ATOM     69  C   UNL A   1      42.957  33.907  34.084  1.00  0.00     0.041 A 
ATOM     70  F   UNL A   1      43.385  32.880  32.019  1.00  0.00    -0.206 F 
ATOM     71  C   UNL A   1      42.539  33.822  35.408  1.00  0.00     0.022 A 
BRANCH  68  72
ATOM     72  S   UNL A   1      41.544  32.455  37.626  1.00  0.00     0.124 S 
ATOM     73  O   UNL A   1      40.134  32.177  37.363  1.00  0.00    -0.237 OA
ATOM     74  O   UNL A   1      42.317  31.359  38.198  1.00  0.00    -0.237 OA
ATOM     75  O   UNL A   1      41.815  33.773  38.196  1.00  0.00    -0.744 OA
ENDBRANCH  68  72
ENDBRANCH  51  65
BRANCH  52  76
ATOM     76  C   UNL A   1      42.733  23.968  27.323  1.00  0.00     0.023 A 
ATOM     77  C   UNL A   1      42.222  22.683  27.550  1.00  0.00     0.031 A 
ATOM     78  C   UNL A   1      43.304  24.260  26.073  1.00  0.00     0.131 A 
ATOM     79  C   UNL A   1      42.305  21.723  26.532  1.00  0.00     0.055 A 
ATOM     80  C   UNL A   1      43.378  23.303  25.062  1.00  0.00     0.041 A 
ATOM     81  F   UNL A   1      43.790  25.485  25.820  1.00  0.00    -0.206 F 
ATOM     82  C   UNL A   1      42.878  22.025  25.291  1.00  0.00     0.022 A 
BRANCH  79  83
ATOM     83  S   UNL A   1      41.643  20.065  26.844  1.00  0.00     0.124 S 
ATOM     84  O   UNL A   1      42.662  19.495  27.717  1.00  0.00    -0.237 OA
ATOM     85  O   UNL A   1      40.357  20.364  27.467  1.00  0.00    -0.237 OA
ATOM     86  O   UNL A   1      41.560  19.475  25.509  1.00  0.00    -0.744 OA
ENDBRANCH  79  83
ENDBRANCH  52  76
BRANCH  64  87
ATOM     87  C   UNL A   1      47.309  26.184  32.036  1.00  0.00     0.023 A 
ATOM     88  C   UNL A   1      47.478  25.300  33.113  1.00  0.00     0.031 A 
ATOM     89  C   UNL A   1      48.444  26.613  31.331  1.00  0.00     0.131 A 
ATOM     90  C   UNL A   1      48.769  24.886  33.473  1.00  0.00     0.055 A 
ATOM     91  C   UNL A   1      49.725  26.186  31.682  1.00  0.00     0.041 A 
ATOM     92  F   UNL A   1      48.324  27.465  30.301  1.00  0.00    -0.206 F 
ATOM     93  C   UNL A   1      49.892  25.320  32.760  1.00  0.00     0.022 A 
BRANCH  90  94
ATOM     94  S   UNL A   1      48.970  23.791  34.904  1.00  0.00     0.124 S 
ATOM     95  O   UNL A   1      50.324  23.280  34.709  1.00  0.00    -0.237 OA
ATOM     96  O   UNL A   1      48.788  24.704  36.028  1.00  0.00    -0.237 OA
ATOM     97  O   UNL A   1      47.906  22.803  34.732  1.00  0.00    -0.744 OA
ENDBRANCH  90  94
ENDBRANCH  64  87
ENDBRANCH  38  39
ENDBRANCH  30  33
ENDBRANCH  28  29
ENDBRANCH   1  28
TORSDOF 16
ENDMDL
MODEL 3
REMARK VINA RESULT:     -12.8      2.275      3.212
REMARK SMILES Cc1ccnc(C(=O)c2[nH]c3cc(F)ccc3c2CC(=O)NCCCNC(=O)c2ccc(-c3c4nc(c(-c5cc(S(=O)(=O)[O-])ccc5F)c5ccc([nH]5)c(-c5cc(S(=O)(=O)[O-])ccc5F)c5nc(c(-c6cc(S(=O)(=O)[O-])ccc6F)c6ccc3[nH]6)C=C5)C=C4)cc2)c1
REMARK SMILES IDX 24 1 23 2 22 3 20 4 21 5 19 7 18 8 9 9 10 10 11 11 17 13
REMARK SMILES IDX 12 14 16 15 13 16 15 17 14 18 7 19 8 20 6 21 1 22 2 23 3 24
REMARK SMILES IDX 92 25 4 26 5 27 25 28 26 29 27 30 28 32 29 33 30 34 91 35
REMARK SMILES IDX 31 36 90 37 32 38 33 39 34 40 84 41 35 42 89 43 83 44 85 45
REMARK SMILES IDX 36 46 88 47 82 48 81 49 37 51 69 52 49 53 68 54 50 55 53 56
REMARK SMILES IDX 67 57 86 58 51 59 52 60 66 62 87 63 54 64 38 65 39 66 47 67
REMARK SMILES IDX 40 68 46 69 48 70 45 71 41 72 42 73 43 74 44 75 70 76 71 77
REMARK SMILES IDX 79 78 72 79 78 80 80 81 77 82 73 83 74 84 75 85 76 86 55 87
REMARK SMILES IDX 56 88 64 89 57 90 63 91 65 92 62 93 58 94 59 95 60 96 61 97
REMARK H PARENT 22 6 10 12 26 31 85 50 53 61
REMARK Flexibility Score: inf
ROOT
ATOM      1  C   UNL A   1      31.401  32.166  26.536  1.00  0.00     0.042 C 
ENDROOT
BRANCH   1   2
ATOM      2  C   UNL A   1      31.427  30.668  26.239  1.00  0.00     0.117 C 
BRANCH   2   3
ATOM      3  N   UNL A   1      32.740  30.067  26.374  1.00  0.00    -0.356 N 
ATOM      4  C   UNL A   1      33.085  28.760  26.573  1.00  0.00     0.224 C 
ATOM      5  O   UNL A   1      34.274  28.448  26.461  1.00  0.00    -0.275 OA
ATOM      6  H   UNL A   1      33.497  30.694  26.312  1.00  0.00     0.163 HD
BRANCH   4   7
ATOM      7  C   UNL A   1      32.023  27.699  26.798  1.00  0.00     0.138 C 
BRANCH   7   8
ATOM      8  C   UNL A   1      31.837  26.720  25.674  1.00  0.00    -0.002 A 
ATOM      9  C   UNL A   1      31.542  26.997  24.342  1.00  0.00     0.093 A 
ATOM     10  N   UNL A   1      31.509  25.798  23.666  1.00  0.00    -0.351 N 
ATOM     11  C   UNL A   1      31.661  24.747  24.535  1.00  0.00     0.049 A 
ATOM     12  H   UNL A   1      31.391  25.707  22.694  1.00  0.00     0.167 HD
ATOM     13  C   UNL A   1      31.864  25.290  25.804  1.00  0.00     0.004 A 
ATOM     14  C   UNL A   1      31.651  23.370  24.291  1.00  0.00     0.066 A 
ATOM     15  C   UNL A   1      32.058  24.405  26.889  1.00  0.00     0.013 A 
ATOM     16  C   UNL A   1      31.843  22.528  25.385  1.00  0.00     0.125 A 
ATOM     17  C   UNL A   1      32.044  23.025  26.665  1.00  0.00     0.040 A 
ATOM     18  F   UNL A   1      31.827  21.202  25.197  1.00  0.00    -0.207 F 
BRANCH   9  19
ATOM     19  C   UNL A   1      31.362  28.279  23.677  1.00  0.00     0.227 C 
ATOM     20  O   UNL A   1      32.324  28.937  23.298  1.00  0.00    -0.285 OA
BRANCH  19  21
ATOM     21  C   UNL A   1      29.950  28.760  23.436  1.00  0.00     0.113 A 
ATOM     22  C   UNL A   1      27.922  31.945  23.071  1.00  0.00     0.044 C 
ATOM     23  C   UNL A   1      28.309  30.500  23.164  1.00  0.00    -0.047 A 
ATOM     24  C   UNL A   1      27.343  29.503  23.019  1.00  0.00     0.023 A 
ATOM     25  C   UNL A   1      29.640  30.118  23.356  1.00  0.00     0.036 A 
ATOM     26  C   UNL A   1      27.736  28.177  23.095  1.00  0.00     0.112 A 
ATOM     27  N   UNL A   1      29.009  27.788  23.307  1.00  0.00    -0.253 NA
ENDBRANCH  19  21
ENDBRANCH   9  19
ENDBRANCH   7   8
ENDBRANCH   4   7
ENDBRANCH   2   3
ENDBRANCH   1   2
BRANCH   1  28
ATOM     28  C   UNL A   1      32.636  32.700  27.258  1.00  0.00     0.118 C 
BRANCH  28  29
ATOM     29  N   UNL A   1      32.484  34.087  27.667  1.00  0.00    -0.352 N 
ATOM     30  C   UNL A   1      33.118  34.807  28.649  1.00  0.00     0.251 C 
ATOM     31  H   UNL A   1      31.815  34.596  27.154  1.00  0.00     0.163 HD
ATOM     32  O   UNL A   1      32.674  35.914  28.948  1.00  0.00    -0.269 OA
BRANCH  30  33
ATOM     33  C   UNL A   1      34.308  34.279  29.357  1.00  0.00     0.039 A 
ATOM     34  C   UNL A   1      35.570  34.474  28.780  1.00  0.00     0.014 A 
ATOM     35  C   UNL A   1      34.196  33.520  30.526  1.00  0.00     0.014 A 
ATOM     36  C   UNL A   1      36.715  33.960  29.396  1.00  0.00     0.010 A 
ATOM     37  C   UNL A   1      35.342  33.038  31.161  1.00  0.00     0.010 A 
ATOM     38  C   UNL A   1      36.611  33.252  30.601  1.00  0.00    -0.014 A 
BRANCH  38  39
ATOM     39  C   UNL A   1      37.813  32.706  31.280  1.00  0.00     0.031 A 
ATOM     40  C   UNL A   1      38.577  31.569  30.662  1.00  0.00     0.074 A 
ATOM     41  C   UNL A   1      38.177  33.180  32.486  1.00  0.00     0.049 A 
ATOM     42  N   UNL A   1      39.534  30.840  31.176  1.00  0.00    -0.248 NA
ATOM     43  C   UNL A   1      38.196  31.193  29.294  1.00  0.00     0.031 C 
ATOM     44  C   UNL A   1      37.512  34.265  33.209  1.00  0.00     0.029 A 
ATOM     45  N   UNL A   1      39.188  32.787  33.327  1.00  0.00    -0.354 N 
ATOM     46  C   UNL A   1      39.839  29.884  30.213  1.00  0.00     0.074 A 
ATOM     47  C   UNL A   1      38.972  30.140  29.081  1.00  0.00     0.031 C 
ATOM     48  C   UNL A   1      38.126  34.444  34.391  1.00  0.00     0.029 A 
ATOM     49  C   UNL A   1      39.206  33.470  34.519  1.00  0.00     0.049 A 
ATOM     50  H   UNL A   1      39.837  32.083  33.098  1.00  0.00     0.167 HD
ATOM     51  C   UNL A   1      40.748  28.881  30.271  1.00  0.00     0.034 A 
ATOM     52  C   UNL A   1      39.983  33.309  35.605  1.00  0.00     0.034 A 
ATOM     53  C   UNL A   1      41.638  28.647  31.380  1.00  0.00     0.049 A 
ATOM     54  C   UNL A   1      41.024  32.227  35.625  1.00  0.00     0.074 A 
ATOM     55  C   UNL A   1      42.619  27.679  31.514  1.00  0.00     0.029 A 
ATOM     56  N   UNL A   1      41.657  29.396  32.547  1.00  0.00    -0.354 N 
ATOM     57  N   UNL A   1      41.274  31.309  34.723  1.00  0.00    -0.248 NA
ATOM     58  C   UNL A   1      41.879  32.157  36.817  1.00  0.00     0.031 C 
ATOM     59  C   UNL A   1      43.219  27.831  32.773  1.00  0.00     0.029 A 
ATOM     60  C   UNL A   1      42.627  28.909  33.409  1.00  0.00     0.049 A 
ATOM     61  H   UNL A   1      41.067  30.160  32.737  1.00  0.00     0.167 HD
ATOM     62  C   UNL A   1      42.308  30.543  35.245  1.00  0.00     0.074 A 
ATOM     63  C   UNL A   1      42.642  31.109  36.537  1.00  0.00     0.031 C 
ATOM     64  C   UNL A   1      42.928  29.467  34.701  1.00  0.00     0.034 A 
BRANCH  51  65
ATOM     65  C   UNL A   1      40.773  27.925  29.112  1.00  0.00     0.023 A 
ATOM     66  C   UNL A   1      41.689  28.067  28.059  1.00  0.00     0.031 A 
ATOM     67  C   UNL A   1      39.829  26.886  29.045  1.00  0.00     0.131 A 
ATOM     68  C   UNL A   1      41.612  27.208  26.953  1.00  0.00     0.055 A 
ATOM     69  C   UNL A   1      39.785  26.006  27.962  1.00  0.00     0.041 A 
ATOM     70  F   UNL A   1      38.919  26.727  30.019  1.00  0.00    -0.206 F 
ATOM     71  C   UNL A   1      40.674  26.171  26.904  1.00  0.00     0.022 A 
BRANCH  68  72
ATOM     72  S   UNL A   1      42.688  27.524  25.528  1.00  0.00     0.124 S 
ATOM     73  O   UNL A   1      42.108  28.748  24.982  1.00  0.00    -0.237 OA
ATOM     74  O   UNL A   1      44.000  27.657  26.149  1.00  0.00    -0.237 OA
ATOM     75  O   UNL A   1      42.510  26.335  24.696  1.00  0.00    -0.744 OA
ENDBRANCH  68  72
ENDBRANCH  51  65
BRANCH  52  76
ATOM     76  C   UNL A   1      39.755  34.151  36.803  1.00  0.00     0.023 A 
ATOM     77  C   UNL A   1      39.138  33.628  37.947  1.00  0.00     0.031 A 
ATOM     78  C   UNL A   1      40.163  35.496  36.807  1.00  0.00     0.131 A 
ATOM     79  C   UNL A   1      38.934  34.461  39.057  1.00  0.00     0.055 A 
ATOM     80  C   UNL A   1      39.963  36.317  37.916  1.00  0.00     0.041 A 
ATOM     81  F   UNL A   1      40.769  36.023  35.731  1.00  0.00    -0.206 F 
ATOM     82  C   UNL A   1      39.344  35.799  39.049  1.00  0.00     0.022 A 
BRANCH  79  83
ATOM     83  S   UNL A   1      38.131  33.769  40.527  1.00  0.00     0.124 S 
ATOM     84  O   UNL A   1      39.191  32.938  41.085  1.00  0.00    -0.237 OA
ATOM     85  O   UNL A   1      37.793  34.972  41.282  1.00  0.00    -0.237 OA
ATOM     86  O   UNL A   1      36.988  33.042  39.979  1.00  0.00    -0.744 OA
ENDBRANCH  79  83
ENDBRANCH  52  76
BRANCH  64  87
ATOM     87  C   UNL A   1      44.032  28.851  35.508  1.00  0.00     0.023 A 
ATOM     88  C   UNL A   1      43.780  27.776  36.375  1.00  0.00     0.031 A 
ATOM     89  C   UNL A   1      45.339  29.356  35.421  1.00  0.00     0.131 A 
ATOM     90  C   UNL A   1      44.827  27.248  37.145  1.00  0.00     0.055 A 
ATOM     91  C   UNL A   1      46.380  28.817  36.178  1.00  0.00     0.041 A 
ATOM     92  F   UNL A   1      45.618  30.388  34.611  1.00  0.00    -0.206 F 
ATOM     93  C   UNL A   1      46.126  27.759  37.048  1.00  0.00     0.022 A 
BRANCH  90  94
ATOM     94  S   UNL A   1      44.468  25.898  38.302  1.00  0.00     0.124 S 
ATOM     95  O   UNL A   1      45.721  25.149  38.295  1.00  0.00    -0.237 OA
ATOM     96  O   UNL A   1      44.160  26.614  39.536  1.00  0.00    -0.237 OA
ATOM     97  O   UNL A   1      43.333  25.212  37.687  1.00  0.00    -0.744 OA
ENDBRANCH  90  94
ENDBRANCH  64  87
ENDBRANCH  38  39
ENDBRANCH  30  33
ENDBRANCH  28  29
ENDBRANCH   1  28
TORSDOF 16
ENDMDL
