MODEL 1
REMARK VINA RESULT:     -10.3      0.000      0.000
REMARK SMILES COc1ccccc1-c1nnc(SCCC(=O)NCCCNC(=O)c2ccc(-c3c4nc(c(-c5cc(S(=O)(=O)[O-])ccc5F)c5ccc([nH]5)c(-c5cc(S(=O)(=O)[O-])ccc5F)c5nc(c(-c6cc(S(=O)(=O)[O-])ccc6F)c6ccc3[nH]6)C=C5)C=C4)cc2)o1
REMARK SMILES IDX 19 1 18 2 16 3 17 4 15 6 14 7 13 8 12 9 9 10 10 11 88 12
REMARK SMILES IDX 11 13 8 14 3 15 4 16 5 17 7 18 6 19 2 20 1 21 20 22 21 23
REMARK SMILES IDX 22 24 23 25 24 27 25 28 26 29 87 30 27 31 86 32 28 33 29 34
REMARK SMILES IDX 30 35 80 36 31 37 85 38 79 39 81 40 32 41 84 42 78 43 77 44
REMARK SMILES IDX 33 46 65 47 45 48 64 49 46 50 49 51 63 52 82 53 47 54 48 55
REMARK SMILES IDX 62 57 83 58 50 59 34 60 35 61 43 62 36 63 42 64 44 65 41 66
REMARK SMILES IDX 37 67 38 68 39 69 40 70 66 71 67 72 75 73 68 74 74 75 76 76
REMARK SMILES IDX 73 77 69 78 70 79 71 80 72 81 51 82 52 83 60 84 53 85 59 86
REMARK SMILES IDX 61 87 58 88 54 89 55 90 56 91 57 92
REMARK H PARENT 18 5 22 26 81 45 49 56
REMARK Flexibility Score: inf
ROOT
ATOM      1  C   UNL A   1      35.243  34.980  28.714  1.00  0.00     0.117 C 
ENDROOT
BRANCH   1   2
ATOM      2  N   UNL A   1      34.286  36.011  28.351  1.00  0.00    -0.356 N 
ATOM      3  C   UNL A   1      33.365  36.672  29.101  1.00  0.00     0.220 C 
ATOM      4  O   UNL A   1      32.940  37.763  28.718  1.00  0.00    -0.275 OA
ATOM      5  H   UNL A   1      34.309  36.276  27.402  1.00  0.00     0.163 HD
BRANCH   3   6
ATOM      6  C   UNL A   1      32.801  36.041  30.339  1.00  0.00     0.111 C 
BRANCH   6   7
ATOM      7  C   UNL A   1      33.167  36.894  31.551  1.00  0.00     0.090 C 
BRANCH   7   8
ATOM      8  S   UNL A   1      33.596  35.944  33.031  1.00  0.00    -0.065 SA
BRANCH   8   9
ATOM      9  C   UNL A   1      35.012  35.023  32.604  1.00  0.00     0.276 A 
ATOM     10  C   UNL A   1      36.994  34.300  32.262  1.00  0.00     0.252 A 
ATOM     11  N   UNL A   1      36.173  33.324  31.929  1.00  0.00    -0.107 NA
ATOM     12  O   UNL A   1      36.326  35.425  32.689  1.00  0.00    -0.411 OA
ATOM     13  N   UNL A   1      34.902  33.784  32.169  1.00  0.00    -0.101 NA
BRANCH  10  14
ATOM     14  C   UNL A   1      38.446  34.324  32.130  1.00  0.00     0.081 A 
ATOM     15  C   UNL A   1      39.140  34.296  30.911  1.00  0.00     0.131 A 
ATOM     16  C   UNL A   1      40.543  34.235  30.896  1.00  0.00     0.047 A 
ATOM     17  C   UNL A   1      41.269  34.341  32.080  1.00  0.00     0.004 A 
ATOM     18  C   UNL A   1      39.201  34.463  33.311  1.00  0.00     0.018 A 
ATOM     19  C   UNL A   1      40.597  34.487  33.286  1.00  0.00     0.001 A 
BRANCH  15  20
ATOM     20  O   UNL A   1      38.456  34.332  29.724  1.00  0.00    -0.496 OA
ATOM     21  C   UNL A   1      38.327  33.033  29.133  1.00  0.00     0.278 C 
ENDBRANCH  15  20
ENDBRANCH  10  14
ENDBRANCH   8   9
ENDBRANCH   7   8
ENDBRANCH   6   7
ENDBRANCH   3   6
ENDBRANCH   1   2
BRANCH   1  22
ATOM     22  C   UNL A   1      35.051  33.638  28.009  1.00  0.00     0.042 C 
BRANCH  22  23
ATOM     23  C   UNL A   1      34.037  32.689  28.646  1.00  0.00     0.118 C 
BRANCH  23  24
ATOM     24  N   UNL A   1      33.546  31.662  27.743  1.00  0.00    -0.352 N 
ATOM     25  C   UNL A   1      34.138  30.479  27.367  1.00  0.00     0.251 C 
ATOM     26  H   UNL A   1      32.664  31.839  27.342  1.00  0.00     0.163 HD
ATOM     27  O   UNL A   1      33.564  29.772  26.535  1.00  0.00    -0.269 OA
BRANCH  25  28
ATOM     28  C   UNL A   1      35.460  30.064  27.899  1.00  0.00     0.039 A 
ATOM     29  C   UNL A   1      35.534  29.673  29.241  1.00  0.00     0.014 A 
ATOM     30  C   UNL A   1      36.625  30.084  27.124  1.00  0.00     0.014 A 
ATOM     31  C   UNL A   1      36.751  29.251  29.786  1.00  0.00     0.010 A 
ATOM     32  C   UNL A   1      37.834  29.618  27.660  1.00  0.00     0.010 A 
ATOM     33  C   UNL A   1      37.910  29.191  28.996  1.00  0.00    -0.014 A 
BRANCH  33  34
ATOM     34  C   UNL A   1      39.184  28.664  29.570  1.00  0.00     0.031 A 
ATOM     35  C   UNL A   1      39.792  29.281  30.802  1.00  0.00     0.074 A 
ATOM     36  C   UNL A   1      39.799  27.620  28.980  1.00  0.00     0.049 A 
ATOM     37  N   UNL A   1      40.875  28.935  31.453  1.00  0.00    -0.248 NA
ATOM     38  C   UNL A   1      39.095  30.442  31.370  1.00  0.00     0.031 C 
ATOM     39  C   UNL A   1      39.329  26.942  27.770  1.00  0.00     0.029 A 
ATOM     40  N   UNL A   1      40.946  26.941  29.314  1.00  0.00    -0.354 N 
ATOM     41  C   UNL A   1      40.990  29.831  32.511  1.00  0.00     0.074 A 
ATOM     42  C   UNL A   1      39.894  30.770  32.377  1.00  0.00     0.031 C 
ATOM     43  C   UNL A   1      40.163  25.930  27.480  1.00  0.00     0.029 A 
ATOM     44  C   UNL A   1      41.252  25.910  28.453  1.00  0.00     0.049 A 
ATOM     45  H   UNL A   1      41.498  27.169  30.096  1.00  0.00     0.167 HD
ATOM     46  C   UNL A   1      41.910  29.859  33.509  1.00  0.00     0.034 A 
ATOM     47  C   UNL A   1      42.293  25.052  28.438  1.00  0.00     0.034 A 
ATOM     48  C   UNL A   1      43.008  28.926  33.626  1.00  0.00     0.049 A 
ATOM     49  C   UNL A   1      43.338  25.143  29.522  1.00  0.00     0.074 A 
ATOM     50  C   UNL A   1      43.968  28.847  34.623  1.00  0.00     0.029 A 
ATOM     51  N   UNL A   1      43.309  27.924  32.713  1.00  0.00    -0.354 N 
ATOM     52  N   UNL A   1      43.401  25.964  30.545  1.00  0.00    -0.248 NA
ATOM     53  C   UNL A   1      44.448  24.182  29.457  1.00  0.00     0.031 C 
ATOM     54  C   UNL A   1      44.889  27.855  34.272  1.00  0.00     0.029 A 
ATOM     55  C   UNL A   1      44.459  27.250  33.102  1.00  0.00     0.049 A 
ATOM     56  H   UNL A   1      42.783  27.720  31.906  1.00  0.00     0.167 HD
ATOM     57  C   UNL A   1      44.538  25.594  31.260  1.00  0.00     0.074 A 
ATOM     58  C   UNL A   1      45.120  24.469  30.561  1.00  0.00     0.031 C 
ATOM     59  C   UNL A   1      45.049  26.136  32.395  1.00  0.00     0.034 A 
BRANCH  46  60
ATOM     60  C   UNL A   1      41.785  30.959  34.540  1.00  0.00     0.023 A 
ATOM     61  C   UNL A   1      40.683  31.033  35.411  1.00  0.00     0.031 A 
ATOM     62  C   UNL A   1      42.773  31.953  34.647  1.00  0.00     0.131 A 
ATOM     63  C   UNL A   1      40.561  32.115  36.296  1.00  0.00     0.055 A 
ATOM     64  C   UNL A   1      42.687  32.982  35.588  1.00  0.00     0.041 A 
ATOM     65  F   UNL A   1      43.840  31.947  33.832  1.00  0.00    -0.206 F 
ATOM     66  C   UNL A   1      41.567  33.077  36.408  1.00  0.00     0.022 A 
BRANCH  63  67
ATOM     67  S   UNL A   1      38.999  32.329  37.194  1.00  0.00     0.124 S 
ATOM     68  O   UNL A   1      38.467  33.543  36.578  1.00  0.00    -0.237 OA
ATOM     69  O   UNL A   1      38.288  31.093  36.890  1.00  0.00    -0.237 OA
ATOM     70  O   UNL A   1      39.421  32.481  38.585  1.00  0.00    -0.744 OA
ENDBRANCH  63  67
ENDBRANCH  46  60
BRANCH  47  71
ATOM     71  C   UNL A   1      42.422  24.038  27.348  1.00  0.00     0.023 A 
ATOM     72  C   UNL A   1      41.742  22.811  27.413  1.00  0.00     0.031 A 
ATOM     73  C   UNL A   1      43.274  24.262  26.253  1.00  0.00     0.131 A 
ATOM     74  C   UNL A   1      41.964  21.836  26.427  1.00  0.00     0.055 A 
ATOM     75  C   UNL A   1      43.445  23.313  25.244  1.00  0.00     0.041 A 
ATOM     76  F   UNL A   1      43.950  25.417  26.143  1.00  0.00    -0.206 F 
ATOM     77  C   UNL A   1      42.799  22.085  25.336  1.00  0.00     0.022 A 
BRANCH  74  78
ATOM     78  S   UNL A   1      41.218  20.196  26.642  1.00  0.00     0.124 S 
ATOM     79  O   UNL A   1      41.120  20.101  28.094  1.00  0.00    -0.237 OA
ATOM     80  O   UNL A   1      39.957  20.340  25.921  1.00  0.00    -0.237 OA
ATOM     81  O   UNL A   1      42.188  19.297  26.020  1.00  0.00    -0.744 OA
ENDBRANCH  74  78
ENDBRANCH  47  71
BRANCH  59  82
ATOM     82  C   UNL A   1      46.281  25.482  32.978  1.00  0.00     0.023 A 
ATOM     83  C   UNL A   1      47.577  25.814  32.545  1.00  0.00     0.031 A 
ATOM     84  C   UNL A   1      46.154  24.499  33.977  1.00  0.00     0.131 A 
ATOM     85  C   UNL A   1      48.688  25.129  33.064  1.00  0.00     0.055 A 
ATOM     86  C   UNL A   1      47.267  23.867  34.536  1.00  0.00     0.041 A 
ATOM     87  F   UNL A   1      44.942  24.136  34.428  1.00  0.00    -0.206 F 
ATOM     88  C   UNL A   1      48.541  24.170  34.070  1.00  0.00     0.022 A 
BRANCH  85  89
ATOM     89  S   UNL A   1      50.323  25.438  32.339  1.00  0.00     0.124 S 
ATOM     90  O   UNL A   1      50.080  26.635  31.541  1.00  0.00    -0.237 OA
ATOM     91  O   UNL A   1      51.160  25.618  33.521  1.00  0.00    -0.237 OA
ATOM     92  O   UNL A   1      50.592  24.224  31.569  1.00  0.00    -0.744 OA
ENDBRANCH  85  89
ENDBRANCH  59  82
ENDBRANCH  33  34
ENDBRANCH  25  28
ENDBRANCH  23  24
ENDBRANCH  22  23
ENDBRANCH   1  22
TORSDOF 18
ENDMDL
MODEL 2
REMARK VINA RESULT:     -10.2      1.880      2.343
REMARK SMILES COc1ccccc1-c1nnc(SCCC(=O)NCCCNC(=O)c2ccc(-c3c4nc(c(-c5cc(S(=O)(=O)[O-])ccc5F)c5ccc([nH]5)c(-c5cc(S(=O)(=O)[O-])ccc5F)c5nc(c(-c6cc(S(=O)(=O)[O-])ccc6F)c6ccc3[nH]6)C=C5)C=C4)cc2)o1
REMARK SMILES IDX 19 1 18 2 16 3 17 4 15 6 14 7 13 8 12 9 9 10 10 11 88 12
REMARK SMILES IDX 11 13 8 14 3 15 4 16 5 17 7 18 6 19 2 20 1 21 20 22 21 23
REMARK SMILES IDX 22 24 23 25 24 27 25 28 26 29 87 30 27 31 86 32 28 33 29 34
REMARK SMILES IDX 30 35 80 36 31 37 85 38 79 39 81 40 32 41 84 42 78 43 77 44
REMARK SMILES IDX 33 46 65 47 45 48 64 49 46 50 49 51 63 52 82 53 47 54 48 55
REMARK SMILES IDX 62 57 83 58 50 59 34 60 35 61 43 62 36 63 42 64 44 65 41 66
REMARK SMILES IDX 37 67 38 68 39 69 40 70 66 71 67 72 75 73 68 74 74 75 76 76
REMARK SMILES IDX 73 77 69 78 70 79 71 80 72 81 51 82 52 83 60 84 53 85 59 86
REMARK SMILES IDX 61 87 58 88 54 89 55 90 56 91 57 92
REMARK H PARENT 18 5 22 26 81 45 49 56
REMARK Flexibility Score: inf
ROOT
ATOM      1  C   UNL A   1      35.366  34.967  28.628  1.00  0.00     0.117 C 
ENDROOT
BRANCH   1   2
ATOM      2  N   UNL A   1      34.525  36.088  28.246  1.00  0.00    -0.356 N 
ATOM      3  C   UNL A   1      33.494  36.688  28.899  1.00  0.00     0.220 C 
ATOM      4  O   UNL A   1      33.180  37.842  28.606  1.00  0.00    -0.275 OA
ATOM      5  H   UNL A   1      34.736  36.478  27.367  1.00  0.00     0.163 HD
BRANCH   3   6
ATOM      6  C   UNL A   1      32.686  35.925  29.906  1.00  0.00     0.111 C 
BRANCH   6   7
ATOM      7  C   UNL A   1      32.818  36.596  31.271  1.00  0.00     0.090 C 
BRANCH   7   8
ATOM      8  S   UNL A   1      33.015  35.444  32.653  1.00  0.00    -0.065 SA
BRANCH   8   9
ATOM      9  C   UNL A   1      34.480  34.561  32.325  1.00  0.00     0.276 A 
ATOM     10  C   UNL A   1      36.494  33.934  31.979  1.00  0.00     0.252 A 
ATOM     11  N   UNL A   1      35.751  32.846  31.960  1.00  0.00    -0.107 NA
ATOM     12  O   UNL A   1      35.751  35.073  32.192  1.00  0.00    -0.411 OA
ATOM     13  N   UNL A   1      34.462  33.249  32.202  1.00  0.00    -0.101 NA
BRANCH  10  14
ATOM     14  C   UNL A   1      37.924  34.039  31.711  1.00  0.00     0.081 A 
ATOM     15  C   UNL A   1      38.919  34.123  32.696  1.00  0.00     0.131 A 
ATOM     16  C   UNL A   1      40.263  34.308  32.331  1.00  0.00     0.047 A 
ATOM     17  C   UNL A   1      40.644  34.273  30.992  1.00  0.00     0.004 A 
ATOM     18  C   UNL A   1      38.337  33.972  30.366  1.00  0.00     0.018 A 
ATOM     19  C   UNL A   1      39.683  34.073  30.010  1.00  0.00     0.001 A 
BRANCH  15  20
ATOM     20  O   UNL A   1      38.591  34.022  34.023  1.00  0.00    -0.496 OA
ATOM     21  C   UNL A   1      39.220  35.035  34.816  1.00  0.00     0.278 C 
ENDBRANCH  15  20
ENDBRANCH  10  14
ENDBRANCH   8   9
ENDBRANCH   7   8
ENDBRANCH   6   7
ENDBRANCH   3   6
ENDBRANCH   1   2
BRANCH   1  22
ATOM     22  C   UNL A   1      35.086  33.661  27.886  1.00  0.00     0.042 C 
BRANCH  22  23
ATOM     23  C   UNL A   1      34.220  32.644  28.630  1.00  0.00     0.118 C 
BRANCH  23  24
ATOM     24  N   UNL A   1      33.712  31.577  27.786  1.00  0.00    -0.352 N 
ATOM     25  C   UNL A   1      34.303  30.385  27.438  1.00  0.00     0.251 C 
ATOM     26  H   UNL A   1      32.816  31.729  27.406  1.00  0.00     0.163 HD
ATOM     27  O   UNL A   1      33.711  29.640  26.655  1.00  0.00    -0.269 OA
BRANCH  25  28
ATOM     28  C   UNL A   1      35.646  30.004  27.944  1.00  0.00     0.039 A 
ATOM     29  C   UNL A   1      35.733  29.458  29.229  1.00  0.00     0.014 A 
ATOM     30  C   UNL A   1      36.815  30.202  27.201  1.00  0.00     0.014 A 
ATOM     31  C   UNL A   1      36.971  29.060  29.745  1.00  0.00     0.010 A 
ATOM     32  C   UNL A   1      38.050  29.763  27.702  1.00  0.00     0.010 A 
ATOM     33  C   UNL A   1      38.141  29.181  28.978  1.00  0.00    -0.014 A 
BRANCH  33  34
ATOM     34  C   UNL A   1      39.443  28.681  29.510  1.00  0.00     0.031 A 
ATOM     35  C   UNL A   1      40.069  29.299  30.733  1.00  0.00     0.074 A 
ATOM     36  C   UNL A   1      40.068  27.660  28.890  1.00  0.00     0.049 A 
ATOM     37  N   UNL A   1      41.178  28.974  31.349  1.00  0.00    -0.248 NA
ATOM     38  C   UNL A   1      39.359  30.435  31.334  1.00  0.00     0.031 C 
ATOM     39  C   UNL A   1      39.582  26.984  27.686  1.00  0.00     0.029 A 
ATOM     40  N   UNL A   1      41.241  27.007  29.184  1.00  0.00    -0.354 N 
ATOM     41  C   UNL A   1      41.299  29.861  32.415  1.00  0.00     0.074 A 
ATOM     42  C   UNL A   1      40.176  30.772  32.323  1.00  0.00     0.031 C 
ATOM     43  C   UNL A   1      40.434  25.998  27.360  1.00  0.00     0.029 A 
ATOM     44  C   UNL A   1      41.549  25.995  28.303  1.00  0.00     0.049 A 
ATOM     45  H   UNL A   1      41.808  27.240  29.954  1.00  0.00     0.167 HD
ATOM     46  C   UNL A   1      42.246  29.900  33.388  1.00  0.00     0.034 A 
ATOM     47  C   UNL A   1      42.611  25.164  28.249  1.00  0.00     0.034 A 
ATOM     48  C   UNL A   1      43.370  28.995  33.464  1.00  0.00     0.049 A 
ATOM     49  C   UNL A   1      43.683  25.270  29.306  1.00  0.00     0.074 A 
ATOM     50  C   UNL A   1      44.358  28.930  34.432  1.00  0.00     0.029 A 
ATOM     51  N   UNL A   1      43.671  28.012  32.530  1.00  0.00    -0.354 N 
ATOM     52  N   UNL A   1      43.753  26.080  30.336  1.00  0.00    -0.248 NA
ATOM     53  C   UNL A   1      44.815  24.338  29.198  1.00  0.00     0.031 C 
ATOM     54  C   UNL A   1      45.295  27.965  34.044  1.00  0.00     0.029 A 
ATOM     55  C   UNL A   1      44.848  27.364  32.879  1.00  0.00     0.049 A 
ATOM     56  H   UNL A   1      43.128  27.804  31.736  1.00  0.00     0.167 HD
ATOM     57  C   UNL A   1      44.918  25.732  31.015  1.00  0.00     0.074 A 
ATOM     58  C   UNL A   1      45.510  24.630  30.287  1.00  0.00     0.031 C 
ATOM     59  C   UNL A   1      45.447  26.273  32.143  1.00  0.00     0.034 A 
BRANCH  46  60
ATOM     60  C   UNL A   1      42.121  30.985  34.435  1.00  0.00     0.023 A 
ATOM     61  C   UNL A   1      42.702  32.254  34.258  1.00  0.00     0.031 A 
ATOM     62  C   UNL A   1      41.422  30.745  35.631  1.00  0.00     0.131 A 
ATOM     63  C   UNL A   1      42.636  33.204  35.287  1.00  0.00     0.055 A 
ATOM     64  C   UNL A   1      41.289  31.725  36.617  1.00  0.00     0.041 A 
ATOM     65  F   UNL A   1      40.861  29.549  35.867  1.00  0.00    -0.206 F 
ATOM     66  C   UNL A   1      41.913  32.959  36.456  1.00  0.00     0.022 A 
BRANCH  63  67
ATOM     67  S   UNL A   1      43.634  34.713  35.139  1.00  0.00     0.124 S 
ATOM     68  O   UNL A   1      44.747  34.252  34.311  1.00  0.00    -0.237 OA
ATOM     69  O   UNL A   1      42.708  35.644  34.506  1.00  0.00    -0.237 OA
ATOM     70  O   UNL A   1      43.987  35.028  36.522  1.00  0.00    -0.744 OA
ENDBRANCH  63  67
ENDBRANCH  46  60
BRANCH  47  71
ATOM     71  C   UNL A   1      42.736  24.167  27.144  1.00  0.00     0.023 A 
ATOM     72  C   UNL A   1      42.081  22.926  27.207  1.00  0.00     0.031 A 
ATOM     73  C   UNL A   1      43.559  24.420  26.034  1.00  0.00     0.131 A 
ATOM     74  C   UNL A   1      42.300  21.967  26.205  1.00  0.00     0.055 A 
ATOM     75  C   UNL A   1      43.727  23.488  25.009  1.00  0.00     0.041 A 
ATOM     76  F   UNL A   1      44.211  25.590  25.924  1.00  0.00    -0.206 F 
ATOM     77  C   UNL A   1      43.106  22.247  25.099  1.00  0.00     0.022 A 
BRANCH  74  78
ATOM     78  S   UNL A   1      41.589  20.312  26.413  1.00  0.00     0.124 S 
ATOM     79  O   UNL A   1      42.258  19.565  25.353  1.00  0.00    -0.237 OA
ATOM     80  O   UNL A   1      41.985  19.982  27.779  1.00  0.00    -0.237 OA
ATOM     81  O   UNL A   1      40.158  20.529  26.218  1.00  0.00    -0.744 OA
ENDBRANCH  74  78
ENDBRANCH  47  71
BRANCH  59  82
ATOM     82  C   UNL A   1      46.711  25.645  32.684  1.00  0.00     0.023 A 
ATOM     83  C   UNL A   1      46.682  24.647  33.675  1.00  0.00     0.031 A 
ATOM     84  C   UNL A   1      47.968  26.063  32.209  1.00  0.00     0.131 A 
ATOM     85  C   UNL A   1      47.884  24.143  34.199  1.00  0.00     0.055 A 
ATOM     86  C   UNL A   1      49.158  25.511  32.688  1.00  0.00     0.041 A 
ATOM     87  F   UNL A   1      48.060  27.015  31.266  1.00  0.00    -0.206 F 
ATOM     88  C   UNL A   1      49.121  24.556  33.698  1.00  0.00     0.022 A 
BRANCH  85  89
ATOM     89  S   UNL A   1      47.813  23.008  35.614  1.00  0.00     0.124 S 
ATOM     90  O   UNL A   1      49.185  23.053  36.108  1.00  0.00    -0.237 OA
ATOM     91  O   UNL A   1      46.807  23.633  36.466  1.00  0.00    -0.237 OA
ATOM     92  O   UNL A   1      47.412  21.736  35.013  1.00  0.00    -0.744 OA
ENDBRANCH  85  89
ENDBRANCH  59  82
ENDBRANCH  33  34
ENDBRANCH  25  28
ENDBRANCH  23  24
ENDBRANCH  22  23
ENDBRANCH   1  22
TORSDOF 18
ENDMDL
MODEL 3
REMARK VINA RESULT:      -9.9      5.797     10.215
REMARK SMILES COc1ccccc1-c1nnc(SCCC(=O)NCCCNC(=O)c2ccc(-c3c4nc(c(-c5cc(S(=O)(=O)[O-])ccc5F)c5ccc([nH]5)c(-c5cc(S(=O)(=O)[O-])ccc5F)c5nc(c(-c6cc(S(=O)(=O)[O-])ccc6F)c6ccc3[nH]6)C=C5)C=C4)cc2)o1
REMARK SMILES IDX 19 1 18 2 16 3 17 4 15 6 14 7 13 8 12 9 9 10 10 11 88 12
REMARK SMILES IDX 11 13 8 14 3 15 4 16 5 17 7 18 6 19 2 20 1 21 20 22 21 23
REMARK SMILES IDX 22 24 23 25 24 27 25 28 26 29 87 30 27 31 86 32 28 33 29 34
REMARK SMILES IDX 30 35 80 36 31 37 85 38 79 39 81 40 32 41 84 42 78 43 77 44
REMARK SMILES IDX 33 46 65 47 45 48 64 49 46 50 49 51 63 52 82 53 47 54 48 55
REMARK SMILES IDX 62 57 83 58 50 59 34 60 35 61 43 62 36 63 42 64 44 65 41 66
REMARK SMILES IDX 37 67 38 68 39 69 40 70 66 71 67 72 75 73 68 74 74 75 76 76
REMARK SMILES IDX 73 77 69 78 70 79 71 80 72 81 51 82 52 83 60 84 53 85 59 86
REMARK SMILES IDX 61 87 58 88 54 89 55 90 56 91 57 92
REMARK H PARENT 18 5 22 26 81 45 49 56
REMARK Flexibility Score: inf
ROOT
ATOM      1  C   UNL A   1      36.989  20.917  25.013  1.00  0.00     0.117 C 
ENDROOT
BRANCH   1   2
ATOM      2  N   UNL A   1      35.688  20.290  25.177  1.00  0.00    -0.356 N 
ATOM      3  C   UNL A   1      34.443  20.734  24.862  1.00  0.00     0.220 C 
ATOM      4  O   UNL A   1      33.530  19.922  24.707  1.00  0.00    -0.275 OA
ATOM      5  H   UNL A   1      35.713  19.394  25.584  1.00  0.00     0.163 HD
BRANCH   3   6
ATOM      6  C   UNL A   1      34.156  22.205  24.792  1.00  0.00     0.111 C 
BRANCH   6   7
ATOM      7  C   UNL A   1      34.044  22.764  26.208  1.00  0.00     0.090 C 
BRANCH   7   8
ATOM      8  S   UNL A   1      32.402  22.594  26.950  1.00  0.00    -0.065 SA
BRANCH   8   9
ATOM      9  C   UNL A   1      31.608  24.122  26.692  1.00  0.00     0.276 A 
ATOM     10  C   UNL A   1      31.106  26.160  26.286  1.00  0.00     0.252 A 
ATOM     11  N   UNL A   1      29.968  25.519  26.467  1.00  0.00    -0.107 NA
ATOM     12  O   UNL A   1      32.200  25.337  26.430  1.00  0.00    -0.411 OA
ATOM     13  N   UNL A   1      30.292  24.208  26.707  1.00  0.00    -0.101 NA
BRANCH  10  14
ATOM     14  C   UNL A   1      31.296  27.589  26.064  1.00  0.00     0.081 A 
ATOM     15  C   UNL A   1      31.008  28.258  24.866  1.00  0.00     0.131 A 
ATOM     16  C   UNL A   1      31.309  29.623  24.727  1.00  0.00     0.047 A 
ATOM     17  C   UNL A   1      31.766  30.361  25.815  1.00  0.00     0.004 A 
ATOM     18  C   UNL A   1      31.726  28.362  27.160  1.00  0.00     0.018 A 
ATOM     19  C   UNL A   1      31.946  29.737  27.042  1.00  0.00     0.001 A 
BRANCH  15  20
ATOM     20  O   UNL A   1      30.428  27.588  23.821  1.00  0.00    -0.496 OA
ATOM     21  C   UNL A   1      31.396  26.942  22.986  1.00  0.00     0.278 C 
ENDBRANCH  15  20
ENDBRANCH  10  14
ENDBRANCH   8   9
ENDBRANCH   7   8
ENDBRANCH   6   7
ENDBRANCH   3   6
ENDBRANCH   1   2
BRANCH   1  22
ATOM     22  C   UNL A   1      38.176  19.954  24.990  1.00  0.00     0.042 C 
BRANCH  22  23
ATOM     23  C   UNL A   1      39.335  20.302  25.923  1.00  0.00     0.118 C 
BRANCH  23  24
ATOM     24  N   UNL A   1      40.409  19.324  25.915  1.00  0.00    -0.352 N 
ATOM     25  C   UNL A   1      41.755  19.508  26.131  1.00  0.00     0.251 C 
ATOM     26  H   UNL A   1      40.135  18.397  25.727  1.00  0.00     0.163 HD
ATOM     27  O   UNL A   1      42.507  18.537  26.020  1.00  0.00    -0.269 OA
BRANCH  25  28
ATOM     28  C   UNL A   1      42.320  20.845  26.442  1.00  0.00     0.039 A 
ATOM     29  C   UNL A   1      42.716  21.655  25.371  1.00  0.00     0.014 A 
ATOM     30  C   UNL A   1      42.497  21.303  27.752  1.00  0.00     0.014 A 
ATOM     31  C   UNL A   1      43.232  22.934  25.607  1.00  0.00     0.010 A 
ATOM     32  C   UNL A   1      42.973  22.602  27.984  1.00  0.00     0.010 A 
ATOM     33  C   UNL A   1      43.341  23.435  26.914  1.00  0.00    -0.014 A 
BRANCH  33  34
ATOM     34  C   UNL A   1      43.820  24.829  27.147  1.00  0.00     0.031 A 
ATOM     35  C   UNL A   1      42.898  25.883  27.701  1.00  0.00     0.074 A 
ATOM     36  C   UNL A   1      45.098  25.151  26.859  1.00  0.00     0.049 A 
ATOM     37  N   UNL A   1      43.152  27.134  27.993  1.00  0.00    -0.248 NA
ATOM     38  C   UNL A   1      41.509  25.477  27.951  1.00  0.00     0.031 C 
ATOM     39  C   UNL A   1      46.091  24.232  26.299  1.00  0.00     0.029 A 
ATOM     40  N   UNL A   1      45.785  26.333  27.000  1.00  0.00    -0.354 N 
ATOM     41  C   UNL A   1      41.957  27.668  28.466  1.00  0.00     0.074 A 
ATOM     42  C   UNL A   1      40.967  26.614  28.367  1.00  0.00     0.031 C 
ATOM     43  C   UNL A   1      47.262  24.876  26.169  1.00  0.00     0.029 A 
ATOM     44  C   UNL A   1      47.098  26.264  26.594  1.00  0.00     0.049 A 
ATOM     45  H   UNL A   1      45.376  27.153  27.359  1.00  0.00     0.167 HD
ATOM     46  C   UNL A   1      41.712  28.912  28.953  1.00  0.00     0.034 A 
ATOM     47  C   UNL A   1      48.062  27.207  26.555  1.00  0.00     0.034 A 
ATOM     48  C   UNL A   1      42.703  29.961  29.035  1.00  0.00     0.049 A 
ATOM     49  C   UNL A   1      47.748  28.600  27.043  1.00  0.00     0.074 A 
ATOM     50  C   UNL A   1      42.563  31.239  29.551  1.00  0.00     0.029 A 
ATOM     51  N   UNL A   1      44.011  29.865  28.576  1.00  0.00    -0.354 N 
ATOM     52  N   UNL A   1      46.627  29.071  27.537  1.00  0.00    -0.248 NA
ATOM     53  C   UNL A   1      48.836  29.586  26.980  1.00  0.00     0.031 C 
ATOM     54  C   UNL A   1      43.755  31.938  29.330  1.00  0.00     0.029 A 
ATOM     55  C   UNL A   1      44.673  31.072  28.758  1.00  0.00     0.049 A 
ATOM     56  H   UNL A   1      44.410  29.059  28.177  1.00  0.00     0.167 HD
ATOM     57  C   UNL A   1      46.887  30.398  27.873  1.00  0.00     0.074 A 
ATOM     58  C   UNL A   1      48.273  30.646  27.540  1.00  0.00     0.031 C 
ATOM     59  C   UNL A   1      46.053  31.324  28.412  1.00  0.00     0.034 A 
BRANCH  46  60
ATOM     60  C   UNL A   1      40.302  29.215  29.407  1.00  0.00     0.023 A 
ATOM     61  C   UNL A   1      39.967  29.302  30.771  1.00  0.00     0.031 A 
ATOM     62  C   UNL A   1      39.275  29.410  28.467  1.00  0.00     0.131 A 
ATOM     63  C   UNL A   1      38.632  29.502  31.153  1.00  0.00     0.055 A 
ATOM     64  C   UNL A   1      37.963  29.691  28.853  1.00  0.00     0.041 A 
ATOM     65  F   UNL A   1      39.528  29.321  27.151  1.00  0.00    -0.206 F 
ATOM     66  C   UNL A   1      37.632  29.722  30.204  1.00  0.00     0.022 A 
BRANCH  63  67
ATOM     67  S   UNL A   1      38.196  29.323  32.906  1.00  0.00     0.124 S 
ATOM     68  O   UNL A   1      37.452  30.556  33.153  1.00  0.00    -0.237 OA
ATOM     69  O   UNL A   1      37.415  28.092  32.913  1.00  0.00    -0.237 OA
ATOM     70  O   UNL A   1      39.493  29.245  33.575  1.00  0.00    -0.744 OA
ENDBRANCH  63  67
ENDBRANCH  46  60
BRANCH  47  71
ATOM     71  C   UNL A   1      49.417  26.884  26.016  1.00  0.00     0.023 A 
ATOM     72  C   UNL A   1      49.795  27.273  24.720  1.00  0.00     0.031 A 
ATOM     73  C   UNL A   1      50.332  26.132  26.771  1.00  0.00     0.131 A 
ATOM     74  C   UNL A   1      51.035  26.865  24.202  1.00  0.00     0.055 A 
ATOM     75  C   UNL A   1      51.588  25.780  26.274  1.00  0.00     0.041 A 
ATOM     76  F   UNL A   1      50.021  25.732  28.015  1.00  0.00    -0.206 F 
ATOM     77  C   UNL A   1      51.939  26.135  24.975  1.00  0.00     0.022 A 
BRANCH  74  78
ATOM     78  S   UNL A   1      51.412  27.224  22.464  1.00  0.00     0.124 S 
ATOM     79  O   UNL A   1      52.547  26.341  22.217  1.00  0.00    -0.237 OA
ATOM     80  O   UNL A   1      50.163  26.863  21.802  1.00  0.00    -0.237 OA
ATOM     81  O   UNL A   1      51.720  28.652  22.470  1.00  0.00    -0.744 OA
ENDBRANCH  74  78
ENDBRANCH  47  71
BRANCH  59  82
ATOM     82  C   UNL A   1      46.638  32.684  28.720  1.00  0.00     0.023 A 
ATOM     83  C   UNL A   1      46.626  33.731  27.780  1.00  0.00     0.031 A 
ATOM     84  C   UNL A   1      47.230  32.932  29.972  1.00  0.00     0.131 A 
ATOM     85  C   UNL A   1      47.245  34.954  28.084  1.00  0.00     0.055 A 
ATOM     86  C   UNL A   1      47.787  34.172  30.292  1.00  0.00     0.041 A 
ATOM     87  F   UNL A   1      47.276  31.970  30.908  1.00  0.00    -0.206 F 
ATOM     88  C   UNL A   1      47.809  35.187  29.342  1.00  0.00     0.022 A 
BRANCH  85  89
ATOM     89  S   UNL A   1      47.390  36.209  26.781  1.00  0.00     0.124 S 
ATOM     90  O   UNL A   1      48.795  36.094  26.403  1.00  0.00    -0.237 OA
ATOM     91  O   UNL A   1      46.423  35.745  25.792  1.00  0.00    -0.237 OA
ATOM     92  O   UNL A   1      47.031  37.453  27.462  1.00  0.00    -0.744 OA
ENDBRANCH  85  89
ENDBRANCH  59  82
ENDBRANCH  33  34
ENDBRANCH  25  28
ENDBRANCH  23  24
ENDBRANCH  22  23
ENDBRANCH   1  22
TORSDOF 18
ENDMDL
