MODEL 1
REMARK VINA RESULT:     -13.4      0.000      0.000
REMARK SMILES O=C(CSc1nc(-c2ccccc2)c(-c2ccccc2)n1-c1ccccc1)NCCCNC(=O)c1ccc(-c2c3nc(c(-c4cc(S(=O)(=O)[O-])ccc4F)c4ccc([nH]4)c(-c4cc(S(=O)(=O)[O-])ccc4F)c4nc(c(-c5cc(S(=O)(=O)[O-])ccc5F)c5ccc2[nH]5)C=C4)C=C3)cc1
REMARK SMILES IDX 30 1 29 2 28 3 1 4 2 5 3 7 4 8 5 9 6 10 21 11 7 12 14 13
REMARK SMILES IDX 22 14 23 15 27 16 24 17 26 18 25 19 8 20 9 21 13 22 10 23
REMARK SMILES IDX 12 24 11 25 15 26 16 27 20 28 17 29 19 30 18 31 31 32 32 33
REMARK SMILES IDX 33 34 34 36 35 37 36 38 97 39 37 40 96 41 38 42 39 43 40 44
REMARK SMILES IDX 90 45 41 46 95 47 89 48 91 49 42 50 94 51 88 52 87 53 43 55
REMARK SMILES IDX 75 56 55 57 74 58 56 59 59 60 73 61 92 62 57 63 58 64 72 66
REMARK SMILES IDX 93 67 60 68 44 69 45 70 53 71 46 72 52 73 54 74 51 75 47 76
REMARK SMILES IDX 48 77 49 78 50 79 76 80 77 81 85 82 78 83 84 84 86 85 83 86
REMARK SMILES IDX 79 87 80 88 81 89 82 90 61 91 62 92 70 93 63 94 69 95 71 96
REMARK SMILES IDX 68 97 64 98 65 99 66 100 67 101
REMARK H PARENT 28 6 32 35 91 54 59 65
REMARK Flexibility Score: inf
ROOT
ATOM      1  C   UNL A   1      35.987  20.617  25.441  1.00  0.00     0.042 C 
ENDROOT
BRANCH   1   2
ATOM      2  C   UNL A   1      34.812  19.957  24.714  1.00  0.00     0.117 C 
BRANCH   2   3
ATOM      3  N   UNL A   1      33.792  20.876  24.239  1.00  0.00    -0.355 N 
ATOM      4  O   UNL A   1      32.019  19.791  25.200  1.00  0.00    -0.274 OA
ATOM      5  C   UNL A   1      32.470  20.786  24.633  1.00  0.00     0.230 C 
ATOM      6  H   UNL A   1      34.052  21.590  23.613  1.00  0.00     0.163 HD
BRANCH   5   7
ATOM      7  C   UNL A   1      31.568  21.937  24.208  1.00  0.00     0.178 C 
BRANCH   7   8
ATOM      8  S   UNL A   1      32.205  22.877  22.802  1.00  0.00    -0.078 SA
BRANCH   8   9
ATOM      9  C   UNL A   1      31.873  24.538  23.212  1.00  0.00     0.174 A 
ATOM     10  N   UNL A   1      30.940  25.292  22.668  1.00  0.00    -0.221 NA
ATOM     11  N   UNL A   1      32.481  25.158  24.295  1.00  0.00    -0.287 N 
ATOM     12  C   UNL A   1      30.953  26.459  23.399  1.00  0.00     0.098 A 
ATOM     13  C   UNL A   1      31.868  26.401  24.441  1.00  0.00     0.082 A 
BRANCH  11  14
ATOM     14  C   UNL A   1      33.544  24.681  25.102  1.00  0.00     0.048 A 
ATOM     15  C   UNL A   1      34.859  24.767  24.627  1.00  0.00     0.027 A 
ATOM     16  C   UNL A   1      33.263  24.025  26.305  1.00  0.00     0.027 A 
ATOM     17  C   UNL A   1      35.895  24.190  25.357  1.00  0.00     0.002 A 
ATOM     18  C   UNL A   1      34.305  23.433  27.017  1.00  0.00     0.002 A 
ATOM     19  C   UNL A   1      35.617  23.515  26.545  1.00  0.00     0.000 A 
ENDBRANCH  11  14
BRANCH  12  20
ATOM     20  C   UNL A   1      30.121  27.622  23.135  1.00  0.00     0.002 A 
ATOM     21  C   UNL A   1      30.640  28.728  22.454  1.00  0.00     0.010 A 
ATOM     22  C   UNL A   1      28.750  27.588  23.439  1.00  0.00     0.010 A 
ATOM     23  C   UNL A   1      29.787  29.756  22.038  1.00  0.00     0.001 A 
ATOM     24  C   UNL A   1      27.902  28.614  23.021  1.00  0.00     0.001 A 
ATOM     25  C   UNL A   1      28.420  29.693  22.311  1.00  0.00     0.000 A 
ENDBRANCH  12  20
BRANCH  13  26
ATOM     26  C   UNL A   1      32.245  27.418  25.429  1.00  0.00     0.001 A 
ATOM     27  C   UNL A   1      33.356  28.242  25.211  1.00  0.00     0.010 A 
ATOM     28  C   UNL A   1      31.505  27.569  26.611  1.00  0.00     0.010 A 
ATOM     29  C   UNL A   1      33.707  29.216  26.149  1.00  0.00     0.001 A 
ATOM     30  C   UNL A   1      31.854  28.546  27.543  1.00  0.00     0.001 A 
ATOM     31  C   UNL A   1      32.953  29.370  27.311  1.00  0.00     0.000 A 
ENDBRANCH  13  26
ENDBRANCH   8   9
ENDBRANCH   7   8
ENDBRANCH   5   7
ENDBRANCH   2   3
ENDBRANCH   1   2
BRANCH   1  32
ATOM     32  C   UNL A   1      37.292  20.529  24.669  1.00  0.00     0.118 C 
BRANCH  32  33
ATOM     33  N   UNL A   1      38.216  19.483  25.132  1.00  0.00    -0.352 N 
ATOM     34  C   UNL A   1      39.509  19.622  25.639  1.00  0.00     0.251 C 
ATOM     35  H   UNL A   1      37.877  18.561  25.076  1.00  0.00     0.163 HD
ATOM     36  O   UNL A   1      40.264  18.668  25.667  1.00  0.00    -0.269 OA
BRANCH  34  37
ATOM     37  C   UNL A   1      39.941  20.952  26.134  1.00  0.00     0.039 A 
ATOM     38  C   UNL A   1      39.096  22.064  26.209  1.00  0.00     0.014 A 
ATOM     39  C   UNL A   1      41.254  21.063  26.562  1.00  0.00     0.014 A 
ATOM     40  C   UNL A   1      39.602  23.245  26.763  1.00  0.00     0.010 A 
ATOM     41  C   UNL A   1      41.627  22.079  27.387  1.00  0.00     0.010 A 
ATOM     42  C   UNL A   1      40.877  23.232  27.357  1.00  0.00    -0.014 A 
BRANCH  42  43
ATOM     43  C   UNL A   1      41.463  24.370  28.046  1.00  0.00     0.031 A 
ATOM     44  C   UNL A   1      40.527  25.498  28.197  1.00  0.00     0.074 A 
ATOM     45  C   UNL A   1      42.650  24.336  28.695  1.00  0.00     0.049 A 
ATOM     46  N   UNL A   1      40.474  26.541  27.445  1.00  0.00    -0.248 NA
ATOM     47  C   UNL A   1      39.394  25.371  29.123  1.00  0.00     0.031 C 
ATOM     48  C   UNL A   1      43.565  23.207  28.907  1.00  0.00     0.029 A 
ATOM     49  N   UNL A   1      43.258  25.333  29.391  1.00  0.00    -0.354 N 
ATOM     50  C   UNL A   1      39.484  27.344  27.986  1.00  0.00     0.074 A 
ATOM     51  C   UNL A   1      38.702  26.475  28.827  1.00  0.00     0.031 C 
ATOM     52  C   UNL A   1      44.491  23.535  29.839  1.00  0.00     0.029 A 
ATOM     53  C   UNL A   1      44.340  24.941  30.178  1.00  0.00     0.049 A 
ATOM     54  H   UNL A   1      42.955  26.269  29.343  1.00  0.00     0.167 HD
ATOM     55  C   UNL A   1      39.575  28.699  27.895  1.00  0.00     0.034 A 
ATOM     56  C   UNL A   1      45.056  25.722  31.037  1.00  0.00     0.034 A 
ATOM     57  C   UNL A   1      40.646  29.074  26.988  1.00  0.00     0.049 A 
ATOM     58  C   UNL A   1      44.882  27.120  30.560  1.00  0.00     0.074 A 
ATOM     59  C   UNL A   1      40.923  28.814  25.659  1.00  0.00     0.029 A 
ATOM     60  N   UNL A   1      41.849  29.462  27.546  1.00  0.00    -0.354 N 
ATOM     61  N   UNL A   1      45.330  27.534  29.405  1.00  0.00    -0.248 NA
ATOM     62  C   UNL A   1      43.772  27.893  31.101  1.00  0.00     0.031 C 
ATOM     63  C   UNL A   1      42.327  28.554  25.624  1.00  0.00     0.029 A 
ATOM     64  C   UNL A   1      42.850  28.775  26.900  1.00  0.00     0.049 A 
ATOM     65  H   UNL A   1      41.968  30.113  28.274  1.00  0.00     0.167 HD
ATOM     66  C   UNL A   1      44.297  28.292  28.871  1.00  0.00     0.074 A 
ATOM     67  C   UNL A   1      43.403  28.557  29.999  1.00  0.00     0.031 C 
ATOM     68  C   UNL A   1      44.106  28.385  27.519  1.00  0.00     0.034 A 
BRANCH  55  69
ATOM     69  C   UNL A   1      38.995  29.689  28.874  1.00  0.00     0.023 A 
ATOM     70  C   UNL A   1      39.524  29.663  30.178  1.00  0.00     0.031 A 
ATOM     71  C   UNL A   1      37.808  30.435  28.708  1.00  0.00     0.131 A 
ATOM     72  C   UNL A   1      38.829  30.234  31.253  1.00  0.00     0.055 A 
ATOM     73  C   UNL A   1      37.155  31.064  29.771  1.00  0.00     0.041 A 
ATOM     74  F   UNL A   1      37.161  30.523  27.542  1.00  0.00    -0.206 F 
ATOM     75  C   UNL A   1      37.643  30.936  31.059  1.00  0.00     0.022 A 
BRANCH  72  76
ATOM     76  S   UNL A   1      39.412  29.876  32.927  1.00  0.00     0.124 S 
ATOM     77  O   UNL A   1      39.105  31.124  33.616  1.00  0.00    -0.237 OA
ATOM     78  O   UNL A   1      38.596  28.721  33.289  1.00  0.00    -0.237 OA
ATOM     79  O   UNL A   1      40.834  29.599  32.737  1.00  0.00    -0.744 OA
ENDBRANCH  72  76
ENDBRANCH  55  69
BRANCH  56  80
ATOM     80  C   UNL A   1      45.556  25.369  32.403  1.00  0.00     0.023 A 
ATOM     81  C   UNL A   1      44.834  24.556  33.311  1.00  0.00     0.031 A 
ATOM     82  C   UNL A   1      46.906  25.624  32.734  1.00  0.00     0.131 A 
ATOM     83  C   UNL A   1      45.465  24.036  34.472  1.00  0.00     0.055 A 
ATOM     84  C   UNL A   1      47.524  25.102  33.873  1.00  0.00     0.041 A 
ATOM     85  F   UNL A   1      47.703  26.323  31.910  1.00  0.00    -0.206 F 
ATOM     86  C   UNL A   1      46.810  24.295  34.742  1.00  0.00     0.022 A 
BRANCH  83  87
ATOM     87  S   UNL A   1      44.573  22.926  35.618  1.00  0.00     0.124 S 
ATOM     88  O   UNL A   1      43.199  23.398  35.498  1.00  0.00    -0.237 OA
ATOM     89  O   UNL A   1      44.858  21.606  35.068  1.00  0.00    -0.237 OA
ATOM     90  O   UNL A   1      45.201  23.195  36.912  1.00  0.00    -0.744 OA
ENDBRANCH  83  87
ENDBRANCH  56  80
BRANCH  68  91
ATOM     91  C   UNL A   1      45.198  27.877  26.593  1.00  0.00     0.023 A 
ATOM     92  C   UNL A   1      45.388  26.529  26.207  1.00  0.00     0.031 A 
ATOM     93  C   UNL A   1      46.010  28.847  25.976  1.00  0.00     0.131 A 
ATOM     94  C   UNL A   1      46.367  26.200  25.245  1.00  0.00     0.055 A 
ATOM     95  C   UNL A   1      46.958  28.521  25.008  1.00  0.00     0.041 A 
ATOM     96  F   UNL A   1      45.868  30.148  26.282  1.00  0.00    -0.206 F 
ATOM     97  C   UNL A   1      47.144  27.194  24.642  1.00  0.00     0.022 A 
BRANCH  94  98
ATOM     98  S   UNL A   1      46.673  24.464  24.772  1.00  0.00     0.124 S 
ATOM     99  O   UNL A   1      47.195  23.863  25.994  1.00  0.00    -0.237 OA
ATOM    100  O   UNL A   1      45.350  24.010  24.353  1.00  0.00    -0.237 OA
ATOM    101  O   UNL A   1      47.648  24.574  23.685  1.00  0.00    -0.744 OA
ENDBRANCH  94  98
ENDBRANCH  68  91
ENDBRANCH  42  43
ENDBRANCH  34  37
ENDBRANCH  32  33
ENDBRANCH   1  32
TORSDOF 18
ENDMDL
MODEL 2
REMARK VINA RESULT:     -12.7      5.103     10.634
REMARK SMILES O=C(CSc1nc(-c2ccccc2)c(-c2ccccc2)n1-c1ccccc1)NCCCNC(=O)c1ccc(-c2c3nc(c(-c4cc(S(=O)(=O)[O-])ccc4F)c4ccc([nH]4)c(-c4cc(S(=O)(=O)[O-])ccc4F)c4nc(c(-c5cc(S(=O)(=O)[O-])ccc5F)c5ccc2[nH]5)C=C4)C=C3)cc1
REMARK SMILES IDX 30 1 29 2 28 3 1 4 2 5 3 7 4 8 5 9 6 10 21 11 7 12 14 13
REMARK SMILES IDX 22 14 23 15 27 16 24 17 26 18 25 19 8 20 9 21 13 22 10 23
REMARK SMILES IDX 12 24 11 25 15 26 16 27 20 28 17 29 19 30 18 31 31 32 32 33
REMARK SMILES IDX 33 34 34 36 35 37 36 38 97 39 37 40 96 41 38 42 39 43 40 44
REMARK SMILES IDX 90 45 41 46 95 47 89 48 91 49 42 50 94 51 88 52 87 53 43 55
REMARK SMILES IDX 75 56 55 57 74 58 56 59 59 60 73 61 92 62 57 63 58 64 72 66
REMARK SMILES IDX 93 67 60 68 44 69 45 70 53 71 46 72 52 73 54 74 51 75 47 76
REMARK SMILES IDX 48 77 49 78 50 79 76 80 77 81 85 82 78 83 84 84 86 85 83 86
REMARK SMILES IDX 79 87 80 88 81 89 82 90 61 91 62 92 70 93 63 94 69 95 71 96
REMARK SMILES IDX 68 97 64 98 65 99 66 100 67 101
REMARK H PARENT 28 6 32 35 91 54 59 65
REMARK Flexibility Score: inf
ROOT
ATOM      1  C   UNL A   1      34.339  34.333  28.499  1.00  0.00     0.042 C 
ENDROOT
BRANCH   1   2
ATOM      2  C   UNL A   1      33.660  35.012  29.692  1.00  0.00     0.117 C 
BRANCH   2   3
ATOM      3  N   UNL A   1      34.372  34.886  30.952  1.00  0.00    -0.355 N 
ATOM      4  O   UNL A   1      33.317  36.626  32.004  1.00  0.00    -0.274 OA
ATOM      5  C   UNL A   1      34.048  35.637  32.067  1.00  0.00     0.230 C 
ATOM      6  H   UNL A   1      35.115  34.243  31.015  1.00  0.00     0.163 HD
BRANCH   5   7
ATOM      7  C   UNL A   1      34.751  35.251  33.361  1.00  0.00     0.178 C 
BRANCH   7   8
ATOM      8  S   UNL A   1      35.341  33.542  33.381  1.00  0.00    -0.078 SA
BRANCH   8   9
ATOM      9  C   UNL A   1      36.578  33.532  34.610  1.00  0.00     0.174 A 
ATOM     10  N   UNL A   1      36.370  33.550  35.910  1.00  0.00    -0.221 NA
ATOM     11  N   UNL A   1      37.916  33.331  34.297  1.00  0.00    -0.287 N 
ATOM     12  C   UNL A   1      37.615  33.384  36.473  1.00  0.00     0.098 A 
ATOM     13  C   UNL A   1      38.596  33.206  35.507  1.00  0.00     0.082 A 
BRANCH  11  14
ATOM     14  C   UNL A   1      38.526  33.289  33.018  1.00  0.00     0.048 A 
ATOM     15  C   UNL A   1      38.842  34.490  32.369  1.00  0.00     0.027 A 
ATOM     16  C   UNL A   1      38.697  32.062  32.369  1.00  0.00     0.027 A 
ATOM     17  C   UNL A   1      39.326  34.461  31.064  1.00  0.00     0.002 A 
ATOM     18  C   UNL A   1      39.164  32.046  31.056  1.00  0.00     0.002 A 
ATOM     19  C   UNL A   1      39.478  33.241  30.405  1.00  0.00     0.000 A 
ENDBRANCH  11  14
BRANCH  12  20
ATOM     20  C   UNL A   1      37.897  33.389  37.900  1.00  0.00     0.002 A 
ATOM     21  C   UNL A   1      38.631  34.430  38.477  1.00  0.00     0.010 A 
ATOM     22  C   UNL A   1      37.314  32.420  38.734  1.00  0.00     0.010 A 
ATOM     23  C   UNL A   1      38.734  34.526  39.869  1.00  0.00     0.001 A 
ATOM     24  C   UNL A   1      37.417  32.519  40.122  1.00  0.00     0.001 A 
ATOM     25  C   UNL A   1      38.118  33.579  40.689  1.00  0.00     0.000 A 
ENDBRANCH  12  20
BRANCH  13  26
ATOM     26  C   UNL A   1      40.047  33.043  35.647  1.00  0.00     0.001 A 
ATOM     27  C   UNL A   1      40.907  34.127  35.431  1.00  0.00     0.010 A 
ATOM     28  C   UNL A   1      40.592  31.797  35.988  1.00  0.00     0.010 A 
ATOM     29  C   UNL A   1      42.287  33.972  35.575  1.00  0.00     0.001 A 
ATOM     30  C   UNL A   1      41.971  31.646  36.137  1.00  0.00     0.001 A 
ATOM     31  C   UNL A   1      42.817  32.733  35.933  1.00  0.00     0.000 A 
ENDBRANCH  13  26
ENDBRANCH   8   9
ENDBRANCH   7   8
ENDBRANCH   5   7
ENDBRANCH   2   3
ENDBRANCH   1   2
BRANCH   1  32
ATOM     32  C   UNL A   1      34.865  32.946  28.821  1.00  0.00     0.118 C 
BRANCH  32  33
ATOM     33  N   UNL A   1      34.194  31.848  28.110  1.00  0.00    -0.352 N 
ATOM     34  C   UNL A   1      34.732  30.642  27.657  1.00  0.00     0.251 C 
ATOM     35  H   UNL A   1      33.236  31.982  27.927  1.00  0.00     0.163 HD
ATOM     36  O   UNL A   1      34.153  29.991  26.807  1.00  0.00    -0.269 OA
BRANCH  34  37
ATOM     37  C   UNL A   1      36.022  30.179  28.227  1.00  0.00     0.039 A 
ATOM     38  C   UNL A   1      36.149  29.614  29.499  1.00  0.00     0.014 A 
ATOM     39  C   UNL A   1      37.141  30.305  27.420  1.00  0.00     0.014 A 
ATOM     40  C   UNL A   1      37.408  29.149  29.895  1.00  0.00     0.010 A 
ATOM     41  C   UNL A   1      38.256  29.565  27.669  1.00  0.00     0.010 A 
ATOM     42  C   UNL A   1      38.456  29.126  28.957  1.00  0.00    -0.014 A 
BRANCH  42  43
ATOM     43  C   UNL A   1      39.774  28.578  29.227  1.00  0.00     0.031 A 
ATOM     44  C   UNL A   1      40.039  28.391  30.664  1.00  0.00     0.074 A 
ATOM     45  C   UNL A   1      40.592  28.064  28.279  1.00  0.00     0.049 A 
ATOM     46  N   UNL A   1      40.702  29.195  31.420  1.00  0.00    -0.248 NA
ATOM     47  C   UNL A   1      39.322  27.338  31.396  1.00  0.00     0.031 C 
ATOM     48  C   UNL A   1      40.356  27.888  26.840  1.00  0.00     0.029 A 
ATOM     49  N   UNL A   1      41.820  27.502  28.440  1.00  0.00    -0.354 N 
ATOM     50  C   UNL A   1      40.733  28.595  32.669  1.00  0.00     0.074 A 
ATOM     51  C   UNL A   1      39.674  27.622  32.653  1.00  0.00     0.031 C 
ATOM     52  C   UNL A   1      41.314  27.087  26.312  1.00  0.00     0.029 A 
ATOM     53  C   UNL A   1      42.316  26.820  27.330  1.00  0.00     0.049 A 
ATOM     54  H   UNL A   1      42.325  27.573  29.283  1.00  0.00     0.167 HD
ATOM     55  C   UNL A   1      41.804  28.778  33.490  1.00  0.00     0.034 A 
ATOM     56  C   UNL A   1      43.470  26.095  27.261  1.00  0.00     0.034 A 
ATOM     57  C   UNL A   1      42.670  29.820  32.967  1.00  0.00     0.049 A 
ATOM     58  C   UNL A   1      44.355  26.633  28.328  1.00  0.00     0.074 A 
ATOM     59  C   UNL A   1      42.495  31.154  32.648  1.00  0.00     0.029 A 
ATOM     60  N   UNL A   1      43.805  29.425  32.286  1.00  0.00    -0.354 N 
ATOM     61  N   UNL A   1      44.819  27.854  28.312  1.00  0.00    -0.248 NA
ATOM     62  C   UNL A   1      44.286  26.019  29.647  1.00  0.00     0.031 C 
ATOM     63  C   UNL A   1      43.200  31.330  31.419  1.00  0.00     0.029 A 
ATOM     64  C   UNL A   1      43.857  30.136  31.111  1.00  0.00     0.049 A 
ATOM     65  H   UNL A   1      44.460  28.756  32.589  1.00  0.00     0.167 HD
ATOM     66  C   UNL A   1      44.661  28.315  29.612  1.00  0.00     0.074 A 
ATOM     67  C   UNL A   1      44.418  27.111  30.409  1.00  0.00     0.031 C 
ATOM     68  C   UNL A   1      44.447  29.639  29.878  1.00  0.00     0.034 A 
BRANCH  55  69
ATOM     69  C   UNL A   1      42.293  27.802  34.530  1.00  0.00     0.023 A 
ATOM     70  C   UNL A   1      43.089  26.739  34.067  1.00  0.00     0.031 A 
ATOM     71  C   UNL A   1      41.817  27.681  35.855  1.00  0.00     0.131 A 
ATOM     72  C   UNL A   1      43.274  25.582  34.837  1.00  0.00     0.055 A 
ATOM     73  C   UNL A   1      42.064  26.556  36.647  1.00  0.00     0.041 A 
ATOM     74  F   UNL A   1      41.016  28.586  36.427  1.00  0.00    -0.206 F 
ATOM     75  C   UNL A   1      42.764  25.482  36.128  1.00  0.00     0.022 A 
BRANCH  72  76
ATOM     76  S   UNL A   1      44.031  24.145  34.043  1.00  0.00     0.124 S 
ATOM     77  O   UNL A   1      43.006  23.127  34.242  1.00  0.00    -0.237 OA
ATOM     78  O   UNL A   1      44.212  24.619  32.675  1.00  0.00    -0.237 OA
ATOM     79  O   UNL A   1      45.263  23.950  34.803  1.00  0.00    -0.744 OA
ENDBRANCH  72  76
ENDBRANCH  55  69
BRANCH  56  80
ATOM     80  C   UNL A   1      43.689  24.775  26.590  1.00  0.00     0.023 A 
ATOM     81  C   UNL A   1      42.927  23.616  26.883  1.00  0.00     0.031 A 
ATOM     82  C   UNL A   1      44.503  24.710  25.436  1.00  0.00     0.131 A 
ATOM     83  C   UNL A   1      42.993  22.478  26.037  1.00  0.00     0.055 A 
ATOM     84  C   UNL A   1      44.557  23.589  24.603  1.00  0.00     0.041 A 
ATOM     85  F   UNL A   1      45.212  25.773  25.026  1.00  0.00    -0.206 F 
ATOM     86  C   UNL A   1      43.792  22.472  24.892  1.00  0.00     0.022 A 
BRANCH  83  87
ATOM     87  S   UNL A   1      41.964  21.001  26.355  1.00  0.00     0.124 S 
ATOM     88  O   UNL A   1      42.537  20.022  25.440  1.00  0.00    -0.237 OA
ATOM     89  O   UNL A   1      42.178  20.766  27.778  1.00  0.00    -0.237 OA
ATOM     90  O   UNL A   1      40.613  21.445  26.008  1.00  0.00    -0.744 OA
ENDBRANCH  83  87
ENDBRANCH  56  80
BRANCH  68  91
ATOM     91  C   UNL A   1      44.659  30.649  28.764  1.00  0.00     0.023 A 
ATOM     92  C   UNL A   1      45.894  31.251  28.424  1.00  0.00     0.031 A 
ATOM     93  C   UNL A   1      43.559  30.915  27.928  1.00  0.00     0.131 A 
ATOM     94  C   UNL A   1      45.985  32.087  27.290  1.00  0.00     0.055 A 
ATOM     95  C   UNL A   1      43.659  31.719  26.794  1.00  0.00     0.041 A 
ATOM     96  F   UNL A   1      42.362  30.359  28.182  1.00  0.00    -0.206 F 
ATOM     97  C   UNL A   1      44.873  32.313  26.474  1.00  0.00     0.022 A 
BRANCH  94  98
ATOM     98  S   UNL A   1      47.551  32.922  26.862  1.00  0.00     0.124 S 
ATOM     99  O   UNL A   1      47.907  33.629  28.086  1.00  0.00    -0.237 OA
ATOM    100  O   UNL A   1      48.418  31.805  26.495  1.00  0.00    -0.237 OA
ATOM    101  O   UNL A   1      47.178  33.792  25.744  1.00  0.00    -0.744 OA
ENDBRANCH  94  98
ENDBRANCH  68  91
ENDBRANCH  42  43
ENDBRANCH  34  37
ENDBRANCH  32  33
ENDBRANCH   1  32
TORSDOF 18
ENDMDL
MODEL 3
REMARK VINA RESULT:     -12.5      5.346     10.928
REMARK SMILES O=C(CSc1nc(-c2ccccc2)c(-c2ccccc2)n1-c1ccccc1)NCCCNC(=O)c1ccc(-c2c3nc(c(-c4cc(S(=O)(=O)[O-])ccc4F)c4ccc([nH]4)c(-c4cc(S(=O)(=O)[O-])ccc4F)c4nc(c(-c5cc(S(=O)(=O)[O-])ccc5F)c5ccc2[nH]5)C=C4)C=C3)cc1
REMARK SMILES IDX 30 1 29 2 28 3 1 4 2 5 3 7 4 8 5 9 6 10 21 11 7 12 14 13
REMARK SMILES IDX 22 14 23 15 27 16 24 17 26 18 25 19 8 20 9 21 13 22 10 23
REMARK SMILES IDX 12 24 11 25 15 26 16 27 20 28 17 29 19 30 18 31 31 32 32 33
REMARK SMILES IDX 33 34 34 36 35 37 36 38 97 39 37 40 96 41 38 42 39 43 40 44
REMARK SMILES IDX 90 45 41 46 95 47 89 48 91 49 42 50 94 51 88 52 87 53 43 55
REMARK SMILES IDX 75 56 55 57 74 58 56 59 59 60 73 61 92 62 57 63 58 64 72 66
REMARK SMILES IDX 93 67 60 68 44 69 45 70 53 71 46 72 52 73 54 74 51 75 47 76
REMARK SMILES IDX 48 77 49 78 50 79 76 80 77 81 85 82 78 83 84 84 86 85 83 86
REMARK SMILES IDX 79 87 80 88 81 89 82 90 61 91 62 92 70 93 63 94 69 95 71 96
REMARK SMILES IDX 68 97 64 98 65 99 66 100 67 101
REMARK H PARENT 28 6 32 35 91 54 59 65
REMARK Flexibility Score: inf
ROOT
ATOM      1  C   UNL A   1      35.297  33.839  32.121  1.00  0.00     0.042 C 
ENDROOT
BRANCH   1   2
ATOM      2  C   UNL A   1      35.314  34.048  33.637  1.00  0.00     0.117 C 
BRANCH   2   3
ATOM      3  N   UNL A   1      36.088  33.069  34.381  1.00  0.00    -0.355 N 
ATOM      4  O   UNL A   1      37.775  34.495  34.984  1.00  0.00    -0.274 OA
ATOM      5  C   UNL A   1      37.211  33.408  35.111  1.00  0.00     0.230 C 
ATOM      6  H   UNL A   1      35.801  32.127  34.363  1.00  0.00     0.163 HD
BRANCH   5   7
ATOM      7  C   UNL A   1      37.792  32.310  35.991  1.00  0.00     0.178 C 
BRANCH   7   8
ATOM      8  S   UNL A   1      38.817  31.126  35.089  1.00  0.00    -0.078 SA
BRANCH   8   9
ATOM      9  C   UNL A   1      39.838  32.120  34.086  1.00  0.00     0.174 A 
ATOM     10  N   UNL A   1      39.692  32.312  32.790  1.00  0.00    -0.221 NA
ATOM     11  N   UNL A   1      40.817  32.943  34.629  1.00  0.00    -0.287 N 
ATOM     12  C   UNL A   1      40.624  33.272  32.464  1.00  0.00     0.098 A 
ATOM     13  C   UNL A   1      41.316  33.717  33.583  1.00  0.00     0.082 A 
BRANCH  11  14
ATOM     14  C   UNL A   1      41.280  32.996  35.967  1.00  0.00     0.048 A 
ATOM     15  C   UNL A   1      42.132  31.990  36.440  1.00  0.00     0.027 A 
ATOM     16  C   UNL A   1      40.792  33.981  36.832  1.00  0.00     0.027 A 
ATOM     17  C   UNL A   1      42.492  31.967  37.785  1.00  0.00     0.002 A 
ATOM     18  C   UNL A   1      41.142  33.937  38.181  1.00  0.00     0.002 A 
ATOM     19  C   UNL A   1      41.990  32.933  38.656  1.00  0.00     0.000 A 
ENDBRANCH  11  14
BRANCH  12  20
ATOM     20  C   UNL A   1      40.872  33.776  31.123  1.00  0.00     0.002 A 
ATOM     21  C   UNL A   1      39.929  34.582  30.480  1.00  0.00     0.010 A 
ATOM     22  C   UNL A   1      42.123  33.572  30.517  1.00  0.00     0.010 A 
ATOM     23  C   UNL A   1      40.254  35.217  29.276  1.00  0.00     0.001 A 
ATOM     24  C   UNL A   1      42.446  34.207  29.318  1.00  0.00     0.001 A 
ATOM     25  C   UNL A   1      41.515  35.038  28.703  1.00  0.00     0.000 A 
ENDBRANCH  12  20
BRANCH  13  26
ATOM     26  C   UNL A   1      42.414  34.682  33.696  1.00  0.00     0.001 A 
ATOM     27  C   UNL A   1      42.150  36.029  33.972  1.00  0.00     0.010 A 
ATOM     28  C   UNL A   1      43.743  34.271  33.517  1.00  0.00     0.010 A 
ATOM     29  C   UNL A   1      43.197  36.945  34.089  1.00  0.00     0.001 A 
ATOM     30  C   UNL A   1      44.789  35.186  33.640  1.00  0.00     0.001 A 
ATOM     31  C   UNL A   1      44.516  36.521  33.928  1.00  0.00     0.000 A 
ENDBRANCH  13  26
ENDBRANCH   8   9
ENDBRANCH   7   8
ENDBRANCH   5   7
ENDBRANCH   2   3
ENDBRANCH   1   2
BRANCH   1  32
ATOM     32  C   UNL A   1      35.037  32.397  31.720  1.00  0.00     0.118 C 
BRANCH  32  33
ATOM     33  N   UNL A   1      34.410  32.224  30.402  1.00  0.00    -0.352 N 
ATOM     34  C   UNL A   1      35.009  31.883  29.188  1.00  0.00     0.251 C 
ATOM     35  H   UNL A   1      33.437  32.369  30.371  1.00  0.00     0.163 HD
ATOM     36  O   UNL A   1      34.435  32.100  28.137  1.00  0.00    -0.269 OA
BRANCH  34  37
ATOM     37  C   UNL A   1      36.356  31.261  29.208  1.00  0.00     0.039 A 
ATOM     38  C   UNL A   1      37.542  31.985  29.360  1.00  0.00     0.014 A 
ATOM     39  C   UNL A   1      36.408  29.881  29.092  1.00  0.00     0.014 A 
ATOM     40  C   UNL A   1      38.746  31.275  29.437  1.00  0.00     0.010 A 
ATOM     41  C   UNL A   1      37.512  29.197  29.497  1.00  0.00     0.010 A 
ATOM     42  C   UNL A   1      38.711  29.872  29.511  1.00  0.00    -0.014 A 
BRANCH  42  43
ATOM     43  C   UNL A   1      39.888  29.038  29.689  1.00  0.00     0.031 A 
ATOM     44  C   UNL A   1      40.155  28.711  31.101  1.00  0.00     0.074 A 
ATOM     45  C   UNL A   1      40.543  28.421  28.678  1.00  0.00     0.049 A 
ATOM     46  N   UNL A   1      41.001  29.304  31.867  1.00  0.00    -0.248 NA
ATOM     47  C   UNL A   1      39.251  27.792  31.807  1.00  0.00     0.031 C 
ATOM     48  C   UNL A   1      40.226  28.389  27.244  1.00  0.00     0.029 A 
ATOM     49  N   UNL A   1      41.624  27.600  28.752  1.00  0.00    -0.354 N 
ATOM     50  C   UNL A   1      40.943  28.636  33.079  1.00  0.00     0.074 A 
ATOM     51  C   UNL A   1      39.698  27.915  33.061  1.00  0.00     0.031 C 
ATOM     52  C   UNL A   1      40.968  27.436  26.631  1.00  0.00     0.029 A 
ATOM     53  C   UNL A   1      41.923  26.898  27.586  1.00  0.00     0.049 A 
ATOM     54  H   UNL A   1      42.161  27.508  29.573  1.00  0.00     0.167 HD
ATOM     55  C   UNL A   1      42.056  28.534  33.858  1.00  0.00     0.034 A 
ATOM     56  C   UNL A   1      42.889  25.948  27.424  1.00  0.00     0.034 A 
ATOM     57  C   UNL A   1      43.109  29.396  33.352  1.00  0.00     0.049 A 
ATOM     58  C   UNL A   1      43.906  26.217  28.476  1.00  0.00     0.074 A 
ATOM     59  C   UNL A   1      43.216  30.754  33.113  1.00  0.00     0.029 A 
ATOM     60  N   UNL A   1      44.108  28.810  32.600  1.00  0.00    -0.354 N 
ATOM     61  N   UNL A   1      44.622  27.309  28.505  1.00  0.00    -0.248 NA
ATOM     62  C   UNL A   1      43.750  25.551  29.762  1.00  0.00     0.031 C 
ATOM     63  C   UNL A   1      43.901  30.851  31.864  1.00  0.00     0.029 A 
ATOM     64  C   UNL A   1      44.272  29.565  31.462  1.00  0.00     0.049 A 
ATOM     65  H   UNL A   1      44.612  27.998  32.836  1.00  0.00     0.167 HD
ATOM     66  C   UNL A   1      44.612  27.710  29.833  1.00  0.00     0.074 A 
ATOM     67  C   UNL A   1      44.140  26.540  30.575  1.00  0.00     0.031 C 
ATOM     68  C   UNL A   1      44.699  29.031  30.179  1.00  0.00     0.034 A 
BRANCH  55  69
ATOM     69  C   UNL A   1      42.356  27.412  34.821  1.00  0.00     0.023 A 
ATOM     70  C   UNL A   1      43.208  26.396  34.353  1.00  0.00     0.031 A 
ATOM     71  C   UNL A   1      41.666  27.131  36.022  1.00  0.00     0.131 A 
ATOM     72  C   UNL A   1      43.252  25.142  34.978  1.00  0.00     0.055 A 
ATOM     73  C   UNL A   1      41.768  25.904  36.683  1.00  0.00     0.041 A 
ATOM     74  F   UNL A   1      40.790  27.977  36.573  1.00  0.00    -0.206 F 
ATOM     75  C   UNL A   1      42.535  24.887  36.143  1.00  0.00     0.022 A 
BRANCH  72  76
ATOM     76  S   UNL A   1      44.117  23.800  34.129  1.00  0.00     0.124 S 
ATOM     77  O   UNL A   1      45.496  24.272  34.168  1.00  0.00    -0.237 OA
ATOM     78  O   UNL A   1      43.802  22.655  34.977  1.00  0.00    -0.237 OA
ATOM     79  O   UNL A   1      43.498  23.784  32.806  1.00  0.00    -0.744 OA
ENDBRANCH  72  76
ENDBRANCH  55  69
BRANCH  56  80
ATOM     80  C   UNL A   1      42.795  24.656  26.675  1.00  0.00     0.023 A 
ATOM     81  C   UNL A   1      43.832  24.157  25.849  1.00  0.00     0.031 A 
ATOM     82  C   UNL A   1      41.753  23.751  26.982  1.00  0.00     0.131 A 
ATOM     83  C   UNL A   1      43.801  22.816  25.384  1.00  0.00     0.055 A 
ATOM     84  C   UNL A   1      41.733  22.430  26.528  1.00  0.00     0.041 A 
ATOM     85  F   UNL A   1      40.757  24.095  27.813  1.00  0.00    -0.206 F 
ATOM     86  C   UNL A   1      42.763  21.951  25.737  1.00  0.00     0.022 A 
BRANCH  83  87
ATOM     87  S   UNL A   1      45.164  22.130  24.378  1.00  0.00     0.124 S 
ATOM     88  O   UNL A   1      45.538  23.268  23.547  1.00  0.00    -0.237 OA
ATOM     89  O   UNL A   1      46.130  21.719  25.391  1.00  0.00    -0.237 OA
ATOM     90  O   UNL A   1      44.534  21.025  23.654  1.00  0.00    -0.744 OA
ENDBRANCH  83  87
ENDBRANCH  56  80
BRANCH  68  91
ATOM     91  C   UNL A   1      45.087  30.040  29.112  1.00  0.00     0.023 A 
ATOM     92  C   UNL A   1      46.408  30.320  28.687  1.00  0.00     0.031 A 
ATOM     93  C   UNL A   1      44.037  30.655  28.407  1.00  0.00     0.131 A 
ATOM     94  C   UNL A   1      46.631  31.194  27.602  1.00  0.00     0.055 A 
ATOM     95  C   UNL A   1      44.261  31.497  27.319  1.00  0.00     0.041 A 
ATOM     96  F   UNL A   1      42.758  30.417  28.744  1.00  0.00    -0.206 F 
ATOM     97  C   UNL A   1      45.560  31.775  26.915  1.00  0.00     0.022 A 
BRANCH  94  98
ATOM     98  S   UNL A   1      48.325  31.619  27.071  1.00  0.00     0.124 S 
ATOM     99  O   UNL A   1      48.825  30.376  26.497  1.00  0.00    -0.237 OA
ATOM    100  O   UNL A   1      48.099  32.712  26.128  1.00  0.00    -0.237 OA
ATOM    101  O   UNL A   1      48.982  32.020  28.317  1.00  0.00    -0.744 OA
ENDBRANCH  94  98
ENDBRANCH  68  91
ENDBRANCH  42  43
ENDBRANCH  34  37
ENDBRANCH  32  33
ENDBRANCH   1  32
TORSDOF 18
ENDMDL
