MODEL 1
REMARK VINA RESULT:     -13.4      0.000      0.000
REMARK SMILES Cc1ccc(NC(=O)C[C@@H]2C[NH2+]CCO2)c(C(=O)NCCCNC(=O)c2ccc(-c3c4nc(c(-c5cc(S(=O)(=O)[O-])ccc5F)c5ccc([nH]5)c(-c5cc(S(=O)(=O)[O-])ccc5F)c5nc(c(-c6cc(S(=O)(=O)[O-])ccc6F)c6ccc3[nH]6)C=C5)C=C4)cc2)c1
REMARK SMILES IDX 21 1 20 2 19 3 17 4 18 5 16 7 1 8 2 9 3 10 89 11 4 12 5 13
REMARK SMILES IDX 6 14 7 15 8 17 9 18 10 19 11 20 15 21 12 22 14 23 13 24
REMARK SMILES IDX 22 27 23 28 24 29 25 31 26 32 27 33 88 34 28 35 87 36 29 37
REMARK SMILES IDX 30 38 31 39 81 40 32 41 86 42 80 43 82 44 33 45 85 46 79 47
REMARK SMILES IDX 78 48 34 50 66 51 46 52 65 53 47 54 50 55 64 56 83 57 48 58
REMARK SMILES IDX 49 59 63 61 84 62 51 63 35 64 36 65 44 66 37 67 43 68 45 69
REMARK SMILES IDX 42 70 38 71 39 72 40 73 41 74 67 75 68 76 76 77 69 78 75 79
REMARK SMILES IDX 77 80 74 81 70 82 71 83 72 84 73 85 52 86 53 87 61 88 54 89
REMARK SMILES IDX 60 90 62 91 59 92 55 93 56 94 57 95 58 96
REMARK H PARENT 19 6 6 16 12 25 12 26 23 30 82 49 50 60
REMARK Flexibility Score: inf
ROOT
ATOM      1  C   UNL A   1      32.938  30.855  27.268  1.00  0.00     0.042 C 
ENDROOT
BRANCH   1   2
ATOM      2  C   UNL A   1      32.088  29.582  27.275  1.00  0.00     0.118 C 
BRANCH   2   3
ATOM      3  N   UNL A   1      32.884  28.391  26.987  1.00  0.00    -0.352 N 
ATOM      4  C   UNL A   1      32.724  27.390  26.055  1.00  0.00     0.253 C 
ATOM      5  O   UNL A   1      33.646  26.590  25.897  1.00  0.00    -0.269 OA
ATOM      6  H   UNL A   1      33.677  28.286  27.560  1.00  0.00     0.163 HD
BRANCH   4   7
ATOM      7  C   UNL A   1      31.505  27.285  25.191  1.00  0.00     0.063 A 
ATOM      8  C   UNL A   1      29.715  29.405  22.573  1.00  0.00     0.044 C 
ATOM      9  C   UNL A   1      30.079  28.236  23.438  1.00  0.00    -0.050 A 
ATOM     10  C   UNL A   1      29.339  27.062  23.417  1.00  0.00     0.005 A 
ATOM     11  C   UNL A   1      31.150  28.332  24.330  1.00  0.00     0.019 A 
ATOM     12  C   UNL A   1      29.616  26.044  24.334  1.00  0.00     0.027 A 
ATOM     13  C   UNL A   1      30.626  26.184  25.296  1.00  0.00     0.054 A 
BRANCH  13  14
ATOM     14  N   UNL A   1      30.731  25.304  26.401  1.00  0.00    -0.325 N 
ATOM     15  C   UNL A   1      31.303  24.066  26.521  1.00  0.00     0.227 C 
ATOM     16  H   UNL A   1      30.320  25.643  27.229  1.00  0.00     0.169 HD
ATOM     17  O   UNL A   1      31.229  23.476  27.606  1.00  0.00    -0.275 OA
BRANCH  15  18
ATOM     18  C   UNL A   1      32.015  23.373  25.376  1.00  0.00     0.138 C 
BRANCH  18  19
ATOM     19  C   UNL A   1      32.516  21.943  25.643  1.00  0.00     0.182 C 
ATOM     20  C   UNL A   1      34.069  21.954  25.662  1.00  0.00     0.293 C 
ATOM     21  O   UNL A   1      32.037  21.023  24.660  1.00  0.00    -0.366 OA
ATOM     22  N   UNL A   1      34.677  20.614  25.787  1.00  0.00    -0.342 N 
ATOM     23  C   UNL A   1      32.585  19.713  24.799  1.00  0.00     0.222 C 
ATOM     24  C   UNL A   1      34.113  19.759  24.723  1.00  0.00     0.289 C 
ATOM     25  H   UNL A   1      34.458  20.218  26.701  1.00  0.00     0.346 HD
ATOM     26  H   UNL A   1      35.691  20.673  25.696  1.00  0.00     0.346 HD
ENDBRANCH  18  19
ENDBRANCH  15  18
ENDBRANCH  13  14
ENDBRANCH   4   7
ENDBRANCH   2   3
ENDBRANCH   1   2
BRANCH   1  27
ATOM     27  C   UNL A   1      34.425  30.591  27.466  1.00  0.00     0.118 C 
BRANCH  27  28
ATOM     28  N   UNL A   1      35.033  31.473  28.461  1.00  0.00    -0.352 N 
ATOM     29  C   UNL A   1      36.191  31.265  29.190  1.00  0.00     0.251 C 
ATOM     30  H   UNL A   1      34.561  32.320  28.634  1.00  0.00     0.163 HD
ATOM     31  O   UNL A   1      36.615  32.082  29.992  1.00  0.00    -0.269 OA
BRANCH  29  32
ATOM     32  C   UNL A   1      36.978  30.057  28.870  1.00  0.00     0.039 A 
ATOM     33  C   UNL A   1      37.181  29.139  29.904  1.00  0.00     0.014 A 
ATOM     34  C   UNL A   1      37.732  30.008  27.700  1.00  0.00     0.014 A 
ATOM     35  C   UNL A   1      38.293  28.305  29.859  1.00  0.00     0.010 A 
ATOM     36  C   UNL A   1      38.885  29.244  27.698  1.00  0.00     0.010 A 
ATOM     37  C   UNL A   1      39.197  28.441  28.803  1.00  0.00    -0.014 A 
BRANCH  37  38
ATOM     38  C   UNL A   1      40.551  27.897  28.859  1.00  0.00     0.031 A 
ATOM     39  C   UNL A   1      40.829  26.512  28.430  1.00  0.00     0.074 A 
ATOM     40  C   UNL A   1      41.570  28.665  29.304  1.00  0.00     0.049 A 
ATOM     41  N   UNL A   1      41.816  25.800  28.862  1.00  0.00    -0.248 NA
ATOM     42  C   UNL A   1      39.966  25.794  27.501  1.00  0.00     0.031 C 
ATOM     43  C   UNL A   1      43.000  28.380  29.213  1.00  0.00     0.029 A 
ATOM     44  N   UNL A   1      41.486  29.748  30.176  1.00  0.00    -0.354 N 
ATOM     45  C   UNL A   1      41.886  24.666  28.088  1.00  0.00     0.074 A 
ATOM     46  C   UNL A   1      40.676  24.681  27.296  1.00  0.00     0.031 C 
ATOM     47  C   UNL A   1      43.639  29.066  30.172  1.00  0.00     0.029 A 
ATOM     48  C   UNL A   1      42.630  29.709  30.993  1.00  0.00     0.049 A 
ATOM     49  H   UNL A   1      40.762  30.415  30.213  1.00  0.00     0.167 HD
ATOM     50  C   UNL A   1      43.018  23.907  28.096  1.00  0.00     0.034 A 
ATOM     51  C   UNL A   1      42.533  29.613  32.350  1.00  0.00     0.034 A 
ATOM     52  C   UNL A   1      44.011  24.414  29.039  1.00  0.00     0.049 A 
ATOM     53  C   UNL A   1      43.233  28.402  32.922  1.00  0.00     0.074 A 
ATOM     54  C   UNL A   1      45.144  25.196  28.881  1.00  0.00     0.029 A 
ATOM     55  N   UNL A   1      43.759  24.359  30.406  1.00  0.00    -0.354 N 
ATOM     56  N   UNL A   1      43.590  27.363  32.216  1.00  0.00    -0.248 NA
ATOM     57  C   UNL A   1      43.570  28.259  34.333  1.00  0.00     0.031 C 
ATOM     58  C   UNL A   1      45.540  25.659  30.162  1.00  0.00     0.029 A 
ATOM     59  C   UNL A   1      44.669  25.132  31.100  1.00  0.00     0.049 A 
ATOM     60  H   UNL A   1      43.032  23.841  30.821  1.00  0.00     0.167 HD
ATOM     61  C   UNL A   1      44.175  26.429  33.035  1.00  0.00     0.074 A 
ATOM     62  C   UNL A   1      44.159  27.051  34.348  1.00  0.00     0.031 C 
ATOM     63  C   UNL A   1      44.613  25.226  32.554  1.00  0.00     0.034 A 
BRANCH  50  64
ATOM     64  C   UNL A   1      43.337  22.897  27.015  1.00  0.00     0.023 A 
ATOM     65  C   UNL A   1      42.759  21.612  27.069  1.00  0.00     0.031 A 
ATOM     66  C   UNL A   1      44.229  23.115  25.949  1.00  0.00     0.131 A 
ATOM     67  C   UNL A   1      43.157  20.590  26.187  1.00  0.00     0.055 A 
ATOM     68  C   UNL A   1      44.680  22.083  25.115  1.00  0.00     0.041 A 
ATOM     69  F   UNL A   1      44.665  24.345  25.641  1.00  0.00    -0.206 F 
ATOM     70  C   UNL A   1      44.156  20.806  25.243  1.00  0.00     0.022 A 
BRANCH  67  71
ATOM     71  S   UNL A   1      42.339  18.973  26.279  1.00  0.00     0.124 S 
ATOM     72  O   UNL A   1      43.168  18.153  25.402  1.00  0.00    -0.237 OA
ATOM     73  O   UNL A   1      42.411  18.672  27.704  1.00  0.00    -0.237 OA
ATOM     74  O   UNL A   1      40.993  19.246  25.775  1.00  0.00    -0.744 OA
ENDBRANCH  67  71
ENDBRANCH  50  64
BRANCH  51  75
ATOM     75  C   UNL A   1      41.310  30.259  32.904  1.00  0.00     0.023 A 
ATOM     76  C   UNL A   1      41.319  31.668  32.997  1.00  0.00     0.031 A 
ATOM     77  C   UNL A   1      40.072  29.607  32.950  1.00  0.00     0.131 A 
ATOM     78  C   UNL A   1      40.119  32.389  32.938  1.00  0.00     0.055 A 
ATOM     79  C   UNL A   1      38.872  30.332  32.975  1.00  0.00     0.041 A 
ATOM     80  F   UNL A   1      39.996  28.272  32.844  1.00  0.00    -0.206 F 
ATOM     81  C   UNL A   1      38.891  31.728  32.918  1.00  0.00     0.022 A 
BRANCH  78  82
ATOM     82  S   UNL A   1      40.183  34.173  32.593  1.00  0.00     0.124 S 
ATOM     83  O   UNL A   1      38.789  34.571  32.747  1.00  0.00    -0.237 OA
ATOM     84  O   UNL A   1      41.101  34.677  33.611  1.00  0.00    -0.237 OA
ATOM     85  O   UNL A   1      40.715  34.237  31.233  1.00  0.00    -0.744 OA
ENDBRANCH  78  82
ENDBRANCH  51  75
BRANCH  63  86
ATOM     86  C   UNL A   1      45.113  24.057  33.382  1.00  0.00     0.023 A 
ATOM     87  C   UNL A   1      46.396  23.992  33.945  1.00  0.00     0.031 A 
ATOM     88  C   UNL A   1      44.255  22.971  33.700  1.00  0.00     0.131 A 
ATOM     89  C   UNL A   1      46.811  22.877  34.697  1.00  0.00     0.055 A 
ATOM     90  C   UNL A   1      44.643  21.901  34.511  1.00  0.00     0.041 A 
ATOM     91  F   UNL A   1      42.996  22.908  33.244  1.00  0.00    -0.206 F 
ATOM     92  C   UNL A   1      45.936  21.838  35.003  1.00  0.00     0.022 A 
BRANCH  89  93
ATOM     93  S   UNL A   1      48.542  22.789  35.226  1.00  0.00     0.124 S 
ATOM     94  O   UNL A   1      48.562  23.728  36.344  1.00  0.00    -0.237 OA
ATOM     95  O   UNL A   1      48.693  21.382  35.580  1.00  0.00    -0.237 OA
ATOM     96  O   UNL A   1      49.288  23.216  34.043  1.00  0.00    -0.744 OA
ENDBRANCH  89  93
ENDBRANCH  63  86
ENDBRANCH  37  38
ENDBRANCH  29  32
ENDBRANCH  27  28
ENDBRANCH   1  27
TORSDOF 16
ENDMDL
MODEL 2
REMARK VINA RESULT:     -13.1      4.090     10.658
REMARK SMILES Cc1ccc(NC(=O)C[C@@H]2C[NH2+]CCO2)c(C(=O)NCCCNC(=O)c2ccc(-c3c4nc(c(-c5cc(S(=O)(=O)[O-])ccc5F)c5ccc([nH]5)c(-c5cc(S(=O)(=O)[O-])ccc5F)c5nc(c(-c6cc(S(=O)(=O)[O-])ccc6F)c6ccc3[nH]6)C=C5)C=C4)cc2)c1
REMARK SMILES IDX 21 1 20 2 19 3 17 4 18 5 16 7 1 8 2 9 3 10 89 11 4 12 5 13
REMARK SMILES IDX 6 14 7 15 8 17 9 18 10 19 11 20 15 21 12 22 14 23 13 24
REMARK SMILES IDX 22 27 23 28 24 29 25 31 26 32 27 33 88 34 28 35 87 36 29 37
REMARK SMILES IDX 30 38 31 39 81 40 32 41 86 42 80 43 82 44 33 45 85 46 79 47
REMARK SMILES IDX 78 48 34 50 66 51 46 52 65 53 47 54 50 55 64 56 83 57 48 58
REMARK SMILES IDX 49 59 63 61 84 62 51 63 35 64 36 65 44 66 37 67 43 68 45 69
REMARK SMILES IDX 42 70 38 71 39 72 40 73 41 74 67 75 68 76 76 77 69 78 75 79
REMARK SMILES IDX 77 80 74 81 70 82 71 83 72 84 73 85 52 86 53 87 61 88 54 89
REMARK SMILES IDX 60 90 62 91 59 92 55 93 56 94 57 95 58 96
REMARK H PARENT 19 6 6 16 12 25 12 26 23 30 82 49 50 60
REMARK Flexibility Score: inf
ROOT
ATOM      1  C   UNL A   1      38.424  21.535  25.376  1.00  0.00     0.042 C 
ENDROOT
BRANCH   1   2
ATOM      2  C   UNL A   1      37.354  21.885  24.338  1.00  0.00     0.118 C 
BRANCH   2   3
ATOM      3  N   UNL A   1      36.702  23.158  24.632  1.00  0.00    -0.352 N 
ATOM      4  C   UNL A   1      35.372  23.511  24.690  1.00  0.00     0.253 C 
ATOM      5  O   UNL A   1      35.083  24.618  25.144  1.00  0.00    -0.269 OA
ATOM      6  H   UNL A   1      37.324  23.896  24.825  1.00  0.00     0.163 HD
BRANCH   4   7
ATOM      7  C   UNL A   1      34.275  22.575  24.282  1.00  0.00     0.063 A 
ATOM      8  C   UNL A   1      33.057  19.084  25.220  1.00  0.00     0.044 C 
ATOM      9  C   UNL A   1      33.102  20.445  24.595  1.00  0.00    -0.050 A 
ATOM     10  C   UNL A   1      32.132  20.860  23.692  1.00  0.00     0.005 A 
ATOM     11  C   UNL A   1      34.164  21.310  24.874  1.00  0.00     0.019 A 
ATOM     12  C   UNL A   1      32.276  22.076  23.020  1.00  0.00     0.027 A 
ATOM     13  C   UNL A   1      33.395  22.895  23.225  1.00  0.00     0.054 A 
BRANCH  13  14
ATOM     14  N   UNL A   1      33.701  23.973  22.358  1.00  0.00    -0.325 N 
ATOM     15  C   UNL A   1      33.298  25.281  22.362  1.00  0.00     0.227 C 
ATOM     16  H   UNL A   1      34.312  23.738  21.622  1.00  0.00     0.169 HD
ATOM     17  O   UNL A   1      33.685  26.028  21.456  1.00  0.00    -0.275 OA
BRANCH  15  18
ATOM     18  C   UNL A   1      32.380  25.857  23.423  1.00  0.00     0.138 C 
BRANCH  18  19
ATOM     19  C   UNL A   1      32.243  27.389  23.454  1.00  0.00     0.182 C 
ATOM     20  C   UNL A   1      33.414  27.978  24.285  1.00  0.00     0.293 C 
ATOM     21  O   UNL A   1      30.988  27.795  24.005  1.00  0.00    -0.366 OA
ATOM     22  N   UNL A   1      33.327  29.437  24.495  1.00  0.00    -0.342 N 
ATOM     23  C   UNL A   1      30.877  29.208  24.171  1.00  0.00     0.222 C 
ATOM     24  C   UNL A   1      31.999  29.734  25.069  1.00  0.00     0.289 C 
ATOM     25  H   UNL A   1      33.435  29.922  23.604  1.00  0.00     0.346 HD
ATOM     26  H   UNL A   1      34.065  29.751  25.125  1.00  0.00     0.346 HD
ENDBRANCH  18  19
ENDBRANCH  15  18
ENDBRANCH  13  14
ENDBRANCH   4   7
ENDBRANCH   2   3
ENDBRANCH   1   2
BRANCH   1  27
ATOM     27  C   UNL A   1      38.873  22.730  26.208  1.00  0.00     0.118 C 
BRANCH  27  28
ATOM     28  N   UNL A   1      40.327  22.820  26.338  1.00  0.00    -0.352 N 
ATOM     29  C   UNL A   1      41.084  23.928  26.672  1.00  0.00     0.251 C 
ATOM     30  H   UNL A   1      40.828  21.990  26.165  1.00  0.00     0.163 HD
ATOM     31  O   UNL A   1      42.301  23.885  26.763  1.00  0.00    -0.269 OA
BRANCH  29  32
ATOM     32  C   UNL A   1      40.352  25.155  27.045  1.00  0.00     0.039 A 
ATOM     33  C   UNL A   1      40.675  26.323  26.348  1.00  0.00     0.014 A 
ATOM     34  C   UNL A   1      39.624  25.197  28.231  1.00  0.00     0.014 A 
ATOM     35  C   UNL A   1      40.457  27.554  26.957  1.00  0.00     0.010 A 
ATOM     36  C   UNL A   1      39.491  26.416  28.873  1.00  0.00     0.010 A 
ATOM     37  C   UNL A   1      39.964  27.586  28.263  1.00  0.00    -0.014 A 
BRANCH  37  38
ATOM     38  C   UNL A   1      40.057  28.775  29.105  1.00  0.00     0.031 A 
ATOM     39  C   UNL A   1      38.988  29.793  29.097  1.00  0.00     0.074 A 
ATOM     40  C   UNL A   1      41.129  28.952  29.908  1.00  0.00     0.049 A 
ATOM     41  N   UNL A   1      39.165  31.037  29.397  1.00  0.00    -0.248 NA
ATOM     42  C   UNL A   1      37.622  29.489  28.693  1.00  0.00     0.031 C 
ATOM     43  C   UNL A   1      41.285  29.939  30.974  1.00  0.00     0.029 A 
ATOM     44  N   UNL A   1      42.408  28.429  29.728  1.00  0.00    -0.354 N 
ATOM     45  C   UNL A   1      37.927  31.625  29.497  1.00  0.00     0.074 A 
ATOM     46  C   UNL A   1      37.003  30.635  28.990  1.00  0.00     0.031 C 
ATOM     47  C   UNL A   1      42.594  30.151  31.178  1.00  0.00     0.029 A 
ATOM     48  C   UNL A   1      43.318  29.409  30.163  1.00  0.00     0.049 A 
ATOM     49  H   UNL A   1      42.632  27.541  29.365  1.00  0.00     0.167 HD
ATOM     50  C   UNL A   1      37.795  32.829  30.123  1.00  0.00     0.034 A 
ATOM     51  C   UNL A   1      44.262  29.926  29.326  1.00  0.00     0.034 A 
ATOM     52  C   UNL A   1      39.083  33.367  30.551  1.00  0.00     0.049 A 
ATOM     53  C   UNL A   1      44.171  31.425  29.164  1.00  0.00     0.074 A 
ATOM     54  C   UNL A   1      39.738  33.376  31.772  1.00  0.00     0.029 A 
ATOM     55  N   UNL A   1      40.016  33.770  29.602  1.00  0.00    -0.354 N 
ATOM     56  N   UNL A   1      43.120  32.131  29.480  1.00  0.00    -0.248 NA
ATOM     57  C   UNL A   1      45.247  32.243  28.618  1.00  0.00     0.031 C 
ATOM     58  C   UNL A   1      41.091  33.733  31.542  1.00  0.00     0.029 A 
ATOM     59  C   UNL A   1      41.250  33.974  30.188  1.00  0.00     0.049 A 
ATOM     60  H   UNL A   1      39.823  33.892  28.644  1.00  0.00     0.167 HD
ATOM     61  C   UNL A   1      43.348  33.453  29.188  1.00  0.00     0.074 A 
ATOM     62  C   UNL A   1      44.705  33.472  28.671  1.00  0.00     0.031 C 
ATOM     63  C   UNL A   1      42.391  34.410  29.391  1.00  0.00     0.034 A 
BRANCH  50  64
ATOM     64  C   UNL A   1      36.467  33.354  30.621  1.00  0.00     0.023 A 
ATOM     65  C   UNL A   1      35.634  34.085  29.749  1.00  0.00     0.031 A 
ATOM     66  C   UNL A   1      35.991  33.217  31.939  1.00  0.00     0.131 A 
ATOM     67  C   UNL A   1      34.475  34.735  30.213  1.00  0.00     0.055 A 
ATOM     68  C   UNL A   1      34.878  33.920  32.420  1.00  0.00     0.041 A 
ATOM     69  F   UNL A   1      36.556  32.359  32.801  1.00  0.00    -0.206 F 
ATOM     70  C   UNL A   1      34.122  34.700  31.558  1.00  0.00     0.022 A 
BRANCH  67  71
ATOM     71  S   UNL A   1      33.422  35.619  29.029  1.00  0.00     0.124 S 
ATOM     72  O   UNL A   1      32.627  34.540  28.451  1.00  0.00    -0.237 OA
ATOM     73  O   UNL A   1      32.710  36.557  29.890  1.00  0.00    -0.237 OA
ATOM     74  O   UNL A   1      34.383  36.233  28.113  1.00  0.00    -0.744 OA
ENDBRANCH  67  71
ENDBRANCH  50  64
BRANCH  51  75
ATOM     75  C   UNL A   1      44.728  28.961  28.289  1.00  0.00     0.023 A 
ATOM     76  C   UNL A   1      45.556  27.904  28.728  1.00  0.00     0.031 A 
ATOM     77  C   UNL A   1      44.089  28.823  27.051  1.00  0.00     0.131 A 
ATOM     78  C   UNL A   1      45.575  26.686  28.036  1.00  0.00     0.055 A 
ATOM     79  C   UNL A   1      44.177  27.630  26.319  1.00  0.00     0.041 A 
ATOM     80  F   UNL A   1      43.273  29.782  26.591  1.00  0.00    -0.206 F 
ATOM     81  C   UNL A   1      44.881  26.539  26.835  1.00  0.00     0.022 A 
BRANCH  78  82
ATOM     82  S   UNL A   1      46.264  25.219  28.859  1.00  0.00     0.124 S 
ATOM     83  O   UNL A   1      46.531  24.328  27.737  1.00  0.00    -0.237 OA
ATOM     84  O   UNL A   1      47.443  25.745  29.544  1.00  0.00    -0.237 OA
ATOM     85  O   UNL A   1      45.193  24.801  29.762  1.00  0.00    -0.744 OA
ENDBRANCH  78  82
ENDBRANCH  51  75
BRANCH  63  86
ATOM     86  C   UNL A   1      42.463  35.859  28.950  1.00  0.00     0.023 A 
ATOM     87  C   UNL A   1      43.133  36.861  29.669  1.00  0.00     0.031 A 
ATOM     88  C   UNL A   1      41.903  36.272  27.713  1.00  0.00     0.131 A 
ATOM     89  C   UNL A   1      43.159  38.194  29.217  1.00  0.00     0.055 A 
ATOM     90  C   UNL A   1      41.996  37.580  27.228  1.00  0.00     0.041 A 
ATOM     91  F   UNL A   1      41.249  35.418  26.913  1.00  0.00    -0.206 F 
ATOM     92  C   UNL A   1      42.613  38.558  27.989  1.00  0.00     0.022 A 
BRANCH  89  93
ATOM     93  S   UNL A   1      43.880  39.457  30.299  1.00  0.00     0.124 S 
ATOM     94  O   UNL A   1      44.135  38.696  31.519  1.00  0.00    -0.237 OA
ATOM     95  O   UNL A   1      45.064  39.872  29.554  1.00  0.00    -0.237 OA
ATOM     96  O   UNL A   1      42.828  40.465  30.405  1.00  0.00    -0.744 OA
ENDBRANCH  89  93
ENDBRANCH  63  86
ENDBRANCH  37  38
ENDBRANCH  29  32
ENDBRANCH  27  28
ENDBRANCH   1  27
TORSDOF 16
ENDMDL
MODEL 3
REMARK VINA RESULT:     -12.7      1.604      2.020
REMARK SMILES Cc1ccc(NC(=O)C[C@@H]2C[NH2+]CCO2)c(C(=O)NCCCNC(=O)c2ccc(-c3c4nc(c(-c5cc(S(=O)(=O)[O-])ccc5F)c5ccc([nH]5)c(-c5cc(S(=O)(=O)[O-])ccc5F)c5nc(c(-c6cc(S(=O)(=O)[O-])ccc6F)c6ccc3[nH]6)C=C5)C=C4)cc2)c1
REMARK SMILES IDX 21 1 20 2 19 3 17 4 18 5 16 7 1 8 2 9 3 10 89 11 4 12 5 13
REMARK SMILES IDX 6 14 7 15 8 17 9 18 10 19 11 20 15 21 12 22 14 23 13 24
REMARK SMILES IDX 22 27 23 28 24 29 25 31 26 32 27 33 88 34 28 35 87 36 29 37
REMARK SMILES IDX 30 38 31 39 81 40 32 41 86 42 80 43 82 44 33 45 85 46 79 47
REMARK SMILES IDX 78 48 34 50 66 51 46 52 65 53 47 54 50 55 64 56 83 57 48 58
REMARK SMILES IDX 49 59 63 61 84 62 51 63 35 64 36 65 44 66 37 67 43 68 45 69
REMARK SMILES IDX 42 70 38 71 39 72 40 73 41 74 67 75 68 76 76 77 69 78 75 79
REMARK SMILES IDX 77 80 74 81 70 82 71 83 72 84 73 85 52 86 53 87 61 88 54 89
REMARK SMILES IDX 60 90 62 91 59 92 55 93 56 94 57 95 58 96
REMARK H PARENT 19 6 6 16 12 25 12 26 23 30 82 49 50 60
REMARK Flexibility Score: inf
ROOT
ATOM      1  C   UNL A   1      32.781  29.193  27.235  1.00  0.00     0.042 C 
ENDROOT
BRANCH   1   2
ATOM      2  C   UNL A   1      32.112  28.625  25.980  1.00  0.00     0.118 C 
BRANCH   2   3
ATOM      3  N   UNL A   1      31.196  27.532  26.296  1.00  0.00    -0.352 N 
ATOM      4  C   UNL A   1      31.189  26.208  25.915  1.00  0.00     0.253 C 
ATOM      5  O   UNL A   1      30.399  25.447  26.474  1.00  0.00    -0.269 OA
ATOM      6  H   UNL A   1      30.451  27.786  26.887  1.00  0.00     0.163 HD
BRANCH   4   7
ATOM      7  C   UNL A   1      32.145  25.659  24.902  1.00  0.00     0.063 A 
ATOM      8  C   UNL A   1      32.723  25.925  21.140  1.00  0.00     0.044 C 
ATOM      9  C   UNL A   1      32.938  25.580  22.583  1.00  0.00    -0.050 A 
ATOM     10  C   UNL A   1      34.019  24.809  22.990  1.00  0.00     0.005 A 
ATOM     11  C   UNL A   1      32.013  25.991  23.546  1.00  0.00     0.019 A 
ATOM     12  C   UNL A   1      34.116  24.387  24.318  1.00  0.00     0.027 A 
ATOM     13  C   UNL A   1      33.132  24.715  25.262  1.00  0.00     0.054 A 
BRANCH  13  14
ATOM     14  N   UNL A   1      33.060  24.068  26.521  1.00  0.00    -0.325 N 
ATOM     15  C   UNL A   1      32.656  22.808  26.869  1.00  0.00     0.227 C 
ATOM     16  H   UNL A   1      33.351  24.625  27.279  1.00  0.00     0.169 HD
ATOM     17  O   UNL A   1      32.652  22.491  28.064  1.00  0.00    -0.275 OA
BRANCH  15  18
ATOM     18  C   UNL A   1      32.196  21.780  25.853  1.00  0.00     0.138 C 
BRANCH  18  19
ATOM     19  C   UNL A   1      32.918  20.421  25.875  1.00  0.00     0.182 C 
ATOM     20  C   UNL A   1      34.263  20.559  25.113  1.00  0.00     0.293 C 
ATOM     21  O   UNL A   1      32.119  19.389  25.293  1.00  0.00    -0.366 OA
ATOM     22  N   UNL A   1      34.997  19.287  24.956  1.00  0.00    -0.342 N 
ATOM     23  C   UNL A   1      32.805  18.144  25.178  1.00  0.00     0.222 C 
ATOM     24  C   UNL A   1      34.079  18.306  24.344  1.00  0.00     0.289 C 
ATOM     25  H   UNL A   1      35.305  18.950  25.868  1.00  0.00     0.346 HD
ATOM     26  H   UNL A   1      35.819  19.420  24.367  1.00  0.00     0.346 HD
ENDBRANCH  18  19
ENDBRANCH  15  18
ENDBRANCH  13  14
ENDBRANCH   4   7
ENDBRANCH   2   3
ENDBRANCH   1   2
BRANCH   1  27
ATOM     27  C   UNL A   1      34.224  29.624  27.007  1.00  0.00     0.118 C 
BRANCH  27  28
ATOM     28  N   UNL A   1      34.631  30.733  27.869  1.00  0.00    -0.352 N 
ATOM     29  C   UNL A   1      35.806  30.868  28.586  1.00  0.00     0.251 C 
ATOM     30  H   UNL A   1      33.988  31.476  27.949  1.00  0.00     0.163 HD
ATOM     31  O   UNL A   1      36.046  31.851  29.269  1.00  0.00    -0.269 OA
BRANCH  29  32
ATOM     32  C   UNL A   1      36.834  29.824  28.395  1.00  0.00     0.039 A 
ATOM     33  C   UNL A   1      37.022  28.920  29.444  1.00  0.00     0.014 A 
ATOM     34  C   UNL A   1      37.764  29.945  27.366  1.00  0.00     0.014 A 
ATOM     35  C   UNL A   1      38.254  28.291  29.580  1.00  0.00     0.010 A 
ATOM     36  C   UNL A   1      39.018  29.390  27.552  1.00  0.00     0.010 A 
ATOM     37  C   UNL A   1      39.280  28.614  28.690  1.00  0.00    -0.014 A 
BRANCH  37  38
ATOM     38  C   UNL A   1      40.681  28.308  28.967  1.00  0.00     0.031 A 
ATOM     39  C   UNL A   1      41.339  27.143  28.343  1.00  0.00     0.074 A 
ATOM     40  C   UNL A   1      41.393  29.098  29.801  1.00  0.00     0.049 A 
ATOM     41  N   UNL A   1      42.351  26.520  28.850  1.00  0.00    -0.248 NA
ATOM     42  C   UNL A   1      40.863  26.550  27.101  1.00  0.00     0.031 C 
ATOM     43  C   UNL A   1      42.839  29.089  30.012  1.00  0.00     0.029 A 
ATOM     44  N   UNL A   1      40.896  29.895  30.829  1.00  0.00    -0.354 N 
ATOM     45  C   UNL A   1      42.825  25.648  27.900  1.00  0.00     0.074 A 
ATOM     46  C   UNL A   1      41.828  25.660  26.853  1.00  0.00     0.031 C 
ATOM     47  C   UNL A   1      43.102  29.607  31.220  1.00  0.00     0.029 A 
ATOM     48  C   UNL A   1      41.831  29.843  31.879  1.00  0.00     0.049 A 
ATOM     49  H   UNL A   1      40.051  30.401  30.822  1.00  0.00     0.167 HD
ATOM     50  C   UNL A   1      44.071  25.111  28.033  1.00  0.00     0.034 A 
ATOM     51  C   UNL A   1      41.485  29.392  33.119  1.00  0.00     0.034 A 
ATOM     52  C   UNL A   1      44.715  25.522  29.277  1.00  0.00     0.049 A 
ATOM     53  C   UNL A   1      42.304  28.211  33.583  1.00  0.00     0.074 A 
ATOM     54  C   UNL A   1      45.655  26.497  29.572  1.00  0.00     0.029 A 
ATOM     55  N   UNL A   1      44.210  25.082  30.496  1.00  0.00    -0.354 N 
ATOM     56  N   UNL A   1      43.017  27.459  32.789  1.00  0.00    -0.248 NA
ATOM     57  C   UNL A   1      42.371  27.774  34.973  1.00  0.00     0.031 C 
ATOM     58  C   UNL A   1      45.671  26.680  30.978  1.00  0.00     0.029 A 
ATOM     59  C   UNL A   1      44.767  25.796  31.540  1.00  0.00     0.049 A 
ATOM     60  H   UNL A   1      43.547  24.362  30.600  1.00  0.00     0.167 HD
ATOM     61  C   UNL A   1      43.616  26.460  33.516  1.00  0.00     0.074 A 
ATOM     62  C   UNL A   1      43.197  26.718  34.883  1.00  0.00     0.031 C 
ATOM     63  C   UNL A   1      44.397  25.508  32.921  1.00  0.00     0.034 A 
BRANCH  50  64
ATOM     64  C   UNL A   1      44.818  24.476  26.880  1.00  0.00     0.023 A 
ATOM     65  C   UNL A   1      44.484  23.169  26.470  1.00  0.00     0.031 A 
ATOM     66  C   UNL A   1      45.888  25.073  26.188  1.00  0.00     0.131 A 
ATOM     67  C   UNL A   1      45.260  22.476  25.522  1.00  0.00     0.055 A 
ATOM     68  C   UNL A   1      46.705  24.363  25.297  1.00  0.00     0.041 A 
ATOM     69  F   UNL A   1      46.157  26.381  26.310  1.00  0.00    -0.206 F 
ATOM     70  C   UNL A   1      46.403  23.050  24.972  1.00  0.00     0.022 A 
BRANCH  67  71
ATOM     71  S   UNL A   1      44.748  20.815  25.001  1.00  0.00     0.124 S 
ATOM     72  O   UNL A   1      45.906  20.003  25.361  1.00  0.00    -0.237 OA
ATOM     73  O   UNL A   1      43.540  20.604  25.791  1.00  0.00    -0.237 OA
ATOM     74  O   UNL A   1      44.524  20.965  23.564  1.00  0.00    -0.744 OA
ENDBRANCH  67  71
ENDBRANCH  50  64
BRANCH  51  75
ATOM     75  C   UNL A   1      40.062  29.663  33.472  1.00  0.00     0.023 A 
ATOM     76  C   UNL A   1      39.734  30.992  33.823  1.00  0.00     0.031 A 
ATOM     77  C   UNL A   1      39.019  28.808  33.098  1.00  0.00     0.131 A 
ATOM     78  C   UNL A   1      38.438  31.480  33.612  1.00  0.00     0.055 A 
ATOM     79  C   UNL A   1      37.706  29.280  32.967  1.00  0.00     0.041 A 
ATOM     80  F   UNL A   1      39.270  27.542  32.732  1.00  0.00    -0.206 F 
ATOM     81  C   UNL A   1      37.420  30.632  33.176  1.00  0.00     0.022 A 
BRANCH  78  82
ATOM     82  S   UNL A   1      38.163  33.277  33.628  1.00  0.00     0.124 S 
ATOM     83  O   UNL A   1      36.945  33.413  32.840  1.00  0.00    -0.237 OA
ATOM     84  O   UNL A   1      38.035  33.582  35.051  1.00  0.00    -0.237 OA
ATOM     85  O   UNL A   1      39.378  33.812  33.016  1.00  0.00    -0.744 OA
ENDBRANCH  78  82
ENDBRANCH  51  75
BRANCH  63  86
ATOM     86  C   UNL A   1      44.965  24.268  33.586  1.00  0.00     0.023 A 
ATOM     87  C   UNL A   1      46.313  24.125  33.948  1.00  0.00     0.031 A 
ATOM     88  C   UNL A   1      44.120  23.189  33.955  1.00  0.00     0.131 A 
ATOM     89  C   UNL A   1      46.787  22.946  34.555  1.00  0.00     0.055 A 
ATOM     90  C   UNL A   1      44.579  22.052  34.626  1.00  0.00     0.041 A 
ATOM     91  F   UNL A   1      42.807  23.196  33.687  1.00  0.00    -0.206 F 
ATOM     92  C   UNL A   1      45.925  21.915  34.917  1.00  0.00     0.022 A 
BRANCH  89  93
ATOM     93  S   UNL A   1      48.572  22.769  34.814  1.00  0.00     0.124 S 
ATOM     94  O   UNL A   1      49.101  23.882  34.030  1.00  0.00    -0.237 OA
ATOM     95  O   UNL A   1      48.695  22.901  36.262  1.00  0.00    -0.237 OA
ATOM     96  O   UNL A   1      48.870  21.440  34.284  1.00  0.00    -0.744 OA
ENDBRANCH  89  93
ENDBRANCH  63  86
ENDBRANCH  37  38
ENDBRANCH  29  32
ENDBRANCH  27  28
ENDBRANCH   1  27
TORSDOF 16
ENDMDL
