MODEL 1
REMARK VINA RESULT:     -12.2      0.000      0.000
REMARK SMILES O=C(NCCCNC(=O)[C@H]1CC(c2ccc(C(F)(F)F)cc2)=NO1)c1ccc(-c2c3nc(c(-c4cc(S(=O)(=O)[O-])ccc4F)c4ccc([nH]4)c(-c4cc(S(=O)(=O)[O-])ccc4F)c4nc(c(-c5cc(S(=O)(=O)[O-])ccc5F)c5ccc2[nH]5)C=C4)C=C3)cc1
REMARK SMILES IDX 4 1 3 2 1 3 2 4 25 6 26 7 87 8 27 9 86 10 28 11 29 12 30 13
REMARK SMILES IDX 80 14 31 15 85 16 79 17 81 18 32 19 84 20 78 21 77 22 33 24
REMARK SMILES IDX 65 25 45 26 64 27 46 28 49 29 63 30 82 31 47 32 48 33 62 35
REMARK SMILES IDX 83 36 50 37 34 38 35 39 43 40 36 41 42 42 44 43 41 44 37 45
REMARK SMILES IDX 38 46 39 47 40 48 66 49 67 50 75 51 68 52 74 53 76 54 73 55
REMARK SMILES IDX 69 56 70 57 71 58 72 59 51 60 52 61 60 62 53 63 59 64 61 65
REMARK SMILES IDX 58 66 54 67 55 68 56 69 57 70 5 71 6 72 7 73 8 74 9 76 10 77
REMARK SMILES IDX 11 78 24 79 12 80 23 81 13 82 14 83 22 84 15 85 21 86 16 87
REMARK SMILES IDX 17 88 18 89 19 90 20 91
REMARK H PARENT 3 5 81 23 49 34 7 75
REMARK Flexibility Score: inf
ROOT
ATOM      1  C   UNL A   1      33.643  28.638  26.809  1.00  0.00     0.118 C 
ENDROOT
BRANCH   1   2
ATOM      2  N   UNL A   1      33.714  30.081  26.972  1.00  0.00    -0.352 N 
ATOM      3  O   UNL A   1      34.369  32.031  27.873  1.00  0.00    -0.269 OA
ATOM      4  C   UNL A   1      34.623  30.842  27.661  1.00  0.00     0.251 C 
ATOM      5  H   UNL A   1      33.001  30.588  26.520  1.00  0.00     0.163 HD
BRANCH   4   6
ATOM      6  C   UNL A   1      35.890  30.259  28.150  1.00  0.00     0.039 A 
ATOM      7  C   UNL A   1      37.060  30.327  27.386  1.00  0.00     0.014 A 
ATOM      8  C   UNL A   1      35.926  29.694  29.428  1.00  0.00     0.014 A 
ATOM      9  C   UNL A   1      38.233  29.737  27.851  1.00  0.00     0.010 A 
ATOM     10  C   UNL A   1      37.122  29.171  29.926  1.00  0.00     0.010 A 
ATOM     11  C   UNL A   1      38.282  29.174  29.134  1.00  0.00    -0.014 A 
BRANCH  11  12
ATOM     12  C   UNL A   1      39.564  28.649  29.671  1.00  0.00     0.031 A 
ATOM     13  C   UNL A   1      40.295  29.376  30.763  1.00  0.00     0.074 A 
ATOM     14  C   UNL A   1      40.087  27.528  29.137  1.00  0.00     0.049 A 
ATOM     15  N   UNL A   1      41.464  29.118  31.291  1.00  0.00    -0.248 NA
ATOM     16  C   UNL A   1      39.626  30.557  31.324  1.00  0.00     0.031 C 
ATOM     17  C   UNL A   1      39.470  26.743  28.065  1.00  0.00     0.029 A 
ATOM     18  N   UNL A   1      41.255  26.862  29.407  1.00  0.00    -0.354 N 
ATOM     19  C   UNL A   1      41.684  30.115  32.235  1.00  0.00     0.074 A 
ATOM     20  C   UNL A   1      40.539  31.002  32.174  1.00  0.00     0.031 C 
ATOM     21  C   UNL A   1      40.264  25.704  27.771  1.00  0.00     0.029 A 
ATOM     22  C   UNL A   1      41.474  25.785  28.580  1.00  0.00     0.049 A 
ATOM     23  H   UNL A   1      41.877  27.129  30.123  1.00  0.00     0.167 HD
ATOM     24  C   UNL A   1      42.739  30.268  33.076  1.00  0.00     0.034 A 
ATOM     25  C   UNL A   1      42.546  24.981  28.450  1.00  0.00     0.034 A 
ATOM     26  C   UNL A   1      43.875  29.375  33.106  1.00  0.00     0.049 A 
ATOM     27  C   UNL A   1      43.734  25.200  29.345  1.00  0.00     0.074 A 
ATOM     28  C   UNL A   1      44.976  29.407  33.943  1.00  0.00     0.029 A 
ATOM     29  N   UNL A   1      44.068  28.303  32.242  1.00  0.00    -0.354 N 
ATOM     30  N   UNL A   1      43.915  26.125  30.259  1.00  0.00    -0.248 NA
ATOM     31  C   UNL A   1      44.858  24.268  29.199  1.00  0.00     0.031 C 
ATOM     32  C   UNL A   1      45.868  28.407  33.537  1.00  0.00     0.029 A 
ATOM     33  C   UNL A   1      45.287  27.693  32.500  1.00  0.00     0.049 A 
ATOM     34  H   UNL A   1      43.432  28.016  31.547  1.00  0.00     0.167 HD
ATOM     35  C   UNL A   1      45.164  25.872  30.813  1.00  0.00     0.074 A 
ATOM     36  C   UNL A   1      45.691  24.705  30.133  1.00  0.00     0.031 C 
ATOM     37  C   UNL A   1      45.810  26.538  31.804  1.00  0.00     0.034 A 
BRANCH  24  38
ATOM     38  C   UNL A   1      42.729  31.476  33.985  1.00  0.00     0.023 A 
ATOM     39  C   UNL A   1      42.193  31.418  35.283  1.00  0.00     0.031 A 
ATOM     40  C   UNL A   1      43.210  32.717  33.530  1.00  0.00     0.131 A 
ATOM     41  C   UNL A   1      42.055  32.594  36.038  1.00  0.00     0.055 A 
ATOM     42  C   UNL A   1      43.157  33.865  34.323  1.00  0.00     0.041 A 
ATOM     43  F   UNL A   1      43.718  32.842  32.293  1.00  0.00    -0.206 F 
ATOM     44  C   UNL A   1      42.555  33.813  35.577  1.00  0.00     0.022 A 
BRANCH  41  45
ATOM     45  S   UNL A   1      41.042  32.535  37.544  1.00  0.00     0.124 S 
ATOM     46  O   UNL A   1      39.857  31.815  37.079  1.00  0.00    -0.237 OA
ATOM     47  O   UNL A   1      41.901  31.813  38.474  1.00  0.00    -0.237 OA
ATOM     48  O   UNL A   1      40.820  33.944  37.861  1.00  0.00    -0.744 OA
ENDBRANCH  41  45
ENDBRANCH  24  38
BRANCH  25  49
ATOM     49  C   UNL A   1      42.551  23.936  27.389  1.00  0.00     0.023 A 
ATOM     50  C   UNL A   1      41.985  22.671  27.603  1.00  0.00     0.031 A 
ATOM     51  C   UNL A   1      43.101  24.210  26.122  1.00  0.00     0.131 A 
ATOM     52  C   UNL A   1      41.998  21.719  26.572  1.00  0.00     0.055 A 
ATOM     53  C   UNL A   1      43.068  23.277  25.086  1.00  0.00     0.041 A 
ATOM     54  F   UNL A   1      43.644  25.411  25.864  1.00  0.00    -0.206 F 
ATOM     55  C   UNL A   1      42.521  22.019  25.310  1.00  0.00     0.022 A 
BRANCH  52  56
ATOM     56  S   UNL A   1      41.353  20.059  26.912  1.00  0.00     0.124 S 
ATOM     57  O   UNL A   1      42.570  19.256  26.889  1.00  0.00    -0.237 OA
ATOM     58  O   UNL A   1      40.728  20.238  28.218  1.00  0.00    -0.237 OA
ATOM     59  O   UNL A   1      40.425  19.821  25.808  1.00  0.00    -0.744 OA
ENDBRANCH  52  56
ENDBRANCH  25  49
BRANCH  37  60
ATOM     60  C   UNL A   1      47.142  25.989  32.251  1.00  0.00     0.023 A 
ATOM     61  C   UNL A   1      48.339  26.308  31.589  1.00  0.00     0.031 A 
ATOM     62  C   UNL A   1      47.210  25.150  33.378  1.00  0.00     0.131 A 
ATOM     63  C   UNL A   1      49.552  25.764  32.042  1.00  0.00     0.055 A 
ATOM     64  C   UNL A   1      48.424  24.655  33.855  1.00  0.00     0.041 A 
ATOM     65  F   UNL A   1      46.094  24.811  34.044  1.00  0.00    -0.206 F 
ATOM     66  C   UNL A   1      49.603  24.956  33.182  1.00  0.00     0.022 A 
BRANCH  63  67
ATOM     67  S   UNL A   1      51.064  26.083  31.091  1.00  0.00     0.124 S 
ATOM     68  O   UNL A   1      51.218  27.526  31.246  1.00  0.00    -0.237 OA
ATOM     69  O   UNL A   1      52.050  25.258  31.782  1.00  0.00    -0.237 OA
ATOM     70  O   UNL A   1      50.722  25.637  29.742  1.00  0.00    -0.744 OA
ENDBRANCH  63  67
ENDBRANCH  37  60
ENDBRANCH  11  12
ENDBRANCH   4   6
ENDBRANCH   1   2
BRANCH   1  71
ATOM     71  C   UNL A   1      32.292  28.077  27.241  1.00  0.00     0.042 C 
BRANCH  71  72
ATOM     72  C   UNL A   1      31.621  27.200  26.187  1.00  0.00     0.118 C 
BRANCH  72  73
ATOM     73  N   UNL A   1      31.063  25.990  26.764  1.00  0.00    -0.353 N 
ATOM     74  C   UNL A   1      31.347  24.677  26.535  1.00  0.00     0.264 C 
ATOM     75  H   UNL A   1      30.359  26.144  27.435  1.00  0.00     0.163 HD
ATOM     76  O   UNL A   1      30.693  23.845  27.176  1.00  0.00    -0.271 OA
BRANCH  74  77
ATOM     77  C   UNL A   1      32.403  24.218  25.525  1.00  0.00     0.299 C 
ATOM     78  C   UNL A   1      33.044  22.886  25.834  1.00  0.00     0.119 C 
ATOM     79  O   UNL A   1      31.882  24.151  24.199  1.00  0.00    -0.382 OA
ATOM     80  C   UNL A   1      32.770  22.187  24.553  1.00  0.00     0.091 C 
ATOM     81  N   UNL A   1      32.195  22.894  23.635  1.00  0.00    -0.090 NA
BRANCH  80  82
ATOM     82  C   UNL A   1      33.160  20.784  24.342  1.00  0.00    -0.001 A 
ATOM     83  C   UNL A   1      32.303  19.952  23.620  1.00  0.00     0.011 A 
ATOM     84  C   UNL A   1      34.335  20.274  24.903  1.00  0.00     0.011 A 
ATOM     85  C   UNL A   1      32.628  18.606  23.446  1.00  0.00     0.014 A 
ATOM     86  C   UNL A   1      34.648  18.919  24.744  1.00  0.00     0.014 A 
ATOM     87  C   UNL A   1      33.797  18.073  24.017  1.00  0.00     0.056 A 
BRANCH  87  88
ATOM     88  C   UNL A   1      34.115  16.605  23.836  1.00  0.00     0.416 C 
ATOM     89  F   UNL A   1      34.437  16.312  22.543  1.00  0.00    -0.166 F 
ATOM     90  F   UNL A   1      35.189  16.220  24.578  1.00  0.00    -0.166 F 
ATOM     91  F   UNL A   1      33.093  15.776  24.164  1.00  0.00    -0.166 F 
ENDBRANCH  87  88
ENDBRANCH  80  82
ENDBRANCH  74  77
ENDBRANCH  72  73
ENDBRANCH  71  72
ENDBRANCH   1  71
TORSDOF 15
ENDMDL
MODEL 2
REMARK VINA RESULT:     -12.2      2.874      8.078
REMARK SMILES O=C(NCCCNC(=O)[C@H]1CC(c2ccc(C(F)(F)F)cc2)=NO1)c1ccc(-c2c3nc(c(-c4cc(S(=O)(=O)[O-])ccc4F)c4ccc([nH]4)c(-c4cc(S(=O)(=O)[O-])ccc4F)c4nc(c(-c5cc(S(=O)(=O)[O-])ccc5F)c5ccc2[nH]5)C=C4)C=C3)cc1
REMARK SMILES IDX 4 1 3 2 1 3 2 4 25 6 26 7 87 8 27 9 86 10 28 11 29 12 30 13
REMARK SMILES IDX 80 14 31 15 85 16 79 17 81 18 32 19 84 20 78 21 77 22 33 24
REMARK SMILES IDX 65 25 45 26 64 27 46 28 49 29 63 30 82 31 47 32 48 33 62 35
REMARK SMILES IDX 83 36 50 37 34 38 35 39 43 40 36 41 42 42 44 43 41 44 37 45
REMARK SMILES IDX 38 46 39 47 40 48 66 49 67 50 75 51 68 52 74 53 76 54 73 55
REMARK SMILES IDX 69 56 70 57 71 58 72 59 51 60 52 61 60 62 53 63 59 64 61 65
REMARK SMILES IDX 58 66 54 67 55 68 56 69 57 70 5 71 6 72 7 73 8 74 9 76 10 77
REMARK SMILES IDX 11 78 24 79 12 80 23 81 13 82 14 83 22 84 15 85 21 86 16 87
REMARK SMILES IDX 17 88 18 89 19 90 20 91
REMARK H PARENT 3 5 81 23 49 34 7 75
REMARK Flexibility Score: inf
ROOT
ATOM      1  C   UNL A   1      32.886  29.481  25.398  1.00  0.00     0.118 C 
ENDROOT
BRANCH   1   2
ATOM      2  N   UNL A   1      32.415  30.794  25.809  1.00  0.00    -0.352 N 
ATOM      3  O   UNL A   1      32.095  32.539  27.186  1.00  0.00    -0.269 OA
ATOM      4  C   UNL A   1      32.786  31.563  26.881  1.00  0.00     0.251 C 
ATOM      5  H   UNL A   1      31.724  31.190  25.230  1.00  0.00     0.163 HD
BRANCH   4   6
ATOM      6  C   UNL A   1      33.993  31.238  27.672  1.00  0.00     0.039 A 
ATOM      7  C   UNL A   1      34.233  29.936  28.121  1.00  0.00     0.014 A 
ATOM      8  C   UNL A   1      34.937  32.241  27.909  1.00  0.00     0.014 A 
ATOM      9  C   UNL A   1      35.358  29.660  28.896  1.00  0.00     0.010 A 
ATOM     10  C   UNL A   1      36.102  31.947  28.621  1.00  0.00     0.010 A 
ATOM     11  C   UNL A   1      36.314  30.657  29.134  1.00  0.00    -0.014 A 
BRANCH  11  12
ATOM     12  C   UNL A   1      37.567  30.331  29.864  1.00  0.00     0.031 A 
ATOM     13  C   UNL A   1      38.595  29.421  29.257  1.00  0.00     0.074 A 
ATOM     14  C   UNL A   1      37.753  30.832  31.101  1.00  0.00     0.049 A 
ATOM     15  N   UNL A   1      39.701  28.955  29.779  1.00  0.00    -0.248 NA
ATOM     16  C   UNL A   1      38.337  28.966  27.884  1.00  0.00     0.031 C 
ATOM     17  C   UNL A   1      36.817  31.719  31.796  1.00  0.00     0.029 A 
ATOM     18  N   UNL A   1      38.776  30.659  31.998  1.00  0.00    -0.354 N 
ATOM     19  C   UNL A   1      40.264  28.134  28.808  1.00  0.00     0.074 A 
ATOM     20  C   UNL A   1      39.352  28.140  27.681  1.00  0.00     0.031 C 
ATOM     21  C   UNL A   1      37.310  32.013  33.008  1.00  0.00     0.029 A 
ATOM     22  C   UNL A   1      38.558  31.284  33.203  1.00  0.00     0.049 A 
ATOM     23  H   UNL A   1      39.588  30.138  31.798  1.00  0.00     0.167 HD
ATOM     24  C   UNL A   1      41.435  27.449  28.854  1.00  0.00     0.034 A 
ATOM     25  C   UNL A   1      39.254  31.239  34.355  1.00  0.00     0.034 A 
ATOM     26  C   UNL A   1      42.319  27.449  29.996  1.00  0.00     0.049 A 
ATOM     27  C   UNL A   1      40.517  30.425  34.412  1.00  0.00     0.074 A 
ATOM     28  C   UNL A   1      43.549  26.830  30.138  1.00  0.00     0.029 A 
ATOM     29  N   UNL A   1      42.056  28.083  31.206  1.00  0.00    -0.354 N 
ATOM     30  N   UNL A   1      41.058  29.681  33.474  1.00  0.00    -0.248 NA
ATOM     31  C   UNL A   1      41.266  30.446  35.673  1.00  0.00     0.031 C 
ATOM     32  C   UNL A   1      43.990  27.021  31.452  1.00  0.00     0.029 A 
ATOM     33  C   UNL A   1      43.079  27.833  32.109  1.00  0.00     0.049 A 
ATOM     34  H   UNL A   1      41.260  28.629  31.396  1.00  0.00     0.167 HD
ATOM     35  C   UNL A   1      42.224  29.164  34.027  1.00  0.00     0.074 A 
ATOM     36  C   UNL A   1      42.310  29.684  35.377  1.00  0.00     0.031 C 
ATOM     37  C   UNL A   1      43.147  28.345  33.461  1.00  0.00     0.034 A 
BRANCH  24  38
ATOM     38  C   UNL A   1      41.787  26.601  27.652  1.00  0.00     0.023 A 
ATOM     39  C   UNL A   1      41.423  25.244  27.574  1.00  0.00     0.031 A 
ATOM     40  C   UNL A   1      42.545  27.137  26.596  1.00  0.00     0.131 A 
ATOM     41  C   UNL A   1      41.903  24.449  26.522  1.00  0.00     0.055 A 
ATOM     42  C   UNL A   1      42.940  26.363  25.503  1.00  0.00     0.041 A 
ATOM     43  F   UNL A   1      42.938  28.420  26.620  1.00  0.00    -0.206 F 
ATOM     44  C   UNL A   1      42.639  25.004  25.472  1.00  0.00     0.022 A 
BRANCH  41  45
ATOM     45  S   UNL A   1      41.713  22.648  26.648  1.00  0.00     0.124 S 
ATOM     46  O   UNL A   1      42.275  22.198  25.375  1.00  0.00    -0.237 OA
ATOM     47  O   UNL A   1      42.496  22.331  27.837  1.00  0.00    -0.237 OA
ATOM     48  O   UNL A   1      40.269  22.466  26.782  1.00  0.00    -0.744 OA
ENDBRANCH  41  45
ENDBRANCH  24  38
BRANCH  25  49
ATOM     49  C   UNL A   1      38.728  31.947  35.555  1.00  0.00     0.023 A 
ATOM     50  C   UNL A   1      38.148  31.248  36.622  1.00  0.00     0.031 A 
ATOM     51  C   UNL A   1      38.831  33.348  35.657  1.00  0.00     0.131 A 
ATOM     52  C   UNL A   1      37.677  31.953  37.741  1.00  0.00     0.055 A 
ATOM     53  C   UNL A   1      38.405  34.038  36.791  1.00  0.00     0.041 A 
ATOM     54  F   UNL A   1      39.389  34.061  34.666  1.00  0.00    -0.206 F 
ATOM     55  C   UNL A   1      37.816  33.340  37.840  1.00  0.00     0.022 A 
BRANCH  52  56
ATOM     56  S   UNL A   1      36.839  31.032  39.060  1.00  0.00     0.124 S 
ATOM     57  O   UNL A   1      36.730  29.703  38.472  1.00  0.00    -0.237 OA
ATOM     58  O   UNL A   1      37.777  31.168  40.169  1.00  0.00    -0.237 OA
ATOM     59  O   UNL A   1      35.575  31.749  39.226  1.00  0.00    -0.744 OA
ENDBRANCH  52  56
ENDBRANCH  25  49
BRANCH  37  60
ATOM     60  C   UNL A   1      44.360  27.997  34.286  1.00  0.00     0.023 A 
ATOM     61  C   UNL A   1      44.410  26.847  35.092  1.00  0.00     0.031 A 
ATOM     62  C   UNL A   1      45.496  28.826  34.243  1.00  0.00     0.131 A 
ATOM     63  C   UNL A   1      45.562  26.574  35.846  1.00  0.00     0.055 A 
ATOM     64  C   UNL A   1      46.658  28.521  34.953  1.00  0.00     0.041 A 
ATOM     65  F   UNL A   1      45.500  29.940  33.492  1.00  0.00    -0.206 F 
ATOM     66  C   UNL A   1      46.692  27.393  35.767  1.00  0.00     0.022 A 
BRANCH  63  67
ATOM     67  S   UNL A   1      45.551  25.157  36.980  1.00  0.00     0.124 S 
ATOM     68  O   UNL A   1      45.613  24.031  36.054  1.00  0.00    -0.237 OA
ATOM     69  O   UNL A   1      46.746  25.389  37.784  1.00  0.00    -0.237 OA
ATOM     70  O   UNL A   1      44.285  25.301  37.697  1.00  0.00    -0.744 OA
ENDBRANCH  63  67
ENDBRANCH  37  60
ENDBRANCH  11  12
ENDBRANCH   4   6
ENDBRANCH   1   2
BRANCH   1  71
ATOM     71  C   UNL A   1      31.850  28.393  25.654  1.00  0.00     0.042 C 
BRANCH  71  72
ATOM     72  C   UNL A   1      32.337  27.281  26.579  1.00  0.00     0.118 C 
BRANCH  72  73
ATOM     73  N   UNL A   1      31.333  26.247  26.759  1.00  0.00    -0.353 N 
ATOM     74  C   UNL A   1      31.176  25.038  26.151  1.00  0.00     0.264 C 
ATOM     75  H   UNL A   1      30.649  26.454  27.436  1.00  0.00     0.163 HD
ATOM     76  O   UNL A   1      30.206  24.357  26.503  1.00  0.00    -0.271 OA
BRANCH  74  77
ATOM     77  C   UNL A   1      32.125  24.524  25.063  1.00  0.00     0.299 C 
ATOM     78  C   UNL A   1      32.876  23.263  25.416  1.00  0.00     0.119 C 
ATOM     79  O   UNL A   1      31.450  24.297  23.828  1.00  0.00    -0.382 OA
ATOM     80  C   UNL A   1      32.488  22.423  24.255  1.00  0.00     0.091 C 
ATOM     81  N   UNL A   1      31.764  23.003  23.354  1.00  0.00    -0.090 NA
BRANCH  80  82
ATOM     82  C   UNL A   1      32.930  21.025  24.134  1.00  0.00    -0.001 A 
ATOM     83  C   UNL A   1      32.153  20.138  23.386  1.00  0.00     0.011 A 
ATOM     84  C   UNL A   1      34.072  20.572  24.801  1.00  0.00     0.011 A 
ATOM     85  C   UNL A   1      32.526  18.797  23.294  1.00  0.00     0.014 A 
ATOM     86  C   UNL A   1      34.432  19.223  24.724  1.00  0.00     0.014 A 
ATOM     87  C   UNL A   1      33.661  18.322  23.972  1.00  0.00     0.056 A 
BRANCH  87  88
ATOM     88  C   UNL A   1      34.031  16.859  23.879  1.00  0.00     0.416 C 
ATOM     89  F   UNL A   1      34.404  16.510  22.613  1.00  0.00    -0.166 F 
ATOM     90  F   UNL A   1      35.092  16.547  24.673  1.00  0.00    -0.166 F 
ATOM     91  F   UNL A   1      33.026  16.014  24.218  1.00  0.00    -0.166 F 
ENDBRANCH  87  88
ENDBRANCH  80  82
ENDBRANCH  74  77
ENDBRANCH  72  73
ENDBRANCH  71  72
ENDBRANCH   1  71
TORSDOF 15
ENDMDL
MODEL 3
REMARK VINA RESULT:     -12.2      5.094      8.201
REMARK SMILES O=C(NCCCNC(=O)[C@H]1CC(c2ccc(C(F)(F)F)cc2)=NO1)c1ccc(-c2c3nc(c(-c4cc(S(=O)(=O)[O-])ccc4F)c4ccc([nH]4)c(-c4cc(S(=O)(=O)[O-])ccc4F)c4nc(c(-c5cc(S(=O)(=O)[O-])ccc5F)c5ccc2[nH]5)C=C4)C=C3)cc1
REMARK SMILES IDX 4 1 3 2 1 3 2 4 25 6 26 7 87 8 27 9 86 10 28 11 29 12 30 13
REMARK SMILES IDX 80 14 31 15 85 16 79 17 81 18 32 19 84 20 78 21 77 22 33 24
REMARK SMILES IDX 65 25 45 26 64 27 46 28 49 29 63 30 82 31 47 32 48 33 62 35
REMARK SMILES IDX 83 36 50 37 34 38 35 39 43 40 36 41 42 42 44 43 41 44 37 45
REMARK SMILES IDX 38 46 39 47 40 48 66 49 67 50 75 51 68 52 74 53 76 54 73 55
REMARK SMILES IDX 69 56 70 57 71 58 72 59 51 60 52 61 60 62 53 63 59 64 61 65
REMARK SMILES IDX 58 66 54 67 55 68 56 69 57 70 5 71 6 72 7 73 8 74 9 76 10 77
REMARK SMILES IDX 11 78 24 79 12 80 23 81 13 82 14 83 22 84 15 85 21 86 16 87
REMARK SMILES IDX 17 88 18 89 19 90 20 91
REMARK H PARENT 3 5 81 23 49 34 7 75
REMARK Flexibility Score: inf
ROOT
ATOM      1  C   UNL A   1      34.911  33.872  28.033  1.00  0.00     0.118 C 
ENDROOT
BRANCH   1   2
ATOM      2  N   UNL A   1      34.021  32.793  27.636  1.00  0.00    -0.352 N 
ATOM      3  O   UNL A   1      33.444  30.729  26.965  1.00  0.00    -0.269 OA
ATOM      4  C   UNL A   1      34.260  31.446  27.551  1.00  0.00     0.251 C 
ATOM      5  H   UNL A   1      33.109  33.072  27.392  1.00  0.00     0.163 HD
BRANCH   4   6
ATOM      6  C   UNL A   1      35.475  30.848  28.144  1.00  0.00     0.039 A 
ATOM      7  C   UNL A   1      36.750  31.294  27.784  1.00  0.00     0.014 A 
ATOM      8  C   UNL A   1      35.334  29.868  29.131  1.00  0.00     0.014 A 
ATOM      9  C   UNL A   1      37.882  30.690  28.328  1.00  0.00     0.010 A 
ATOM     10  C   UNL A   1      36.467  29.316  29.732  1.00  0.00     0.010 A 
ATOM     11  C   UNL A   1      37.751  29.711  29.324  1.00  0.00    -0.014 A 
BRANCH  11  12
ATOM     12  C   UNL A   1      38.960  29.151  29.983  1.00  0.00     0.031 A 
ATOM     13  C   UNL A   1      39.446  29.703  31.292  1.00  0.00     0.074 A 
ATOM     14  C   UNL A   1      39.640  28.163  29.371  1.00  0.00     0.049 A 
ATOM     15  N   UNL A   1      40.526  29.403  31.967  1.00  0.00    -0.248 NA
ATOM     16  C   UNL A   1      38.613  30.740  31.915  1.00  0.00     0.031 C 
ATOM     17  C   UNL A   1      39.267  27.555  28.091  1.00  0.00     0.029 A 
ATOM     18  N   UNL A   1      40.791  27.507  29.726  1.00  0.00    -0.354 N 
ATOM     19  C   UNL A   1      40.516  30.226  33.087  1.00  0.00     0.074 A 
ATOM     20  C   UNL A   1      39.338  31.064  32.975  1.00  0.00     0.031 C 
ATOM     21  C   UNL A   1      40.169  26.616  27.772  1.00  0.00     0.029 A 
ATOM     22  C   UNL A   1      41.219  26.603  28.784  1.00  0.00     0.049 A 
ATOM     23  H   UNL A   1      41.265  27.669  30.575  1.00  0.00     0.167 HD
ATOM     24  C   UNL A   1      41.403  30.270  34.115  1.00  0.00     0.034 A 
ATOM     25  C   UNL A   1      42.351  25.877  28.712  1.00  0.00     0.034 A 
ATOM     26  C   UNL A   1      42.577  29.433  34.195  1.00  0.00     0.049 A 
ATOM     27  C   UNL A   1      43.356  25.982  29.826  1.00  0.00     0.074 A 
ATOM     28  C   UNL A   1      43.519  29.360  35.207  1.00  0.00     0.029 A 
ATOM     29  N   UNL A   1      42.985  28.537  33.212  1.00  0.00    -0.354 N 
ATOM     30  N   UNL A   1      43.316  26.739  30.899  1.00  0.00    -0.248 NA
ATOM     31  C   UNL A   1      44.550  25.136  29.727  1.00  0.00     0.031 C 
ATOM     32  C   UNL A   1      44.533  28.483  34.803  1.00  0.00     0.029 A 
ATOM     33  C   UNL A   1      44.184  27.941  33.576  1.00  0.00     0.049 A 
ATOM     34  H   UNL A   1      42.495  28.353  32.378  1.00  0.00     0.167 HD
ATOM     35  C   UNL A   1      44.471  26.442  31.614  1.00  0.00     0.074 A 
ATOM     36  C   UNL A   1      45.184  25.434  30.853  1.00  0.00     0.031 C 
ATOM     37  C   UNL A   1      44.894  26.947  32.800  1.00  0.00     0.034 A 
BRANCH  24  38
ATOM     38  C   UNL A   1      41.158  31.298  35.196  1.00  0.00     0.023 A 
ATOM     39  C   UNL A   1      40.054  31.209  36.063  1.00  0.00     0.031 A 
ATOM     40  C   UNL A   1      42.005  32.413  35.327  1.00  0.00     0.131 A 
ATOM     41  C   UNL A   1      39.769  32.262  36.947  1.00  0.00     0.055 A 
ATOM     42  C   UNL A   1      41.769  33.411  36.275  1.00  0.00     0.041 A 
ATOM     43  F   UNL A   1      43.066  32.565  34.519  1.00  0.00    -0.206 F 
ATOM     44  C   UNL A   1      40.632  33.352  37.076  1.00  0.00     0.022 A 
BRANCH  41  45
ATOM     45  S   UNL A   1      38.157  32.272  37.780  1.00  0.00     0.124 S 
ATOM     46  O   UNL A   1      38.548  32.325  39.189  1.00  0.00    -0.237 OA
ATOM     47  O   UNL A   1      37.534  33.478  37.248  1.00  0.00    -0.237 OA
ATOM     48  O   UNL A   1      37.546  31.013  37.359  1.00  0.00    -0.744 OA
ENDBRANCH  41  45
ENDBRANCH  24  38
BRANCH  25  49
ATOM     49  C   UNL A   1      42.605  25.036  27.510  1.00  0.00     0.023 A 
ATOM     50  C   UNL A   1      42.188  23.699  27.449  1.00  0.00     0.031 A 
ATOM     51  C   UNL A   1      43.248  25.582  26.382  1.00  0.00     0.131 A 
ATOM     52  C   UNL A   1      42.435  22.945  26.291  1.00  0.00     0.055 A 
ATOM     53  C   UNL A   1      43.448  24.843  25.217  1.00  0.00     0.041 A 
ATOM     54  F   UNL A   1      43.656  26.861  26.387  1.00  0.00    -0.206 F 
ATOM     55  C   UNL A   1      43.047  23.512  25.169  1.00  0.00     0.022 A 
BRANCH  52  56
ATOM     56  S   UNL A   1      41.977  21.191  26.281  1.00  0.00     0.124 S 
ATOM     57  O   UNL A   1      42.234  20.808  27.664  1.00  0.00    -0.237 OA
ATOM     58  O   UNL A   1      40.575  21.245  25.880  1.00  0.00    -0.237 OA
ATOM     59  O   UNL A   1      42.883  20.608  25.292  1.00  0.00    -0.744 OA
ENDBRANCH  52  56
ENDBRANCH  25  49
BRANCH  37  60
ATOM     60  C   UNL A   1      46.168  26.382  33.377  1.00  0.00     0.023 A 
ATOM     61  C   UNL A   1      46.175  25.237  34.191  1.00  0.00     0.031 A 
ATOM     62  C   UNL A   1      47.401  26.994  33.082  1.00  0.00     0.131 A 
ATOM     63  C   UNL A   1      47.389  24.757  34.708  1.00  0.00     0.055 A 
ATOM     64  C   UNL A   1      48.608  26.481  33.556  1.00  0.00     0.041 A 
ATOM     65  F   UNL A   1      47.449  28.093  32.313  1.00  0.00    -0.206 F 
ATOM     66  C   UNL A   1      48.606  25.360  34.380  1.00  0.00     0.022 A 
BRANCH  63  67
ATOM     67  S   UNL A   1      47.357  23.358  35.863  1.00  0.00     0.124 S 
ATOM     68  O   UNL A   1      48.122  22.350  35.137  1.00  0.00    -0.237 OA
ATOM     69  O   UNL A   1      47.998  23.914  37.049  1.00  0.00    -0.237 OA
ATOM     70  O   UNL A   1      45.931  23.067  36.011  1.00  0.00    -0.744 OA
ENDBRANCH  63  67
ENDBRANCH  37  60
ENDBRANCH  11  12
ENDBRANCH   4   6
ENDBRANCH   1   2
BRANCH   1  71
ATOM     71  C   UNL A   1      34.150  35.149  28.371  1.00  0.00     0.042 C 
BRANCH  71  72
ATOM     72  C   UNL A   1      32.928  34.923  29.258  1.00  0.00     0.118 C 
BRANCH  72  73
ATOM     73  N   UNL A   1      32.738  36.008  30.206  1.00  0.00    -0.353 N 
ATOM     74  C   UNL A   1      33.154  36.151  31.495  1.00  0.00     0.264 C 
ATOM     75  H   UNL A   1      32.220  36.769  29.857  1.00  0.00     0.163 HD
ATOM     76  O   UNL A   1      32.831  37.195  32.074  1.00  0.00    -0.271 OA
BRANCH  74  77
ATOM     77  C   UNL A   1      33.966  35.080  32.232  1.00  0.00     0.299 C 
ATOM     78  C   UNL A   1      35.191  34.591  31.497  1.00  0.00     0.119 C 
ATOM     79  O   UNL A   1      34.381  35.518  33.524  1.00  0.00    -0.382 OA
ATOM     80  C   UNL A   1      36.213  34.847  32.542  1.00  0.00     0.091 C 
ATOM     81  N   UNL A   1      35.768  35.292  33.672  1.00  0.00    -0.090 NA
BRANCH  80  82
ATOM     82  C   UNL A   1      37.641  34.580  32.305  1.00  0.00    -0.001 A 
ATOM     83  C   UNL A   1      38.515  34.597  33.393  1.00  0.00     0.011 A 
ATOM     84  C   UNL A   1      38.127  34.373  31.011  1.00  0.00     0.011 A 
ATOM     85  C   UNL A   1      39.881  34.393  33.189  1.00  0.00     0.014 A 
ATOM     86  C   UNL A   1      39.499  34.189  30.807  1.00  0.00     0.014 A 
ATOM     87  C   UNL A   1      40.388  34.200  31.892  1.00  0.00     0.056 A 
BRANCH  87  88
ATOM     88  C   UNL A   1      41.875  34.007  31.692  1.00  0.00     0.416 C 
ATOM     89  F   UNL A   1      42.254  32.716  31.923  1.00  0.00    -0.166 F 
ATOM     90  F   UNL A   1      42.259  34.279  30.415  1.00  0.00    -0.166 F 
ATOM     91  F   UNL A   1      42.644  34.773  32.504  1.00  0.00    -0.166 F 
ENDBRANCH  87  88
ENDBRANCH  80  82
ENDBRANCH  74  77
ENDBRANCH  72  73
ENDBRANCH  71  72
ENDBRANCH   1  71
TORSDOF 15
ENDMDL
