MODEL 1
REMARK VINA RESULT:     -11.3      0.000      0.000
REMARK SMILES C[C@@H]1SC[C@H](C(=O)NCCCNC(=O)c2ccc(-c3c4nc(c(-c5cc(S(=O)(=O)[O-])ccc5F)c5ccc([nH]5)c(-c5cc(S(=O)(=O)[O-])ccc5F)c5nc(c(-c6cc(S(=O)(=O)[O-])ccc6F)c6ccc3[nH]6)C=C5)C=C4)cc2)N1C(=O)N(C)[C@@H](C)Cc1cccs1
REMARK SMILES IDX 9 1 8 2 6 3 7 4 5 6 1 7 2 8 3 9 78 10 4 11 79 12 80 13 81 14
REMARK SMILES IDX 82 15 83 16 84 17 85 18 86 19 87 20 90 21 88 22 89 23 10 24
REMARK SMILES IDX 11 25 12 26 13 27 14 29 15 30 16 31 77 32 17 33 76 34 18 35
REMARK SMILES IDX 19 36 20 37 70 38 21 39 75 40 69 41 71 42 22 43 74 44 68 45
REMARK SMILES IDX 67 46 23 48 55 49 35 50 54 51 36 52 39 53 53 54 72 55 37 56
REMARK SMILES IDX 38 57 52 59 73 60 40 61 24 62 25 63 33 64 26 65 32 66 34 67
REMARK SMILES IDX 31 68 27 69 28 70 29 71 30 72 56 73 57 74 65 75 58 76 64 77
REMARK SMILES IDX 66 78 63 79 59 80 60 81 61 82 62 83 41 84 42 85 50 86 43 87
REMARK SMILES IDX 49 88 51 89 48 90 44 91 45 92 46 93 47 94
REMARK H PARENT 8 5 12 28 71 47 39 58
REMARK Flexibility Score: inf
ROOT
ATOM      1  C   UNL A   1      31.072  27.603  26.440  1.00  0.00     0.117 C 
ENDROOT
BRANCH   1   2
ATOM      2  N   UNL A   1      30.959  26.239  26.914  1.00  0.00    -0.354 N 
ATOM      3  C   UNL A   1      31.694  25.135  26.617  1.00  0.00     0.243 C 
ATOM      4  O   UNL A   1      31.267  24.056  27.046  1.00  0.00    -0.273 OA
ATOM      5  H   UNL A   1      30.230  26.088  27.559  1.00  0.00     0.163 HD
BRANCH   3   6
ATOM      6  C   UNL A   1      32.870  25.157  25.617  1.00  0.00     0.187 C 
ATOM      7  C   UNL A   1      33.814  22.904  22.909  1.00  0.00     0.043 C 
ATOM      8  C   UNL A   1      33.920  24.269  23.589  1.00  0.00     0.142 C 
ATOM      9  S   UNL A   1      35.161  24.124  24.926  1.00  0.00    -0.135 SA
ATOM     10  N   UNL A   1      32.685  24.792  24.187  1.00  0.00    -0.300 N 
ATOM     11  C   UNL A   1      33.932  24.248  26.225  1.00  0.00     0.107 C 
BRANCH  10  12
ATOM     12  C   UNL A   1      31.584  25.371  23.586  1.00  0.00     0.321 C 
ATOM     13  O   UNL A   1      30.462  24.962  23.907  1.00  0.00    -0.248 OA
BRANCH  12  14
ATOM     14  N   UNL A   1      31.669  26.317  22.588  1.00  0.00    -0.325 N 
ATOM     15  C   UNL A   1      31.951  26.115  21.179  1.00  0.00     0.149 C 
BRANCH  14  16
ATOM     16  C   UNL A   1      31.613  27.753  22.992  1.00  0.00     0.088 C 
ATOM     17  C   UNL A   1      33.001  28.343  23.282  1.00  0.00     0.031 C 
BRANCH  16  18
ATOM     18  C   UNL A   1      30.803  28.651  22.019  1.00  0.00     0.071 C 
BRANCH  18  19
ATOM     19  C   UNL A   1      29.443  29.001  22.569  1.00  0.00     0.007 A 
ATOM     20  C   UNL A   1      28.428  28.149  22.956  1.00  0.00     0.015 A 
ATOM     21  S   UNL A   1      28.979  30.644  22.735  1.00  0.00    -0.149 S 
ATOM     22  C   UNL A   1      27.241  28.851  23.318  1.00  0.00     0.012 A 
ATOM     23  C   UNL A   1      27.402  30.215  23.232  1.00  0.00     0.065 A 
ENDBRANCH  18  19
ENDBRANCH  16  18
ENDBRANCH  14  16
ENDBRANCH  12  14
ENDBRANCH  10  12
ENDBRANCH   3   6
ENDBRANCH   1   2
BRANCH   1  24
ATOM     24  C   UNL A   1      31.921  28.441  27.385  1.00  0.00     0.042 C 
BRANCH  24  25
ATOM     25  C   UNL A   1      32.978  29.282  26.681  1.00  0.00     0.118 C 
BRANCH  25  26
ATOM     26  N   UNL A   1      32.726  30.712  26.796  1.00  0.00    -0.352 N 
ATOM     27  C   UNL A   1      33.480  31.678  27.426  1.00  0.00     0.251 C 
ATOM     28  H   UNL A   1      31.901  31.033  26.365  1.00  0.00     0.163 HD
ATOM     29  O   UNL A   1      33.025  32.799  27.598  1.00  0.00    -0.269 OA
BRANCH  27  30
ATOM     30  C   UNL A   1      34.830  31.326  27.916  1.00  0.00     0.039 A 
ATOM     31  C   UNL A   1      35.833  32.299  27.919  1.00  0.00     0.014 A 
ATOM     32  C   UNL A   1      35.087  30.047  28.413  1.00  0.00     0.014 A 
ATOM     33  C   UNL A   1      37.070  32.014  28.503  1.00  0.00     0.010 A 
ATOM     34  C   UNL A   1      36.284  29.793  29.069  1.00  0.00     0.010 A 
ATOM     35  C   UNL A   1      37.288  30.773  29.125  1.00  0.00    -0.014 A 
BRANCH  35  36
ATOM     36  C   UNL A   1      38.554  30.454  29.837  1.00  0.00     0.031 A 
ATOM     37  C   UNL A   1      39.487  29.429  29.256  1.00  0.00     0.074 A 
ATOM     38  C   UNL A   1      38.796  30.980  31.052  1.00  0.00     0.049 A 
ATOM     39  N   UNL A   1      40.527  28.848  29.797  1.00  0.00    -0.248 NA
ATOM     40  C   UNL A   1      39.174  28.963  27.896  1.00  0.00     0.031 C 
ATOM     41  C   UNL A   1      37.945  31.953  31.739  1.00  0.00     0.029 A 
ATOM     42  N   UNL A   1      39.813  30.743  31.944  1.00  0.00    -0.354 N 
ATOM     43  C   UNL A   1      40.968  27.918  28.861  1.00  0.00     0.074 A 
ATOM     44  C   UNL A   1      40.045  27.979  27.746  1.00  0.00     0.031 C 
ATOM     45  C   UNL A   1      38.472  32.226  32.944  1.00  0.00     0.029 A 
ATOM     46  C   UNL A   1      39.666  31.409  33.138  1.00  0.00     0.049 A 
ATOM     47  H   UNL A   1      40.576  30.152  31.747  1.00  0.00     0.167 HD
ATOM     48  C   UNL A   1      42.050  27.101  28.922  1.00  0.00     0.034 A 
ATOM     49  C   UNL A   1      40.387  31.345  34.276  1.00  0.00     0.034 A 
ATOM     50  C   UNL A   1      42.965  27.075  30.036  1.00  0.00     0.049 A 
ATOM     51  C   UNL A   1      41.584  30.431  34.330  1.00  0.00     0.074 A 
ATOM     52  C   UNL A   1      44.135  26.351  30.175  1.00  0.00     0.029 A 
ATOM     53  N   UNL A   1      42.805  27.798  31.214  1.00  0.00    -0.354 N 
ATOM     54  N   UNL A   1      42.024  29.593  33.419  1.00  0.00    -0.248 NA
ATOM     55  C   UNL A   1      42.387  30.461  35.560  1.00  0.00     0.031 C 
ATOM     56  C   UNL A   1      44.643  26.578  31.460  1.00  0.00     0.029 A 
ATOM     57  C   UNL A   1      43.837  27.510  32.094  1.00  0.00     0.049 A 
ATOM     58  H   UNL A   1      42.067  28.423  31.395  1.00  0.00     0.167 HD
ATOM     59  C   UNL A   1      43.172  29.018  33.955  1.00  0.00     0.074 A 
ATOM     60  C   UNL A   1      43.357  29.606  35.267  1.00  0.00     0.031 C 
ATOM     61  C   UNL A   1      44.005  28.098  33.405  1.00  0.00     0.034 A 
BRANCH  48  62
ATOM     62  C   UNL A   1      42.264  26.151  27.765  1.00  0.00     0.023 A 
ATOM     63  C   UNL A   1      41.692  24.867  27.745  1.00  0.00     0.031 A 
ATOM     64  C   UNL A   1      43.106  26.509  26.697  1.00  0.00     0.131 A 
ATOM     65  C   UNL A   1      42.056  23.952  26.745  1.00  0.00     0.055 A 
ATOM     66  C   UNL A   1      43.386  25.628  25.651  1.00  0.00     0.041 A 
ATOM     67  F   UNL A   1      43.698  27.714  26.665  1.00  0.00    -0.206 F 
ATOM     68  C   UNL A   1      42.879  24.332  25.682  1.00  0.00     0.022 A 
BRANCH  65  69
ATOM     69  S   UNL A   1      41.598  22.210  26.963  1.00  0.00     0.124 S 
ATOM     70  O   UNL A   1      42.560  21.776  27.974  1.00  0.00    -0.237 OA
ATOM     71  O   UNL A   1      40.210  22.302  27.399  1.00  0.00    -0.237 OA
ATOM     72  O   UNL A   1      41.800  21.634  25.636  1.00  0.00    -0.744 OA
ENDBRANCH  65  69
ENDBRANCH  48  62
BRANCH  49  73
ATOM     73  C   UNL A   1      39.976  32.149  35.460  1.00  0.00     0.023 A 
ATOM     74  C   UNL A   1      39.051  31.654  36.391  1.00  0.00     0.031 A 
ATOM     75  C   UNL A   1      40.516  33.429  35.681  1.00  0.00     0.131 A 
ATOM     76  C   UNL A   1      38.675  32.443  37.489  1.00  0.00     0.055 A 
ATOM     77  C   UNL A   1      40.171  34.193  36.798  1.00  0.00     0.041 A 
ATOM     78  F   UNL A   1      41.414  33.944  34.827  1.00  0.00    -0.206 F 
ATOM     79  C   UNL A   1      39.239  33.703  37.707  1.00  0.00     0.022 A 
BRANCH  76  80
ATOM     80  S   UNL A   1      37.402  31.814  38.618  1.00  0.00     0.124 S 
ATOM     81  O   UNL A   1      38.089  31.872  39.903  1.00  0.00    -0.237 OA
ATOM     82  O   UNL A   1      36.321  32.776  38.423  1.00  0.00    -0.237 OA
ATOM     83  O   UNL A   1      37.132  30.470  38.112  1.00  0.00    -0.744 OA
ENDBRANCH  76  80
ENDBRANCH  49  73
BRANCH  61  84
ATOM     84  C   UNL A   1      45.231  27.711  34.196  1.00  0.00     0.023 A 
ATOM     85  C   UNL A   1      45.239  26.615  35.073  1.00  0.00     0.031 A 
ATOM     86  C   UNL A   1      46.421  28.447  34.042  1.00  0.00     0.131 A 
ATOM     87  C   UNL A   1      46.405  26.304  35.791  1.00  0.00     0.055 A 
ATOM     88  C   UNL A   1      47.591  28.101  34.718  1.00  0.00     0.041 A 
ATOM     89  F   UNL A   1      46.466  29.507  33.219  1.00  0.00    -0.206 F 
ATOM     90  C   UNL A   1      47.585  27.029  35.604  1.00  0.00     0.022 A 
BRANCH  87  91
ATOM     91  S   UNL A   1      46.347  24.975  37.024  1.00  0.00     0.124 S 
ATOM     92  O   UNL A   1      47.397  24.078  36.551  1.00  0.00    -0.237 OA
ATOM     93  O   UNL A   1      46.628  25.688  38.267  1.00  0.00    -0.237 OA
ATOM     94  O   UNL A   1      44.987  24.453  36.905  1.00  0.00    -0.744 OA
ENDBRANCH  87  91
ENDBRANCH  61  84
ENDBRANCH  35  36
ENDBRANCH  27  30
ENDBRANCH  25  26
ENDBRANCH  24  25
ENDBRANCH   1  24
TORSDOF 18
ENDMDL
MODEL 2
REMARK VINA RESULT:     -11.1      1.658      7.592
REMARK SMILES C[C@@H]1SC[C@H](C(=O)NCCCNC(=O)c2ccc(-c3c4nc(c(-c5cc(S(=O)(=O)[O-])ccc5F)c5ccc([nH]5)c(-c5cc(S(=O)(=O)[O-])ccc5F)c5nc(c(-c6cc(S(=O)(=O)[O-])ccc6F)c6ccc3[nH]6)C=C5)C=C4)cc2)N1C(=O)N(C)[C@@H](C)Cc1cccs1
REMARK SMILES IDX 9 1 8 2 6 3 7 4 5 6 1 7 2 8 3 9 78 10 4 11 79 12 80 13 81 14
REMARK SMILES IDX 82 15 83 16 84 17 85 18 86 19 87 20 90 21 88 22 89 23 10 24
REMARK SMILES IDX 11 25 12 26 13 27 14 29 15 30 16 31 77 32 17 33 76 34 18 35
REMARK SMILES IDX 19 36 20 37 70 38 21 39 75 40 69 41 71 42 22 43 74 44 68 45
REMARK SMILES IDX 67 46 23 48 55 49 35 50 54 51 36 52 39 53 53 54 72 55 37 56
REMARK SMILES IDX 38 57 52 59 73 60 40 61 24 62 25 63 33 64 26 65 32 66 34 67
REMARK SMILES IDX 31 68 27 69 28 70 29 71 30 72 56 73 57 74 65 75 58 76 64 77
REMARK SMILES IDX 66 78 63 79 59 80 60 81 61 82 62 83 41 84 42 85 50 86 43 87
REMARK SMILES IDX 49 88 51 89 48 90 44 91 45 92 46 93 47 94
REMARK H PARENT 8 5 12 28 71 47 39 58
REMARK Flexibility Score: inf
ROOT
ATOM      1  C   UNL A   1      31.813  27.989  26.436  1.00  0.00     0.117 C 
ENDROOT
BRANCH   1   2
ATOM      2  N   UNL A   1      31.133  26.761  26.791  1.00  0.00    -0.354 N 
ATOM      3  C   UNL A   1      31.404  25.471  26.461  1.00  0.00     0.243 C 
ATOM      4  O   UNL A   1      30.552  24.630  26.771  1.00  0.00    -0.273 OA
ATOM      5  H   UNL A   1      30.343  26.881  27.368  1.00  0.00     0.163 HD
BRANCH   3   6
ATOM      6  C   UNL A   1      32.587  25.071  25.553  1.00  0.00     0.187 C 
ATOM      7  C   UNL A   1      33.081  22.255  23.287  1.00  0.00     0.043 C 
ATOM      8  C   UNL A   1      33.472  23.656  23.759  1.00  0.00     0.142 C 
ATOM      9  S   UNL A   1      34.603  23.462  25.185  1.00  0.00    -0.135 SA
ATOM     10  N   UNL A   1      32.370  24.527  24.185  1.00  0.00    -0.300 N 
ATOM     11  C   UNL A   1      33.393  24.063  26.362  1.00  0.00     0.107 C 
BRANCH  10  12
ATOM     12  C   UNL A   1      31.451  25.228  23.429  1.00  0.00     0.321 C 
ATOM     13  O   UNL A   1      30.256  24.931  23.542  1.00  0.00    -0.248 OA
BRANCH  12  14
ATOM     14  N   UNL A   1      31.797  26.179  22.495  1.00  0.00    -0.325 N 
ATOM     15  C   UNL A   1      32.328  25.977  21.159  1.00  0.00     0.149 C 
BRANCH  14  16
ATOM     16  C   UNL A   1      31.773  27.609  22.924  1.00  0.00     0.088 C 
ATOM     17  C   UNL A   1      33.175  28.163  23.221  1.00  0.00     0.031 C 
BRANCH  16  18
ATOM     18  C   UNL A   1      30.981  28.542  21.968  1.00  0.00     0.071 C 
BRANCH  18  19
ATOM     19  C   UNL A   1      29.603  28.855  22.495  1.00  0.00     0.007 A 
ATOM     20  C   UNL A   1      28.674  27.989  23.035  1.00  0.00     0.015 A 
ATOM     21  S   UNL A   1      28.998  30.458  22.419  1.00  0.00    -0.149 S 
ATOM     22  C   UNL A   1      27.434  28.635  23.317  1.00  0.00     0.012 A 
ATOM     23  C   UNL A   1      27.472  29.978  23.018  1.00  0.00     0.065 A 
ENDBRANCH  18  19
ENDBRANCH  16  18
ENDBRANCH  14  16
ENDBRANCH  12  14
ENDBRANCH  10  12
ENDBRANCH   3   6
ENDBRANCH   1   2
BRANCH   1  24
ATOM     24  C   UNL A   1      33.059  28.189  27.286  1.00  0.00     0.042 C 
BRANCH  24  25
ATOM     25  C   UNL A   1      34.132  29.037  26.615  1.00  0.00     0.118 C 
BRANCH  25  26
ATOM     26  N   UNL A   1      33.931  30.464  26.825  1.00  0.00    -0.352 N 
ATOM     27  C   UNL A   1      34.584  31.315  27.691  1.00  0.00     0.251 C 
ATOM     28  H   UNL A   1      33.230  30.879  26.271  1.00  0.00     0.163 HD
ATOM     29  O   UNL A   1      34.158  32.444  27.882  1.00  0.00    -0.269 OA
BRANCH  27  30
ATOM     30  C   UNL A   1      35.784  30.828  28.404  1.00  0.00     0.039 A 
ATOM     31  C   UNL A   1      35.630  29.980  29.504  1.00  0.00     0.014 A 
ATOM     32  C   UNL A   1      37.060  31.176  27.954  1.00  0.00     0.014 A 
ATOM     33  C   UNL A   1      36.759  29.409  30.098  1.00  0.00     0.010 A 
ATOM     34  C   UNL A   1      38.173  30.542  28.490  1.00  0.00     0.010 A 
ATOM     35  C   UNL A   1      38.036  29.649  29.566  1.00  0.00    -0.014 A 
BRANCH  35  36
ATOM     36  C   UNL A   1      39.257  28.996  30.107  1.00  0.00     0.031 A 
ATOM     37  C   UNL A   1      39.971  29.621  31.273  1.00  0.00     0.074 A 
ATOM     38  C   UNL A   1      39.789  27.932  29.478  1.00  0.00     0.049 A 
ATOM     39  N   UNL A   1      41.151  29.350  31.769  1.00  0.00    -0.248 NA
ATOM     40  C   UNL A   1      39.279  30.737  31.935  1.00  0.00     0.031 C 
ATOM     41  C   UNL A   1      39.211  27.262  28.312  1.00  0.00     0.029 A 
ATOM     42  N   UNL A   1      40.958  27.248  29.707  1.00  0.00    -0.354 N 
ATOM     43  C   UNL A   1      41.359  30.287  32.776  1.00  0.00     0.074 A 
ATOM     44  C   UNL A   1      40.207  31.164  32.775  1.00  0.00     0.031 C 
ATOM     45  C   UNL A   1      40.027  26.267  27.927  1.00  0.00     0.029 A 
ATOM     46  C   UNL A   1      41.211  26.262  28.782  1.00  0.00     0.049 A 
ATOM     47  H   UNL A   1      41.557  27.444  30.464  1.00  0.00     0.167 HD
ATOM     48  C   UNL A   1      42.408  30.394  33.630  1.00  0.00     0.034 A 
ATOM     49  C   UNL A   1      42.288  25.468  28.614  1.00  0.00     0.034 A 
ATOM     50  C   UNL A   1      43.535  29.493  33.623  1.00  0.00     0.049 A 
ATOM     51  C   UNL A   1      43.446  25.600  29.568  1.00  0.00     0.074 A 
ATOM     52  C   UNL A   1      44.614  29.454  34.488  1.00  0.00     0.029 A 
ATOM     53  N   UNL A   1      43.736  28.478  32.695  1.00  0.00    -0.354 N 
ATOM     54  N   UNL A   1      43.612  26.456  30.550  1.00  0.00    -0.248 NA
ATOM     55  C   UNL A   1      44.558  24.656  29.397  1.00  0.00     0.031 C 
ATOM     56  C   UNL A   1      45.500  28.467  34.041  1.00  0.00     0.029 A 
ATOM     57  C   UNL A   1      44.936  27.831  32.947  1.00  0.00     0.049 A 
ATOM     58  H   UNL A   1      43.116  28.251  31.964  1.00  0.00     0.167 HD
ATOM     59  C   UNL A   1      44.833  26.133  31.134  1.00  0.00     0.074 A 
ATOM     60  C   UNL A   1      45.360  25.003  30.394  1.00  0.00     0.031 C 
ATOM     61  C   UNL A   1      45.454  26.710  32.195  1.00  0.00     0.034 A 
BRANCH  48  62
ATOM     62  C   UNL A   1      42.390  31.550  34.606  1.00  0.00     0.023 A 
ATOM     63  C   UNL A   1      41.543  31.559  35.728  1.00  0.00     0.031 A 
ATOM     64  C   UNL A   1      43.183  32.688  34.375  1.00  0.00     0.131 A 
ATOM     65  C   UNL A   1      41.424  32.720  36.508  1.00  0.00     0.055 A 
ATOM     66  C   UNL A   1      43.135  33.803  35.214  1.00  0.00     0.041 A 
ATOM     67  F   UNL A   1      44.000  32.749  33.311  1.00  0.00    -0.206 F 
ATOM     68  C   UNL A   1      42.234  33.834  36.274  1.00  0.00     0.022 A 
BRANCH  65  69
ATOM     69  S   UNL A   1      40.062  32.820  37.702  1.00  0.00     0.124 S 
ATOM     70  O   UNL A   1      39.659  34.219  37.572  1.00  0.00    -0.237 OA
ATOM     71  O   UNL A   1      39.119  31.834  37.188  1.00  0.00    -0.237 OA
ATOM     72  O   UNL A   1      40.695  32.478  38.973  1.00  0.00    -0.744 OA
ENDBRANCH  65  69
ENDBRANCH  48  62
BRANCH  49  73
ATOM     73  C   UNL A   1      42.327  24.502  27.482  1.00  0.00     0.023 A 
ATOM     74  C   UNL A   1      41.632  23.284  27.540  1.00  0.00     0.031 A 
ATOM     75  C   UNL A   1      43.056  24.792  26.315  1.00  0.00     0.131 A 
ATOM     76  C   UNL A   1      41.700  22.389  26.461  1.00  0.00     0.055 A 
ATOM     77  C   UNL A   1      43.086  23.917  25.226  1.00  0.00     0.041 A 
ATOM     78  F   UNL A   1      43.728  25.949  26.205  1.00  0.00    -0.206 F 
ATOM     79  C   UNL A   1      42.411  22.703  25.299  1.00  0.00     0.022 A 
BRANCH  76  80
ATOM     80  S   UNL A   1      40.875  20.781  26.609  1.00  0.00     0.124 S 
ATOM     81  O   UNL A   1      41.795  19.908  25.890  1.00  0.00    -0.237 OA
ATOM     82  O   UNL A   1      40.817  20.601  28.056  1.00  0.00    -0.237 OA
ATOM     83  O   UNL A   1      39.584  21.000  25.960  1.00  0.00    -0.744 OA
ENDBRANCH  76  80
ENDBRANCH  49  73
BRANCH  61  84
ATOM     84  C   UNL A   1      46.750  26.091  32.660  1.00  0.00     0.023 A 
ATOM     85  C   UNL A   1      46.785  25.057  33.610  1.00  0.00     0.031 A 
ATOM     86  C   UNL A   1      47.970  26.534  32.116  1.00  0.00     0.131 A 
ATOM     87  C   UNL A   1      48.019  24.523  34.014  1.00  0.00     0.055 A 
ATOM     88  C   UNL A   1      49.189  25.963  32.482  1.00  0.00     0.041 A 
ATOM     89  F   UNL A   1      47.993  27.522  31.207  1.00  0.00    -0.206 F 
ATOM     90  C   UNL A   1      49.218  24.956  33.442  1.00  0.00     0.022 A 
BRANCH  87  91
ATOM     91  S   UNL A   1      48.048  23.292  35.346  1.00  0.00     0.124 S 
ATOM     92  O   UNL A   1      46.817  23.600  36.069  1.00  0.00    -0.237 OA
ATOM     93  O   UNL A   1      48.056  22.032  34.609  1.00  0.00    -0.237 OA
ATOM     94  O   UNL A   1      49.282  23.594  36.068  1.00  0.00    -0.744 OA
ENDBRANCH  87  91
ENDBRANCH  61  84
ENDBRANCH  35  36
ENDBRANCH  27  30
ENDBRANCH  25  26
ENDBRANCH  24  25
ENDBRANCH   1  24
TORSDOF 18
ENDMDL
MODEL 3
REMARK VINA RESULT:     -11.0      2.335      4.090
REMARK SMILES C[C@@H]1SC[C@H](C(=O)NCCCNC(=O)c2ccc(-c3c4nc(c(-c5cc(S(=O)(=O)[O-])ccc5F)c5ccc([nH]5)c(-c5cc(S(=O)(=O)[O-])ccc5F)c5nc(c(-c6cc(S(=O)(=O)[O-])ccc6F)c6ccc3[nH]6)C=C5)C=C4)cc2)N1C(=O)N(C)[C@@H](C)Cc1cccs1
REMARK SMILES IDX 9 1 8 2 6 3 7 4 5 6 1 7 2 8 3 9 78 10 4 11 79 12 80 13 81 14
REMARK SMILES IDX 82 15 83 16 84 17 85 18 86 19 87 20 90 21 88 22 89 23 10 24
REMARK SMILES IDX 11 25 12 26 13 27 14 29 15 30 16 31 77 32 17 33 76 34 18 35
REMARK SMILES IDX 19 36 20 37 70 38 21 39 75 40 69 41 71 42 22 43 74 44 68 45
REMARK SMILES IDX 67 46 23 48 55 49 35 50 54 51 36 52 39 53 53 54 72 55 37 56
REMARK SMILES IDX 38 57 52 59 73 60 40 61 24 62 25 63 33 64 26 65 32 66 34 67
REMARK SMILES IDX 31 68 27 69 28 70 29 71 30 72 56 73 57 74 65 75 58 76 64 77
REMARK SMILES IDX 66 78 63 79 59 80 60 81 61 82 62 83 41 84 42 85 50 86 43 87
REMARK SMILES IDX 49 88 51 89 48 90 44 91 45 92 46 93 47 94
REMARK H PARENT 8 5 12 28 71 47 39 58
REMARK Flexibility Score: inf
ROOT
ATOM      1  C   UNL A   1      31.691  30.313  26.952  1.00  0.00     0.117 C 
ENDROOT
BRANCH   1   2
ATOM      2  N   UNL A   1      32.872  29.804  26.286  1.00  0.00    -0.354 N 
ATOM      3  C   UNL A   1      32.999  28.913  25.268  1.00  0.00     0.243 C 
ATOM      4  O   UNL A   1      34.147  28.532  25.006  1.00  0.00    -0.273 OA
ATOM      5  H   UNL A   1      33.723  30.162  26.629  1.00  0.00     0.163 HD
BRANCH   3   6
ATOM      6  C   UNL A   1      31.788  28.224  24.603  1.00  0.00     0.187 C 
ATOM      7  C   UNL A   1      31.467  25.085  22.773  1.00  0.00     0.043 C 
ATOM      8  C   UNL A   1      30.822  26.235  23.547  1.00  0.00     0.142 C 
ATOM      9  S   UNL A   1      30.578  27.620  22.375  1.00  0.00    -0.135 SA
ATOM     10  N   UNL A   1      31.583  26.753  24.690  1.00  0.00    -0.300 N 
ATOM     11  C   UNL A   1      31.851  28.627  23.135  1.00  0.00     0.107 C 
BRANCH  10  12
ATOM     12  C   UNL A   1      31.751  26.226  25.956  1.00  0.00     0.321 C 
ATOM     13  O   UNL A   1      31.880  27.011  26.902  1.00  0.00    -0.248 OA
BRANCH  12  14
ATOM     14  N   UNL A   1      31.867  24.877  26.212  1.00  0.00    -0.325 N 
ATOM     15  C   UNL A   1      30.813  23.923  26.504  1.00  0.00     0.149 C 
BRANCH  14  16
ATOM     16  C   UNL A   1      33.244  24.319  26.361  1.00  0.00     0.088 C 
ATOM     17  C   UNL A   1      33.260  22.783  26.405  1.00  0.00     0.031 C 
BRANCH  16  18
ATOM     18  C   UNL A   1      34.264  24.871  25.329  1.00  0.00     0.071 C 
BRANCH  18  19
ATOM     19  C   UNL A   1      35.441  23.947  25.144  1.00  0.00     0.007 A 
ATOM     20  C   UNL A   1      36.504  23.729  25.999  1.00  0.00     0.015 A 
ATOM     21  S   UNL A   1      35.600  23.034  23.701  1.00  0.00    -0.149 S 
ATOM     22  C   UNL A   1      37.486  22.868  25.430  1.00  0.00     0.012 A 
ATOM     23  C   UNL A   1      37.123  22.427  24.178  1.00  0.00     0.065 A 
ENDBRANCH  18  19
ENDBRANCH  16  18
ENDBRANCH  14  16
ENDBRANCH  12  14
ENDBRANCH  10  12
ENDBRANCH   3   6
ENDBRANCH   1   2
BRANCH   1  24
ATOM     24  C   UNL A   1      31.552  31.815  26.744  1.00  0.00     0.042 C 
BRANCH  24  25
ATOM     25  C   UNL A   1      32.828  32.597  27.032  1.00  0.00     0.118 C 
BRANCH  25  26
ATOM     26  N   UNL A   1      32.568  33.873  27.684  1.00  0.00    -0.352 N 
ATOM     27  C   UNL A   1      33.204  34.440  28.767  1.00  0.00     0.251 C 
ATOM     28  H   UNL A   1      31.834  34.404  27.298  1.00  0.00     0.163 HD
ATOM     29  O   UNL A   1      32.733  35.428  29.310  1.00  0.00    -0.269 OA
BRANCH  27  30
ATOM     30  C   UNL A   1      34.445  33.816  29.276  1.00  0.00     0.039 A 
ATOM     31  C   UNL A   1      35.682  34.321  28.868  1.00  0.00     0.014 A 
ATOM     32  C   UNL A   1      34.378  32.762  30.189  1.00  0.00     0.014 A 
ATOM     33  C   UNL A   1      36.854  33.825  29.447  1.00  0.00     0.010 A 
ATOM     34  C   UNL A   1      35.535  32.331  30.825  1.00  0.00     0.010 A 
ATOM     35  C   UNL A   1      36.785  32.859  30.464  1.00  0.00    -0.014 A 
BRANCH  35  36
ATOM     36  C   UNL A   1      37.996  32.365  31.172  1.00  0.00     0.031 A 
ATOM     37  C   UNL A   1      38.792  31.240  30.573  1.00  0.00     0.074 A 
ATOM     38  C   UNL A   1      38.299  32.831  32.399  1.00  0.00     0.049 A 
ATOM     39  N   UNL A   1      39.745  30.518  31.104  1.00  0.00    -0.248 NA
ATOM     40  C   UNL A   1      38.428  30.845  29.203  1.00  0.00     0.031 C 
ATOM     41  C   UNL A   1      37.577  33.891  33.103  1.00  0.00     0.029 A 
ATOM     42  N   UNL A   1      39.273  32.446  33.288  1.00  0.00    -0.354 N 
ATOM     43  C   UNL A   1      40.067  29.558  30.150  1.00  0.00     0.074 A 
ATOM     44  C   UNL A   1      39.165  29.760  29.035  1.00  0.00     0.031 C 
ATOM     45  C   UNL A   1      38.129  34.070  34.314  1.00  0.00     0.029 A 
ATOM     46  C   UNL A   1      39.207  33.102  34.495  1.00  0.00     0.049 A 
ATOM     47  H   UNL A   1      39.954  31.766  33.080  1.00  0.00     0.167 HD
ATOM     48  C   UNL A   1      41.034  28.607  30.196  1.00  0.00     0.034 A 
ATOM     49  C   UNL A   1      39.909  32.923  35.632  1.00  0.00     0.034 A 
ATOM     50  C   UNL A   1      41.933  28.441  31.312  1.00  0.00     0.049 A 
ATOM     51  C   UNL A   1      40.977  31.862  35.670  1.00  0.00     0.074 A 
ATOM     52  C   UNL A   1      42.999  27.569  31.439  1.00  0.00     0.029 A 
ATOM     53  N   UNL A   1      41.862  29.155  32.504  1.00  0.00    -0.354 N 
ATOM     54  N   UNL A   1      41.309  30.992  34.744  1.00  0.00    -0.248 NA
ATOM     55  C   UNL A   1      41.771  31.762  36.902  1.00  0.00     0.031 C 
ATOM     56  C   UNL A   1      43.526  27.703  32.728  1.00  0.00     0.029 A 
ATOM     57  C   UNL A   1      42.844  28.718  33.380  1.00  0.00     0.049 A 
ATOM     58  H   UNL A   1      41.210  29.867  32.696  1.00  0.00     0.167 HD
ATOM     59  C   UNL A   1      42.371  30.263  35.270  1.00  0.00     0.074 A 
ATOM     60  C   UNL A   1      42.624  30.796  36.594  1.00  0.00     0.031 C 
ATOM     61  C   UNL A   1      43.080  29.254  34.703  1.00  0.00     0.034 A 
BRANCH  48  62
ATOM     62  C   UNL A   1      41.129  27.661  29.021  1.00  0.00     0.023 A 
ATOM     63  C   UNL A   1      42.120  27.801  28.034  1.00  0.00     0.031 A 
ATOM     64  C   UNL A   1      40.175  26.643  28.849  1.00  0.00     0.131 A 
ATOM     65  C   UNL A   1      42.070  27.018  26.871  1.00  0.00     0.055 A 
ATOM     66  C   UNL A   1      40.189  25.799  27.736  1.00  0.00     0.041 A 
ATOM     67  F   UNL A   1      39.191  26.466  29.745  1.00  0.00    -0.206 F 
ATOM     68  C   UNL A   1      41.125  25.999  26.726  1.00  0.00     0.022 A 
BRANCH  65  69
ATOM     69  S   UNL A   1      43.128  27.482  25.473  1.00  0.00     0.124 S 
ATOM     70  O   UNL A   1      44.155  28.285  26.134  1.00  0.00    -0.237 OA
ATOM     71  O   UNL A   1      43.561  26.187  24.962  1.00  0.00    -0.237 OA
ATOM     72  O   UNL A   1      42.231  28.233  24.598  1.00  0.00    -0.744 OA
ENDBRANCH  65  69
ENDBRANCH  48  62
BRANCH  49  73
ATOM     73  C   UNL A   1      39.599  33.750  36.831  1.00  0.00     0.023 A 
ATOM     74  C   UNL A   1      38.921  33.209  37.934  1.00  0.00     0.031 A 
ATOM     75  C   UNL A   1      39.991  35.100  36.894  1.00  0.00     0.131 A 
ATOM     76  C   UNL A   1      38.633  34.019  39.043  1.00  0.00     0.055 A 
ATOM     77  C   UNL A   1      39.741  35.890  38.018  1.00  0.00     0.041 A 
ATOM     78  F   UNL A   1      40.654  35.661  35.871  1.00  0.00    -0.206 F 
ATOM     79  C   UNL A   1      39.050  35.352  39.099  1.00  0.00     0.022 A 
BRANCH  76  80
ATOM     80  S   UNL A   1      37.666  33.316  40.408  1.00  0.00     0.124 S 
ATOM     81  O   UNL A   1      37.497  34.474  41.278  1.00  0.00    -0.237 OA
ATOM     82  O   UNL A   1      36.467  32.848  39.720  1.00  0.00    -0.237 OA
ATOM     83  O   UNL A   1      38.533  32.261  40.930  1.00  0.00    -0.744 OA
ENDBRANCH  76  80
ENDBRANCH  49  73
BRANCH  61  84
ATOM     84  C   UNL A   1      44.243  28.696  35.488  1.00  0.00     0.023 A 
ATOM     85  C   UNL A   1      44.091  27.635  36.395  1.00  0.00     0.031 A 
ATOM     86  C   UNL A   1      45.532  29.228  35.299  1.00  0.00     0.131 A 
ATOM     87  C   UNL A   1      45.205  27.160  37.107  1.00  0.00     0.055 A 
ATOM     88  C   UNL A   1      46.644  28.718  35.969  1.00  0.00     0.041 A 
ATOM     89  F   UNL A   1      45.731  30.246  34.446  1.00  0.00    -0.206 F 
ATOM     90  C   UNL A   1      46.482  27.682  36.884  1.00  0.00     0.022 A 
BRANCH  87  91
ATOM     91  S   UNL A   1      44.957  25.889  38.376  1.00  0.00     0.124 S 
ATOM     92  O   UNL A   1      43.961  25.025  37.750  1.00  0.00    -0.237 OA
ATOM     93  O   UNL A   1      46.295  25.322  38.517  1.00  0.00    -0.237 OA
ATOM     94  O   UNL A   1      44.482  26.645  39.533  1.00  0.00    -0.744 OA
ENDBRANCH  87  91
ENDBRANCH  61  84
ENDBRANCH  35  36
ENDBRANCH  27  30
ENDBRANCH  25  26
ENDBRANCH  24  25
ENDBRANCH   1  24
TORSDOF 18
ENDMDL
