MODEL 1
REMARK VINA RESULT:     -14.0      0.000      0.000
REMARK SMILES Cc1ccccc1/[NH+]=C1\S[C@@H](CC(=O)Nc2ccc(C(=O)NCCCNC(=O)c3ccc(-c4c5nc(c(-c6cc(S(=O)(=O)[O-])ccc6F)c6ccc([nH]6)c(-c6cc(S(=O)(=O)[O-])ccc6F)c6nc(c(-c7cc(S(=O)(=O)[O-])ccc7F)c7ccc4[nH]7)C=C6)C=C5)cc3)cc2)C(=O)N1C
REMARK SMILES IDX 23 1 22 2 20 3 21 4 19 6 16 7 17 8 93 9 18 10 92 11 15 12
REMARK SMILES IDX 13 13 14 14 12 16 11 17 8 18 9 19 10 21 96 22 94 23 97 24
REMARK SMILES IDX 95 25 7 26 1 27 2 28 3 29 4 30 6 31 5 32 24 33 25 34 26 35
REMARK SMILES IDX 27 36 28 38 29 39 30 40 91 41 31 42 90 43 32 44 33 45 34 46
REMARK SMILES IDX 84 47 35 48 89 49 83 50 85 51 36 52 88 53 82 54 81 55 37 57
REMARK SMILES IDX 69 58 49 59 68 60 50 61 53 62 67 63 86 64 51 65 52 66 66 68
REMARK SMILES IDX 87 69 54 70 38 71 39 72 47 73 40 74 46 75 48 76 45 77 41 78
REMARK SMILES IDX 42 79 43 80 44 81 70 82 71 83 79 84 72 85 78 86 80 87 77 88
REMARK SMILES IDX 73 89 74 90 75 91 76 92 55 93 56 94 64 95 57 96 63 97 65 98
REMARK SMILES IDX 62 99 58 100 59 101 60 102 61 103
REMARK H PARENT 22 5 15 15 8 20 26 37 85 56 53 67
REMARK Flexibility Score: inf
ROOT
ATOM      1  C   UNL A   1      32.048  31.267  26.563  1.00  0.00     0.118 C 
ENDROOT
BRANCH   1   2
ATOM      2  N   UNL A   1      31.634  30.041  27.246  1.00  0.00    -0.352 N 
ATOM      3  C   UNL A   1      31.773  28.721  26.874  1.00  0.00     0.251 C 
ATOM      4  O   UNL A   1      31.614  27.821  27.696  1.00  0.00    -0.269 OA
ATOM      5  H   UNL A   1      31.186  30.182  28.111  1.00  0.00     0.163 HD
BRANCH   3   6
ATOM      6  C   UNL A   1      32.123  28.339  25.485  1.00  0.00     0.039 A 
ATOM      7  C   UNL A   1      32.718  27.535  22.876  1.00  0.00     0.041 A 
ATOM      8  C   UNL A   1      33.706  27.553  23.857  1.00  0.00     0.027 A 
ATOM      9  C   UNL A   1      31.471  28.085  23.147  1.00  0.00     0.027 A 
ATOM     10  C   UNL A   1      33.415  27.949  25.155  1.00  0.00     0.016 A 
ATOM     11  C   UNL A   1      31.171  28.474  24.462  1.00  0.00     0.016 A 
BRANCH   7  12
ATOM     12  N   UNL A   1      32.979  26.923  21.643  1.00  0.00    -0.326 N 
ATOM     13  C   UNL A   1      32.748  25.594  21.355  1.00  0.00     0.226 C 
ATOM     14  O   UNL A   1      33.220  25.074  20.343  1.00  0.00    -0.275 OA
ATOM     15  H   UNL A   1      33.356  27.485  20.928  1.00  0.00     0.169 HD
BRANCH  13  16
ATOM     16  C   UNL A   1      31.722  24.859  22.208  1.00  0.00     0.128 C 
BRANCH  16  17
ATOM     17  C   UNL A   1      32.275  23.980  23.308  1.00  0.00     0.183 C 
ATOM     18  N   UNL A   1      32.433  20.741  25.137  1.00  0.00    -0.234 N 
ATOM     19  C   UNL A   1      31.996  21.764  24.499  1.00  0.00     0.319 C 
ATOM     20  H   UNL A   1      32.192  20.703  26.091  1.00  0.00     0.313 HD
ATOM     21  S   UNL A   1      32.128  22.216  22.832  1.00  0.00    -0.022 SA
ATOM     22  N   UNL A   1      31.365  22.774  25.166  1.00  0.00    -0.193 N 
ATOM     23  C   UNL A   1      31.592  24.036  24.664  1.00  0.00     0.324 C 
ATOM     24  C   UNL A   1      30.684  22.583  26.430  1.00  0.00     0.301 C 
ATOM     25  O   UNL A   1      31.389  25.074  25.286  1.00  0.00    -0.245 OA
BRANCH  18  26
ATOM     26  C   UNL A   1      33.205  19.671  24.666  1.00  0.00     0.128 A 
ATOM     27  C   UNL A   1      35.560  20.619  25.157  1.00  0.00     0.049 C 
ATOM     28  C   UNL A   1      34.609  19.534  24.741  1.00  0.00    -0.004 A 
ATOM     29  C   UNL A   1      35.202  18.298  24.403  1.00  0.00     0.008 A 
ATOM     30  C   UNL A   1      34.430  17.188  24.074  1.00  0.00     0.001 A 
ATOM     31  C   UNL A   1      32.452  18.536  24.314  1.00  0.00     0.052 A 
ATOM     32  C   UNL A   1      33.050  17.306  24.034  1.00  0.00     0.004 A 
ENDBRANCH  18  26
ENDBRANCH  16  17
ENDBRANCH  13  16
ENDBRANCH   7  12
ENDBRANCH   3   6
ENDBRANCH   1   2
BRANCH   1  33
ATOM     33  C   UNL A   1      33.123  32.056  27.316  1.00  0.00     0.042 C 
BRANCH  33  34
ATOM     34  C   UNL A   1      34.095  31.186  28.109  1.00  0.00     0.118 C 
BRANCH  34  35
ATOM     35  N   UNL A   1      34.636  31.876  29.296  1.00  0.00    -0.352 N 
ATOM     36  C   UNL A   1      35.759  31.571  30.036  1.00  0.00     0.251 C 
ATOM     37  H   UNL A   1      34.126  32.660  29.599  1.00  0.00     0.163 HD
ATOM     38  O   UNL A   1      36.130  32.256  30.970  1.00  0.00    -0.269 OA
BRANCH  36  39
ATOM     39  C   UNL A   1      36.558  30.399  29.610  1.00  0.00     0.039 A 
ATOM     40  C   UNL A   1      36.711  29.341  30.513  1.00  0.00     0.014 A 
ATOM     41  C   UNL A   1      37.361  30.506  28.479  1.00  0.00     0.014 A 
ATOM     42  C   UNL A   1      37.829  28.521  30.403  1.00  0.00     0.010 A 
ATOM     43  C   UNL A   1      38.519  29.757  28.433  1.00  0.00     0.010 A 
ATOM     44  C   UNL A   1      38.790  28.808  29.432  1.00  0.00    -0.014 A 
BRANCH  44  45
ATOM     45  C   UNL A   1      40.166  28.316  29.492  1.00  0.00     0.031 A 
ATOM     46  C   UNL A   1      40.535  26.984  28.965  1.00  0.00     0.074 A 
ATOM     47  C   UNL A   1      41.151  29.126  29.946  1.00  0.00     0.049 A 
ATOM     48  N   UNL A   1      41.624  26.363  29.274  1.00  0.00    -0.248 NA
ATOM     49  C   UNL A   1      39.680  26.216  28.067  1.00  0.00     0.031 C 
ATOM     50  C   UNL A   1      42.591  28.952  29.765  1.00  0.00     0.029 A 
ATOM     51  N   UNL A   1      41.044  30.146  30.888  1.00  0.00    -0.354 N 
ATOM     52  C   UNL A   1      41.749  25.281  28.440  1.00  0.00     0.074 A 
ATOM     53  C   UNL A   1      40.490  25.205  27.736  1.00  0.00     0.031 C 
ATOM     54  C   UNL A   1      43.235  29.621  30.732  1.00  0.00     0.029 A 
ATOM     55  C   UNL A   1      42.236  30.136  31.644  1.00  0.00     0.049 A 
ATOM     56  H   UNL A   1      40.283  30.758  31.004  1.00  0.00     0.167 HD
ATOM     57  C   UNL A   1      42.943  24.630  28.355  1.00  0.00     0.034 A 
ATOM     58  C   UNL A   1      42.215  29.951  32.997  1.00  0.00     0.034 A 
ATOM     59  C   UNL A   1      43.941  25.171  29.273  1.00  0.00     0.049 A 
ATOM     60  C   UNL A   1      42.978  28.729  33.473  1.00  0.00     0.074 A 
ATOM     61  C   UNL A   1      45.022  26.028  29.149  1.00  0.00     0.029 A 
ATOM     62  N   UNL A   1      43.740  25.008  30.628  1.00  0.00    -0.354 N 
ATOM     63  N   UNL A   1      43.598  27.896  32.685  1.00  0.00    -0.248 NA
ATOM     64  C   UNL A   1      43.015  28.296  34.871  1.00  0.00     0.031 C 
ATOM     65  C   UNL A   1      45.460  26.379  30.460  1.00  0.00     0.029 A 
ATOM     66  C   UNL A   1      44.654  25.723  31.373  1.00  0.00     0.049 A 
ATOM     67  H   UNL A   1      43.030  24.447  31.017  1.00  0.00     0.167 HD
ATOM     68  C   UNL A   1      44.002  26.802  33.406  1.00  0.00     0.074 A 
ATOM     69  C   UNL A   1      43.636  27.108  34.776  1.00  0.00     0.031 C 
ATOM     70  C   UNL A   1      44.544  25.693  32.822  1.00  0.00     0.034 A 
BRANCH  57  71
ATOM     71  C   UNL A   1      43.280  23.619  27.289  1.00  0.00     0.023 A 
ATOM     72  C   UNL A   1      42.585  22.394  27.268  1.00  0.00     0.031 A 
ATOM     73  C   UNL A   1      44.258  23.785  26.293  1.00  0.00     0.131 A 
ATOM     74  C   UNL A   1      42.927  21.374  26.363  1.00  0.00     0.055 A 
ATOM     75  C   UNL A   1      44.644  22.747  25.433  1.00  0.00     0.041 A 
ATOM     76  F   UNL A   1      44.845  24.970  26.072  1.00  0.00    -0.206 F 
ATOM     77  C   UNL A   1      43.985  21.528  25.473  1.00  0.00     0.022 A 
BRANCH  74  78
ATOM     78  S   UNL A   1      41.953  19.845  26.360  1.00  0.00     0.124 S 
ATOM     79  O   UNL A   1      42.320  19.240  27.636  1.00  0.00    -0.237 OA
ATOM     80  O   UNL A   1      40.588  20.349  26.252  1.00  0.00    -0.237 OA
ATOM     81  O   UNL A   1      42.443  19.135  25.178  1.00  0.00    -0.744 OA
ENDBRANCH  74  78
ENDBRANCH  57  71
BRANCH  58  82
ATOM     82  C   UNL A   1      40.986  30.517  33.626  1.00  0.00     0.023 A 
ATOM     83  C   UNL A   1      41.003  31.901  33.904  1.00  0.00     0.031 A 
ATOM     84  C   UNL A   1      39.742  29.878  33.546  1.00  0.00     0.131 A 
ATOM     85  C   UNL A   1      39.812  32.636  33.874  1.00  0.00     0.055 A 
ATOM     86  C   UNL A   1      38.547  30.604  33.631  1.00  0.00     0.041 A 
ATOM     87  F   UNL A   1      39.657  28.573  33.250  1.00  0.00    -0.206 F 
ATOM     88  C   UNL A   1      38.579  31.995  33.745  1.00  0.00     0.022 A 
BRANCH  85  89
ATOM     89  S   UNL A   1      39.938  34.439  33.662  1.00  0.00     0.124 S 
ATOM     90  O   UNL A   1      40.631  34.842  34.879  1.00  0.00    -0.237 OA
ATOM     91  O   UNL A   1      40.701  34.555  32.419  1.00  0.00    -0.237 OA
ATOM     92  O   UNL A   1      38.547  34.871  33.552  1.00  0.00    -0.744 OA
ENDBRANCH  85  89
ENDBRANCH  58  82
BRANCH  70  93
ATOM     93  C   UNL A   1      44.965  24.468  33.590  1.00  0.00     0.023 A 
ATOM     94  C   UNL A   1      46.315  24.187  33.852  1.00  0.00     0.031 A 
ATOM     95  C   UNL A   1      44.028  23.502  34.021  1.00  0.00     0.131 A 
ATOM     96  C   UNL A   1      46.681  23.029  34.563  1.00  0.00     0.055 A 
ATOM     97  C   UNL A   1      44.401  22.310  34.647  1.00  0.00     0.041 A 
ATOM     98  F   UNL A   1      42.707  23.694  33.896  1.00  0.00    -0.206 F 
ATOM     99  C   UNL A   1      45.736  22.073  34.933  1.00  0.00     0.022 A 
BRANCH  96 100
ATOM    100  S   UNL A   1      48.408  22.832  35.071  1.00  0.00     0.124 S 
ATOM    101  O   UNL A   1      48.444  23.520  36.357  1.00  0.00    -0.237 OA
ATOM    102  O   UNL A   1      48.534  21.378  35.125  1.00  0.00    -0.237 OA
ATOM    103  O   UNL A   1      49.159  23.478  33.997  1.00  0.00    -0.744 OA
ENDBRANCH  96 100
ENDBRANCH  70  93
ENDBRANCH  44  45
ENDBRANCH  36  39
ENDBRANCH  34  35
ENDBRANCH  33  34
ENDBRANCH   1  33
TORSDOF 17
ENDMDL
MODEL 2
REMARK VINA RESULT:     -14.0      1.646      2.048
REMARK SMILES Cc1ccccc1/[NH+]=C1\S[C@@H](CC(=O)Nc2ccc(C(=O)NCCCNC(=O)c3ccc(-c4c5nc(c(-c6cc(S(=O)(=O)[O-])ccc6F)c6ccc([nH]6)c(-c6cc(S(=O)(=O)[O-])ccc6F)c6nc(c(-c7cc(S(=O)(=O)[O-])ccc7F)c7ccc4[nH]7)C=C6)C=C5)cc3)cc2)C(=O)N1C
REMARK SMILES IDX 23 1 22 2 20 3 21 4 19 6 16 7 17 8 93 9 18 10 92 11 15 12
REMARK SMILES IDX 13 13 14 14 12 16 11 17 8 18 9 19 10 21 96 22 94 23 97 24
REMARK SMILES IDX 95 25 7 26 1 27 2 28 3 29 4 30 6 31 5 32 24 33 25 34 26 35
REMARK SMILES IDX 27 36 28 38 29 39 30 40 91 41 31 42 90 43 32 44 33 45 34 46
REMARK SMILES IDX 84 47 35 48 89 49 83 50 85 51 36 52 88 53 82 54 81 55 37 57
REMARK SMILES IDX 69 58 49 59 68 60 50 61 53 62 67 63 86 64 51 65 52 66 66 68
REMARK SMILES IDX 87 69 54 70 38 71 39 72 47 73 40 74 46 75 48 76 45 77 41 78
REMARK SMILES IDX 42 79 43 80 44 81 70 82 71 83 79 84 72 85 78 86 80 87 77 88
REMARK SMILES IDX 73 89 74 90 75 91 76 92 55 93 56 94 64 95 57 96 63 97 65 98
REMARK SMILES IDX 62 99 58 100 59 101 60 102 61 103
REMARK H PARENT 22 5 15 15 8 20 26 37 85 56 53 67
REMARK Flexibility Score: inf
ROOT
ATOM      1  C   UNL A   1      32.129  31.079  26.899  1.00  0.00     0.118 C 
ENDROOT
BRANCH   1   2
ATOM      2  N   UNL A   1      31.734  29.799  27.489  1.00  0.00    -0.352 N 
ATOM      3  C   UNL A   1      31.816  28.519  26.984  1.00  0.00     0.251 C 
ATOM      4  O   UNL A   1      31.692  27.547  27.725  1.00  0.00    -0.269 OA
ATOM      5  H   UNL A   1      31.349  29.863  28.393  1.00  0.00     0.163 HD
BRANCH   3   6
ATOM      6  C   UNL A   1      32.061  28.268  25.544  1.00  0.00     0.039 A 
ATOM      7  C   UNL A   1      32.470  27.702  22.838  1.00  0.00     0.041 A 
ATOM      8  C   UNL A   1      33.547  27.792  23.716  1.00  0.00     0.027 A 
ATOM      9  C   UNL A   1      31.200  28.067  23.268  1.00  0.00     0.027 A 
ATOM     10  C   UNL A   1      33.349  28.071  25.062  1.00  0.00     0.016 A 
ATOM     11  C   UNL A   1      30.996  28.337  24.631  1.00  0.00     0.016 A 
BRANCH   7  12
ATOM     12  N   UNL A   1      32.672  27.202  21.546  1.00  0.00    -0.326 N 
ATOM     13  C   UNL A   1      32.705  25.864  21.210  1.00  0.00     0.226 C 
ATOM     14  O   UNL A   1      33.123  25.497  20.111  1.00  0.00    -0.275 OA
ATOM     15  H   UNL A   1      32.801  27.856  20.820  1.00  0.00     0.169 HD
BRANCH  13  16
ATOM     16  C   UNL A   1      32.012  24.888  22.152  1.00  0.00     0.128 C 
BRANCH  16  17
ATOM     17  C   UNL A   1      32.778  24.507  23.400  1.00  0.00     0.183 C 
ATOM     18  N   UNL A   1      34.493  21.990  25.541  1.00  0.00    -0.234 N 
ATOM     19  C   UNL A   1      33.655  22.555  24.751  1.00  0.00     0.319 C 
ATOM     20  H   UNL A   1      34.162  21.811  26.451  1.00  0.00     0.313 HD
ATOM     21  S   UNL A   1      33.780  23.005  23.082  1.00  0.00    -0.022 SA
ATOM     22  N   UNL A   1      32.449  22.987  25.220  1.00  0.00    -0.193 N 
ATOM     23  C   UNL A   1      31.973  24.138  24.633  1.00  0.00     0.324 C 
ATOM     24  C   UNL A   1      31.806  22.421  26.389  1.00  0.00     0.301 C 
ATOM     25  O   UNL A   1      31.095  24.847  25.116  1.00  0.00    -0.245 OA
BRANCH  18  26
ATOM     26  C   UNL A   1      35.814  21.593  25.290  1.00  0.00     0.128 A 
ATOM     27  C   UNL A   1      37.025  23.794  25.903  1.00  0.00     0.049 C 
ATOM     28  C   UNL A   1      36.988  22.340  25.528  1.00  0.00    -0.004 A 
ATOM     29  C   UNL A   1      38.245  21.708  25.410  1.00  0.00     0.008 A 
ATOM     30  C   UNL A   1      38.351  20.346  25.143  1.00  0.00     0.001 A 
ATOM     31  C   UNL A   1      35.952  20.223  25.006  1.00  0.00     0.052 A 
ATOM     32  C   UNL A   1      37.201  19.600  24.945  1.00  0.00     0.004 A 
ENDBRANCH  18  26
ENDBRANCH  16  17
ENDBRANCH  13  16
ENDBRANCH   7  12
ENDBRANCH   3   6
ENDBRANCH   1   2
BRANCH   1  33
ATOM     33  C   UNL A   1      33.612  31.409  27.088  1.00  0.00     0.042 C 
BRANCH  33  34
ATOM     34  C   UNL A   1      34.256  30.725  28.291  1.00  0.00     0.118 C 
BRANCH  34  35
ATOM     35  N   UNL A   1      35.135  31.631  29.056  1.00  0.00    -0.352 N 
ATOM     36  C   UNL A   1      36.424  31.417  29.496  1.00  0.00     0.251 C 
ATOM     37  H   UNL A   1      34.747  32.507  29.282  1.00  0.00     0.163 HD
ATOM     38  O   UNL A   1      37.064  32.272  30.079  1.00  0.00    -0.269 OA
BRANCH  36  39
ATOM     39  C   UNL A   1      37.046  30.112  29.174  1.00  0.00     0.039 A 
ATOM     40  C   UNL A   1      37.161  29.165  30.197  1.00  0.00     0.014 A 
ATOM     41  C   UNL A   1      37.751  29.979  27.982  1.00  0.00     0.014 A 
ATOM     42  C   UNL A   1      38.167  28.207  30.116  1.00  0.00     0.010 A 
ATOM     43  C   UNL A   1      38.810  29.094  27.951  1.00  0.00     0.010 A 
ATOM     44  C   UNL A   1      39.062  28.252  29.047  1.00  0.00    -0.014 A 
BRANCH  44  45
ATOM     45  C   UNL A   1      40.375  27.608  29.069  1.00  0.00     0.031 A 
ATOM     46  C   UNL A   1      40.538  26.171  28.755  1.00  0.00     0.074 A 
ATOM     47  C   UNL A   1      41.486  28.351  29.283  1.00  0.00     0.049 A 
ATOM     48  N   UNL A   1      41.580  25.478  29.071  1.00  0.00    -0.248 NA
ATOM     49  C   UNL A   1      39.511  25.379  28.087  1.00  0.00     0.031 C 
ATOM     50  C   UNL A   1      42.870  27.970  29.008  1.00  0.00     0.029 A 
ATOM     51  N   UNL A   1      41.595  29.518  30.036  1.00  0.00    -0.354 N 
ATOM     52  C   UNL A   1      41.495  24.266  28.433  1.00  0.00     0.074 A 
ATOM     53  C   UNL A   1      40.166  24.234  27.869  1.00  0.00     0.031 C 
ATOM     54  C   UNL A   1      43.686  28.703  29.780  1.00  0.00     0.029 A 
ATOM     55  C   UNL A   1      42.854  29.483  30.673  1.00  0.00     0.049 A 
ATOM     56  H   UNL A   1      40.922  30.231  30.109  1.00  0.00     0.167 HD
ATOM     57  C   UNL A   1      42.594  23.465  28.358  1.00  0.00     0.034 A 
ATOM     58  C   UNL A   1      42.961  29.527  32.033  1.00  0.00     0.034 A 
ATOM     59  C   UNL A   1      43.740  24.020  29.074  1.00  0.00     0.049 A 
ATOM     60  C   UNL A   1      43.634  28.315  32.647  1.00  0.00     0.074 A 
ATOM     61  C   UNL A   1      44.887  24.701  28.704  1.00  0.00     0.029 A 
ATOM     62  N   UNL A   1      43.672  24.109  30.449  1.00  0.00    -0.354 N 
ATOM     63  N   UNL A   1      44.071  27.291  31.967  1.00  0.00    -0.248 NA
ATOM     64  C   UNL A   1      43.777  28.116  34.091  1.00  0.00     0.031 C 
ATOM     65  C   UNL A   1      45.502  25.206  29.888  1.00  0.00     0.029 A 
ATOM     66  C   UNL A   1      44.734  24.816  30.970  1.00  0.00     0.049 A 
ATOM     67  H   UNL A   1      42.952  23.714  30.992  1.00  0.00     0.167 HD
ATOM     68  C   UNL A   1      44.430  26.289  32.831  1.00  0.00     0.074 A 
ATOM     69  C   UNL A   1      44.252  26.861  34.153  1.00  0.00     0.031 C 
ATOM     70  C   UNL A   1      44.781  25.040  32.406  1.00  0.00     0.034 A 
BRANCH  57  71
ATOM     71  C   UNL A   1      42.701  22.258  27.462  1.00  0.00     0.023 A 
ATOM     72  C   UNL A   1      43.738  22.207  26.509  1.00  0.00     0.031 A 
ATOM     73  C   UNL A   1      41.834  21.151  27.481  1.00  0.00     0.131 A 
ATOM     74  C   UNL A   1      43.826  21.157  25.579  1.00  0.00     0.055 A 
ATOM     75  C   UNL A   1      41.881  20.138  26.515  1.00  0.00     0.041 A 
ATOM     76  F   UNL A   1      40.938  20.976  28.464  1.00  0.00    -0.206 F 
ATOM     77  C   UNL A   1      42.875  20.143  25.548  1.00  0.00     0.022 A 
BRANCH  74  78
ATOM     78  S   UNL A   1      45.217  21.133  24.417  1.00  0.00     0.124 S 
ATOM     79  O   UNL A   1      45.189  22.485  23.869  1.00  0.00    -0.237 OA
ATOM     80  O   UNL A   1      46.342  20.812  25.289  1.00  0.00    -0.237 OA
ATOM     81  O   UNL A   1      44.850  20.078  23.472  1.00  0.00    -0.744 OA
ENDBRANCH  74  78
ENDBRANCH  57  71
BRANCH  58  82
ATOM     82  C   UNL A   1      41.877  30.339  32.660  1.00  0.00     0.023 A 
ATOM     83  C   UNL A   1      42.016  31.742  32.577  1.00  0.00     0.031 A 
ATOM     84  C   UNL A   1      40.601  29.818  32.909  1.00  0.00     0.131 A 
ATOM     85  C   UNL A   1      40.878  32.556  32.524  1.00  0.00     0.055 A 
ATOM     86  C   UNL A   1      39.477  30.651  32.969  1.00  0.00     0.041 A 
ATOM     87  F   UNL A   1      40.397  28.494  32.963  1.00  0.00    -0.206 F 
ATOM     88  C   UNL A   1      39.606  32.020  32.726  1.00  0.00     0.022 A 
BRANCH  85  89
ATOM     89  S   UNL A   1      41.073  34.236  31.853  1.00  0.00     0.124 S 
ATOM     90  O   UNL A   1      39.752  34.498  31.295  1.00  0.00    -0.237 OA
ATOM     91  O   UNL A   1      41.434  35.008  33.043  1.00  0.00    -0.237 OA
ATOM     92  O   UNL A   1      42.155  34.095  30.882  1.00  0.00    -0.744 OA
ENDBRANCH  85  89
ENDBRANCH  58  82
BRANCH  70  93
ATOM     93  C   UNL A   1      45.148  23.916  33.338  1.00  0.00     0.023 A 
ATOM     94  C   UNL A   1      46.460  23.741  33.806  1.00  0.00     0.031 A 
ATOM     95  C   UNL A   1      44.207  22.936  33.729  1.00  0.00     0.131 A 
ATOM     96  C   UNL A   1      46.777  22.674  34.667  1.00  0.00     0.055 A 
ATOM     97  C   UNL A   1      44.546  21.829  34.511  1.00  0.00     0.041 A 
ATOM     98  F   UNL A   1      42.909  23.036  33.408  1.00  0.00    -0.206 F 
ATOM     99  C   UNL A   1      45.837  21.699  34.996  1.00  0.00     0.022 A 
BRANCH  96 100
ATOM    100  S   UNL A   1      48.423  22.629  35.421  1.00  0.00     0.124 S 
ATOM    101  O   UNL A   1      48.623  24.012  35.838  1.00  0.00    -0.237 OA
ATOM    102  O   UNL A   1      48.225  21.663  36.500  1.00  0.00    -0.237 OA
ATOM    103  O   UNL A   1      49.288  22.173  34.335  1.00  0.00    -0.744 OA
ENDBRANCH  96 100
ENDBRANCH  70  93
ENDBRANCH  44  45
ENDBRANCH  36  39
ENDBRANCH  34  35
ENDBRANCH  33  34
ENDBRANCH   1  33
TORSDOF 17
ENDMDL
MODEL 3
REMARK VINA RESULT:     -13.8      4.057     10.638
REMARK SMILES Cc1ccccc1/[NH+]=C1\S[C@@H](CC(=O)Nc2ccc(C(=O)NCCCNC(=O)c3ccc(-c4c5nc(c(-c6cc(S(=O)(=O)[O-])ccc6F)c6ccc([nH]6)c(-c6cc(S(=O)(=O)[O-])ccc6F)c6nc(c(-c7cc(S(=O)(=O)[O-])ccc7F)c7ccc4[nH]7)C=C6)C=C5)cc3)cc2)C(=O)N1C
REMARK SMILES IDX 23 1 22 2 20 3 21 4 19 6 16 7 17 8 93 9 18 10 92 11 15 12
REMARK SMILES IDX 13 13 14 14 12 16 11 17 8 18 9 19 10 21 96 22 94 23 97 24
REMARK SMILES IDX 95 25 7 26 1 27 2 28 3 29 4 30 6 31 5 32 24 33 25 34 26 35
REMARK SMILES IDX 27 36 28 38 29 39 30 40 91 41 31 42 90 43 32 44 33 45 34 46
REMARK SMILES IDX 84 47 35 48 89 49 83 50 85 51 36 52 88 53 82 54 81 55 37 57
REMARK SMILES IDX 69 58 49 59 68 60 50 61 53 62 67 63 86 64 51 65 52 66 66 68
REMARK SMILES IDX 87 69 54 70 38 71 39 72 47 73 40 74 46 75 48 76 45 77 41 78
REMARK SMILES IDX 42 79 43 80 44 81 70 82 71 83 79 84 72 85 78 86 80 87 77 88
REMARK SMILES IDX 73 89 74 90 75 91 76 92 55 93 56 94 64 95 57 96 63 97 65 98
REMARK SMILES IDX 62 99 58 100 59 101 60 102 61 103
REMARK H PARENT 22 5 15 15 8 20 26 37 85 56 53 67
REMARK Flexibility Score: inf
ROOT
ATOM      1  C   UNL A   1      37.915  20.895  25.452  1.00  0.00     0.118 C 
ENDROOT
BRANCH   1   2
ATOM      2  N   UNL A   1      37.552  21.615  24.231  1.00  0.00    -0.352 N 
ATOM      3  C   UNL A   1      36.475  22.434  23.964  1.00  0.00     0.251 C 
ATOM      4  O   UNL A   1      36.479  23.167  22.979  1.00  0.00    -0.269 OA
ATOM      5  H   UNL A   1      38.177  21.497  23.480  1.00  0.00     0.163 HD
BRANCH   3   6
ATOM      6  C   UNL A   1      35.287  22.467  24.850  1.00  0.00     0.039 A 
ATOM      7  C   UNL A   1      32.986  22.548  26.433  1.00  0.00     0.041 A 
ATOM      8  C   UNL A   1      34.002  23.484  26.607  1.00  0.00     0.027 A 
ATOM      9  C   UNL A   1      33.189  21.462  25.590  1.00  0.00     0.027 A 
ATOM     10  C   UNL A   1      35.146  23.449  25.822  1.00  0.00     0.016 A 
ATOM     11  C   UNL A   1      34.338  21.432  24.786  1.00  0.00     0.016 A 
BRANCH   7  12
ATOM     12  N   UNL A   1      31.756  22.737  27.075  1.00  0.00    -0.326 N 
ATOM     13  C   UNL A   1      30.694  23.451  26.559  1.00  0.00     0.226 C 
ATOM     14  O   UNL A   1      29.744  23.777  27.271  1.00  0.00    -0.275 OA
ATOM     15  H   UNL A   1      31.639  22.328  27.963  1.00  0.00     0.169 HD
BRANCH  13  16
ATOM     16  C   UNL A   1      30.640  23.633  25.047  1.00  0.00     0.128 C 
BRANCH  16  17
ATOM     17  C   UNL A   1      31.098  24.974  24.519  1.00  0.00     0.183 C 
ATOM     18  N   UNL A   1      30.572  28.024  22.450  1.00  0.00    -0.234 N 
ATOM     19  C   UNL A   1      30.580  26.806  22.851  1.00  0.00     0.319 C 
ATOM     20  H   UNL A   1      31.191  28.230  21.712  1.00  0.00     0.313 HD
ATOM     21  S   UNL A   1      29.644  25.993  24.062  1.00  0.00    -0.022 SA
ATOM     22  N   UNL A   1      31.497  25.924  22.358  1.00  0.00    -0.193 N 
ATOM     23  C   UNL A   1      31.943  24.982  23.257  1.00  0.00     0.324 C 
ATOM     24  C   UNL A   1      32.127  26.080  21.063  1.00  0.00     0.301 C 
ATOM     25  O   UNL A   1      32.968  24.323  23.116  1.00  0.00    -0.245 OA
BRANCH  18  26
ATOM     26  C   UNL A   1      29.806  29.102  22.915  1.00  0.00     0.128 A 
ATOM     27  C   UNL A   1      31.286  29.825  24.908  1.00  0.00     0.049 C 
ATOM     28  C   UNL A   1      30.136  29.995  23.957  1.00  0.00    -0.004 A 
ATOM     29  C   UNL A   1      29.345  31.148  24.156  1.00  0.00     0.008 A 
ATOM     30  C   UNL A   1      28.296  31.465  23.299  1.00  0.00     0.001 A 
ATOM     31  C   UNL A   1      28.730  29.440  22.075  1.00  0.00     0.052 A 
ATOM     32  C   UNL A   1      27.989  30.611  22.252  1.00  0.00     0.004 A 
ENDBRANCH  18  26
ENDBRANCH  16  17
ENDBRANCH  13  16
ENDBRANCH   7  12
ENDBRANCH   3   6
ENDBRANCH   1   2
BRANCH   1  33
ATOM     33  C   UNL A   1      39.361  21.134  25.896  1.00  0.00     0.042 C 
BRANCH  33  34
ATOM     34  C   UNL A   1      39.693  22.595  26.188  1.00  0.00     0.118 C 
BRANCH  34  35
ATOM     35  N   UNL A   1      41.141  22.870  26.138  1.00  0.00    -0.352 N 
ATOM     36  C   UNL A   1      41.810  24.039  26.433  1.00  0.00     0.251 C 
ATOM     37  H   UNL A   1      41.706  22.116  25.855  1.00  0.00     0.163 HD
ATOM     38  O   UNL A   1      43.024  24.122  26.402  1.00  0.00    -0.269 OA
BRANCH  36  39
ATOM     39  C   UNL A   1      40.997  25.199  26.866  1.00  0.00     0.039 A 
ATOM     40  C   UNL A   1      41.054  26.367  26.100  1.00  0.00     0.014 A 
ATOM     41  C   UNL A   1      40.452  25.198  28.146  1.00  0.00     0.014 A 
ATOM     42  C   UNL A   1      40.778  27.586  26.713  1.00  0.00     0.010 A 
ATOM     43  C   UNL A   1      40.279  26.414  28.777  1.00  0.00     0.010 A 
ATOM     44  C   UNL A   1      40.507  27.612  28.081  1.00  0.00    -0.014 A 
BRANCH  44  45
ATOM     45  C   UNL A   1      40.631  28.816  28.902  1.00  0.00     0.031 A 
ATOM     46  C   UNL A   1      39.535  29.805  28.996  1.00  0.00     0.074 A 
ATOM     47  C   UNL A   1      41.726  28.992  29.678  1.00  0.00     0.049 A 
ATOM     48  N   UNL A   1      39.691  31.016  29.418  1.00  0.00    -0.248 NA
ATOM     49  C   UNL A   1      38.166  29.521  28.581  1.00  0.00     0.031 C 
ATOM     50  C   UNL A   1      41.878  29.922  30.795  1.00  0.00     0.029 A 
ATOM     51  N   UNL A   1      43.018  28.530  29.438  1.00  0.00    -0.354 N 
ATOM     52  C   UNL A   1      38.447  31.571  29.589  1.00  0.00     0.074 A 
ATOM     53  C   UNL A   1      37.530  30.616  29.010  1.00  0.00     0.031 C 
ATOM     54  C   UNL A   1      43.182  30.173  30.979  1.00  0.00     0.029 A 
ATOM     55  C   UNL A   1      43.905  29.524  29.906  1.00  0.00     0.049 A 
ATOM     56  H   UNL A   1      43.266  27.674  29.022  1.00  0.00     0.167 HD
ATOM     57  C   UNL A   1      38.317  32.727  30.297  1.00  0.00     0.034 A 
ATOM     58  C   UNL A   1      44.805  30.121  29.070  1.00  0.00     0.034 A 
ATOM     59  C   UNL A   1      39.604  33.266  30.728  1.00  0.00     0.049 A 
ATOM     60  C   UNL A   1      44.636  31.622  28.940  1.00  0.00     0.074 A 
ATOM     61  C   UNL A   1      40.319  33.263  31.913  1.00  0.00     0.029 A 
ATOM     62  N   UNL A   1      40.470  33.740  29.763  1.00  0.00    -0.354 N 
ATOM     63  N   UNL A   1      43.712  32.315  29.545  1.00  0.00    -0.248 NA
ATOM     64  C   UNL A   1      45.437  32.448  28.033  1.00  0.00     0.031 C 
ATOM     65  C   UNL A   1      41.635  33.739  31.637  1.00  0.00     0.029 A 
ATOM     66  C   UNL A   1      41.708  34.043  30.290  1.00  0.00     0.049 A 
ATOM     67  H   UNL A   1      40.232  33.848  28.814  1.00  0.00     0.167 HD
ATOM     68  C   UNL A   1      43.707  33.595  29.054  1.00  0.00     0.074 A 
ATOM     69  C   UNL A   1      44.821  33.639  28.126  1.00  0.00     0.031 C 
ATOM     70  C   UNL A   1      42.749  34.509  29.389  1.00  0.00     0.034 A 
BRANCH  57  71
ATOM     71  C   UNL A   1      37.001  33.277  30.783  1.00  0.00     0.023 A 
ATOM     72  C   UNL A   1      36.044  33.691  29.834  1.00  0.00     0.031 A 
ATOM     73  C   UNL A   1      36.630  33.429  32.130  1.00  0.00     0.131 A 
ATOM     74  C   UNL A   1      34.843  34.306  30.226  1.00  0.00     0.055 A 
ATOM     75  C   UNL A   1      35.464  34.100  32.523  1.00  0.00     0.041 A 
ATOM     76  F   UNL A   1      37.353  32.892  33.124  1.00  0.00    -0.206 F 
ATOM     77  C   UNL A   1      34.567  34.554  31.567  1.00  0.00     0.022 A 
BRANCH  74  78
ATOM     78  S   UNL A   1      33.638  34.765  28.952  1.00  0.00     0.124 S 
ATOM     79  O   UNL A   1      32.469  35.130  29.746  1.00  0.00    -0.237 OA
ATOM     80  O   UNL A   1      34.319  35.857  28.264  1.00  0.00    -0.237 OA
ATOM     81  O   UNL A   1      33.492  33.539  28.168  1.00  0.00    -0.744 OA
ENDBRANCH  74  78
ENDBRANCH  57  71
BRANCH  58  82
ATOM     82  C   UNL A   1      45.284  29.196  28.001  1.00  0.00     0.023 A 
ATOM     83  C   UNL A   1      46.284  28.271  28.372  1.00  0.00     0.031 A 
ATOM     84  C   UNL A   1      44.526  28.920  26.856  1.00  0.00     0.131 A 
ATOM     85  C   UNL A   1      46.353  27.024  27.742  1.00  0.00     0.055 A 
ATOM     86  C   UNL A   1      44.679  27.715  26.159  1.00  0.00     0.041 A 
ATOM     87  F   UNL A   1      43.537  29.739  26.472  1.00  0.00    -0.206 F 
ATOM     88  C   UNL A   1      45.559  26.739  26.630  1.00  0.00     0.022 A 
BRANCH  85  89
ATOM     89  S   UNL A   1      47.236  25.689  28.607  1.00  0.00     0.124 S 
ATOM     90  O   UNL A   1      48.470  26.351  29.013  1.00  0.00    -0.237 OA
ATOM     91  O   UNL A   1      46.307  25.345  29.684  1.00  0.00    -0.237 OA
ATOM     92  O   UNL A   1      47.379  24.653  27.588  1.00  0.00    -0.744 OA
ENDBRANCH  85  89
ENDBRANCH  58  82
BRANCH  70  93
ATOM     93  C   UNL A   1      42.706  35.910  28.838  1.00  0.00     0.023 A 
ATOM     94  C   UNL A   1      43.209  37.004  29.559  1.00  0.00     0.031 A 
ATOM     95  C   UNL A   1      42.088  36.204  27.601  1.00  0.00     0.131 A 
ATOM     96  C   UNL A   1      43.144  38.304  29.024  1.00  0.00     0.055 A 
ATOM     97  C   UNL A   1      41.947  37.505  27.115  1.00  0.00     0.041 A 
ATOM     98  F   UNL A   1      41.639  35.236  26.789  1.00  0.00    -0.206 F 
ATOM     99  C   UNL A   1      42.488  38.566  27.823  1.00  0.00     0.022 A 
BRANCH  96 100
ATOM    100  S   UNL A   1      44.010  39.640  29.888  1.00  0.00     0.124 S 
ATOM    101  O   UNL A   1      45.385  39.481  29.429  1.00  0.00    -0.237 OA
ATOM    102  O   UNL A   1      43.306  40.818  29.386  1.00  0.00    -0.237 OA
ATOM    103  O   UNL A   1      43.785  39.342  31.300  1.00  0.00    -0.744 OA
ENDBRANCH  96 100
ENDBRANCH  70  93
ENDBRANCH  44  45
ENDBRANCH  36  39
ENDBRANCH  34  35
ENDBRANCH  33  34
ENDBRANCH   1  33
TORSDOF 17
ENDMDL
