MODEL 1
REMARK VINA RESULT:     -12.6      0.000      0.000
REMARK SMILES O=C(NCCCNC(=O)c1cccc(S(=O)(=O)Nc2ccccc2N2CCOCC2)c1)c1ccc(-c2c3nc(c(-c4cc(S(=O)(=O)[O-])ccc4F)c4ccc([nH]4)c(-c4cc(S(=O)(=O)[O-])ccc4F)c4nc(c(-c5cc(S(=O)(=O)[O-])ccc5F)c5ccc2[nH]5)C=C4)C=C3)cc1
REMARK SMILES IDX 5 1 4 2 3 3 1 4 2 5 32 7 33 8 94 9 34 10 93 11 35 12 36 13
REMARK SMILES IDX 37 14 87 15 38 16 92 17 86 18 88 19 39 20 91 21 85 22 84 23
REMARK SMILES IDX 40 25 72 26 52 27 71 28 53 29 56 30 70 31 89 32 54 33 55 34
REMARK SMILES IDX 69 36 90 37 57 38 41 39 42 40 50 41 43 42 49 43 51 44 48 45
REMARK SMILES IDX 44 46 45 47 46 48 47 49 73 50 74 51 82 52 75 53 81 54 83 55
REMARK SMILES IDX 80 56 76 57 77 58 78 59 79 60 58 61 59 62 67 63 60 64 66 65
REMARK SMILES IDX 68 66 65 67 61 68 62 69 63 70 64 71 6 72 7 73 8 74 9 76
REMARK SMILES IDX 10 77 11 78 31 79 12 80 14 81 13 82 15 83 16 84 17 85 18 86
REMARK SMILES IDX 19 88 20 89 24 90 21 91 23 92 22 93 25 94 26 95 30 96 27 97
REMARK SMILES IDX 29 98 28 99
REMARK H PARENT 3 6 88 24 56 35 7 75 18 87
REMARK Flexibility Score: inf
ROOT
ATOM      1  C   UNL A   1      36.553  22.569  23.620  1.00  0.00     0.042 C 
ENDROOT
BRANCH   1   2
ATOM      2  C   UNL A   1      36.740  22.379  25.113  1.00  0.00     0.118 C 
BRANCH   2   3
ATOM      3  N   UNL A   1      37.580  21.227  25.433  1.00  0.00    -0.352 N 
ATOM      4  O   UNL A   1      39.475  20.114  25.940  1.00  0.00    -0.269 OA
ATOM      5  C   UNL A   1      38.861  21.176  25.939  1.00  0.00     0.251 C 
ATOM      6  H   UNL A   1      37.166  20.351  25.261  1.00  0.00     0.163 HD
BRANCH   5   7
ATOM      7  C   UNL A   1      39.492  22.415  26.442  1.00  0.00     0.039 A 
ATOM      8  C   UNL A   1      39.066  23.644  25.953  1.00  0.00     0.014 A 
ATOM      9  C   UNL A   1      40.534  22.360  27.370  1.00  0.00     0.014 A 
ATOM     10  C   UNL A   1      39.839  24.769  26.160  1.00  0.00     0.010 A 
ATOM     11  C   UNL A   1      41.195  23.540  27.734  1.00  0.00     0.010 A 
ATOM     12  C   UNL A   1      40.880  24.750  27.098  1.00  0.00    -0.014 A 
BRANCH  12  13
ATOM     13  C   UNL A   1      41.539  26.041  27.432  1.00  0.00     0.031 A 
ATOM     14  C   UNL A   1      42.881  26.409  26.864  1.00  0.00     0.074 A 
ATOM     15  C   UNL A   1      40.863  26.911  28.211  1.00  0.00     0.049 A 
ATOM     16  N   UNL A   1      43.580  27.498  27.054  1.00  0.00    -0.248 NA
ATOM     17  C   UNL A   1      43.529  25.429  25.981  1.00  0.00     0.031 C 
ATOM     18  C   UNL A   1      39.548  26.655  28.812  1.00  0.00     0.029 A 
ATOM     19  N   UNL A   1      41.153  28.191  28.604  1.00  0.00    -0.354 N 
ATOM     20  C   UNL A   1      44.763  27.326  26.343  1.00  0.00     0.074 A 
ATOM     21  C   UNL A   1      44.695  26.013  25.737  1.00  0.00     0.031 C 
ATOM     22  C   UNL A   1      39.112  27.765  29.417  1.00  0.00     0.029 A 
ATOM     23  C   UNL A   1      40.161  28.770  29.361  1.00  0.00     0.049 A 
ATOM     24  H   UNL A   1      41.990  28.652  28.366  1.00  0.00     0.167 HD
ATOM     25  C   UNL A   1      45.802  28.189  26.213  1.00  0.00     0.034 A 
ATOM     26  C   UNL A   1      40.112  29.962  29.983  1.00  0.00     0.034 A 
ATOM     27  C   UNL A   1      45.835  29.499  26.823  1.00  0.00     0.049 A 
ATOM     28  C   UNL A   1      41.295  30.876  29.857  1.00  0.00     0.074 A 
ATOM     29  C   UNL A   1      46.825  30.463  26.739  1.00  0.00     0.029 A 
ATOM     30  N   UNL A   1      44.839  30.029  27.636  1.00  0.00    -0.354 N 
ATOM     31  N   UNL A   1      42.409  30.692  29.187  1.00  0.00    -0.248 NA
ATOM     32  C   UNL A   1      41.218  32.153  30.571  1.00  0.00     0.031 C 
ATOM     33  C   UNL A   1      46.464  31.537  27.561  1.00  0.00     0.029 A 
ATOM     34  C   UNL A   1      45.208  31.288  28.088  1.00  0.00     0.049 A 
ATOM     35  H   UNL A   1      43.994  29.575  27.859  1.00  0.00     0.167 HD
ATOM     36  C   UNL A   1      43.163  31.842  29.388  1.00  0.00     0.074 A 
ATOM     37  C   UNL A   1      42.360  32.722  30.217  1.00  0.00     0.031 C 
ATOM     38  C   UNL A   1      44.405  32.144  28.930  1.00  0.00     0.034 A 
BRANCH  25  39
ATOM     39  C   UNL A   1      47.009  27.722  25.431  1.00  0.00     0.023 A 
ATOM     40  C   UNL A   1      47.187  28.033  24.072  1.00  0.00     0.031 A 
ATOM     41  C   UNL A   1      47.997  26.941  26.059  1.00  0.00     0.131 A 
ATOM     42  C   UNL A   1      48.288  27.515  23.372  1.00  0.00     0.055 A 
ATOM     43  C   UNL A   1      49.131  26.494  25.377  1.00  0.00     0.041 A 
ATOM     44  F   UNL A   1      47.875  26.591  27.350  1.00  0.00    -0.206 F 
ATOM     45  C   UNL A   1      49.275  26.770  24.022  1.00  0.00     0.022 A 
BRANCH  42  46
ATOM     46  S   UNL A   1      48.343  27.714  21.569  1.00  0.00     0.124 S 
ATOM     47  O   UNL A   1      48.634  26.350  21.131  1.00  0.00    -0.237 OA
ATOM     48  O   UNL A   1      47.006  28.209  21.265  1.00  0.00    -0.237 OA
ATOM     49  O   UNL A   1      49.428  28.672  21.363  1.00  0.00    -0.744 OA
ENDBRANCH  42  46
ENDBRANCH  25  39
BRANCH  26  50
ATOM     50  C   UNL A   1      38.933  30.319  30.824  1.00  0.00     0.023 A 
ATOM     51  C   UNL A   1      37.915  31.149  30.334  1.00  0.00     0.031 A 
ATOM     52  C   UNL A   1      38.817  29.841  32.143  1.00  0.00     0.131 A 
ATOM     53  C   UNL A   1      36.846  31.509  31.170  1.00  0.00     0.055 A 
ATOM     54  C   UNL A   1      37.720  30.149  32.948  1.00  0.00     0.041 A 
ATOM     55  F   UNL A   1      39.761  29.040  32.662  1.00  0.00    -0.206 F 
ATOM     56  C   UNL A   1      36.733  31.000  32.466  1.00  0.00     0.022 A 
BRANCH  53  57
ATOM     57  S   UNL A   1      35.647  32.728  30.568  1.00  0.00     0.124 S 
ATOM     58  O   UNL A   1      36.228  33.977  31.047  1.00  0.00    -0.237 OA
ATOM     59  O   UNL A   1      35.692  32.510  29.127  1.00  0.00    -0.237 OA
ATOM     60  O   UNL A   1      34.401  32.329  31.219  1.00  0.00    -0.744 OA
ENDBRANCH  53  57
ENDBRANCH  26  50
BRANCH  38  61
ATOM     61  C   UNL A   1      44.944  33.506  29.293  1.00  0.00     0.023 A 
ATOM     62  C   UNL A   1      44.722  34.629  28.478  1.00  0.00     0.031 A 
ATOM     63  C   UNL A   1      45.718  33.670  30.454  1.00  0.00     0.131 A 
ATOM     64  C   UNL A   1      45.325  35.853  28.800  1.00  0.00     0.055 A 
ATOM     65  C   UNL A   1      46.258  34.908  30.806  1.00  0.00     0.041 A 
ATOM     66  F   UNL A   1      45.967  32.629  31.264  1.00  0.00    -0.206 F 
ATOM     67  C   UNL A   1      46.076  36.005  29.969  1.00  0.00     0.022 A 
BRANCH  64  68
ATOM     68  S   UNL A   1      45.210  37.218  27.611  1.00  0.00     0.124 S 
ATOM     69  O   UNL A   1      43.826  37.110  27.160  1.00  0.00    -0.237 OA
ATOM     70  O   UNL A   1      45.521  38.379  28.438  1.00  0.00    -0.237 OA
ATOM     71  O   UNL A   1      46.218  36.884  26.606  1.00  0.00    -0.744 OA
ENDBRANCH  64  68
ENDBRANCH  38  61
ENDBRANCH  12  13
ENDBRANCH   5   7
ENDBRANCH   2   3
ENDBRANCH   1   2
BRANCH   1  72
ATOM     72  C   UNL A   1      35.241  23.247  23.306  1.00  0.00     0.118 C 
BRANCH  72  73
ATOM     73  N   UNL A   1      34.197  22.281  22.963  1.00  0.00    -0.352 N 
ATOM     74  C   UNL A   1      33.163  21.798  23.720  1.00  0.00     0.251 C 
ATOM     75  H   UNL A   1      34.247  21.922  22.048  1.00  0.00     0.163 HD
ATOM     76  O   UNL A   1      32.511  20.833  23.329  1.00  0.00    -0.269 OA
BRANCH  74  77
ATOM     77  C   UNL A   1      32.760  22.499  24.956  1.00  0.00     0.041 A 
ATOM     78  C   UNL A   1      33.134  22.023  26.210  1.00  0.00     0.014 A 
ATOM     79  C   UNL A   1      31.870  23.564  24.862  1.00  0.00     0.036 A 
ATOM     80  C   UNL A   1      32.636  22.651  27.356  1.00  0.00     0.002 A 
ATOM     81  C   UNL A   1      31.330  24.163  25.986  1.00  0.00     0.088 A 
ATOM     82  C   UNL A   1      31.733  23.723  27.248  1.00  0.00     0.022 A 
BRANCH  81  83
ATOM     83  S   UNL A   1      30.252  25.550  25.755  1.00  0.00     0.261 S 
ATOM     84  O   UNL A   1      29.077  25.325  26.576  1.00  0.00    -0.201 OA
ATOM     85  O   UNL A   1      31.048  26.744  25.930  1.00  0.00    -0.201 OA
BRANCH  83  86
ATOM     86  N   UNL A   1      29.664  25.579  24.151  1.00  0.00    -0.278 N 
ATOM     87  H   UNL A   1      29.667  24.756  23.611  1.00  0.00     0.180 HD
BRANCH  86  88
ATOM     88  C   UNL A   1      29.161  26.814  23.586  1.00  0.00     0.072 A 
ATOM     89  C   UNL A   1      27.858  27.238  23.874  1.00  0.00     0.029 A 
ATOM     90  C   UNL A   1      30.044  27.635  22.832  1.00  0.00     0.061 A 
ATOM     91  C   UNL A   1      27.413  28.480  23.415  1.00  0.00     0.002 A 
ATOM     92  C   UNL A   1      29.581  28.893  22.420  1.00  0.00     0.028 A 
ATOM     93  C   UNL A   1      28.275  29.309  22.698  1.00  0.00     0.002 A 
BRANCH  90  94
ATOM     94  N   UNL A   1      31.326  27.210  22.543  1.00  0.00    -0.365 N 
ATOM     95  C   UNL A   1      31.527  26.333  21.385  1.00  0.00     0.145 C 
ATOM     96  C   UNL A   1      32.539  27.883  23.012  1.00  0.00     0.145 C 
ATOM     97  C   UNL A   1      32.633  25.325  21.715  1.00  0.00     0.181 C 
ATOM     98  C   UNL A   1      33.623  26.814  23.260  1.00  0.00     0.181 C 
ATOM     99  O   UNL A   1      33.850  25.997  22.094  1.00  0.00    -0.378 OA
ENDBRANCH  90  94
ENDBRANCH  86  88
ENDBRANCH  83  86
ENDBRANCH  81  83
ENDBRANCH  74  77
ENDBRANCH  72  73
ENDBRANCH   1  72
TORSDOF 17
ENDMDL
MODEL 2
REMARK VINA RESULT:     -12.5      2.313      8.030
REMARK SMILES O=C(NCCCNC(=O)c1cccc(S(=O)(=O)Nc2ccccc2N2CCOCC2)c1)c1ccc(-c2c3nc(c(-c4cc(S(=O)(=O)[O-])ccc4F)c4ccc([nH]4)c(-c4cc(S(=O)(=O)[O-])ccc4F)c4nc(c(-c5cc(S(=O)(=O)[O-])ccc5F)c5ccc2[nH]5)C=C4)C=C3)cc1
REMARK SMILES IDX 5 1 4 2 3 3 1 4 2 5 32 7 33 8 94 9 34 10 93 11 35 12 36 13
REMARK SMILES IDX 37 14 87 15 38 16 92 17 86 18 88 19 39 20 91 21 85 22 84 23
REMARK SMILES IDX 40 25 72 26 52 27 71 28 53 29 56 30 70 31 89 32 54 33 55 34
REMARK SMILES IDX 69 36 90 37 57 38 41 39 42 40 50 41 43 42 49 43 51 44 48 45
REMARK SMILES IDX 44 46 45 47 46 48 47 49 73 50 74 51 82 52 75 53 81 54 83 55
REMARK SMILES IDX 80 56 76 57 77 58 78 59 79 60 58 61 59 62 67 63 60 64 66 65
REMARK SMILES IDX 68 66 65 67 61 68 62 69 63 70 64 71 6 72 7 73 8 74 9 76
REMARK SMILES IDX 10 77 11 78 31 79 12 80 14 81 13 82 15 83 16 84 17 85 18 86
REMARK SMILES IDX 19 88 20 89 24 90 21 91 23 92 22 93 25 94 26 95 30 96 27 97
REMARK SMILES IDX 29 98 28 99
REMARK H PARENT 3 6 88 24 56 35 7 75 18 87
REMARK Flexibility Score: inf
ROOT
ATOM      1  C   UNL A   1      38.610  19.427  25.204  1.00  0.00     0.042 C 
ENDROOT
BRANCH   1   2
ATOM      2  C   UNL A   1      39.684  19.872  26.176  1.00  0.00     0.118 C 
BRANCH   2   3
ATOM      3  N   UNL A   1      40.929  19.121  26.022  1.00  0.00    -0.352 N 
ATOM      4  O   UNL A   1      43.129  18.800  25.642  1.00  0.00    -0.269 OA
ATOM      5  C   UNL A   1      42.234  19.563  25.992  1.00  0.00     0.251 C 
ATOM      6  H   UNL A   1      40.817  18.148  25.927  1.00  0.00     0.163 HD
BRANCH   5   7
ATOM      7  C   UNL A   1      42.533  20.966  26.348  1.00  0.00     0.039 A 
ATOM      8  C   UNL A   1      42.504  21.942  25.359  1.00  0.00     0.014 A 
ATOM      9  C   UNL A   1      42.881  21.312  27.655  1.00  0.00     0.014 A 
ATOM     10  C   UNL A   1      43.080  23.174  25.595  1.00  0.00     0.010 A 
ATOM     11  C   UNL A   1      43.280  22.626  27.937  1.00  0.00     0.010 A 
ATOM     12  C   UNL A   1      43.424  23.558  26.898  1.00  0.00    -0.014 A 
BRANCH  12  13
ATOM     13  C   UNL A   1      43.843  24.967  27.121  1.00  0.00     0.031 A 
ATOM     14  C   UNL A   1      42.918  25.972  27.747  1.00  0.00     0.074 A 
ATOM     15  C   UNL A   1      45.111  25.305  26.806  1.00  0.00     0.049 A 
ATOM     16  N   UNL A   1      43.138  27.234  28.013  1.00  0.00    -0.248 NA
ATOM     17  C   UNL A   1      41.570  25.512  28.110  1.00  0.00     0.031 C 
ATOM     18  C   UNL A   1      46.095  24.403  26.197  1.00  0.00     0.029 A 
ATOM     19  N   UNL A   1      45.808  26.471  26.983  1.00  0.00    -0.354 N 
ATOM     20  C   UNL A   1      41.952  27.729  28.546  1.00  0.00     0.074 A 
ATOM     21  C   UNL A   1      41.007  26.633  28.540  1.00  0.00     0.031 C 
ATOM     22  C   UNL A   1      47.281  25.017  26.133  1.00  0.00     0.029 A 
ATOM     23  C   UNL A   1      47.119  26.392  26.576  1.00  0.00     0.049 A 
ATOM     24  H   UNL A   1      45.409  27.286  27.366  1.00  0.00     0.167 HD
ATOM     25  C   UNL A   1      41.688  28.982  28.994  1.00  0.00     0.034 A 
ATOM     26  C   UNL A   1      48.082  27.331  26.518  1.00  0.00     0.034 A 
ATOM     27  C   UNL A   1      42.658  30.053  28.995  1.00  0.00     0.049 A 
ATOM     28  C   UNL A   1      47.745  28.719  26.981  1.00  0.00     0.074 A 
ATOM     29  C   UNL A   1      42.505  31.353  29.447  1.00  0.00     0.029 A 
ATOM     30  N   UNL A   1      43.960  29.954  28.516  1.00  0.00    -0.354 N 
ATOM     31  N   UNL A   1      46.615  29.170  27.473  1.00  0.00    -0.248 NA
ATOM     32  C   UNL A   1      48.808  29.722  26.878  1.00  0.00     0.031 C 
ATOM     33  C   UNL A   1      43.683  32.056  29.170  1.00  0.00     0.029 A 
ATOM     34  C   UNL A   1      44.606  31.177  28.629  1.00  0.00     0.049 A 
ATOM     35  H   UNL A   1      44.364  29.134  28.150  1.00  0.00     0.167 HD
ATOM     36  C   UNL A   1      46.836  30.513  27.753  1.00  0.00     0.074 A 
ATOM     37  C   UNL A   1      48.217  30.785  27.402  1.00  0.00     0.031 C 
ATOM     38  C   UNL A   1      45.977  31.437  28.255  1.00  0.00     0.034 A 
BRANCH  25  39
ATOM     39  C   UNL A   1      40.281  29.276  29.465  1.00  0.00     0.023 A 
ATOM     40  C   UNL A   1      39.953  29.375  30.828  1.00  0.00     0.031 A 
ATOM     41  C   UNL A   1      39.246  29.452  28.528  1.00  0.00     0.131 A 
ATOM     42  C   UNL A   1      38.618  29.578  31.216  1.00  0.00     0.055 A 
ATOM     43  C   UNL A   1      37.934  29.733  28.918  1.00  0.00     0.041 A 
ATOM     44  F   UNL A   1      39.490  29.348  27.211  1.00  0.00    -0.206 F 
ATOM     45  C   UNL A   1      37.612  29.784  30.269  1.00  0.00     0.022 A 
BRANCH  42  46
ATOM     46  S   UNL A   1      38.193  29.434  32.974  1.00  0.00     0.124 S 
ATOM     47  O   UNL A   1      37.403  28.205  32.986  1.00  0.00    -0.237 OA
ATOM     48  O   UNL A   1      39.503  29.356  33.610  1.00  0.00    -0.237 OA
ATOM     49  O   UNL A   1      37.437  30.656  33.245  1.00  0.00    -0.744 OA
ENDBRANCH  42  46
ENDBRANCH  25  39
BRANCH  26  50
ATOM     50  C   UNL A   1      49.418  27.000  25.947  1.00  0.00     0.023 A 
ATOM     51  C   UNL A   1      49.789  27.431  24.666  1.00  0.00     0.031 A 
ATOM     52  C   UNL A   1      50.343  26.230  26.677  1.00  0.00     0.131 A 
ATOM     53  C   UNL A   1      51.035  27.055  24.137  1.00  0.00     0.055 A 
ATOM     54  C   UNL A   1      51.605  25.914  26.173  1.00  0.00     0.041 A 
ATOM     55  F   UNL A   1      50.042  25.793  27.911  1.00  0.00    -0.206 F 
ATOM     56  C   UNL A   1      51.951  26.316  24.889  1.00  0.00     0.022 A 
BRANCH  53  57
ATOM     57  S   UNL A   1      51.405  27.473  22.413  1.00  0.00     0.124 S 
ATOM     58  O   UNL A   1      51.200  28.917  22.407  1.00  0.00    -0.237 OA
ATOM     59  O   UNL A   1      52.786  27.021  22.281  1.00  0.00    -0.237 OA
ATOM     60  O   UNL A   1      50.423  26.699  21.657  1.00  0.00    -0.744 OA
ENDBRANCH  53  57
ENDBRANCH  26  50
BRANCH  38  61
ATOM     61  C   UNL A   1      46.535  32.820  28.485  1.00  0.00     0.023 A 
ATOM     62  C   UNL A   1      46.525  33.798  27.476  1.00  0.00     0.031 A 
ATOM     63  C   UNL A   1      47.115  33.149  29.723  1.00  0.00     0.131 A 
ATOM     64  C   UNL A   1      47.144  35.035  27.700  1.00  0.00     0.055 A 
ATOM     65  C   UNL A   1      47.667  34.407  29.963  1.00  0.00     0.041 A 
ATOM     66  F   UNL A   1      47.157  32.250  30.719  1.00  0.00    -0.206 F 
ATOM     67  C   UNL A   1      47.698  35.354  28.942  1.00  0.00     0.022 A 
BRANCH  64  68
ATOM     68  S   UNL A   1      47.318  36.185  26.307  1.00  0.00     0.124 S 
ATOM     69  O   UNL A   1      47.503  35.271  25.183  1.00  0.00    -0.237 OA
ATOM     70  O   UNL A   1      46.050  36.907  26.339  1.00  0.00    -0.237 OA
ATOM     71  O   UNL A   1      48.493  36.979  26.661  1.00  0.00    -0.744 OA
ENDBRANCH  64  68
ENDBRANCH  38  61
ENDBRANCH  12  13
ENDBRANCH   5   7
ENDBRANCH   2   3
ENDBRANCH   1   2
BRANCH   1  72
ATOM     72  C   UNL A   1      37.614  20.529  24.932  1.00  0.00     0.118 C 
BRANCH  72  73
ATOM     73  N   UNL A   1      36.237  20.035  24.950  1.00  0.00    -0.352 N 
ATOM     74  C   UNL A   1      35.057  20.723  25.042  1.00  0.00     0.251 C 
ATOM     75  H   UNL A   1      36.145  19.057  24.886  1.00  0.00     0.163 HD
ATOM     76  O   UNL A   1      34.007  20.121  25.253  1.00  0.00    -0.269 OA
BRANCH  74  77
ATOM     77  C   UNL A   1      35.026  22.177  24.785  1.00  0.00     0.041 A 
ATOM     78  C   UNL A   1      35.588  23.081  25.683  1.00  0.00     0.014 A 
ATOM     79  C   UNL A   1      34.292  22.650  23.703  1.00  0.00     0.036 A 
ATOM     80  C   UNL A   1      35.437  24.453  25.458  1.00  0.00     0.002 A 
ATOM     81  C   UNL A   1      34.090  24.003  23.494  1.00  0.00     0.088 A 
ATOM     82  C   UNL A   1      34.688  24.918  24.362  1.00  0.00     0.022 A 
BRANCH  81  83
ATOM     83  S   UNL A   1      33.190  24.498  22.051  1.00  0.00     0.261 S 
ATOM     84  O   UNL A   1      33.645  25.830  21.694  1.00  0.00    -0.201 OA
ATOM     85  O   UNL A   1      33.280  23.416  21.097  1.00  0.00    -0.201 OA
BRANCH  83  86
ATOM     86  N   UNL A   1      31.534  24.690  22.427  1.00  0.00    -0.278 N 
ATOM     87  H   UNL A   1      30.896  24.944  21.722  1.00  0.00     0.180 HD
BRANCH  86  88
ATOM     88  C   UNL A   1      31.069  24.479  23.782  1.00  0.00     0.072 A 
ATOM     89  C   UNL A   1      30.994  23.182  24.304  1.00  0.00     0.029 A 
ATOM     90  C   UNL A   1      30.801  25.610  24.602  1.00  0.00     0.061 A 
ATOM     91  C   UNL A   1      30.647  22.990  25.644  1.00  0.00     0.002 A 
ATOM     92  C   UNL A   1      30.496  25.387  25.952  1.00  0.00     0.028 A 
ATOM     93  C   UNL A   1      30.408  24.090  26.468  1.00  0.00     0.002 A 
BRANCH  90  94
ATOM     94  N   UNL A   1      30.869  26.888  24.081  1.00  0.00    -0.365 N 
ATOM     95  C   UNL A   1      29.631  27.518  23.611  1.00  0.00     0.145 C 
ATOM     96  C   UNL A   1      31.964  27.824  24.345  1.00  0.00     0.145 C 
ATOM     97  C   UNL A   1      29.948  28.369  22.376  1.00  0.00     0.181 C 
ATOM     98  C   UNL A   1      32.180  28.687  23.085  1.00  0.00     0.181 C 
ATOM     99  O   UNL A   1      30.967  29.345  22.668  1.00  0.00    -0.378 OA
ENDBRANCH  90  94
ENDBRANCH  86  88
ENDBRANCH  83  86
ENDBRANCH  81  83
ENDBRANCH  74  77
ENDBRANCH  72  73
ENDBRANCH   1  72
TORSDOF 17
ENDMDL
MODEL 3
REMARK VINA RESULT:     -12.5      2.394      3.392
REMARK SMILES O=C(NCCCNC(=O)c1cccc(S(=O)(=O)Nc2ccccc2N2CCOCC2)c1)c1ccc(-c2c3nc(c(-c4cc(S(=O)(=O)[O-])ccc4F)c4ccc([nH]4)c(-c4cc(S(=O)(=O)[O-])ccc4F)c4nc(c(-c5cc(S(=O)(=O)[O-])ccc5F)c5ccc2[nH]5)C=C4)C=C3)cc1
REMARK SMILES IDX 5 1 4 2 3 3 1 4 2 5 32 7 33 8 94 9 34 10 93 11 35 12 36 13
REMARK SMILES IDX 37 14 87 15 38 16 92 17 86 18 88 19 39 20 91 21 85 22 84 23
REMARK SMILES IDX 40 25 72 26 52 27 71 28 53 29 56 30 70 31 89 32 54 33 55 34
REMARK SMILES IDX 69 36 90 37 57 38 41 39 42 40 50 41 43 42 49 43 51 44 48 45
REMARK SMILES IDX 44 46 45 47 46 48 47 49 73 50 74 51 82 52 75 53 81 54 83 55
REMARK SMILES IDX 80 56 76 57 77 58 78 59 79 60 58 61 59 62 67 63 60 64 66 65
REMARK SMILES IDX 68 66 65 67 61 68 62 69 63 70 64 71 6 72 7 73 8 74 9 76
REMARK SMILES IDX 10 77 11 78 31 79 12 80 14 81 13 82 15 83 16 84 17 85 18 86
REMARK SMILES IDX 19 88 20 89 24 90 21 91 23 92 22 93 25 94 26 95 30 96 27 97
REMARK SMILES IDX 29 98 28 99
REMARK H PARENT 3 6 88 24 56 35 7 75 18 87
REMARK Flexibility Score: inf
ROOT
ATOM      1  C   UNL A   1      38.452  19.186  25.249  1.00  0.00     0.042 C 
ENDROOT
BRANCH   1   2
ATOM      2  C   UNL A   1      39.609  19.763  26.040  1.00  0.00     0.118 C 
BRANCH   2   3
ATOM      3  N   UNL A   1      40.845  19.003  25.866  1.00  0.00    -0.352 N 
ATOM      4  O   UNL A   1      43.043  18.669  25.486  1.00  0.00    -0.269 OA
ATOM      5  C   UNL A   1      42.156  19.429  25.859  1.00  0.00     0.251 C 
ATOM      6  H   UNL A   1      40.722  18.036  25.734  1.00  0.00     0.163 HD
BRANCH   5   7
ATOM      7  C   UNL A   1      42.469  20.814  26.269  1.00  0.00     0.039 A 
ATOM      8  C   UNL A   1      42.615  21.797  25.297  1.00  0.00     0.014 A 
ATOM      9  C   UNL A   1      42.659  21.135  27.615  1.00  0.00     0.014 A 
ATOM     10  C   UNL A   1      43.211  22.999  25.622  1.00  0.00     0.010 A 
ATOM     11  C   UNL A   1      43.077  22.426  27.963  1.00  0.00     0.010 A 
ATOM     12  C   UNL A   1      43.399  23.357  26.964  1.00  0.00    -0.014 A 
BRANCH  12  13
ATOM     13  C   UNL A   1      43.849  24.744  27.258  1.00  0.00     0.031 A 
ATOM     14  C   UNL A   1      45.255  25.191  26.974  1.00  0.00     0.074 A 
ATOM     15  C   UNL A   1      42.934  25.617  27.728  1.00  0.00     0.049 A 
ATOM     16  N   UNL A   1      45.795  26.366  27.167  1.00  0.00    -0.248 NA
ATOM     17  C   UNL A   1      46.178  24.193  26.413  1.00  0.00     0.031 C 
ATOM     18  C   UNL A   1      41.537  25.287  28.034  1.00  0.00     0.029 A 
ATOM     19  N   UNL A   1      43.014  26.959  27.993  1.00  0.00    -0.354 N 
ATOM     20  C   UNL A   1      47.127  26.246  26.783  1.00  0.00     0.074 A 
ATOM     21  C   UNL A   1      47.316  24.872  26.369  1.00  0.00     0.031 C 
ATOM     22  C   UNL A   1      40.877  26.405  28.359  1.00  0.00     0.029 A 
ATOM     23  C   UNL A   1      41.823  27.508  28.408  1.00  0.00     0.049 A 
ATOM     24  H   UNL A   1      43.844  27.480  27.896  1.00  0.00     0.167 HD
ATOM     25  C   UNL A   1      48.093  27.199  26.780  1.00  0.00     0.034 A 
ATOM     26  C   UNL A   1      41.525  28.751  28.828  1.00  0.00     0.034 A 
ATOM     27  C   UNL A   1      47.870  28.567  27.191  1.00  0.00     0.049 A 
ATOM     28  C   UNL A   1      42.626  29.771  28.855  1.00  0.00     0.074 A 
ATOM     29  C   UNL A   1      48.768  29.619  27.206  1.00  0.00     0.029 A 
ATOM     30  N   UNL A   1      46.664  29.073  27.666  1.00  0.00    -0.354 N 
ATOM     31  N   UNL A   1      43.881  29.636  28.496  1.00  0.00    -0.248 NA
ATOM     32  C   UNL A   1      42.272  31.106  29.344  1.00  0.00     0.031 C 
ATOM     33  C   UNL A   1      48.131  30.735  27.761  1.00  0.00     0.029 A 
ATOM     34  C   UNL A   1      46.808  30.409  28.009  1.00  0.00     0.049 A 
ATOM     35  H   UNL A   1      45.829  28.556  27.746  1.00  0.00     0.167 HD
ATOM     36  C   UNL A   1      44.467  30.879  28.704  1.00  0.00     0.074 A 
ATOM     37  C   UNL A   1      43.417  31.754  29.190  1.00  0.00     0.031 C 
ATOM     38  C   UNL A   1      45.755  31.263  28.512  1.00  0.00     0.034 A 
BRANCH  25  39
ATOM     39  C   UNL A   1      49.489  26.782  26.376  1.00  0.00     0.023 A 
ATOM     40  C   UNL A   1      50.080  27.209  25.174  1.00  0.00     0.031 A 
ATOM     41  C   UNL A   1      50.240  25.931  27.208  1.00  0.00     0.131 A 
ATOM     42  C   UNL A   1      51.350  26.736  24.808  1.00  0.00     0.055 A 
ATOM     43  C   UNL A   1      51.536  25.527  26.876  1.00  0.00     0.041 A 
ATOM     44  F   UNL A   1      49.725  25.471  28.359  1.00  0.00    -0.206 F 
ATOM     45  C   UNL A   1      52.093  25.919  25.664  1.00  0.00     0.022 A 
BRANCH  42  46
ATOM     46  S   UNL A   1      51.964  27.094  23.139  1.00  0.00     0.124 S 
ATOM     47  O   UNL A   1      53.058  26.133  23.016  1.00  0.00    -0.237 OA
ATOM     48  O   UNL A   1      50.792  26.834  22.310  1.00  0.00    -0.237 OA
ATOM     49  O   UNL A   1      52.378  28.493  23.217  1.00  0.00    -0.744 OA
ENDBRANCH  42  46
ENDBRANCH  25  39
BRANCH  26  50
ATOM     50  C   UNL A   1      40.152  29.069  29.311  1.00  0.00     0.023 A 
ATOM     51  C   UNL A   1      39.809  28.946  30.665  1.00  0.00     0.031 A 
ATOM     52  C   UNL A   1      39.151  29.491  28.414  1.00  0.00     0.131 A 
ATOM     53  C   UNL A   1      38.492  29.202  31.078  1.00  0.00     0.055 A 
ATOM     54  C   UNL A   1      37.861  29.806  28.839  1.00  0.00     0.041 A 
ATOM     55  F   UNL A   1      39.425  29.629  27.106  1.00  0.00    -0.206 F 
ATOM     56  C   UNL A   1      37.521  29.649  30.177  1.00  0.00     0.022 A 
BRANCH  53  57
ATOM     57  S   UNL A   1      38.040  28.857  32.798  1.00  0.00     0.124 S 
ATOM     58  O   UNL A   1      39.081  29.572  33.528  1.00  0.00    -0.237 OA
ATOM     59  O   UNL A   1      36.697  29.420  32.879  1.00  0.00    -0.237 OA
ATOM     60  O   UNL A   1      38.109  27.400  32.881  1.00  0.00    -0.744 OA
ENDBRANCH  53  57
ENDBRANCH  26  50
BRANCH  38  61
ATOM     61  C   UNL A   1      46.077  32.709  28.795  1.00  0.00     0.023 A 
ATOM     62  C   UNL A   1      45.983  33.696  27.798  1.00  0.00     0.031 A 
ATOM     63  C   UNL A   1      46.516  33.096  30.073  1.00  0.00     0.131 A 
ATOM     64  C   UNL A   1      46.387  35.009  28.078  1.00  0.00     0.055 A 
ATOM     65  C   UNL A   1      46.850  34.419  30.365  1.00  0.00     0.041 A 
ATOM     66  F   UNL A   1      46.630  32.193  31.060  1.00  0.00    -0.206 F 
ATOM     67  C   UNL A   1      46.802  35.381  29.360  1.00  0.00     0.022 A 
BRANCH  64  68
ATOM     68  S   UNL A   1      46.472  36.202  26.714  1.00  0.00     0.124 S 
ATOM     69  O   UNL A   1      45.367  37.102  27.031  1.00  0.00    -0.237 OA
ATOM     70  O   UNL A   1      47.812  36.759  26.870  1.00  0.00    -0.237 OA
ATOM     71  O   UNL A   1      46.278  35.376  25.524  1.00  0.00    -0.744 OA
ENDBRANCH  64  68
ENDBRANCH  38  61
ENDBRANCH  12  13
ENDBRANCH   5   7
ENDBRANCH   2   3
ENDBRANCH   1   2
BRANCH   1  72
ATOM     72  C   UNL A   1      37.491  20.262  24.803  1.00  0.00     0.118 C 
BRANCH  72  73
ATOM     73  N   UNL A   1      36.098  19.833  24.925  1.00  0.00    -0.352 N 
ATOM     74  C   UNL A   1      34.963  20.574  25.119  1.00  0.00     0.251 C 
ATOM     75  H   UNL A   1      35.954  18.861  24.859  1.00  0.00     0.163 HD
ATOM     76  O   UNL A   1      33.905  20.019  25.406  1.00  0.00    -0.269 OA
BRANCH  74  77
ATOM     77  C   UNL A   1      34.981  22.031  24.880  1.00  0.00     0.041 A 
ATOM     78  C   UNL A   1      35.540  22.907  25.808  1.00  0.00     0.014 A 
ATOM     79  C   UNL A   1      34.295  22.539  23.783  1.00  0.00     0.036 A 
ATOM     80  C   UNL A   1      35.434  24.285  25.596  1.00  0.00     0.002 A 
ATOM     81  C   UNL A   1      34.138  23.899  23.586  1.00  0.00     0.088 A 
ATOM     82  C   UNL A   1      34.734  24.786  24.485  1.00  0.00     0.022 A 
BRANCH  81  83
ATOM     83  S   UNL A   1      33.297  24.439  22.123  1.00  0.00     0.261 S 
ATOM     84  O   UNL A   1      33.799  25.762  21.800  1.00  0.00    -0.201 OA
ATOM     85  O   UNL A   1      33.388  23.367  21.157  1.00  0.00    -0.201 OA
BRANCH  83  86
ATOM     86  N   UNL A   1      31.636  24.671  22.449  1.00  0.00    -0.278 N 
ATOM     87  H   UNL A   1      31.021  24.913  21.720  1.00  0.00     0.180 HD
BRANCH  86  88
ATOM     88  C   UNL A   1      31.134  24.511  23.798  1.00  0.00     0.072 A 
ATOM     89  C   UNL A   1      30.999  23.231  24.350  1.00  0.00     0.029 A 
ATOM     90  C   UNL A   1      30.888  25.672  24.583  1.00  0.00     0.061 A 
ATOM     91  C   UNL A   1      30.615  23.086  25.686  1.00  0.00     0.002 A 
ATOM     92  C   UNL A   1      30.544  25.494  25.931  1.00  0.00     0.028 A 
ATOM     93  C   UNL A   1      30.397  24.214  26.476  1.00  0.00     0.002 A 
BRANCH  90  94
ATOM     94  N   UNL A   1      31.014  26.932  24.033  1.00  0.00    -0.365 N 
ATOM     95  C   UNL A   1      29.803  27.617  23.568  1.00  0.00     0.145 C 
ATOM     96  C   UNL A   1      32.161  27.815  24.258  1.00  0.00     0.145 C 
ATOM     97  C   UNL A   1      30.143  28.423  22.309  1.00  0.00     0.181 C 
ATOM     98  C   UNL A   1      32.401  28.638  22.975  1.00  0.00     0.181 C 
ATOM     99  O   UNL A   1      31.217  29.350  22.563  1.00  0.00    -0.378 OA
ENDBRANCH  90  94
ENDBRANCH  86  88
ENDBRANCH  83  86
ENDBRANCH  81  83
ENDBRANCH  74  77
ENDBRANCH  72  73
ENDBRANCH   1  72
TORSDOF 17
ENDMDL
