MODEL 1
REMARK VINA RESULT:     -11.7      0.000      0.000
REMARK SMILES C[C@@H]1C[C@@H](C)CN(C(=O)CCn2cc(C(=O)NCCCNC(=O)c3ccc(-c4c5nc(c(-c6cc(S(=O)(=O)[O-])ccc6F)c6ccc([nH]6)c(-c6cc(S(=O)(=O)[O-])ccc6F)c6nc(c(-c7cc(S(=O)(=O)[O-])ccc7F)c7ccc4[nH]7)C=C6)C=C5)cc3)cn2)C1
REMARK SMILES IDX 19 1 18 2 17 3 15 4 16 5 14 7 12 8 13 9 88 10 87 11 11 12
REMARK SMILES IDX 10 13 8 14 1 15 2 16 3 17 89 18 4 19 7 20 6 21 5 22 9 23
REMARK SMILES IDX 20 24 21 25 22 26 23 28 24 29 25 30 86 31 26 32 85 33 27 34
REMARK SMILES IDX 28 35 29 36 79 37 30 38 84 39 78 40 80 41 31 42 83 43 77 44
REMARK SMILES IDX 76 45 32 47 64 48 44 49 63 50 45 51 48 52 62 53 81 54 46 55
REMARK SMILES IDX 47 56 61 58 82 59 49 60 33 61 34 62 42 63 35 64 41 65 43 66
REMARK SMILES IDX 40 67 36 68 37 69 38 70 39 71 65 72 66 73 74 74 67 75 73 76
REMARK SMILES IDX 75 77 72 78 68 79 69 80 70 81 71 82 50 83 51 84 59 85 52 86
REMARK SMILES IDX 58 87 60 88 57 89 53 90 54 91 55 92 56 93
REMARK H PARENT 17 6 21 27 80 46 48 57
REMARK Flexibility Score: inf
ROOT
ATOM      1  C   UNL A   1      35.407  33.133  28.052  1.00  0.00     0.042 C 
ENDROOT
BRANCH   1   2
ATOM      2  C   UNL A   1      33.952  33.464  28.382  1.00  0.00     0.118 C 
BRANCH   2   3
ATOM      3  N   UNL A   1      33.637  34.855  28.101  1.00  0.00    -0.352 N 
ATOM      4  C   UNL A   1      33.354  35.838  29.009  1.00  0.00     0.254 C 
ATOM      5  O   UNL A   1      33.170  36.998  28.651  1.00  0.00    -0.269 OA
ATOM      6  H   UNL A   1      33.626  35.119  27.152  1.00  0.00     0.163 HD
BRANCH   4   7
ATOM      7  C   UNL A   1      33.385  35.457  30.395  1.00  0.00     0.077 A 
ATOM      8  N   UNL A   1      33.919  34.691  32.373  1.00  0.00    -0.271 N 
ATOM      9  C   UNL A   1      34.387  34.810  31.096  1.00  0.00     0.122 A 
ATOM     10  N   UNL A   1      32.766  35.358  32.577  1.00  0.00    -0.181 NA
ATOM     11  C   UNL A   1      32.392  35.724  31.351  1.00  0.00     0.149 A 
BRANCH   8  12
ATOM     12  C   UNL A   1      34.523  33.952  33.467  1.00  0.00     0.154 C 
BRANCH  12  13
ATOM     13  C   UNL A   1      35.275  32.701  33.019  1.00  0.00     0.124 C 
BRANCH  13  14
ATOM     14  C   UNL A   1      36.505  32.429  33.854  1.00  0.00     0.224 C 
ATOM     15  C   UNL A   1      39.728  33.702  34.204  1.00  0.00     0.009 C 
ATOM     16  C   UNL A   1      39.916  32.229  33.832  1.00  0.00     0.006 C 
ATOM     17  C   UNL A   1      40.228  32.066  32.334  1.00  0.00     0.010 C 
ATOM     18  C   UNL A   1      38.689  31.391  34.216  1.00  0.00     0.122 C 
ATOM     19  C   UNL A   1      38.992  32.268  31.435  1.00  0.00     0.006 C 
ATOM     20  N   UNL A   1      37.563  31.698  33.340  1.00  0.00    -0.342 N 
ATOM     21  C   UNL A   1      37.830  31.388  31.932  1.00  0.00     0.122 C 
ATOM     22  C   UNL A   1      39.369  32.004  29.977  1.00  0.00     0.009 C 
ATOM     23  O   UNL A   1      36.520  32.865  35.012  1.00  0.00    -0.275 OA
ENDBRANCH  13  14
ENDBRANCH  12  13
ENDBRANCH   8  12
ENDBRANCH   4   7
ENDBRANCH   2   3
ENDBRANCH   1   2
BRANCH   1  24
ATOM     24  C   UNL A   1      35.906  31.956  28.872  1.00  0.00     0.118 C 
BRANCH  24  25
ATOM     25  N   UNL A   1      35.278  30.700  28.449  1.00  0.00    -0.352 N 
ATOM     26  C   UNL A   1      35.869  29.537  27.998  1.00  0.00     0.251 C 
ATOM     27  H   UNL A   1      34.295  30.684  28.493  1.00  0.00     0.163 HD
ATOM     28  O   UNL A   1      35.209  28.699  27.395  1.00  0.00    -0.269 OA
BRANCH  26  29
ATOM     29  C   UNL A   1      37.304  29.344  28.247  1.00  0.00     0.039 A 
ATOM     30  C   UNL A   1      37.766  28.666  29.377  1.00  0.00     0.014 A 
ATOM     31  C   UNL A   1      38.181  29.780  27.262  1.00  0.00     0.014 A 
ATOM     32  C   UNL A   1      39.119  28.346  29.455  1.00  0.00     0.010 A 
ATOM     33  C   UNL A   1      39.459  29.291  27.245  1.00  0.00     0.010 A 
ATOM     34  C   UNL A   1      39.957  28.639  28.368  1.00  0.00    -0.014 A 
BRANCH  34  35
ATOM     35  C   UNL A   1      41.347  28.203  28.340  1.00  0.00     0.031 A 
ATOM     36  C   UNL A   1      41.618  26.978  27.544  1.00  0.00     0.074 A 
ATOM     37  C   UNL A   1      42.359  28.975  28.791  1.00  0.00     0.049 A 
ATOM     38  N   UNL A   1      41.950  25.811  27.984  1.00  0.00    -0.248 NA
ATOM     39  C   UNL A   1      41.358  27.011  26.098  1.00  0.00     0.031 C 
ATOM     40  C   UNL A   1      42.304  30.344  29.322  1.00  0.00     0.029 A 
ATOM     41  N   UNL A   1      43.692  28.729  28.747  1.00  0.00    -0.354 N 
ATOM     42  C   UNL A   1      42.175  25.022  26.860  1.00  0.00     0.074 A 
ATOM     43  C   UNL A   1      41.593  25.741  25.759  1.00  0.00     0.031 C 
ATOM     44  C   UNL A   1      43.541  30.886  29.311  1.00  0.00     0.029 A 
ATOM     45  C   UNL A   1      44.490  29.844  28.971  1.00  0.00     0.049 A 
ATOM     46  H   UNL A   1      44.064  27.834  28.571  1.00  0.00     0.167 HD
ATOM     47  C   UNL A   1      43.026  23.957  26.901  1.00  0.00     0.034 A 
ATOM     48  C   UNL A   1      45.841  29.917  28.874  1.00  0.00     0.034 A 
ATOM     49  C   UNL A   1      43.343  23.604  28.270  1.00  0.00     0.049 A 
ATOM     50  C   UNL A   1      46.343  28.531  29.056  1.00  0.00     0.074 A 
ATOM     51  C   UNL A   1      42.596  23.225  29.370  1.00  0.00     0.029 A 
ATOM     52  N   UNL A   1      44.555  24.018  28.781  1.00  0.00    -0.354 N 
ATOM     53  N   UNL A   1      46.174  27.854  30.162  1.00  0.00    -0.248 NA
ATOM     54  C   UNL A   1      46.577  27.720  27.871  1.00  0.00     0.031 C 
ATOM     55  C   UNL A   1      43.182  23.930  30.465  1.00  0.00     0.029 A 
ATOM     56  C   UNL A   1      44.299  24.621  29.990  1.00  0.00     0.049 A 
ATOM     57  H   UNL A   1      45.437  23.904  28.360  1.00  0.00     0.167 HD
ATOM     58  C   UNL A   1      45.839  26.571  29.753  1.00  0.00     0.074 A 
ATOM     59  C   UNL A   1      46.214  26.521  28.339  1.00  0.00     0.031 C 
ATOM     60  C   UNL A   1      45.030  25.766  30.509  1.00  0.00     0.034 A 
BRANCH  47  61
ATOM     61  C   UNL A   1      43.847  23.443  25.737  1.00  0.00     0.023 A 
ATOM     62  C   UNL A   1      43.705  22.084  25.395  1.00  0.00     0.031 A 
ATOM     63  C   UNL A   1      44.935  24.112  25.133  1.00  0.00     0.131 A 
ATOM     64  C   UNL A   1      44.655  21.434  24.586  1.00  0.00     0.055 A 
ATOM     65  C   UNL A   1      45.837  23.480  24.271  1.00  0.00     0.041 A 
ATOM     66  F   UNL A   1      45.250  25.383  25.409  1.00  0.00    -0.206 F 
ATOM     67  C   UNL A   1      45.720  22.125  24.019  1.00  0.00     0.022 A 
BRANCH  64  68
ATOM     68  S   UNL A   1      44.576  19.630  24.445  1.00  0.00     0.124 S 
ATOM     69  O   UNL A   1      44.698  19.440  23.003  1.00  0.00    -0.237 OA
ATOM     70  O   UNL A   1      45.721  19.217  25.249  1.00  0.00    -0.237 OA
ATOM     71  O   UNL A   1      43.268  19.304  25.007  1.00  0.00    -0.744 OA
ENDBRANCH  64  68
ENDBRANCH  47  61
BRANCH  48  72
ATOM     72  C   UNL A   1      46.616  31.045  28.295  1.00  0.00     0.023 A 
ATOM     73  C   UNL A   1      46.084  31.929  27.336  1.00  0.00     0.031 A 
ATOM     74  C   UNL A   1      47.863  31.399  28.863  1.00  0.00     0.131 A 
ATOM     75  C   UNL A   1      46.792  33.103  26.983  1.00  0.00     0.055 A 
ATOM     76  C   UNL A   1      48.559  32.555  28.506  1.00  0.00     0.041 A 
ATOM     77  F   UNL A   1      48.411  30.670  29.849  1.00  0.00    -0.206 F 
ATOM     78  C   UNL A   1      48.020  33.418  27.568  1.00  0.00     0.022 A 
BRANCH  75  79
ATOM     79  S   UNL A   1      46.068  34.292  25.808  1.00  0.00     0.124 S 
ATOM     80  O   UNL A   1      45.476  35.285  26.696  1.00  0.00    -0.237 OA
ATOM     81  O   UNL A   1      47.233  34.719  25.041  1.00  0.00    -0.237 OA
ATOM     82  O   UNL A   1      45.105  33.486  25.056  1.00  0.00    -0.744 OA
ENDBRANCH  75  79
ENDBRANCH  48  72
BRANCH  60  83
ATOM     83  C   UNL A   1      44.688  26.210  31.923  1.00  0.00     0.023 A 
ATOM     84  C   UNL A   1      43.571  27.008  32.269  1.00  0.00     0.031 A 
ATOM     85  C   UNL A   1      45.450  25.675  32.975  1.00  0.00     0.131 A 
ATOM     86  C   UNL A   1      43.262  27.249  33.624  1.00  0.00     0.055 A 
ATOM     87  C   UNL A   1      45.130  25.899  34.315  1.00  0.00     0.041 A 
ATOM     88  F   UNL A   1      46.503  24.881  32.717  1.00  0.00    -0.206 F 
ATOM     89  C   UNL A   1      44.037  26.690  34.646  1.00  0.00     0.022 A 
BRANCH  86  90
ATOM     90  S   UNL A   1      41.839  28.294  34.084  1.00  0.00     0.124 S 
ATOM     91  O   UNL A   1      41.073  28.389  32.847  1.00  0.00    -0.237 OA
ATOM     92  O   UNL A   1      41.218  27.533  35.165  1.00  0.00    -0.237 OA
ATOM     93  O   UNL A   1      42.462  29.549  34.510  1.00  0.00    -0.744 OA
ENDBRANCH  86  90
ENDBRANCH  60  83
ENDBRANCH  34  35
ENDBRANCH  26  29
ENDBRANCH  24  25
ENDBRANCH   1  24
TORSDOF 16
ENDMDL
MODEL 2
REMARK VINA RESULT:     -11.7      2.408      7.085
REMARK SMILES C[C@@H]1C[C@@H](C)CN(C(=O)CCn2cc(C(=O)NCCCNC(=O)c3ccc(-c4c5nc(c(-c6cc(S(=O)(=O)[O-])ccc6F)c6ccc([nH]6)c(-c6cc(S(=O)(=O)[O-])ccc6F)c6nc(c(-c7cc(S(=O)(=O)[O-])ccc7F)c7ccc4[nH]7)C=C6)C=C5)cc3)cn2)C1
REMARK SMILES IDX 19 1 18 2 17 3 15 4 16 5 14 7 12 8 13 9 88 10 87 11 11 12
REMARK SMILES IDX 10 13 8 14 1 15 2 16 3 17 89 18 4 19 7 20 6 21 5 22 9 23
REMARK SMILES IDX 20 24 21 25 22 26 23 28 24 29 25 30 86 31 26 32 85 33 27 34
REMARK SMILES IDX 28 35 29 36 79 37 30 38 84 39 78 40 80 41 31 42 83 43 77 44
REMARK SMILES IDX 76 45 32 47 64 48 44 49 63 50 45 51 48 52 62 53 81 54 46 55
REMARK SMILES IDX 47 56 61 58 82 59 49 60 33 61 34 62 42 63 35 64 41 65 43 66
REMARK SMILES IDX 40 67 36 68 37 69 38 70 39 71 65 72 66 73 74 74 67 75 73 76
REMARK SMILES IDX 75 77 72 78 68 79 69 80 70 81 71 82 50 83 51 84 59 85 52 86
REMARK SMILES IDX 58 87 60 88 57 89 53 90 54 91 55 92 56 93
REMARK H PARENT 17 6 21 27 80 46 48 57
REMARK Flexibility Score: inf
ROOT
ATOM      1  C   UNL A   1      34.743  34.983  27.969  1.00  0.00     0.042 C 
ENDROOT
BRANCH   1   2
ATOM      2  C   UNL A   1      33.373  35.317  28.557  1.00  0.00     0.118 C 
BRANCH   2   3
ATOM      3  N   UNL A   1      33.306  36.692  29.022  1.00  0.00    -0.352 N 
ATOM      4  C   UNL A   1      33.193  37.124  30.315  1.00  0.00     0.254 C 
ATOM      5  O   UNL A   1      33.215  38.320  30.588  1.00  0.00    -0.269 OA
ATOM      6  H   UNL A   1      33.344  37.391  28.329  1.00  0.00     0.163 HD
BRANCH   4   7
ATOM      7  C   UNL A   1      33.153  36.104  31.327  1.00  0.00     0.077 A 
ATOM      8  N   UNL A   1      33.624  34.601  32.845  1.00  0.00    -0.271 N 
ATOM      9  C   UNL A   1      34.203  35.486  31.983  1.00  0.00     0.122 A 
ATOM     10  N   UNL A   1      32.283  34.725  32.907  1.00  0.00    -0.181 NA
ATOM     11  C   UNL A   1      31.996  35.556  31.907  1.00  0.00     0.149 A 
BRANCH   8  12
ATOM     12  C   UNL A   1      34.290  33.597  33.655  1.00  0.00     0.154 C 
BRANCH  12  13
ATOM     13  C   UNL A   1      35.476  34.141  34.448  1.00  0.00     0.124 C 
BRANCH  13  14
ATOM     14  C   UNL A   1      36.602  33.139  34.573  1.00  0.00     0.224 C 
ATOM     15  C   UNL A   1      40.084  33.158  34.662  1.00  0.00     0.009 C 
ATOM     16  C   UNL A   1      39.717  32.276  33.466  1.00  0.00     0.006 C 
ATOM     17  C   UNL A   1      39.825  33.054  32.143  1.00  0.00     0.010 C 
ATOM     18  C   UNL A   1      38.313  31.676  33.619  1.00  0.00     0.122 C 
ATOM     19  C   UNL A   1      38.665  34.047  31.930  1.00  0.00     0.006 C 
ATOM     20  N   UNL A   1      37.293  32.707  33.454  1.00  0.00    -0.342 N 
ATOM     21  C   UNL A   1      37.316  33.329  32.126  1.00  0.00     0.122 C 
ATOM     22  C   UNL A   1      38.801  34.711  30.560  1.00  0.00     0.009 C 
ATOM     23  O   UNL A   1      36.866  32.710  35.704  1.00  0.00    -0.275 OA
ENDBRANCH  13  14
ENDBRANCH  12  13
ENDBRANCH   8  12
ENDBRANCH   4   7
ENDBRANCH   2   3
ENDBRANCH   1   2
BRANCH   1  24
ATOM     24  C   UNL A   1      35.348  33.760  28.636  1.00  0.00     0.118 C 
BRANCH  24  25
ATOM     25  N   UNL A   1      34.490  32.580  28.477  1.00  0.00    -0.352 N 
ATOM     26  C   UNL A   1      34.841  31.282  28.165  1.00  0.00     0.251 C 
ATOM     27  H   UNL A   1      33.528  32.736  28.613  1.00  0.00     0.163 HD
ATOM     28  O   UNL A   1      33.996  30.490  27.766  1.00  0.00    -0.269 OA
BRANCH  26  29
ATOM     29  C   UNL A   1      36.249  30.887  28.311  1.00  0.00     0.039 A 
ATOM     30  C   UNL A   1      37.153  31.658  29.045  1.00  0.00     0.014 A 
ATOM     31  C   UNL A   1      36.622  29.664  27.769  1.00  0.00     0.014 A 
ATOM     32  C   UNL A   1      38.415  31.132  29.309  1.00  0.00     0.010 A 
ATOM     33  C   UNL A   1      37.777  29.070  28.198  1.00  0.00     0.010 A 
ATOM     34  C   UNL A   1      38.710  29.822  28.904  1.00  0.00    -0.014 A 
BRANCH  34  35
ATOM     35  C   UNL A   1      39.962  29.175  29.275  1.00  0.00     0.031 A 
ATOM     36  C   UNL A   1      40.192  29.013  30.734  1.00  0.00     0.074 A 
ATOM     37  C   UNL A   1      40.749  28.547  28.375  1.00  0.00     0.049 A 
ATOM     38  N   UNL A   1      41.057  29.627  31.469  1.00  0.00    -0.248 NA
ATOM     39  C   UNL A   1      39.262  28.169  31.499  1.00  0.00     0.031 C 
ATOM     40  C   UNL A   1      40.518  28.340  26.939  1.00  0.00     0.029 A 
ATOM     41  N   UNL A   1      41.886  27.840  28.596  1.00  0.00    -0.354 N 
ATOM     42  C   UNL A   1      40.946  29.077  32.742  1.00  0.00     0.074 A 
ATOM     43  C   UNL A   1      39.701  28.357  32.746  1.00  0.00     0.031 C 
ATOM     44  C   UNL A   1      41.335  27.366  26.483  1.00  0.00     0.029 A 
ATOM     45  C   UNL A   1      42.276  27.033  27.534  1.00  0.00     0.049 A 
ATOM     46  H   UNL A   1      42.393  27.894  29.439  1.00  0.00     0.167 HD
ATOM     47  C   UNL A   1      42.002  29.071  33.605  1.00  0.00     0.034 A 
ATOM     48  C   UNL A   1      43.297  26.140  27.517  1.00  0.00     0.034 A 
ATOM     49  C   UNL A   1      43.044  29.968  33.150  1.00  0.00     0.049 A 
ATOM     50  C   UNL A   1      44.244  26.575  28.574  1.00  0.00     0.074 A 
ATOM     51  C   UNL A   1      43.103  31.321  32.871  1.00  0.00     0.029 A 
ATOM     52  N   UNL A   1      44.138  29.420  32.516  1.00  0.00    -0.354 N 
ATOM     53  N   UNL A   1      44.870  27.723  28.538  1.00  0.00    -0.248 NA
ATOM     54  C   UNL A   1      44.118  25.988  29.899  1.00  0.00     0.031 C 
ATOM     55  C   UNL A   1      43.883  31.411  31.678  1.00  0.00     0.029 A 
ATOM     56  C   UNL A   1      44.328  30.127  31.351  1.00  0.00     0.049 A 
ATOM     57  H   UNL A   1      44.683  28.665  32.835  1.00  0.00     0.167 HD
ATOM     58  C   UNL A   1      44.818  28.205  29.838  1.00  0.00     0.074 A 
ATOM     59  C   UNL A   1      44.446  27.045  30.650  1.00  0.00     0.031 C 
ATOM     60  C   UNL A   1      44.798  29.547  30.104  1.00  0.00     0.034 A 
BRANCH  47  61
ATOM     61  C   UNL A   1      42.263  28.022  34.666  1.00  0.00     0.023 A 
ATOM     62  C   UNL A   1      43.007  26.888  34.286  1.00  0.00     0.031 A 
ATOM     63  C   UNL A   1      41.614  27.932  35.918  1.00  0.00     0.131 A 
ATOM     64  C   UNL A   1      43.005  25.719  35.068  1.00  0.00     0.055 A 
ATOM     65  C   UNL A   1      41.672  26.793  36.728  1.00  0.00     0.041 A 
ATOM     66  F   UNL A   1      40.811  28.892  36.390  1.00  0.00    -0.206 F 
ATOM     67  C   UNL A   1      42.343  25.665  36.290  1.00  0.00     0.022 A 
BRANCH  64  68
ATOM     68  S   UNL A   1      43.724  24.212  34.368  1.00  0.00     0.124 S 
ATOM     69  O   UNL A   1      44.904  24.030  35.207  1.00  0.00    -0.237 OA
ATOM     70  O   UNL A   1      42.644  23.249  34.558  1.00  0.00    -0.237 OA
ATOM     71  O   UNL A   1      43.997  24.580  32.981  1.00  0.00    -0.744 OA
ENDBRANCH  64  68
ENDBRANCH  47  61
BRANCH  48  72
ATOM     72  C   UNL A   1      43.271  24.796  26.884  1.00  0.00     0.023 A 
ATOM     73  C   UNL A   1      44.198  24.391  25.904  1.00  0.00     0.031 A 
ATOM     74  C   UNL A   1      42.430  23.789  27.417  1.00  0.00     0.131 A 
ATOM     75  C   UNL A   1      44.256  23.037  25.496  1.00  0.00     0.055 A 
ATOM     76  C   UNL A   1      42.487  22.457  27.006  1.00  0.00     0.041 A 
ATOM     77  F   UNL A   1      41.576  24.055  28.417  1.00  0.00    -0.206 F 
ATOM     78  C   UNL A   1      43.409  22.072  26.048  1.00  0.00     0.022 A 
BRANCH  75  79
ATOM     79  S   UNL A   1      45.510  22.492  24.293  1.00  0.00     0.124 S 
ATOM     80  O   UNL A   1      44.705  21.790  23.301  1.00  0.00    -0.237 OA
ATOM     81  O   UNL A   1      46.105  23.755  23.871  1.00  0.00    -0.237 OA
ATOM     82  O   UNL A   1      46.395  21.636  25.086  1.00  0.00    -0.744 OA
ENDBRANCH  75  79
ENDBRANCH  48  72
BRANCH  60  83
ATOM     83  C   UNL A   1      45.069  30.514  28.962  1.00  0.00     0.023 A 
ATOM     84  C   UNL A   1      46.355  30.961  28.572  1.00  0.00     0.031 A 
ATOM     85  C   UNL A   1      43.984  30.879  28.147  1.00  0.00     0.131 A 
ATOM     86  C   UNL A   1      46.512  31.747  27.412  1.00  0.00     0.055 A 
ATOM     87  C   UNL A   1      44.146  31.641  26.989  1.00  0.00     0.041 A 
ATOM     88  F   UNL A   1      42.741  30.460  28.441  1.00  0.00    -0.206 F 
ATOM     89  C   UNL A   1      45.410  32.082  26.618  1.00  0.00     0.022 A 
BRANCH  86  90
ATOM     90  S   UNL A   1      48.160  32.349  26.910  1.00  0.00     0.124 S 
ATOM     91  O   UNL A   1      48.663  33.003  28.112  1.00  0.00    -0.237 OA
ATOM     92  O   UNL A   1      48.844  31.119  26.517  1.00  0.00    -0.237 OA
ATOM     93  O   UNL A   1      47.868  33.258  25.800  1.00  0.00    -0.744 OA
ENDBRANCH  86  90
ENDBRANCH  60  83
ENDBRANCH  34  35
ENDBRANCH  26  29
ENDBRANCH  24  25
ENDBRANCH   1  24
TORSDOF 16
ENDMDL
MODEL 3
REMARK VINA RESULT:     -11.6      4.247      9.088
REMARK SMILES C[C@@H]1C[C@@H](C)CN(C(=O)CCn2cc(C(=O)NCCCNC(=O)c3ccc(-c4c5nc(c(-c6cc(S(=O)(=O)[O-])ccc6F)c6ccc([nH]6)c(-c6cc(S(=O)(=O)[O-])ccc6F)c6nc(c(-c7cc(S(=O)(=O)[O-])ccc7F)c7ccc4[nH]7)C=C6)C=C5)cc3)cn2)C1
REMARK SMILES IDX 19 1 18 2 17 3 15 4 16 5 14 7 12 8 13 9 88 10 87 11 11 12
REMARK SMILES IDX 10 13 8 14 1 15 2 16 3 17 89 18 4 19 7 20 6 21 5 22 9 23
REMARK SMILES IDX 20 24 21 25 22 26 23 28 24 29 25 30 86 31 26 32 85 33 27 34
REMARK SMILES IDX 28 35 29 36 79 37 30 38 84 39 78 40 80 41 31 42 83 43 77 44
REMARK SMILES IDX 76 45 32 47 64 48 44 49 63 50 45 51 48 52 62 53 81 54 46 55
REMARK SMILES IDX 47 56 61 58 82 59 49 60 33 61 34 62 42 63 35 64 41 65 43 66
REMARK SMILES IDX 40 67 36 68 37 69 38 70 39 71 65 72 66 73 74 74 67 75 73 76
REMARK SMILES IDX 75 77 72 78 68 79 69 80 70 81 71 82 50 83 51 84 59 85 52 86
REMARK SMILES IDX 58 87 60 88 57 89 53 90 54 91 55 92 56 93
REMARK H PARENT 17 6 21 27 80 46 48 57
REMARK Flexibility Score: inf
ROOT
ATOM      1  C   UNL A   1      32.605  30.333  26.828  1.00  0.00     0.042 C 
ENDROOT
BRANCH   1   2
ATOM      2  C   UNL A   1      32.583  29.749  25.416  1.00  0.00     0.118 C 
BRANCH   2   3
ATOM      3  N   UNL A   1      31.374  30.117  24.698  1.00  0.00    -0.352 N 
ATOM      4  C   UNL A   1      30.562  29.292  23.968  1.00  0.00     0.254 C 
ATOM      5  O   UNL A   1      29.525  29.709  23.462  1.00  0.00    -0.269 OA
ATOM      6  H   UNL A   1      31.110  31.065  24.741  1.00  0.00     0.163 HD
BRANCH   4   7
ATOM      7  C   UNL A   1      30.939  27.906  23.918  1.00  0.00     0.077 A 
ATOM      8  N   UNL A   1      31.248  25.775  24.307  1.00  0.00    -0.271 N 
ATOM      9  C   UNL A   1      30.671  26.898  24.827  1.00  0.00     0.122 A 
ATOM     10  N   UNL A   1      31.721  25.955  23.058  1.00  0.00    -0.181 NA
ATOM     11  C   UNL A   1      31.632  27.272  22.874  1.00  0.00     0.149 A 
BRANCH   8  12
ATOM     12  C   UNL A   1      31.385  24.479  24.946  1.00  0.00     0.154 C 
BRANCH  12  13
ATOM     13  C   UNL A   1      32.188  24.519  26.244  1.00  0.00     0.124 C 
BRANCH  13  14
ATOM     14  C   UNL A   1      33.667  24.297  26.021  1.00  0.00     0.224 C 
ATOM     15  C   UNL A   1      35.736  22.890  23.598  1.00  0.00     0.009 C 
ATOM     16  C   UNL A   1      36.028  22.106  24.880  1.00  0.00     0.006 C 
ATOM     17  C   UNL A   1      35.273  20.766  24.900  1.00  0.00     0.010 C 
ATOM     18  C   UNL A   1      35.690  22.928  26.131  1.00  0.00     0.122 C 
ATOM     19  C   UNL A   1      33.767  20.926  25.189  1.00  0.00     0.006 C 
ATOM     20  N   UNL A   1      34.245  23.065  26.281  1.00  0.00    -0.342 N 
ATOM     21  C   UNL A   1      33.561  21.779  26.455  1.00  0.00     0.122 C 
ATOM     22  C   UNL A   1      33.111  19.547  25.278  1.00  0.00     0.009 C 
ATOM     23  O   UNL A   1      34.338  25.256  25.620  1.00  0.00    -0.275 OA
ENDBRANCH  13  14
ENDBRANCH  12  13
ENDBRANCH   8  12
ENDBRANCH   4   7
ENDBRANCH   2   3
ENDBRANCH   1   2
BRANCH   1  24
ATOM     24  C   UNL A   1      34.017  30.691  27.257  1.00  0.00     0.118 C 
BRANCH  24  25
ATOM     25  N   UNL A   1      34.016  31.653  28.364  1.00  0.00    -0.352 N 
ATOM     26  C   UNL A   1      34.925  31.802  29.392  1.00  0.00     0.251 C 
ATOM     27  H   UNL A   1      33.259  32.283  28.376  1.00  0.00     0.163 HD
ATOM     28  O   UNL A   1      34.626  32.434  30.398  1.00  0.00    -0.269 OA
BRANCH  26  29
ATOM     29  C   UNL A   1      36.245  31.172  29.250  1.00  0.00     0.039 A 
ATOM     30  C   UNL A   1      37.416  31.931  29.195  1.00  0.00     0.014 A 
ATOM     31  C   UNL A   1      36.288  29.784  29.270  1.00  0.00     0.014 A 
ATOM     32  C   UNL A   1      38.640  31.271  29.259  1.00  0.00     0.010 A 
ATOM     33  C   UNL A   1      37.476  29.159  29.536  1.00  0.00     0.010 A 
ATOM     34  C   UNL A   1      38.661  29.882  29.457  1.00  0.00    -0.014 A 
BRANCH  34  35
ATOM     35  C   UNL A   1      39.911  29.163  29.669  1.00  0.00     0.031 A 
ATOM     36  C   UNL A   1      40.245  28.863  31.085  1.00  0.00     0.074 A 
ATOM     37  C   UNL A   1      40.600  28.592  28.658  1.00  0.00     0.049 A 
ATOM     38  N   UNL A   1      41.188  29.379  31.799  1.00  0.00    -0.248 NA
ATOM     39  C   UNL A   1      39.343  27.985  31.846  1.00  0.00     0.031 C 
ATOM     40  C   UNL A   1      40.251  28.523  27.232  1.00  0.00     0.029 A 
ATOM     41  N   UNL A   1      41.721  27.830  28.725  1.00  0.00    -0.354 N 
ATOM     42  C   UNL A   1      41.152  28.721  33.025  1.00  0.00     0.074 A 
ATOM     43  C   UNL A   1      39.883  28.046  33.065  1.00  0.00     0.031 C 
ATOM     44  C   UNL A   1      40.991  27.567  26.629  1.00  0.00     0.029 A 
ATOM     45  C   UNL A   1      41.995  27.109  27.569  1.00  0.00     0.049 A 
ATOM     46  H   UNL A   1      42.292  27.791  29.526  1.00  0.00     0.167 HD
ATOM     47  C   UNL A   1      42.271  28.602  33.797  1.00  0.00     0.034 A 
ATOM     48  C   UNL A   1      42.974  26.187  27.393  1.00  0.00     0.034 A 
ATOM     49  C   UNL A   1      43.310  29.500  33.340  1.00  0.00     0.049 A 
ATOM     50  C   UNL A   1      44.017  26.493  28.405  1.00  0.00     0.074 A 
ATOM     51  C   UNL A   1      43.403  30.870  33.176  1.00  0.00     0.029 A 
ATOM     52  N   UNL A   1      44.329  28.975  32.575  1.00  0.00    -0.354 N 
ATOM     53  N   UNL A   1      44.685  27.618  28.418  1.00  0.00    -0.248 NA
ATOM     54  C   UNL A   1      43.969  25.795  29.680  1.00  0.00     0.031 C 
ATOM     55  C   UNL A   1      44.092  31.041  31.936  1.00  0.00     0.029 A 
ATOM     56  C   UNL A   1      44.457  29.777  31.465  1.00  0.00     0.049 A 
ATOM     57  H   UNL A   1      44.866  28.176  32.783  1.00  0.00     0.167 HD
ATOM     58  C   UNL A   1      44.752  27.983  29.756  1.00  0.00     0.074 A 
ATOM     59  C   UNL A   1      44.396  26.768  30.491  1.00  0.00     0.031 C 
ATOM     60  C   UNL A   1      44.807  29.296  30.138  1.00  0.00     0.034 A 
BRANCH  47  61
ATOM     61  C   UNL A   1      42.569  27.454  34.739  1.00  0.00     0.023 A 
ATOM     62  C   UNL A   1      43.379  26.409  34.249  1.00  0.00     0.031 A 
ATOM     63  C   UNL A   1      41.906  27.189  35.957  1.00  0.00     0.131 A 
ATOM     64  C   UNL A   1      43.425  25.161  34.895  1.00  0.00     0.055 A 
ATOM     65  C   UNL A   1      42.010  25.970  36.635  1.00  0.00     0.041 A 
ATOM     66  F   UNL A   1      41.045  28.047  36.517  1.00  0.00    -0.206 F 
ATOM     67  C   UNL A   1      42.747  24.935  36.088  1.00  0.00     0.022 A 
BRANCH  64  68
ATOM     68  S   UNL A   1      44.235  23.781  34.046  1.00  0.00     0.124 S 
ATOM     69  O   UNL A   1      45.624  23.956  34.456  1.00  0.00    -0.237 OA
ATOM     70  O   UNL A   1      43.535  22.631  34.610  1.00  0.00    -0.237 OA
ATOM     71  O   UNL A   1      43.964  24.046  32.635  1.00  0.00    -0.744 OA
ENDBRANCH  64  68
ENDBRANCH  47  61
BRANCH  48  72
ATOM     72  C   UNL A   1      42.845  24.907  26.650  1.00  0.00     0.023 A 
ATOM     73  C   UNL A   1      43.780  24.482  25.685  1.00  0.00     0.031 A 
ATOM     74  C   UNL A   1      41.876  23.959  27.056  1.00  0.00     0.131 A 
ATOM     75  C   UNL A   1      43.720  23.165  25.169  1.00  0.00     0.055 A 
ATOM     76  C   UNL A   1      41.818  22.664  26.539  1.00  0.00     0.041 A 
ATOM     77  F   UNL A   1      40.999  24.236  28.033  1.00  0.00    -0.206 F 
ATOM     78  C   UNL A   1      42.748  22.258  25.597  1.00  0.00     0.022 A 
BRANCH  75  79
ATOM     79  S   UNL A   1      44.977  22.584  23.987  1.00  0.00     0.124 S 
ATOM     80  O   UNL A   1      44.177  22.281  22.806  1.00  0.00    -0.237 OA
ATOM     81  O   UNL A   1      45.867  23.735  23.889  1.00  0.00    -0.237 OA
ATOM     82  O   UNL A   1      45.559  21.418  24.652  1.00  0.00    -0.744 OA
ENDBRANCH  75  79
ENDBRANCH  48  72
BRANCH  60  83
ATOM     83  C   UNL A   1      45.029  30.352  29.066  1.00  0.00     0.023 A 
ATOM     84  C   UNL A   1      46.297  30.787  28.614  1.00  0.00     0.031 A 
ATOM     85  C   UNL A   1      43.900  30.826  28.377  1.00  0.00     0.131 A 
ATOM     86  C   UNL A   1      46.397  31.669  27.518  1.00  0.00     0.055 A 
ATOM     87  C   UNL A   1      44.003  31.683  27.280  1.00  0.00     0.041 A 
ATOM     88  F   UNL A   1      42.667  30.426  28.732  1.00  0.00    -0.206 F 
ATOM     89  C   UNL A   1      45.252  32.112  26.848  1.00  0.00     0.022 A 
BRANCH  86  90
ATOM     90  S   UNL A   1      48.025  32.256  26.939  1.00  0.00     0.124 S 
ATOM     91  O   UNL A   1      48.586  32.913  28.113  1.00  0.00    -0.237 OA
ATOM     92  O   UNL A   1      48.682  31.019  26.522  1.00  0.00    -0.237 OA
ATOM     93  O   UNL A   1      47.690  33.161  25.838  1.00  0.00    -0.744 OA
ENDBRANCH  86  90
ENDBRANCH  60  83
ENDBRANCH  34  35
ENDBRANCH  26  29
ENDBRANCH  24  25
ENDBRANCH   1  24
TORSDOF 16
ENDMDL
