MODEL 1
REMARK VINA RESULT:     -13.1      0.000      0.000
REMARK SMILES O=C(NCCCNC(=O)c1ccc(-c2c3nc(c(-c4cc(S(=O)(=O)[O-])ccc4F)c4ccc([nH]4)c(-c4cc(S(=O)(=O)[O-])ccc4F)c4nc(c(-c5cc(S(=O)(=O)[O-])ccc5F)c5ccc2[nH]5)C=C4)C=C3)cc1)C1=Cc2c(ccc(Cl)c2Cl)O[C@H]1C(F)(F)F
REMARK SMILES IDX 6 1 5 2 4 3 3 4 1 5 2 6 73 8 74 9 84 10 75 11 83 12 76 13
REMARK SMILES IDX 81 14 77 15 79 16 82 17 78 18 80 19 85 20 86 21 87 22 88 23
REMARK SMILES IDX 7 24 8 25 9 27 10 28 11 29 72 30 12 31 71 32 13 33 14 34
REMARK SMILES IDX 15 35 65 36 16 37 70 38 64 39 66 40 17 41 69 42 63 43 62 44
REMARK SMILES IDX 18 46 50 47 30 48 49 49 31 50 34 51 48 52 67 53 32 54 33 55
REMARK SMILES IDX 47 57 68 58 35 59 19 60 20 61 28 62 21 63 27 64 29 65 26 66
REMARK SMILES IDX 22 67 23 68 24 69 25 70 51 71 52 72 60 73 53 74 59 75 61 76
REMARK SMILES IDX 58 77 54 78 55 79 56 80 57 81 36 82 37 83 45 84 38 85 44 86
REMARK SMILES IDX 46 87 43 88 39 89 40 90 41 91 42 92
REMARK H PARENT 3 7 7 26 66 45 34 56
REMARK Flexibility Score: inf
ROOT
ATOM      1  C   UNL A   1      35.855  22.132  25.574  1.00  0.00     0.118 C 
ENDROOT
BRANCH   1   2
ATOM      2  C   UNL A   1      35.170  22.105  26.931  1.00  0.00     0.042 C 
BRANCH   2   3
ATOM      3  C   UNL A   1      33.844  21.370  26.954  1.00  0.00     0.118 C 
BRANCH   3   4
ATOM      4  N   UNL A   1      32.693  22.115  27.431  1.00  0.00    -0.352 N 
ATOM      5  O   UNL A   1      31.055  23.667  27.319  1.00  0.00    -0.270 OA
ATOM      6  C   UNL A   1      32.000  23.102  26.778  1.00  0.00     0.251 C 
ATOM      7  H   UNL A   1      32.372  21.885  28.333  1.00  0.00     0.163 HD
BRANCH   6   8
ATOM      8  C   UNL A   1      32.420  23.533  25.415  1.00  0.00     0.067 C 
ATOM      9  C   UNL A   1      33.109  24.684  25.317  1.00  0.00     0.027 C 
ATOM     10  C   UNL A   1      31.550  23.042  24.288  1.00  0.00     0.314 C 
ATOM     11  C   UNL A   1      32.286  25.766  24.721  1.00  0.00     0.037 A 
ATOM     12  O   UNL A   1      30.992  24.115  23.469  1.00  0.00    -0.475 OA
ATOM     13  C   UNL A   1      31.224  25.405  23.875  1.00  0.00     0.129 A 
ATOM     14  C   UNL A   1      32.420  27.101  25.151  1.00  0.00     0.070 A 
ATOM     15  C   UNL A   1      30.270  26.350  23.503  1.00  0.00     0.049 A 
ATOM     16  C   UNL A   1      31.439  28.037  24.798  1.00  0.00     0.060 A 
ATOM     17  Cl  UNL A   1      33.745  27.542  26.185  1.00  0.00    -0.082 Cl
ATOM     18  C   UNL A   1      30.360  27.655  23.993  1.00  0.00     0.026 A 
ATOM     19  Cl  UNL A   1      31.467  29.667  25.370  1.00  0.00    -0.083 Cl
BRANCH  10  20
ATOM     20  C   UNL A   1      32.287  22.019  23.398  1.00  0.00     0.429 C 
ATOM     21  F   UNL A   1      33.420  22.514  22.848  1.00  0.00    -0.167 F 
ATOM     22  F   UNL A   1      32.638  20.920  24.108  1.00  0.00    -0.167 F 
ATOM     23  F   UNL A   1      31.515  21.594  22.367  1.00  0.00    -0.167 F 
ENDBRANCH  10  20
ENDBRANCH   6   8
ENDBRANCH   3   4
ENDBRANCH   2   3
ENDBRANCH   1   2
BRANCH   1  24
ATOM     24  N   UNL A   1      36.920  21.141  25.425  1.00  0.00    -0.352 N 
ATOM     25  C   UNL A   1      38.276  21.170  25.666  1.00  0.00     0.251 C 
ATOM     26  H   UNL A   1      36.602  20.275  25.081  1.00  0.00     0.163 HD
ATOM     27  O   UNL A   1      38.942  20.185  25.348  1.00  0.00    -0.269 OA
BRANCH  25  28
ATOM     28  C   UNL A   1      38.957  22.354  26.244  1.00  0.00     0.039 A 
ATOM     29  C   UNL A   1      40.086  22.162  27.051  1.00  0.00     0.014 A 
ATOM     30  C   UNL A   1      38.496  23.649  26.032  1.00  0.00     0.014 A 
ATOM     31  C   UNL A   1      40.801  23.264  27.540  1.00  0.00     0.010 A 
ATOM     32  C   UNL A   1      39.277  24.739  26.401  1.00  0.00     0.010 A 
ATOM     33  C   UNL A   1      40.441  24.566  27.163  1.00  0.00    -0.014 A 
BRANCH  33  34
ATOM     34  C   UNL A   1      41.229  25.768  27.558  1.00  0.00     0.031 A 
ATOM     35  C   UNL A   1      40.589  26.834  28.411  1.00  0.00     0.074 A 
ATOM     36  C   UNL A   1      42.469  25.958  27.060  1.00  0.00     0.049 A 
ATOM     37  N   UNL A   1      41.005  28.044  28.684  1.00  0.00    -0.248 NA
ATOM     38  C   UNL A   1      39.276  26.509  28.988  1.00  0.00     0.031 C 
ATOM     39  C   UNL A   1      43.188  25.024  26.190  1.00  0.00     0.029 A 
ATOM     40  N   UNL A   1      43.338  27.012  27.198  1.00  0.00    -0.354 N 
ATOM     41  C   UNL A   1      39.987  28.638  29.424  1.00  0.00     0.074 A 
ATOM     42  C   UNL A   1      38.908  27.676  29.494  1.00  0.00     0.031 C 
ATOM     43  C   UNL A   1      44.397  25.532  25.899  1.00  0.00     0.029 A 
ATOM     44  C   UNL A   1      44.517  26.853  26.506  1.00  0.00     0.049 A 
ATOM     45  H   UNL A   1      43.137  27.808  27.742  1.00  0.00     0.167 HD
ATOM     46  C   UNL A   1      39.963  29.860  30.014  1.00  0.00     0.034 A 
ATOM     47  C   UNL A   1      45.569  27.684  26.359  1.00  0.00     0.034 A 
ATOM     48  C   UNL A   1      41.068  30.785  29.976  1.00  0.00     0.049 A 
ATOM     49  C   UNL A   1      45.526  29.034  27.030  1.00  0.00     0.074 A 
ATOM     50  C   UNL A   1      41.181  32.022  30.586  1.00  0.00     0.029 A 
ATOM     51  N   UNL A   1      42.259  30.570  29.292  1.00  0.00    -0.354 N 
ATOM     52  N   UNL A   1      44.564  29.571  27.745  1.00  0.00    -0.248 NA
ATOM     53  C   UNL A   1      46.712  29.886  26.879  1.00  0.00     0.031 C 
ATOM     54  C   UNL A   1      42.417  32.576  30.231  1.00  0.00     0.029 A 
ATOM     55  C   UNL A   1      43.104  31.657  29.454  1.00  0.00     0.049 A 
ATOM     56  H   UNL A   1      42.472  29.762  28.771  1.00  0.00     0.167 HD
ATOM     57  C   UNL A   1      45.045  30.810  28.155  1.00  0.00     0.074 A 
ATOM     58  C   UNL A   1      46.384  30.935  27.619  1.00  0.00     0.031 C 
ATOM     59  C   UNL A   1      44.436  31.762  28.910  1.00  0.00     0.034 A 
BRANCH  46  60
ATOM     60  C   UNL A   1      38.697  30.258  30.736  1.00  0.00     0.023 A 
ATOM     61  C   UNL A   1      37.629  30.882  30.065  1.00  0.00     0.031 A 
ATOM     62  C   UNL A   1      38.567  30.053  32.122  1.00  0.00     0.131 A 
ATOM     63  C   UNL A   1      36.529  31.364  30.790  1.00  0.00     0.055 A 
ATOM     64  C   UNL A   1      37.426  30.451  32.823  1.00  0.00     0.041 A 
ATOM     65  F   UNL A   1      39.557  29.479  32.824  1.00  0.00    -0.206 F 
ATOM     66  C   UNL A   1      36.407  31.129  32.161  1.00  0.00     0.022 A 
BRANCH  63  67
ATOM     67  S   UNL A   1      35.345  32.443  29.941  1.00  0.00     0.124 S 
ATOM     68  O   UNL A   1      36.190  33.580  29.583  1.00  0.00    -0.237 OA
ATOM     69  O   UNL A   1      34.894  31.609  28.834  1.00  0.00    -0.237 OA
ATOM     70  O   UNL A   1      34.340  32.722  30.965  1.00  0.00    -0.744 OA
ENDBRANCH  63  67
ENDBRANCH  46  60
BRANCH  47  71
ATOM     71  C   UNL A   1      46.752  27.277  25.546  1.00  0.00     0.023 A 
ATOM     72  C   UNL A   1      46.935  27.779  24.248  1.00  0.00     0.031 A 
ATOM     73  C   UNL A   1      47.690  26.351  26.032  1.00  0.00     0.131 A 
ATOM     74  C   UNL A   1      48.003  27.317  23.462  1.00  0.00     0.055 A 
ATOM     75  C   UNL A   1      48.781  25.934  25.267  1.00  0.00     0.041 A 
ATOM     76  F   UNL A   1      47.567  25.845  27.270  1.00  0.00    -0.206 F 
ATOM     77  C   UNL A   1      48.934  26.408  23.967  1.00  0.00     0.022 A 
BRANCH  74  78
ATOM     78  S   UNL A   1      48.106  27.860  21.735  1.00  0.00     0.124 S 
ATOM     79  O   UNL A   1      48.313  26.595  21.038  1.00  0.00    -0.237 OA
ATOM     80  O   UNL A   1      46.809  28.497  21.540  1.00  0.00    -0.237 OA
ATOM     81  O   UNL A   1      49.252  28.769  21.732  1.00  0.00    -0.744 OA
ENDBRANCH  74  78
ENDBRANCH  47  71
BRANCH  59  82
ATOM     82  C   UNL A   1      45.243  32.991  29.239  1.00  0.00     0.023 A 
ATOM     83  C   UNL A   1      45.239  34.123  28.406  1.00  0.00     0.031 A 
ATOM     84  C   UNL A   1      46.032  33.025  30.403  1.00  0.00     0.131 A 
ATOM     85  C   UNL A   1      46.051  35.224  28.722  1.00  0.00     0.055 A 
ATOM     86  C   UNL A   1      46.793  34.143  30.741  1.00  0.00     0.041 A 
ATOM     87  F   UNL A   1      46.072  31.969  31.232  1.00  0.00    -0.206 F 
ATOM     88  C   UNL A   1      46.816  35.247  29.893  1.00  0.00     0.022 A 
BRANCH  85  89
ATOM     89  S   UNL A   1      46.158  36.594  27.540  1.00  0.00     0.124 S 
ATOM     90  O   UNL A   1      44.805  37.140  27.587  1.00  0.00    -0.237 OA
ATOM     91  O   UNL A   1      47.202  37.429  28.124  1.00  0.00    -0.237 OA
ATOM     92  O   UNL A   1      46.519  35.938  26.285  1.00  0.00    -0.744 OA
ENDBRANCH  85  89
ENDBRANCH  59  82
ENDBRANCH  33  34
ENDBRANCH  25  28
ENDBRANCH   1  24
TORSDOF 14
ENDMDL
MODEL 2
REMARK VINA RESULT:     -13.0      5.313     10.073
REMARK SMILES O=C(NCCCNC(=O)c1ccc(-c2c3nc(c(-c4cc(S(=O)(=O)[O-])ccc4F)c4ccc([nH]4)c(-c4cc(S(=O)(=O)[O-])ccc4F)c4nc(c(-c5cc(S(=O)(=O)[O-])ccc5F)c5ccc2[nH]5)C=C4)C=C3)cc1)C1=Cc2c(ccc(Cl)c2Cl)O[C@H]1C(F)(F)F
REMARK SMILES IDX 6 1 5 2 4 3 3 4 1 5 2 6 73 8 74 9 84 10 75 11 83 12 76 13
REMARK SMILES IDX 81 14 77 15 79 16 82 17 78 18 80 19 85 20 86 21 87 22 88 23
REMARK SMILES IDX 7 24 8 25 9 27 10 28 11 29 72 30 12 31 71 32 13 33 14 34
REMARK SMILES IDX 15 35 65 36 16 37 70 38 64 39 66 40 17 41 69 42 63 43 62 44
REMARK SMILES IDX 18 46 50 47 30 48 49 49 31 50 34 51 48 52 67 53 32 54 33 55
REMARK SMILES IDX 47 57 68 58 35 59 19 60 20 61 28 62 21 63 27 64 29 65 26 66
REMARK SMILES IDX 22 67 23 68 24 69 25 70 51 71 52 72 60 73 53 74 59 75 61 76
REMARK SMILES IDX 58 77 54 78 55 79 56 80 57 81 36 82 37 83 45 84 38 85 44 86
REMARK SMILES IDX 46 87 43 88 39 89 40 90 41 91 42 92
REMARK H PARENT 3 7 7 26 66 45 34 56
REMARK Flexibility Score: inf
ROOT
ATOM      1  C   UNL A   1      32.755  29.146  25.379  1.00  0.00     0.118 C 
ENDROOT
BRANCH   1   2
ATOM      2  C   UNL A   1      33.563  29.291  24.098  1.00  0.00     0.042 C 
BRANCH   2   3
ATOM      3  C   UNL A   1      32.795  28.982  22.829  1.00  0.00     0.118 C 
BRANCH   3   4
ATOM      4  N   UNL A   1      33.321  27.923  21.988  1.00  0.00    -0.352 N 
ATOM      5  O   UNL A   1      33.740  25.784  21.393  1.00  0.00    -0.270 OA
ATOM      6  C   UNL A   1      33.219  26.568  22.180  1.00  0.00     0.251 C 
ATOM      7  H   UNL A   1      33.812  28.210  21.185  1.00  0.00     0.163 HD
BRANCH   6   8
ATOM      8  C   UNL A   1      32.510  26.034  23.376  1.00  0.00     0.067 C 
ATOM      9  C   UNL A   1      33.265  25.529  24.366  1.00  0.00     0.027 C 
ATOM     10  C   UNL A   1      31.111  25.535  23.125  1.00  0.00     0.314 C 
ATOM     11  C   UNL A   1      33.170  24.049  24.429  1.00  0.00     0.037 A 
ATOM     12  O   UNL A   1      30.910  24.139  23.507  1.00  0.00    -0.475 OA
ATOM     13  C   UNL A   1      32.010  23.435  23.928  1.00  0.00     0.129 A 
ATOM     14  C   UNL A   1      34.286  23.263  24.779  1.00  0.00     0.070 A 
ATOM     15  C   UNL A   1      31.977  22.058  23.722  1.00  0.00     0.049 A 
ATOM     16  C   UNL A   1      34.255  21.883  24.539  1.00  0.00     0.060 A 
ATOM     17  Cl  UNL A   1      35.712  24.029  25.412  1.00  0.00    -0.082 Cl
ATOM     18  C   UNL A   1      33.111  21.289  23.995  1.00  0.00     0.026 A 
ATOM     19  Cl  UNL A   1      35.617  20.862  24.836  1.00  0.00    -0.083 Cl
BRANCH  10  20
ATOM     20  C   UNL A   1      30.052  26.431  23.801  1.00  0.00     0.429 C 
ATOM     21  F   UNL A   1      30.335  26.700  25.097  1.00  0.00    -0.167 F 
ATOM     22  F   UNL A   1      29.943  27.621  23.164  1.00  0.00    -0.167 F 
ATOM     23  F   UNL A   1      28.822  25.861  23.788  1.00  0.00    -0.167 F 
ENDBRANCH  10  20
ENDBRANCH   6   8
ENDBRANCH   3   4
ENDBRANCH   2   3
ENDBRANCH   1   2
BRANCH   1  24
ATOM     24  N   UNL A   1      32.348  30.417  25.974  1.00  0.00    -0.352 N 
ATOM     25  C   UNL A   1      32.924  31.247  26.910  1.00  0.00     0.251 C 
ATOM     26  H   UNL A   1      31.485  30.748  25.635  1.00  0.00     0.163 HD
ATOM     27  O   UNL A   1      32.283  32.228  27.288  1.00  0.00    -0.269 OA
BRANCH  25  28
ATOM     28  C   UNL A   1      34.254  30.974  27.507  1.00  0.00     0.039 A 
ATOM     29  C   UNL A   1      35.156  32.033  27.673  1.00  0.00     0.014 A 
ATOM     30  C   UNL A   1      34.646  29.693  27.883  1.00  0.00     0.014 A 
ATOM     31  C   UNL A   1      36.386  31.821  28.312  1.00  0.00     0.010 A 
ATOM     32  C   UNL A   1      35.802  29.508  28.634  1.00  0.00     0.010 A 
ATOM     33  C   UNL A   1      36.692  30.567  28.859  1.00  0.00    -0.014 A 
BRANCH  33  34
ATOM     34  C   UNL A   1      37.931  30.312  29.648  1.00  0.00     0.031 A 
ATOM     35  C   UNL A   1      38.998  29.404  29.089  1.00  0.00     0.074 A 
ATOM     36  C   UNL A   1      38.048  30.796  30.901  1.00  0.00     0.049 A 
ATOM     37  N   UNL A   1      40.036  28.874  29.684  1.00  0.00    -0.248 NA
ATOM     38  C   UNL A   1      38.840  28.995  27.685  1.00  0.00     0.031 C 
ATOM     39  C   UNL A   1      37.071  31.654  31.576  1.00  0.00     0.029 A 
ATOM     40  N   UNL A   1      39.033  30.620  31.842  1.00  0.00    -0.354 N 
ATOM     41  C   UNL A   1      40.626  28.036  28.742  1.00  0.00     0.074 A 
ATOM     42  C   UNL A   1      39.787  28.078  27.563  1.00  0.00     0.031 C 
ATOM     43  C   UNL A   1      37.518  31.952  32.807  1.00  0.00     0.029 A 
ATOM     44  C   UNL A   1      38.781  31.259  33.035  1.00  0.00     0.049 A 
ATOM     45  H   UNL A   1      39.844  30.087  31.679  1.00  0.00     0.167 HD
ATOM     46  C   UNL A   1      41.775  27.319  28.839  1.00  0.00     0.034 A 
ATOM     47  C   UNL A   1      39.477  31.271  34.190  1.00  0.00     0.034 A 
ATOM     48  C   UNL A   1      42.624  27.329  30.004  1.00  0.00     0.049 A 
ATOM     49  C   UNL A   1      40.756  30.475  34.274  1.00  0.00     0.074 A 
ATOM     50  C   UNL A   1      43.839  26.694  30.194  1.00  0.00     0.029 A 
ATOM     51  N   UNL A   1      42.350  28.020  31.179  1.00  0.00    -0.354 N 
ATOM     52  N   UNL A   1      41.311  29.706  33.366  1.00  0.00    -0.248 NA
ATOM     53  C   UNL A   1      41.503  30.554  35.536  1.00  0.00     0.031 C 
ATOM     54  C   UNL A   1      44.274  26.957  31.498  1.00  0.00     0.029 A 
ATOM     55  C   UNL A   1      43.365  27.812  32.101  1.00  0.00     0.049 A 
ATOM     56  H   UNL A   1      41.553  28.576  31.334  1.00  0.00     0.167 HD
ATOM     57  C   UNL A   1      42.490  29.237  33.938  1.00  0.00     0.074 A 
ATOM     58  C   UNL A   1      42.570  29.818  35.262  1.00  0.00     0.031 C 
ATOM     59  C   UNL A   1      43.425  28.401  33.417  1.00  0.00     0.034 A 
BRANCH  46  60
ATOM     60  C   UNL A   1      42.162  26.463  27.656  1.00  0.00     0.023 A 
ATOM     61  C   UNL A   1      41.743  25.124  27.546  1.00  0.00     0.031 A 
ATOM     62  C   UNL A   1      42.994  26.973  26.644  1.00  0.00     0.131 A 
ATOM     63  C   UNL A   1      42.234  24.317  26.508  1.00  0.00     0.055 A 
ATOM     64  C   UNL A   1      43.404  26.190  25.561  1.00  0.00     0.041 A 
ATOM     65  F   UNL A   1      43.442  28.237  26.699  1.00  0.00    -0.206 F 
ATOM     66  C   UNL A   1      43.040  24.848  25.500  1.00  0.00     0.022 A 
BRANCH  63  67
ATOM     67  S   UNL A   1      41.936  22.531  26.592  1.00  0.00     0.124 S 
ATOM     68  O   UNL A   1      42.841  22.133  27.669  1.00  0.00    -0.237 OA
ATOM     69  O   UNL A   1      40.513  22.462  26.897  1.00  0.00    -0.237 OA
ATOM     70  O   UNL A   1      42.315  22.057  25.262  1.00  0.00    -0.744 OA
ENDBRANCH  63  67
ENDBRANCH  46  60
BRANCH  47  71
ATOM     71  C   UNL A   1      38.992  32.055  35.363  1.00  0.00     0.023 A 
ATOM     72  C   UNL A   1      38.409  31.408  36.464  1.00  0.00     0.031 A 
ATOM     73  C   UNL A   1      39.062  33.459  35.385  1.00  0.00     0.131 A 
ATOM     74  C   UNL A   1      37.874  32.165  37.518  1.00  0.00     0.055 A 
ATOM     75  C   UNL A   1      38.577  34.205  36.461  1.00  0.00     0.041 A 
ATOM     76  F   UNL A   1      39.617  34.127  34.361  1.00  0.00    -0.206 F 
ATOM     77  C   UNL A   1      37.966  33.558  37.530  1.00  0.00     0.022 A 
BRANCH  74  78
ATOM     78  S   UNL A   1      36.979  31.301  38.838  1.00  0.00     0.124 S 
ATOM     79  O   UNL A   1      36.897  29.946  38.303  1.00  0.00    -0.237 OA
ATOM     80  O   UNL A   1      37.867  31.488  39.979  1.00  0.00    -0.237 OA
ATOM     81  O   UNL A   1      35.708  32.020  38.914  1.00  0.00    -0.744 OA
ENDBRANCH  74  78
ENDBRANCH  47  71
BRANCH  59  82
ATOM     82  C   UNL A   1      44.637  28.118  34.267  1.00  0.00     0.023 A 
ATOM     83  C   UNL A   1      44.682  27.024  35.149  1.00  0.00     0.031 A 
ATOM     84  C   UNL A   1      45.760  28.961  34.195  1.00  0.00     0.131 A 
ATOM     85  C   UNL A   1      45.809  26.832  35.963  1.00  0.00     0.055 A 
ATOM     86  C   UNL A   1      46.899  28.732  34.966  1.00  0.00     0.041 A 
ATOM     87  F   UNL A   1      45.767  30.020  33.369  1.00  0.00    -0.206 F 
ATOM     88  C   UNL A   1      46.924  27.670  35.865  1.00  0.00     0.022 A 
BRANCH  85  89
ATOM     89  S   UNL A   1      45.766  25.519  37.212  1.00  0.00     0.124 S 
ATOM     90  O   UNL A   1      44.860  26.080  38.210  1.00  0.00    -0.237 OA
ATOM     91  O   UNL A   1      45.253  24.384  36.454  1.00  0.00    -0.237 OA
ATOM     92  O   UNL A   1      47.160  25.402  37.636  1.00  0.00    -0.744 OA
ENDBRANCH  85  89
ENDBRANCH  59  82
ENDBRANCH  33  34
ENDBRANCH  25  28
ENDBRANCH   1  24
TORSDOF 14
ENDMDL
MODEL 3
REMARK VINA RESULT:     -12.8      1.545      1.815
REMARK SMILES O=C(NCCCNC(=O)c1ccc(-c2c3nc(c(-c4cc(S(=O)(=O)[O-])ccc4F)c4ccc([nH]4)c(-c4cc(S(=O)(=O)[O-])ccc4F)c4nc(c(-c5cc(S(=O)(=O)[O-])ccc5F)c5ccc2[nH]5)C=C4)C=C3)cc1)C1=Cc2c(ccc(Cl)c2Cl)O[C@H]1C(F)(F)F
REMARK SMILES IDX 6 1 5 2 4 3 3 4 1 5 2 6 73 8 74 9 84 10 75 11 83 12 76 13
REMARK SMILES IDX 81 14 77 15 79 16 82 17 78 18 80 19 85 20 86 21 87 22 88 23
REMARK SMILES IDX 7 24 8 25 9 27 10 28 11 29 72 30 12 31 71 32 13 33 14 34
REMARK SMILES IDX 15 35 65 36 16 37 70 38 64 39 66 40 17 41 69 42 63 43 62 44
REMARK SMILES IDX 18 46 50 47 30 48 49 49 31 50 34 51 48 52 67 53 32 54 33 55
REMARK SMILES IDX 47 57 68 58 35 59 19 60 20 61 28 62 21 63 27 64 29 65 26 66
REMARK SMILES IDX 22 67 23 68 24 69 25 70 51 71 52 72 60 73 53 74 59 75 61 76
REMARK SMILES IDX 58 77 54 78 55 79 56 80 57 81 36 82 37 83 45 84 38 85 44 86
REMARK SMILES IDX 46 87 43 88 39 89 40 90 41 91 42 92
REMARK H PARENT 3 7 7 26 66 45 34 56
REMARK Flexibility Score: inf
ROOT
ATOM      1  C   UNL A   1      35.806  22.245  25.709  1.00  0.00     0.118 C 
ENDROOT
BRANCH   1   2
ATOM      2  C   UNL A   1      35.052  22.112  27.023  1.00  0.00     0.042 C 
BRANCH   2   3
ATOM      3  C   UNL A   1      33.701  21.433  26.910  1.00  0.00     0.118 C 
BRANCH   3   4
ATOM      4  N   UNL A   1      32.551  22.187  27.374  1.00  0.00    -0.352 N 
ATOM      5  O   UNL A   1      30.935  23.761  27.251  1.00  0.00    -0.270 OA
ATOM      6  C   UNL A   1      31.884  23.192  26.721  1.00  0.00     0.251 C 
ATOM      7  H   UNL A   1      32.209  21.949  28.266  1.00  0.00     0.163 HD
BRANCH   6   8
ATOM      8  C   UNL A   1      32.336  23.635  25.372  1.00  0.00     0.067 C 
ATOM      9  C   UNL A   1      33.035  24.782  25.303  1.00  0.00     0.027 C 
ATOM     10  C   UNL A   1      31.487  23.164  24.221  1.00  0.00     0.314 C 
ATOM     11  C   UNL A   1      32.233  25.877  24.702  1.00  0.00     0.037 A 
ATOM     12  O   UNL A   1      30.955  24.250  23.403  1.00  0.00    -0.475 OA
ATOM     13  C   UNL A   1      31.187  25.533  23.829  1.00  0.00     0.129 A 
ATOM     14  C   UNL A   1      32.367  27.206  25.149  1.00  0.00     0.070 A 
ATOM     15  C   UNL A   1      30.248  26.489  23.448  1.00  0.00     0.049 A 
ATOM     16  C   UNL A   1      31.401  28.153  24.786  1.00  0.00     0.060 A 
ATOM     17  Cl  UNL A   1      33.673  27.625  26.217  1.00  0.00    -0.082 Cl
ATOM     18  C   UNL A   1      30.336  27.788  23.954  1.00  0.00     0.026 A 
ATOM     19  Cl  UNL A   1      31.428  29.776  25.378  1.00  0.00    -0.083 Cl
BRANCH  10  20
ATOM     20  C   UNL A   1      32.236  22.145  23.336  1.00  0.00     0.429 C 
ATOM     21  F   UNL A   1      31.433  21.537  22.432  1.00  0.00    -0.167 F 
ATOM     22  F   UNL A   1      33.232  22.744  22.641  1.00  0.00    -0.167 F 
ATOM     23  F   UNL A   1      32.805  21.157  24.069  1.00  0.00    -0.167 F 
ENDBRANCH  10  20
ENDBRANCH   6   8
ENDBRANCH   3   4
ENDBRANCH   2   3
ENDBRANCH   1   2
BRANCH   1  24
ATOM     24  N   UNL A   1      36.865  21.254  25.527  1.00  0.00    -0.352 N 
ATOM     25  C   UNL A   1      38.224  21.276  25.750  1.00  0.00     0.251 C 
ATOM     26  H   UNL A   1      36.540  20.395  25.173  1.00  0.00     0.163 HD
ATOM     27  O   UNL A   1      38.883  20.295  25.405  1.00  0.00    -0.269 OA
BRANCH  25  28
ATOM     28  C   UNL A   1      38.917  22.447  26.339  1.00  0.00     0.039 A 
ATOM     29  C   UNL A   1      40.028  22.236  27.166  1.00  0.00     0.014 A 
ATOM     30  C   UNL A   1      38.483  23.750  26.118  1.00  0.00     0.014 A 
ATOM     31  C   UNL A   1      40.754  23.325  27.666  1.00  0.00     0.010 A 
ATOM     32  C   UNL A   1      39.277  24.826  26.500  1.00  0.00     0.010 A 
ATOM     33  C   UNL A   1      40.425  24.632  27.282  1.00  0.00    -0.014 A 
BRANCH  33  34
ATOM     34  C   UNL A   1      41.228  25.820  27.690  1.00  0.00     0.031 A 
ATOM     35  C   UNL A   1      40.566  26.947  28.443  1.00  0.00     0.074 A 
ATOM     36  C   UNL A   1      42.510  25.941  27.288  1.00  0.00     0.049 A 
ATOM     37  N   UNL A   1      41.009  28.152  28.698  1.00  0.00    -0.248 NA
ATOM     38  C   UNL A   1      39.198  26.698  28.924  1.00  0.00     0.031 C 
ATOM     39  C   UNL A   1      43.258  24.943  26.519  1.00  0.00     0.029 A 
ATOM     40  N   UNL A   1      43.408  26.967  27.452  1.00  0.00    -0.354 N 
ATOM     41  C   UNL A   1      39.959  28.816  29.328  1.00  0.00     0.074 A 
ATOM     42  C   UNL A   1      38.839  27.899  29.349  1.00  0.00     0.031 C 
ATOM     43  C   UNL A   1      44.506  25.391  26.307  1.00  0.00     0.029 A 
ATOM     44  C   UNL A   1      44.631  26.733  26.866  1.00  0.00     0.049 A 
ATOM     45  H   UNL A   1      43.198  27.793  27.945  1.00  0.00     0.167 HD
ATOM     46  C   UNL A   1      39.939  30.063  29.863  1.00  0.00     0.034 A 
ATOM     47  C   UNL A   1      45.725  27.515  26.771  1.00  0.00     0.034 A 
ATOM     48  C   UNL A   1      41.081  30.943  29.876  1.00  0.00     0.049 A 
ATOM     49  C   UNL A   1      45.684  28.895  27.380  1.00  0.00     0.074 A 
ATOM     50  C   UNL A   1      41.196  32.201  30.442  1.00  0.00     0.029 A 
ATOM     51  N   UNL A   1      42.313  30.653  29.302  1.00  0.00    -0.354 N 
ATOM     52  N   UNL A   1      44.691  29.499  27.991  1.00  0.00    -0.248 NA
ATOM     53  C   UNL A   1      46.913  29.694  27.291  1.00  0.00     0.031 C 
ATOM     54  C   UNL A   1      42.477  32.691  30.167  1.00  0.00     0.029 A 
ATOM     55  C   UNL A   1      43.186  31.713  29.487  1.00  0.00     0.049 A 
ATOM     56  H   UNL A   1      42.534  29.815  28.833  1.00  0.00     0.167 HD
ATOM     57  C   UNL A   1      45.188  30.737  28.388  1.00  0.00     0.074 A 
ATOM     58  C   UNL A   1      46.570  30.787  27.958  1.00  0.00     0.031 C 
ATOM     59  C   UNL A   1      44.561  31.743  29.050  1.00  0.00     0.034 A 
BRANCH  46  60
ATOM     60  C   UNL A   1      38.637  30.541  30.462  1.00  0.00     0.023 A 
ATOM     61  C   UNL A   1      37.670  31.210  29.689  1.00  0.00     0.031 A 
ATOM     62  C   UNL A   1      38.371  30.365  31.832  1.00  0.00     0.131 A 
ATOM     63  C   UNL A   1      36.537  31.762  30.305  1.00  0.00     0.055 A 
ATOM     64  C   UNL A   1      37.195  30.836  32.422  1.00  0.00     0.041 A 
ATOM     65  F   UNL A   1      39.260  29.751  32.628  1.00  0.00    -0.206 F 
ATOM     66  C   UNL A   1      36.279  31.557  31.661  1.00  0.00     0.022 A 
BRANCH  63  67
ATOM     67  S   UNL A   1      35.496  32.889  29.339  1.00  0.00     0.124 S 
ATOM     68  O   UNL A   1      34.282  32.936  30.153  1.00  0.00    -0.237 OA
ATOM     69  O   UNL A   1      36.291  34.109  29.310  1.00  0.00    -0.237 OA
ATOM     70  O   UNL A   1      35.350  32.206  28.055  1.00  0.00    -0.744 OA
ENDBRANCH  63  67
ENDBRANCH  46  60
BRANCH  47  71
ATOM     71  C   UNL A   1      46.951  27.028  26.075  1.00  0.00     0.023 A 
ATOM     72  C   UNL A   1      47.974  26.387  26.791  1.00  0.00     0.031 A 
ATOM     73  C   UNL A   1      47.140  27.233  24.697  1.00  0.00     0.131 A 
ATOM     74  C   UNL A   1      49.160  26.017  26.138  1.00  0.00     0.055 A 
ATOM     75  C   UNL A   1      48.299  26.814  24.041  1.00  0.00     0.041 A 
ATOM     76  F   UNL A   1      46.189  27.833  23.963  1.00  0.00    -0.206 F 
ATOM     77  C   UNL A   1      49.324  26.215  24.766  1.00  0.00     0.022 A 
BRANCH  74  78
ATOM     78  S   UNL A   1      50.524  25.349  27.130  1.00  0.00     0.124 S 
ATOM     79  O   UNL A   1      50.981  26.536  27.844  1.00  0.00    -0.237 OA
ATOM     80  O   UNL A   1      49.846  24.337  27.932  1.00  0.00    -0.237 OA
ATOM     81  O   UNL A   1      51.451  24.828  26.127  1.00  0.00    -0.744 OA
ENDBRANCH  74  78
ENDBRANCH  47  71
BRANCH  59  82
ATOM     82  C   UNL A   1      45.389  32.955  29.393  1.00  0.00     0.023 A 
ATOM     83  C   UNL A   1      45.466  34.065  28.534  1.00  0.00     0.031 A 
ATOM     84  C   UNL A   1      46.115  32.994  30.596  1.00  0.00     0.131 A 
ATOM     85  C   UNL A   1      46.296  35.147  28.867  1.00  0.00     0.055 A 
ATOM     86  C   UNL A   1      46.894  34.096  30.948  1.00  0.00     0.041 A 
ATOM     87  F   UNL A   1      46.077  31.958  31.451  1.00  0.00    -0.206 F 
ATOM     88  C   UNL A   1      46.997  35.176  30.077  1.00  0.00     0.022 A 
BRANCH  85  89
ATOM     89  S   UNL A   1      46.510  36.483  27.660  1.00  0.00     0.124 S 
ATOM     90  O   UNL A   1      45.128  36.852  27.368  1.00  0.00    -0.237 OA
ATOM     91  O   UNL A   1      47.285  37.463  28.413  1.00  0.00    -0.237 OA
ATOM     92  O   UNL A   1      47.226  35.840  26.560  1.00  0.00    -0.744 OA
ENDBRANCH  85  89
ENDBRANCH  59  82
ENDBRANCH  33  34
ENDBRANCH  25  28
ENDBRANCH   1  24
TORSDOF 14
ENDMDL
