MODEL 1
REMARK VINA RESULT:     -12.8      0.000      0.000
REMARK SMILES Cc1ccc(Nc2c(C)cccc2Cl)c(CC(=O)NCCCNC(=O)c2ccc(-c3c4nc(c(-c5cc(S(=O)(=O)[O-])ccc5F)c5ccc([nH]5)c(-c5cc(S(=O)(=O)[O-])ccc5F)c5nc(c(-c6cc(S(=O)(=O)[O-])ccc6F)c6ccc3[nH]6)C=C5)C=C4)cc2)c1
REMARK SMILES IDX 21 1 20 2 19 3 17 4 18 5 16 7 15 8 1 9 2 10 3 11 89 12 4 13
REMARK SMILES IDX 5 14 6 15 7 17 8 18 13 19 9 20 10 21 12 22 14 23 11 24 22 25
REMARK SMILES IDX 23 26 24 27 25 29 26 30 27 31 88 32 28 33 87 34 29 35 30 36
REMARK SMILES IDX 31 37 81 38 32 39 86 40 80 41 82 42 33 43 85 44 79 45 78 46
REMARK SMILES IDX 34 48 66 49 46 50 65 51 47 52 50 53 64 54 83 55 48 56 49 57
REMARK SMILES IDX 63 59 84 60 51 61 35 62 36 63 44 64 37 65 43 66 45 67 42 68
REMARK SMILES IDX 38 69 39 70 40 71 41 72 67 73 68 74 76 75 69 76 75 77 77 78
REMARK SMILES IDX 74 79 70 80 71 81 72 82 73 83 52 84 53 85 61 86 54 87 60 88
REMARK SMILES IDX 62 89 59 90 55 91 56 92 57 93 58 94
REMARK H PARENT 19 6 6 16 23 28 82 47 50 58
REMARK Flexibility Score: inf
ROOT
ATOM      1  C   UNL A   1      33.609  29.679  27.627  1.00  0.00     0.042 C 
ENDROOT
BRANCH   1   2
ATOM      2  C   UNL A   1      34.007  28.398  26.899  1.00  0.00     0.117 C 
BRANCH   2   3
ATOM      3  N   UNL A   1      32.898  27.461  26.786  1.00  0.00    -0.356 N 
ATOM      4  C   UNL A   1      32.842  26.269  26.123  1.00  0.00     0.224 C 
ATOM      5  O   UNL A   1      31.769  25.670  26.006  1.00  0.00    -0.275 OA
ATOM      6  H   UNL A   1      32.074  27.724  27.255  1.00  0.00     0.163 HD
BRANCH   4   7
ATOM      7  C   UNL A   1      34.103  25.669  25.518  1.00  0.00     0.137 C 
BRANCH   7   8
ATOM      8  C   UNL A   1      33.868  24.909  24.231  1.00  0.00    -0.015 A 
ATOM      9  C   UNL A   1      32.478  25.778  20.776  1.00  0.00     0.044 C 
ATOM     10  C   UNL A   1      33.056  25.004  21.920  1.00  0.00    -0.051 A 
ATOM     11  C   UNL A   1      33.192  23.620  21.834  1.00  0.00     0.005 A 
ATOM     12  C   UNL A   1      33.424  25.641  23.107  1.00  0.00     0.009 A 
ATOM     13  C   UNL A   1      33.681  22.891  22.921  1.00  0.00     0.026 A 
ATOM     14  C   UNL A   1      34.020  23.510  24.135  1.00  0.00     0.042 A 
BRANCH  14  15
ATOM     15  N   UNL A   1      34.547  22.759  25.212  1.00  0.00    -0.354 N 
ATOM     16  H   UNL A   1      34.095  22.887  26.077  1.00  0.00     0.167 HD
BRANCH  15  17
ATOM     17  C   UNL A   1      35.634  21.847  25.221  1.00  0.00     0.060 A 
ATOM     18  C   UNL A   1      36.974  22.275  25.361  1.00  0.00    -0.026 A 
ATOM     19  C   UNL A   1      35.389  20.473  25.001  1.00  0.00     0.064 A 
ATOM     20  C   UNL A   1      37.347  23.704  25.649  1.00  0.00     0.046 C 
ATOM     21  C   UNL A   1      38.019  21.340  25.229  1.00  0.00     0.005 A 
ATOM     22  C   UNL A   1      36.436  19.555  24.898  1.00  0.00     0.023 A 
ATOM     23  Cl  UNL A   1      33.776  19.875  24.809  1.00  0.00    -0.082 Cl
ATOM     24  C   UNL A   1      37.753  19.990  25.001  1.00  0.00     0.002 A 
ENDBRANCH  15  17
ENDBRANCH  14  15
ENDBRANCH   7   8
ENDBRANCH   4   7
ENDBRANCH   2   3
ENDBRANCH   1   2
BRANCH   1  25
ATOM     25  C   UNL A   1      34.534  30.861  27.359  1.00  0.00     0.118 C 
BRANCH  25  26
ATOM     26  N   UNL A   1      34.990  31.512  28.591  1.00  0.00    -0.352 N 
ATOM     27  C   UNL A   1      35.994  31.117  29.453  1.00  0.00     0.251 C 
ATOM     28  H   UNL A   1      34.517  32.340  28.838  1.00  0.00     0.163 HD
ATOM     29  O   UNL A   1      36.296  31.765  30.444  1.00  0.00    -0.269 OA
BRANCH  27  30
ATOM     30  C   UNL A   1      36.788  29.927  29.078  1.00  0.00     0.039 A 
ATOM     31  C   UNL A   1      37.043  28.987  30.082  1.00  0.00     0.014 A 
ATOM     32  C   UNL A   1      37.477  29.896  27.869  1.00  0.00     0.014 A 
ATOM     33  C   UNL A   1      38.153  28.157  29.963  1.00  0.00     0.010 A 
ATOM     34  C   UNL A   1      38.625  29.127  27.788  1.00  0.00     0.010 A 
ATOM     35  C   UNL A   1      39.000  28.311  28.864  1.00  0.00    -0.014 A 
BRANCH  35  36
ATOM     36  C   UNL A   1      40.370  27.801  28.858  1.00  0.00     0.031 A 
ATOM     37  C   UNL A   1      40.682  26.421  28.442  1.00  0.00     0.074 A 
ATOM     38  C   UNL A   1      41.392  28.611  29.215  1.00  0.00     0.049 A 
ATOM     39  N   UNL A   1      41.720  25.762  28.837  1.00  0.00    -0.248 NA
ATOM     40  C   UNL A   1      39.810  25.651  27.567  1.00  0.00     0.031 C 
ATOM     41  C   UNL A   1      42.820  28.362  29.053  1.00  0.00     0.029 A 
ATOM     42  N   UNL A   1      41.325  29.716  30.063  1.00  0.00    -0.354 N 
ATOM     43  C   UNL A   1      41.822  24.636  28.056  1.00  0.00     0.074 A 
ATOM     44  C   UNL A   1      40.570  24.576  27.335  1.00  0.00     0.031 C 
ATOM     45  C   UNL A   1      43.488  29.070  29.975  1.00  0.00     0.029 A 
ATOM     46  C   UNL A   1      42.505  29.700  30.836  1.00  0.00     0.049 A 
ATOM     47  H   UNL A   1      40.598  30.379  30.112  1.00  0.00     0.167 HD
ATOM     48  C   UNL A   1      43.001  23.952  27.999  1.00  0.00     0.034 A 
ATOM     49  C   UNL A   1      42.452  29.617  32.197  1.00  0.00     0.034 A 
ATOM     50  C   UNL A   1      44.020  24.508  28.893  1.00  0.00     0.049 A 
ATOM     51  C   UNL A   1      43.152  28.403  32.776  1.00  0.00     0.074 A 
ATOM     52  C   UNL A   1      45.164  25.270  28.714  1.00  0.00     0.029 A 
ATOM     53  N   UNL A   1      43.794  24.485  30.258  1.00  0.00    -0.354 N 
ATOM     54  N   UNL A   1      43.746  27.484  32.066  1.00  0.00    -0.248 NA
ATOM     55  C   UNL A   1      43.149  28.079  34.203  1.00  0.00     0.031 C 
ATOM     56  C   UNL A   1      45.622  25.697  29.994  1.00  0.00     0.029 A 
ATOM     57  C   UNL A   1      44.762  25.188  30.950  1.00  0.00     0.049 A 
ATOM     58  H   UNL A   1      43.036  24.024  30.685  1.00  0.00     0.167 HD
ATOM     59  C   UNL A   1      44.114  26.444  32.880  1.00  0.00     0.074 A 
ATOM     60  C   UNL A   1      43.730  26.868  34.213  1.00  0.00     0.031 C 
ATOM     61  C   UNL A   1      44.654  25.286  32.397  1.00  0.00     0.034 A 
BRANCH  48  62
ATOM     62  C   UNL A   1      43.311  22.930  26.928  1.00  0.00     0.023 A 
ATOM     63  C   UNL A   1      42.761  21.636  27.022  1.00  0.00     0.031 A 
ATOM     64  C   UNL A   1      44.156  23.148  25.824  1.00  0.00     0.131 A 
ATOM     65  C   UNL A   1      43.142  20.610  26.140  1.00  0.00     0.055 A 
ATOM     66  C   UNL A   1      44.595  22.112  24.988  1.00  0.00     0.041 A 
ATOM     67  F   UNL A   1      44.547  24.381  25.472  1.00  0.00    -0.206 F 
ATOM     68  C   UNL A   1      44.101  20.828  25.155  1.00  0.00     0.022 A 
BRANCH  65  69
ATOM     69  S   UNL A   1      42.354  18.984  26.285  1.00  0.00     0.124 S 
ATOM     70  O   UNL A   1      43.213  18.145  25.456  1.00  0.00    -0.237 OA
ATOM     71  O   UNL A   1      42.410  18.744  27.723  1.00  0.00    -0.237 OA
ATOM     72  O   UNL A   1      41.012  19.208  25.751  1.00  0.00    -0.744 OA
ENDBRANCH  65  69
ENDBRANCH  48  62
BRANCH  49  73
ATOM     73  C   UNL A   1      41.250  30.297  32.767  1.00  0.00     0.023 A 
ATOM     74  C   UNL A   1      41.285  31.708  32.814  1.00  0.00     0.031 A 
ATOM     75  C   UNL A   1      40.003  29.671  32.875  1.00  0.00     0.131 A 
ATOM     76  C   UNL A   1      40.096  32.446  32.759  1.00  0.00     0.055 A 
ATOM     77  C   UNL A   1      38.818  30.417  32.928  1.00  0.00     0.041 A 
ATOM     78  F   UNL A   1      39.894  28.337  32.801  1.00  0.00    -0.206 F 
ATOM     79  C   UNL A   1      38.857  31.808  32.818  1.00  0.00     0.022 A 
BRANCH  76  80
ATOM     80  S   UNL A   1      40.207  34.194  32.274  1.00  0.00     0.124 S 
ATOM     81  O   UNL A   1      38.804  34.574  32.154  1.00  0.00    -0.237 OA
ATOM     82  O   UNL A   1      40.939  34.790  33.393  1.00  0.00    -0.237 OA
ATOM     83  O   UNL A   1      40.960  34.168  31.022  1.00  0.00    -0.744 OA
ENDBRANCH  76  80
ENDBRANCH  49  73
BRANCH  61  84
ATOM     84  C   UNL A   1      45.083  24.133  33.269  1.00  0.00     0.023 A 
ATOM     85  C   UNL A   1      46.352  24.076  33.868  1.00  0.00     0.031 A 
ATOM     86  C   UNL A   1      44.252  23.006  33.466  1.00  0.00     0.131 A 
ATOM     87  C   UNL A   1      46.719  22.987  34.678  1.00  0.00     0.055 A 
ATOM     88  C   UNL A   1      44.650  21.889  34.206  1.00  0.00     0.041 A 
ATOM     89  F   UNL A   1      43.003  22.955  32.981  1.00  0.00    -0.206 F 
ATOM     90  C   UNL A   1      45.887  21.880  34.831  1.00  0.00     0.022 A 
BRANCH  87  91
ATOM     91  S   UNL A   1      48.281  23.073  35.593  1.00  0.00     0.124 S 
ATOM     92  O   UNL A   1      47.835  23.234  36.973  1.00  0.00    -0.237 OA
ATOM     93  O   UNL A   1      48.886  21.784  35.268  1.00  0.00    -0.237 OA
ATOM     94  O   UNL A   1      48.955  24.235  35.018  1.00  0.00    -0.744 OA
ENDBRANCH  87  91
ENDBRANCH  61  84
ENDBRANCH  35  36
ENDBRANCH  27  30
ENDBRANCH  25  26
ENDBRANCH   1  25
TORSDOF 16
ENDMDL
MODEL 2
REMARK VINA RESULT:     -12.6      1.551      2.177
REMARK SMILES Cc1ccc(Nc2c(C)cccc2Cl)c(CC(=O)NCCCNC(=O)c2ccc(-c3c4nc(c(-c5cc(S(=O)(=O)[O-])ccc5F)c5ccc([nH]5)c(-c5cc(S(=O)(=O)[O-])ccc5F)c5nc(c(-c6cc(S(=O)(=O)[O-])ccc6F)c6ccc3[nH]6)C=C5)C=C4)cc2)c1
REMARK SMILES IDX 21 1 20 2 19 3 17 4 18 5 16 7 15 8 1 9 2 10 3 11 89 12 4 13
REMARK SMILES IDX 5 14 6 15 7 17 8 18 13 19 9 20 10 21 12 22 14 23 11 24 22 25
REMARK SMILES IDX 23 26 24 27 25 29 26 30 27 31 88 32 28 33 87 34 29 35 30 36
REMARK SMILES IDX 31 37 81 38 32 39 86 40 80 41 82 42 33 43 85 44 79 45 78 46
REMARK SMILES IDX 34 48 66 49 46 50 65 51 47 52 50 53 64 54 83 55 48 56 49 57
REMARK SMILES IDX 63 59 84 60 51 61 35 62 36 63 44 64 37 65 43 66 45 67 42 68
REMARK SMILES IDX 38 69 39 70 40 71 41 72 67 73 68 74 76 75 69 76 75 77 77 78
REMARK SMILES IDX 74 79 70 80 71 81 72 82 73 83 52 84 53 85 61 86 54 87 60 88
REMARK SMILES IDX 62 89 59 90 55 91 56 92 57 93 58 94
REMARK H PARENT 19 6 6 16 23 28 82 47 50 58
REMARK Flexibility Score: inf
ROOT
ATOM      1  C   UNL A   1      33.437  31.693  27.262  1.00  0.00     0.042 C 
ENDROOT
BRANCH   1   2
ATOM      2  C   UNL A   1      32.273  30.854  26.742  1.00  0.00     0.117 C 
BRANCH   2   3
ATOM      3  N   UNL A   1      32.030  29.677  27.562  1.00  0.00    -0.356 N 
ATOM      4  C   UNL A   1      32.007  28.361  27.196  1.00  0.00     0.224 C 
ATOM      5  O   UNL A   1      31.635  27.498  27.996  1.00  0.00    -0.275 OA
ATOM      6  H   UNL A   1      31.859  29.854  28.515  1.00  0.00     0.163 HD
BRANCH   4   7
ATOM      7  C   UNL A   1      32.436  27.949  25.796  1.00  0.00     0.137 C 
BRANCH   7   8
ATOM      8  C   UNL A   1      31.311  27.406  24.941  1.00  0.00    -0.015 A 
ATOM      9  C   UNL A   1      28.589  28.939  22.736  1.00  0.00     0.044 C 
ATOM     10  C   UNL A   1      29.434  27.934  23.457  1.00  0.00    -0.051 A 
ATOM     11  C   UNL A   1      29.070  26.589  23.467  1.00  0.00     0.005 A 
ATOM     12  C   UNL A   1      30.570  28.326  24.169  1.00  0.00     0.009 A 
ATOM     13  C   UNL A   1      29.828  25.659  24.184  1.00  0.00     0.026 A 
ATOM     14  C   UNL A   1      30.950  26.042  24.937  1.00  0.00     0.042 A 
BRANCH  14  15
ATOM     15  N   UNL A   1      31.725  25.081  25.627  1.00  0.00    -0.354 N 
ATOM     16  H   UNL A   1      32.002  25.335  26.537  1.00  0.00     0.167 HD
BRANCH  15  17
ATOM     17  C   UNL A   1      32.159  23.801  25.194  1.00  0.00     0.060 A 
ATOM     18  C   UNL A   1      33.196  23.639  24.247  1.00  0.00    -0.026 A 
ATOM     19  C   UNL A   1      31.486  22.647  25.654  1.00  0.00     0.064 A 
ATOM     20  C   UNL A   1      34.014  24.791  23.729  1.00  0.00     0.046 C 
ATOM     21  C   UNL A   1      33.494  22.353  23.756  1.00  0.00     0.005 A 
ATOM     22  C   UNL A   1      31.810  21.376  25.175  1.00  0.00     0.023 A 
ATOM     23  Cl  UNL A   1      30.198  22.766  26.805  1.00  0.00    -0.082 Cl
ATOM     24  C   UNL A   1      32.808  21.230  24.217  1.00  0.00     0.002 A 
ENDBRANCH  15  17
ENDBRANCH  14  15
ENDBRANCH   7   8
ENDBRANCH   4   7
ENDBRANCH   2   3
ENDBRANCH   1   2
BRANCH   1  25
ATOM     25  C   UNL A   1      34.539  30.880  27.931  1.00  0.00     0.118 C 
BRANCH  25  26
ATOM     26  N   UNL A   1      35.097  31.549  29.111  1.00  0.00    -0.352 N 
ATOM     27  C   UNL A   1      36.185  31.179  29.876  1.00  0.00     0.251 C 
ATOM     28  H   UNL A   1      34.634  32.370  29.396  1.00  0.00     0.163 HD
ATOM     29  O   UNL A   1      36.567  31.841  30.830  1.00  0.00    -0.269 OA
BRANCH  27  30
ATOM     30  C   UNL A   1      36.964  30.002  29.435  1.00  0.00     0.039 A 
ATOM     31  C   UNL A   1      37.188  28.994  30.377  1.00  0.00     0.014 A 
ATOM     32  C   UNL A   1      37.669  30.037  28.236  1.00  0.00     0.014 A 
ATOM     33  C   UNL A   1      38.284  28.152  30.220  1.00  0.00     0.010 A 
ATOM     34  C   UNL A   1      38.804  29.255  28.120  1.00  0.00     0.010 A 
ATOM     35  C   UNL A   1      39.150  28.363  29.144  1.00  0.00    -0.014 A 
BRANCH  35  36
ATOM     36  C   UNL A   1      40.511  27.829  29.123  1.00  0.00     0.031 A 
ATOM     37  C   UNL A   1      40.797  26.455  28.672  1.00  0.00     0.074 A 
ATOM     38  C   UNL A   1      41.547  28.611  29.499  1.00  0.00     0.049 A 
ATOM     39  N   UNL A   1      41.824  25.767  29.048  1.00  0.00    -0.248 NA
ATOM     40  C   UNL A   1      39.911  25.723  27.778  1.00  0.00     0.031 C 
ATOM     41  C   UNL A   1      42.970  28.341  29.329  1.00  0.00     0.029 A 
ATOM     42  N   UNL A   1      41.500  29.696  30.375  1.00  0.00    -0.354 N 
ATOM     43  C   UNL A   1      41.905  24.660  28.239  1.00  0.00     0.074 A 
ATOM     44  C   UNL A   1      40.651  24.641  27.518  1.00  0.00     0.031 C 
ATOM     45  C   UNL A   1      43.651  29.013  30.268  1.00  0.00     0.029 A 
ATOM     46  C   UNL A   1      42.681  29.638  31.146  1.00  0.00     0.049 A 
ATOM     47  H   UNL A   1      40.785  30.369  30.442  1.00  0.00     0.167 HD
ATOM     48  C   UNL A   1      43.072  23.957  28.162  1.00  0.00     0.034 A 
ATOM     49  C   UNL A   1      42.628  29.522  32.505  1.00  0.00     0.034 A 
ATOM     50  C   UNL A   1      44.102  24.471  29.068  1.00  0.00     0.049 A 
ATOM     51  C   UNL A   1      43.307  28.281  33.051  1.00  0.00     0.074 A 
ATOM     52  C   UNL A   1      45.258  25.218  28.907  1.00  0.00     0.029 A 
ATOM     53  N   UNL A   1      43.876  24.418  30.433  1.00  0.00    -0.354 N 
ATOM     54  N   UNL A   1      43.884  27.370  32.317  1.00  0.00    -0.248 NA
ATOM     55  C   UNL A   1      43.299  27.921  34.470  1.00  0.00     0.031 C 
ATOM     56  C   UNL A   1      45.725  25.604  30.198  1.00  0.00     0.029 A 
ATOM     57  C   UNL A   1      44.858  25.086  31.141  1.00  0.00     0.049 A 
ATOM     58  H   UNL A   1      43.111  23.960  30.849  1.00  0.00     0.167 HD
ATOM     59  C   UNL A   1      44.234  26.303  33.104  1.00  0.00     0.074 A 
ATOM     60  C   UNL A   1      43.859  26.699  34.447  1.00  0.00     0.031 C 
ATOM     61  C   UNL A   1      44.753  25.148  32.590  1.00  0.00     0.034 A 
BRANCH  48  62
ATOM     62  C   UNL A   1      43.362  22.958  27.065  1.00  0.00     0.023 A 
ATOM     63  C   UNL A   1      42.782  21.675  27.122  1.00  0.00     0.031 A 
ATOM     64  C   UNL A   1      44.218  23.185  25.970  1.00  0.00     0.131 A 
ATOM     65  C   UNL A   1      43.143  20.664  26.213  1.00  0.00     0.055 A 
ATOM     66  C   UNL A   1      44.636  22.162  25.109  1.00  0.00     0.041 A 
ATOM     67  F   UNL A   1      44.639  24.418  25.654  1.00  0.00    -0.206 F 
ATOM     68  C   UNL A   1      44.111  20.886  25.238  1.00  0.00     0.022 A 
BRANCH  65  69
ATOM     69  S   UNL A   1      42.315  19.054  26.311  1.00  0.00     0.124 S 
ATOM     70  O   UNL A   1      42.337  18.777  27.743  1.00  0.00    -0.237 OA
ATOM     71  O   UNL A   1      41.010  19.345  25.728  1.00  0.00    -0.237 OA
ATOM     72  O   UNL A   1      43.169  18.184  25.503  1.00  0.00    -0.744 OA
ENDBRANCH  65  69
ENDBRANCH  48  62
BRANCH  49  73
ATOM     73  C   UNL A   1      41.439  30.208  33.094  1.00  0.00     0.023 A 
ATOM     74  C   UNL A   1      41.486  31.619  33.148  1.00  0.00     0.031 A 
ATOM     75  C   UNL A   1      40.188  29.591  33.214  1.00  0.00     0.131 A 
ATOM     76  C   UNL A   1      40.302  32.366  33.112  1.00  0.00     0.055 A 
ATOM     77  C   UNL A   1      39.010  30.346  33.287  1.00  0.00     0.041 A 
ATOM     78  F   UNL A   1      40.068  28.258  33.135  1.00  0.00    -0.206 F 
ATOM     79  C   UNL A   1      39.059  31.738  33.183  1.00  0.00     0.022 A 
BRANCH  76  80
ATOM     80  S   UNL A   1      40.420  34.116  32.635  1.00  0.00     0.124 S 
ATOM     81  O   UNL A   1      40.036  34.800  33.864  1.00  0.00    -0.237 OA
ATOM     82  O   UNL A   1      41.824  34.246  32.241  1.00  0.00    -0.237 OA
ATOM     83  O   UNL A   1      39.480  34.245  31.524  1.00  0.00    -0.744 OA
ENDBRANCH  76  80
ENDBRANCH  49  73
BRANCH  61  84
ATOM     84  C   UNL A   1      45.162  23.966  33.432  1.00  0.00     0.023 A 
ATOM     85  C   UNL A   1      46.474  23.799  33.904  1.00  0.00     0.031 A 
ATOM     86  C   UNL A   1      44.258  22.919  33.724  1.00  0.00     0.131 A 
ATOM     87  C   UNL A   1      46.821  22.685  34.690  1.00  0.00     0.055 A 
ATOM     88  C   UNL A   1      44.627  21.774  34.437  1.00  0.00     0.041 A 
ATOM     89  F   UNL A   1      42.968  22.976  33.364  1.00  0.00    -0.206 F 
ATOM     90  C   UNL A   1      45.914  21.658  34.939  1.00  0.00     0.022 A 
BRANCH  87  91
ATOM     91  S   UNL A   1      48.467  22.636  35.447  1.00  0.00     0.124 S 
ATOM     92  O   UNL A   1      48.585  21.244  35.867  1.00  0.00    -0.237 OA
ATOM     93  O   UNL A   1      49.319  23.036  34.330  1.00  0.00    -0.237 OA
ATOM     94  O   UNL A   1      48.377  23.609  36.534  1.00  0.00    -0.744 OA
ENDBRANCH  87  91
ENDBRANCH  61  84
ENDBRANCH  35  36
ENDBRANCH  27  30
ENDBRANCH  25  26
ENDBRANCH   1  25
TORSDOF 16
ENDMDL
MODEL 3
REMARK VINA RESULT:     -12.5      1.434      3.013
REMARK SMILES Cc1ccc(Nc2c(C)cccc2Cl)c(CC(=O)NCCCNC(=O)c2ccc(-c3c4nc(c(-c5cc(S(=O)(=O)[O-])ccc5F)c5ccc([nH]5)c(-c5cc(S(=O)(=O)[O-])ccc5F)c5nc(c(-c6cc(S(=O)(=O)[O-])ccc6F)c6ccc3[nH]6)C=C5)C=C4)cc2)c1
REMARK SMILES IDX 21 1 20 2 19 3 17 4 18 5 16 7 15 8 1 9 2 10 3 11 89 12 4 13
REMARK SMILES IDX 5 14 6 15 7 17 8 18 13 19 9 20 10 21 12 22 14 23 11 24 22 25
REMARK SMILES IDX 23 26 24 27 25 29 26 30 27 31 88 32 28 33 87 34 29 35 30 36
REMARK SMILES IDX 31 37 81 38 32 39 86 40 80 41 82 42 33 43 85 44 79 45 78 46
REMARK SMILES IDX 34 48 66 49 46 50 65 51 47 52 50 53 64 54 83 55 48 56 49 57
REMARK SMILES IDX 63 59 84 60 51 61 35 62 36 63 44 64 37 65 43 66 45 67 42 68
REMARK SMILES IDX 38 69 39 70 40 71 41 72 67 73 68 74 76 75 69 76 75 77 77 78
REMARK SMILES IDX 74 79 70 80 71 81 72 82 73 83 52 84 53 85 61 86 54 87 60 88
REMARK SMILES IDX 62 89 59 90 55 91 56 92 57 93 58 94
REMARK H PARENT 19 6 6 16 23 28 82 47 50 58
REMARK Flexibility Score: inf
ROOT
ATOM      1  C   UNL A   1      32.867  30.820  27.209  1.00  0.00     0.042 C 
ENDROOT
BRANCH   1   2
ATOM      2  C   UNL A   1      32.224  29.980  26.109  1.00  0.00     0.117 C 
BRANCH   2   3
ATOM      3  N   UNL A   1      31.889  28.638  26.563  1.00  0.00    -0.356 N 
ATOM      4  C   UNL A   1      32.368  27.436  26.128  1.00  0.00     0.224 C 
ATOM      5  O   UNL A   1      31.861  26.383  26.523  1.00  0.00    -0.275 OA
ATOM      6  H   UNL A   1      31.223  28.592  27.286  1.00  0.00     0.163 HD
BRANCH   4   7
ATOM      7  C   UNL A   1      33.531  27.385  25.147  1.00  0.00     0.137 C 
BRANCH   7   8
ATOM      8  C   UNL A   1      33.907  25.987  24.709  1.00  0.00    -0.015 A 
ATOM      9  C   UNL A   1      36.289  23.284  25.991  1.00  0.00     0.044 C 
ATOM     10  C   UNL A   1      35.279  24.005  25.152  1.00  0.00    -0.051 A 
ATOM     11  C   UNL A   1      34.859  23.464  23.939  1.00  0.00     0.005 A 
ATOM     12  C   UNL A   1      34.775  25.248  25.542  1.00  0.00     0.009 A 
ATOM     13  C   UNL A   1      33.958  24.162  23.130  1.00  0.00     0.026 A 
ATOM     14  C   UNL A   1      33.471  25.430  23.488  1.00  0.00     0.042 A 
BRANCH  14  15
ATOM     15  N   UNL A   1      32.532  26.104  22.674  1.00  0.00    -0.354 N 
ATOM     16  H   UNL A   1      32.837  26.313  21.761  1.00  0.00     0.167 HD
BRANCH  15  17
ATOM     17  C   UNL A   1      31.212  26.520  22.985  1.00  0.00     0.060 A 
ATOM     18  C   UNL A   1      30.814  27.875  22.917  1.00  0.00    -0.026 A 
ATOM     19  C   UNL A   1      30.278  25.572  23.459  1.00  0.00     0.064 A 
ATOM     20  C   UNL A   1      31.708  28.960  22.379  1.00  0.00     0.046 C 
ATOM     21  C   UNL A   1      29.531  28.246  23.365  1.00  0.00     0.005 A 
ATOM     22  C   UNL A   1      29.001  25.953  23.876  1.00  0.00     0.023 A 
ATOM     23  Cl  UNL A   1      30.695  23.896  23.582  1.00  0.00    -0.082 Cl
ATOM     24  C   UNL A   1      28.631  27.293  23.839  1.00  0.00     0.002 A 
ENDBRANCH  15  17
ENDBRANCH  14  15
ENDBRANCH   7   8
ENDBRANCH   4   7
ENDBRANCH   2   3
ENDBRANCH   1   2
BRANCH   1  25
ATOM     25  C   UNL A   1      34.248  30.338  27.634  1.00  0.00     0.118 C 
BRANCH  25  26
ATOM     26  N   UNL A   1      34.881  31.230  28.612  1.00  0.00    -0.352 N 
ATOM     27  C   UNL A   1      36.057  31.043  29.312  1.00  0.00     0.251 C 
ATOM     28  H   UNL A   1      34.405  32.072  28.794  1.00  0.00     0.163 HD
ATOM     29  O   UNL A   1      36.493  31.880  30.089  1.00  0.00    -0.269 OA
BRANCH  27  30
ATOM     30  C   UNL A   1      36.850  29.833  29.009  1.00  0.00     0.039 A 
ATOM     31  C   UNL A   1      37.107  28.955  30.066  1.00  0.00     0.014 A 
ATOM     32  C   UNL A   1      37.536  29.729  27.802  1.00  0.00     0.014 A 
ATOM     33  C   UNL A   1      38.216  28.118  29.995  1.00  0.00     0.010 A 
ATOM     34  C   UNL A   1      38.684  28.957  27.765  1.00  0.00     0.010 A 
ATOM     35  C   UNL A   1      39.062  28.206  28.887  1.00  0.00    -0.014 A 
BRANCH  35  36
ATOM     36  C   UNL A   1      40.431  27.697  28.909  1.00  0.00     0.031 A 
ATOM     37  C   UNL A   1      40.754  26.323  28.482  1.00  0.00     0.074 A 
ATOM     38  C   UNL A   1      41.443  28.501  29.304  1.00  0.00     0.049 A 
ATOM     39  N   UNL A   1      41.782  25.658  28.894  1.00  0.00    -0.248 NA
ATOM     40  C   UNL A   1      39.905  25.566  27.572  1.00  0.00     0.031 C 
ATOM     41  C   UNL A   1      42.875  28.254  29.176  1.00  0.00     0.029 A 
ATOM     42  N   UNL A   1      41.354  29.594  30.167  1.00  0.00    -0.354 N 
ATOM     43  C   UNL A   1      41.904  24.544  28.099  1.00  0.00     0.074 A 
ATOM     44  C   UNL A   1      40.671  24.494  27.344  1.00  0.00     0.031 C 
ATOM     45  C   UNL A   1      43.518  28.948  30.126  1.00  0.00     0.029 A 
ATOM     46  C   UNL A   1      42.513  29.566  30.970  1.00  0.00     0.049 A 
ATOM     47  H   UNL A   1      40.625  30.255  30.207  1.00  0.00     0.167 HD
ATOM     48  C   UNL A   1      43.085  23.861  28.062  1.00  0.00     0.034 A 
ATOM     49  C   UNL A   1      42.425  29.463  32.328  1.00  0.00     0.034 A 
ATOM     50  C   UNL A   1      44.080  24.403  28.990  1.00  0.00     0.049 A 
ATOM     51  C   UNL A   1      43.110  28.241  32.907  1.00  0.00     0.074 A 
ATOM     52  C   UNL A   1      45.228  25.168  28.853  1.00  0.00     0.029 A 
ATOM     53  N   UNL A   1      43.819  24.360  30.349  1.00  0.00    -0.354 N 
ATOM     54  N   UNL A   1      43.723  27.332  32.199  1.00  0.00    -0.248 NA
ATOM     55  C   UNL A   1      43.070  27.896  34.329  1.00  0.00     0.031 C 
ATOM     56  C   UNL A   1      45.652  25.576  30.151  1.00  0.00     0.029 A 
ATOM     57  C   UNL A   1      44.768  25.053  31.076  1.00  0.00     0.049 A 
ATOM     58  H   UNL A   1      43.050  23.893  30.749  1.00  0.00     0.167 HD
ATOM     59  C   UNL A   1      44.070  26.280  33.007  1.00  0.00     0.074 A 
ATOM     60  C   UNL A   1      43.651  26.684  34.335  1.00  0.00     0.031 C 
ATOM     61  C   UNL A   1      44.623  25.129  32.520  1.00  0.00     0.034 A 
BRANCH  48  62
ATOM     62  C   UNL A   1      43.423  22.855  26.985  1.00  0.00     0.023 A 
ATOM     63  C   UNL A   1      42.866  21.562  27.041  1.00  0.00     0.031 A 
ATOM     64  C   UNL A   1      44.302  23.086  25.910  1.00  0.00     0.131 A 
ATOM     65  C   UNL A   1      43.269  20.548  26.154  1.00  0.00     0.055 A 
ATOM     66  C   UNL A   1      44.762  22.062  25.071  1.00  0.00     0.041 A 
ATOM     67  F   UNL A   1      44.709  24.323  25.590  1.00  0.00    -0.206 F 
ATOM     68  C   UNL A   1      44.258  20.778  25.202  1.00  0.00     0.022 A 
BRANCH  65  69
ATOM     69  S   UNL A   1      42.470  18.923  26.249  1.00  0.00     0.124 S 
ATOM     70  O   UNL A   1      43.307  18.112  25.371  1.00  0.00    -0.237 OA
ATOM     71  O   UNL A   1      42.552  18.625  27.675  1.00  0.00    -0.237 OA
ATOM     72  O   UNL A   1      41.120  19.179  25.750  1.00  0.00    -0.744 OA
ENDBRANCH  65  69
ENDBRANCH  48  62
BRANCH  49  73
ATOM     73  C   UNL A   1      41.208  30.134  32.877  1.00  0.00     0.023 A 
ATOM     74  C   UNL A   1      41.231  31.546  32.921  1.00  0.00     0.031 A 
ATOM     75  C   UNL A   1      39.964  29.498  32.965  1.00  0.00     0.131 A 
ATOM     76  C   UNL A   1      40.037  32.274  32.844  1.00  0.00     0.055 A 
ATOM     77  C   UNL A   1      38.773  30.235  32.997  1.00  0.00     0.041 A 
ATOM     78  F   UNL A   1      39.868  28.163  32.893  1.00  0.00    -0.206 F 
ATOM     79  C   UNL A   1      38.803  31.626  32.884  1.00  0.00     0.022 A 
BRANCH  76  80
ATOM     80  S   UNL A   1      40.142  34.022  32.358  1.00  0.00     0.124 S 
ATOM     81  O   UNL A   1      41.465  34.098  31.750  1.00  0.00    -0.237 OA
ATOM     82  O   UNL A   1      39.007  34.168  31.445  1.00  0.00    -0.237 OA
ATOM     83  O   UNL A   1      39.986  34.750  33.616  1.00  0.00    -0.744 OA
ENDBRANCH  76  80
ENDBRANCH  49  73
BRANCH  61  84
ATOM     84  C   UNL A   1      45.029  23.964  33.387  1.00  0.00     0.023 A 
ATOM     85  C   UNL A   1      46.353  23.772  33.815  1.00  0.00     0.031 A 
ATOM     86  C   UNL A   1      44.107  22.955  33.749  1.00  0.00     0.131 A 
ATOM     87  C   UNL A   1      46.697  22.675  34.625  1.00  0.00     0.055 A 
ATOM     88  C   UNL A   1      44.469  21.823  34.486  1.00  0.00     0.041 A 
ATOM     89  F   UNL A   1      42.806  23.040  33.436  1.00  0.00    -0.206 F 
ATOM     90  C   UNL A   1      45.770  21.685  34.942  1.00  0.00     0.022 A 
BRANCH  87  91
ATOM     91  S   UNL A   1      48.369  22.600  35.320  1.00  0.00     0.124 S 
ATOM     92  O   UNL A   1      49.195  23.091  34.223  1.00  0.00    -0.237 OA
ATOM     93  O   UNL A   1      48.251  23.490  36.473  1.00  0.00    -0.237 OA
ATOM     94  O   UNL A   1      48.545  21.187  35.647  1.00  0.00    -0.744 OA
ENDBRANCH  87  91
ENDBRANCH  61  84
ENDBRANCH  35  36
ENDBRANCH  27  30
ENDBRANCH  25  26
ENDBRANCH   1  25
TORSDOF 16
ENDMDL
