MODEL 1
REMARK VINA RESULT:     -11.6      0.000      0.000
REMARK SMILES COc1ccccc1-n1nnc(C(=O)NCCCNC(=O)c2ccc(-c3c4nc(c(-c5cc(S(=O)(=O)[O-])ccc5F)c5ccc([nH]5)c(-c5cc(S(=O)(=O)[O-])ccc5F)c5nc(c(-c6cc(S(=O)(=O)[O-])ccc6F)c6ccc3[nH]6)C=C5)C=C4)cc2)c1-c1ccc(Cl)cc1
REMARK SMILES IDX 17 1 16 2 15 3 13 4 14 5 12 7 9 8 10 9 85 10 11 11 8 12 3 13
REMARK SMILES IDX 4 14 5 15 7 16 6 17 2 18 1 19 86 20 87 21 92 22 88 23 91 24
REMARK SMILES IDX 89 25 90 26 18 27 19 28 20 29 21 31 22 32 23 33 84 34 24 35
REMARK SMILES IDX 83 36 25 37 26 38 27 39 77 40 28 41 82 42 76 43 78 44 29 45
REMARK SMILES IDX 81 46 75 47 74 48 30 50 62 51 42 52 61 53 43 54 46 55 60 56
REMARK SMILES IDX 79 57 44 58 45 59 59 61 80 62 47 63 31 64 32 65 40 66 33 67
REMARK SMILES IDX 39 68 41 69 38 70 34 71 35 72 36 73 37 74 63 75 64 76 72 77
REMARK SMILES IDX 65 78 71 79 73 80 70 81 66 82 67 83 68 84 69 85 48 86 49 87
REMARK SMILES IDX 57 88 50 89 56 90 58 91 55 92 51 93 52 94 53 95 54 96
REMARK H PARENT 15 6 19 30 78 49 46 60
REMARK Flexibility Score: inf
ROOT
ATOM      1  C   UNL A   1      45.787  28.358  26.204  1.00  0.00     0.042 C 
ENDROOT
BRANCH   1   2
ATOM      2  C   UNL A   1      46.214  26.994  26.731  1.00  0.00     0.118 C 
BRANCH   2   3
ATOM      3  N   UNL A   1      46.837  26.149  25.735  1.00  0.00    -0.351 N 
ATOM      4  C   UNL A   1      46.499  25.044  25.009  1.00  0.00     0.274 C 
ATOM      5  O   UNL A   1      47.334  24.746  24.146  1.00  0.00    -0.267 OA
ATOM      6  H   UNL A   1      47.749  26.453  25.524  1.00  0.00     0.163 HD
BRANCH   4   7
ATOM      7  C   UNL A   1      45.315  24.200  25.184  1.00  0.00     0.178 A 
ATOM      8  N   UNL A   1      43.546  22.966  25.598  1.00  0.00    -0.208 N 
ATOM      9  N   UNL A   1      43.902  22.727  24.326  1.00  0.00    -0.061 NA
ATOM     10  C   UNL A   1      44.462  23.826  26.223  1.00  0.00     0.108 A 
ATOM     11  N   UNL A   1      44.902  23.529  24.037  1.00  0.00    -0.124 NA
BRANCH   8  12
ATOM     12  C   UNL A   1      42.466  22.261  26.172  1.00  0.00     0.109 A 
ATOM     13  C   UNL A   1      42.468  20.867  26.306  1.00  0.00     0.144 A 
ATOM     14  C   UNL A   1      41.250  20.214  26.515  1.00  0.00     0.049 A 
ATOM     15  C   UNL A   1      40.064  20.939  26.658  1.00  0.00     0.004 A 
ATOM     16  C   UNL A   1      41.290  22.998  26.403  1.00  0.00     0.032 A 
ATOM     17  C   UNL A   1      40.088  22.331  26.630  1.00  0.00     0.003 A 
BRANCH  13  18
ATOM     18  O   UNL A   1      43.545  20.034  26.177  1.00  0.00    -0.494 OA
ATOM     19  C   UNL A   1      43.429  19.013  25.188  1.00  0.00     0.278 C 
ENDBRANCH  13  18
ENDBRANCH   8  12
BRANCH  10  20
ATOM     20  C   UNL A   1      44.403  24.039  27.668  1.00  0.00     0.003 A 
ATOM     21  C   UNL A   1      43.849  25.201  28.218  1.00  0.00     0.012 A 
ATOM     22  C   UNL A   1      44.806  23.003  28.530  1.00  0.00     0.012 A 
ATOM     23  C   UNL A   1      43.729  25.335  29.606  1.00  0.00     0.021 A 
ATOM     24  C   UNL A   1      44.689  23.137  29.914  1.00  0.00     0.021 A 
ATOM     25  C   UNL A   1      44.141  24.300  30.445  1.00  0.00     0.041 A 
ATOM     26  Cl  UNL A   1      44.037  24.482  32.150  1.00  0.00    -0.084 Cl
ENDBRANCH  10  20
ENDBRANCH   4   7
ENDBRANCH   2   3
ENDBRANCH   1   2
BRANCH   1  27
ATOM     27  C   UNL A   1      44.288  28.466  25.929  1.00  0.00     0.118 C 
BRANCH  27  28
ATOM     28  N   UNL A   1      43.716  27.458  25.025  1.00  0.00    -0.352 N 
ATOM     29  C   UNL A   1      42.518  26.746  25.157  1.00  0.00     0.251 C 
ATOM     30  H   UNL A   1      44.245  27.257  24.219  1.00  0.00     0.163 HD
ATOM     31  O   UNL A   1      42.294  25.736  24.557  1.00  0.00    -0.269 OA
BRANCH  29  32
ATOM     32  C   UNL A   1      41.515  27.347  26.064  1.00  0.00     0.039 A 
ATOM     33  C   UNL A   1      41.003  26.654  27.167  1.00  0.00     0.014 A 
ATOM     34  C   UNL A   1      41.408  28.719  25.946  1.00  0.00     0.014 A 
ATOM     35  C   UNL A   1      40.536  27.398  28.254  1.00  0.00     0.010 A 
ATOM     36  C   UNL A   1      41.184  29.414  27.103  1.00  0.00     0.010 A 
ATOM     37  C   UNL A   1      40.701  28.790  28.253  1.00  0.00    -0.014 A 
BRANCH  37  38
ATOM     38  C   UNL A   1      40.534  29.612  29.462  1.00  0.00     0.031 A 
ATOM     39  C   UNL A   1      39.214  30.288  29.645  1.00  0.00     0.074 A 
ATOM     40  C   UNL A   1      41.394  29.566  30.506  1.00  0.00     0.049 A 
ATOM     41  N   UNL A   1      38.946  31.547  29.527  1.00  0.00    -0.248 NA
ATOM     42  C   UNL A   1      38.022  29.462  29.891  1.00  0.00     0.031 C 
ATOM     43  C   UNL A   1      42.594  28.728  30.672  1.00  0.00     0.029 A 
ATOM     44  N   UNL A   1      41.306  30.183  31.716  1.00  0.00    -0.354 N 
ATOM     45  C   UNL A   1      37.619  31.710  29.926  1.00  0.00     0.074 A 
ATOM     46  C   UNL A   1      37.056  30.386  29.927  1.00  0.00     0.031 C 
ATOM     47  C   UNL A   1      42.947  28.673  31.970  1.00  0.00     0.029 A 
ATOM     48  C   UNL A   1      42.185  29.685  32.668  1.00  0.00     0.049 A 
ATOM     49  H   UNL A   1      40.675  30.916  31.900  1.00  0.00     0.167 HD
ATOM     50  C   UNL A   1      37.176  32.890  30.452  1.00  0.00     0.034 A 
ATOM     51  C   UNL A   1      42.384  30.118  33.933  1.00  0.00     0.034 A 
ATOM     52  C   UNL A   1      38.174  33.922  30.278  1.00  0.00     0.049 A 
ATOM     53  C   UNL A   1      41.954  31.531  33.955  1.00  0.00     0.074 A 
ATOM     54  C   UNL A   1      38.747  34.578  29.208  1.00  0.00     0.029 A 
ATOM     55  N   UNL A   1      39.013  34.125  31.350  1.00  0.00    -0.354 N 
ATOM     56  N   UNL A   1      42.511  32.456  33.219  1.00  0.00    -0.248 NA
ATOM     57  C   UNL A   1      40.641  31.868  34.478  1.00  0.00     0.031 C 
ATOM     58  C   UNL A   1      40.107  34.791  29.585  1.00  0.00     0.029 A 
ATOM     59  C   UNL A   1      40.290  34.323  30.890  1.00  0.00     0.049 A 
ATOM     60  H   UNL A   1      38.738  34.128  32.296  1.00  0.00     0.167 HD
ATOM     61  C   UNL A   1      41.467  33.277  32.831  1.00  0.00     0.074 A 
ATOM     62  C   UNL A   1      40.389  32.969  33.764  1.00  0.00     0.031 C 
ATOM     63  C   UNL A   1      41.482  33.918  31.623  1.00  0.00     0.034 A 
BRANCH  50  64
ATOM     64  C   UNL A   1      36.048  33.078  31.460  1.00  0.00     0.023 A 
ATOM     65  C   UNL A   1      35.008  33.975  31.117  1.00  0.00     0.031 A 
ATOM     66  C   UNL A   1      36.061  32.660  32.808  1.00  0.00     0.131 A 
ATOM     67  C   UNL A   1      34.118  34.473  32.088  1.00  0.00     0.055 A 
ATOM     68  C   UNL A   1      35.136  33.113  33.757  1.00  0.00     0.041 A 
ATOM     69  F   UNL A   1      37.012  31.867  33.310  1.00  0.00    -0.206 F 
ATOM     70  C   UNL A   1      34.176  34.046  33.410  1.00  0.00     0.022 A 
BRANCH  67  71
ATOM     71  S   UNL A   1      32.988  35.818  31.633  1.00  0.00     0.124 S 
ATOM     72  O   UNL A   1      33.709  36.990  32.115  1.00  0.00    -0.237 OA
ATOM     73  O   UNL A   1      32.903  35.662  30.184  1.00  0.00    -0.237 OA
ATOM     74  O   UNL A   1      31.764  35.496  32.364  1.00  0.00    -0.744 OA
ENDBRANCH  67  71
ENDBRANCH  50  64
BRANCH  51  75
ATOM     75  C   UNL A   1      42.613  29.260  35.116  1.00  0.00     0.023 A 
ATOM     76  C   UNL A   1      41.863  28.100  35.370  1.00  0.00     0.031 A 
ATOM     77  C   UNL A   1      43.761  29.473  35.915  1.00  0.00     0.131 A 
ATOM     78  C   UNL A   1      42.280  27.197  36.373  1.00  0.00     0.055 A 
ATOM     79  C   UNL A   1      44.169  28.578  36.904  1.00  0.00     0.041 A 
ATOM     80  F   UNL A   1      44.568  30.526  35.700  1.00  0.00    -0.206 F 
ATOM     81  C   UNL A   1      43.433  27.425  37.129  1.00  0.00     0.022 A 
BRANCH  78  82
ATOM     82  S   UNL A   1      41.359  25.651  36.637  1.00  0.00     0.124 S 
ATOM     83  O   UNL A   1      40.707  25.456  35.348  1.00  0.00    -0.237 OA
ATOM     84  O   UNL A   1      42.422  24.711  36.974  1.00  0.00    -0.237 OA
ATOM     85  O   UNL A   1      40.456  25.975  37.742  1.00  0.00    -0.744 OA
ENDBRANCH  78  82
ENDBRANCH  51  75
BRANCH  63  86
ATOM     86  C   UNL A   1      42.813  34.078  30.914  1.00  0.00     0.023 A 
ATOM     87  C   UNL A   1      43.346  33.190  29.952  1.00  0.00     0.031 A 
ATOM     88  C   UNL A   1      43.526  35.264  31.170  1.00  0.00     0.131 A 
ATOM     89  C   UNL A   1      44.550  33.510  29.288  1.00  0.00     0.055 A 
ATOM     90  C   UNL A   1      44.703  35.586  30.498  1.00  0.00     0.041 A 
ATOM     91  F   UNL A   1      43.059  36.157  32.059  1.00  0.00    -0.206 F 
ATOM     92  C   UNL A   1      45.223  34.708  29.556  1.00  0.00     0.022 A 
BRANCH  89  93
ATOM     93  S   UNL A   1      45.274  32.369  28.063  1.00  0.00     0.124 S 
ATOM     94  O   UNL A   1      46.699  32.393  28.374  1.00  0.00    -0.237 OA
ATOM     95  O   UNL A   1      44.581  31.115  28.346  1.00  0.00    -0.237 OA
ATOM     96  O   UNL A   1      44.922  32.978  26.779  1.00  0.00    -0.744 OA
ENDBRANCH  89  93
ENDBRANCH  63  86
ENDBRANCH  37  38
ENDBRANCH  29  32
ENDBRANCH  27  28
ENDBRANCH   1  27
TORSDOF 16
ENDMDL
MODEL 2
REMARK VINA RESULT:     -11.5      3.586     12.117
REMARK SMILES COc1ccccc1-n1nnc(C(=O)NCCCNC(=O)c2ccc(-c3c4nc(c(-c5cc(S(=O)(=O)[O-])ccc5F)c5ccc([nH]5)c(-c5cc(S(=O)(=O)[O-])ccc5F)c5nc(c(-c6cc(S(=O)(=O)[O-])ccc6F)c6ccc3[nH]6)C=C5)C=C4)cc2)c1-c1ccc(Cl)cc1
REMARK SMILES IDX 17 1 16 2 15 3 13 4 14 5 12 7 9 8 10 9 85 10 11 11 8 12 3 13
REMARK SMILES IDX 4 14 5 15 7 16 6 17 2 18 1 19 86 20 87 21 92 22 88 23 91 24
REMARK SMILES IDX 89 25 90 26 18 27 19 28 20 29 21 31 22 32 23 33 84 34 24 35
REMARK SMILES IDX 83 36 25 37 26 38 27 39 77 40 28 41 82 42 76 43 78 44 29 45
REMARK SMILES IDX 81 46 75 47 74 48 30 50 62 51 42 52 61 53 43 54 46 55 60 56
REMARK SMILES IDX 79 57 44 58 45 59 59 61 80 62 47 63 31 64 32 65 40 66 33 67
REMARK SMILES IDX 39 68 41 69 38 70 34 71 35 72 36 73 37 74 63 75 64 76 72 77
REMARK SMILES IDX 65 78 71 79 73 80 70 81 66 82 67 83 68 84 69 85 48 86 49 87
REMARK SMILES IDX 57 88 50 89 56 90 58 91 55 92 51 93 52 94 53 95 54 96
REMARK H PARENT 15 6 19 30 78 49 46 60
REMARK Flexibility Score: inf
ROOT
ATOM      1  C   UNL A   1      35.460  32.106  27.970  1.00  0.00     0.042 C 
ENDROOT
BRANCH   1   2
ATOM      2  C   UNL A   1      35.977  33.242  28.844  1.00  0.00     0.118 C 
BRANCH   2   3
ATOM      3  N   UNL A   1      34.942  33.926  29.590  1.00  0.00    -0.351 N 
ATOM      4  C   UNL A   1      34.696  34.248  30.893  1.00  0.00     0.274 C 
ATOM      5  O   UNL A   1      33.716  34.987  31.043  1.00  0.00    -0.267 OA
ATOM      6  H   UNL A   1      34.223  34.246  28.998  1.00  0.00     0.163 HD
BRANCH   4   7
ATOM      7  C   UNL A   1      35.430  33.781  32.072  1.00  0.00     0.178 A 
ATOM      8  N   UNL A   1      36.658  33.086  33.754  1.00  0.00    -0.208 N 
ATOM      9  N   UNL A   1      35.375  32.939  34.119  1.00  0.00    -0.061 NA
ATOM     10  C   UNL A   1      36.756  33.532  32.427  1.00  0.00     0.108 A 
ATOM     11  N   UNL A   1      34.630  33.438  33.158  1.00  0.00    -0.124 NA
BRANCH   8  12
ATOM     12  C   UNL A   1      37.691  32.660  34.618  1.00  0.00     0.109 A 
ATOM     13  C   UNL A   1      38.642  33.544  35.142  1.00  0.00     0.144 A 
ATOM     14  C   UNL A   1      39.830  33.019  35.658  1.00  0.00     0.049 A 
ATOM     15  C   UNL A   1      40.036  31.638  35.718  1.00  0.00     0.004 A 
ATOM     16  C   UNL A   1      37.857  31.270  34.756  1.00  0.00     0.032 A 
ATOM     17  C   UNL A   1      39.039  30.764  35.292  1.00  0.00     0.003 A 
BRANCH  13  18
ATOM     18  O   UNL A   1      38.579  34.910  35.139  1.00  0.00    -0.494 OA
ATOM     19  C   UNL A   1      39.827  35.593  35.038  1.00  0.00     0.278 C 
ENDBRANCH  13  18
ENDBRANCH   8  12
BRANCH  10  20
ATOM     20  C   UNL A   1      38.049  33.540  31.746  1.00  0.00     0.003 A 
ATOM     21  C   UNL A   1      38.743  32.357  31.469  1.00  0.00     0.012 A 
ATOM     22  C   UNL A   1      38.555  34.757  31.252  1.00  0.00     0.012 A 
ATOM     23  C   UNL A   1      39.936  32.394  30.738  1.00  0.00     0.021 A 
ATOM     24  C   UNL A   1      39.745  34.796  30.526  1.00  0.00     0.021 A 
ATOM     25  C   UNL A   1      40.425  33.611  30.263  1.00  0.00     0.041 A 
ATOM     26  Cl  UNL A   1      41.913  33.663  29.406  1.00  0.00    -0.084 Cl
ENDBRANCH  10  20
ENDBRANCH   4   7
ENDBRANCH   2   3
ENDBRANCH   1   2
BRANCH   1  27
ATOM     27  C   UNL A   1      35.470  30.746  28.666  1.00  0.00     0.118 C 
BRANCH  27  28
ATOM     28  N   UNL A   1      35.830  30.744  30.091  1.00  0.00    -0.352 N 
ATOM     29  C   UNL A   1      36.582  29.800  30.800  1.00  0.00     0.251 C 
ATOM     30  H   UNL A   1      35.499  31.508  30.616  1.00  0.00     0.163 HD
ATOM     31  O   UNL A   1      36.553  29.711  31.992  1.00  0.00    -0.269 OA
BRANCH  29  32
ATOM     32  C   UNL A   1      37.458  28.935  29.979  1.00  0.00     0.039 A 
ATOM     33  C   UNL A   1      37.899  29.318  28.708  1.00  0.00     0.014 A 
ATOM     34  C   UNL A   1      38.072  27.925  30.695  1.00  0.00     0.014 A 
ATOM     35  C   UNL A   1      39.102  28.784  28.238  1.00  0.00     0.010 A 
ATOM     36  C   UNL A   1      39.353  27.613  30.330  1.00  0.00     0.010 A 
ATOM     37  C   UNL A   1      39.876  27.984  29.090  1.00  0.00    -0.014 A 
BRANCH  37  38
ATOM     38  C   UNL A   1      41.278  27.642  28.805  1.00  0.00     0.031 A 
ATOM     39  C   UNL A   1      41.525  26.409  28.000  1.00  0.00     0.074 A 
ATOM     40  C   UNL A   1      42.300  28.507  29.004  1.00  0.00     0.049 A 
ATOM     41  N   UNL A   1      42.000  25.278  28.408  1.00  0.00    -0.248 NA
ATOM     42  C   UNL A   1      41.103  26.386  26.591  1.00  0.00     0.031 C 
ATOM     43  C   UNL A   1      42.246  29.896  29.493  1.00  0.00     0.029 A 
ATOM     44  N   UNL A   1      43.616  28.365  28.688  1.00  0.00    -0.354 N 
ATOM     45  C   UNL A   1      42.173  24.487  27.271  1.00  0.00     0.074 A 
ATOM     46  C   UNL A   1      41.414  25.135  26.236  1.00  0.00     0.031 C 
ATOM     47  C   UNL A   1      43.386  30.543  29.181  1.00  0.00     0.029 A 
ATOM     48  C   UNL A   1      44.339  29.550  28.738  1.00  0.00     0.049 A 
ATOM     49  H   UNL A   1      44.020  27.501  28.446  1.00  0.00     0.167 HD
ATOM     50  C   UNL A   1      43.124  23.506  27.229  1.00  0.00     0.034 A 
ATOM     51  C   UNL A   1      45.664  29.732  28.541  1.00  0.00     0.034 A 
ATOM     52  C   UNL A   1      43.673  23.283  28.548  1.00  0.00     0.049 A 
ATOM     53  C   UNL A   1      46.304  28.433  28.831  1.00  0.00     0.074 A 
ATOM     54  C   UNL A   1      43.197  22.812  29.753  1.00  0.00     0.029 A 
ATOM     55  N   UNL A   1      44.839  23.959  28.829  1.00  0.00    -0.354 N 
ATOM     56  N   UNL A   1      46.242  27.854  30.000  1.00  0.00    -0.248 NA
ATOM     57  C   UNL A   1      46.672  27.559  27.729  1.00  0.00     0.031 C 
ATOM     58  C   UNL A   1      43.874  23.580  30.748  1.00  0.00     0.029 A 
ATOM     59  C   UNL A   1      44.782  24.434  30.115  1.00  0.00     0.049 A 
ATOM     60  H   UNL A   1      45.592  24.081  28.206  1.00  0.00     0.167 HD
ATOM     61  C   UNL A   1      46.127  26.503  29.723  1.00  0.00     0.074 A 
ATOM     62  C   UNL A   1      46.566  26.373  28.338  1.00  0.00     0.031 C 
ATOM     63  C   UNL A   1      45.424  25.669  30.546  1.00  0.00     0.034 A 
BRANCH  50  64
ATOM     64  C   UNL A   1      43.863  23.001  25.995  1.00  0.00     0.023 A 
ATOM     65  C   UNL A   1      43.943  21.600  25.809  1.00  0.00     0.031 A 
ATOM     66  C   UNL A   1      44.705  23.767  25.160  1.00  0.00     0.131 A 
ATOM     67  C   UNL A   1      44.869  21.029  24.915  1.00  0.00     0.055 A 
ATOM     68  C   UNL A   1      45.583  23.196  24.229  1.00  0.00     0.041 A 
ATOM     69  F   UNL A   1      44.800  25.096  25.252  1.00  0.00    -0.206 F 
ATOM     70  C   UNL A   1      45.692  21.821  24.122  1.00  0.00     0.022 A 
BRANCH  67  71
ATOM     71  S   UNL A   1      45.102  19.229  24.927  1.00  0.00     0.124 S 
ATOM     72  O   UNL A   1      43.949  18.783  25.699  1.00  0.00    -0.237 OA
ATOM     73  O   UNL A   1      45.088  18.915  23.501  1.00  0.00    -0.237 OA
ATOM     74  O   UNL A   1      46.395  19.059  25.587  1.00  0.00    -0.744 OA
ENDBRANCH  67  71
ENDBRANCH  50  64
BRANCH  51  75
ATOM     75  C   UNL A   1      46.284  30.866  27.820  1.00  0.00     0.023 A 
ATOM     76  C   UNL A   1      45.560  31.707  26.960  1.00  0.00     0.031 A 
ATOM     77  C   UNL A   1      47.597  31.269  28.162  1.00  0.00     0.131 A 
ATOM     78  C   UNL A   1      46.141  32.907  26.493  1.00  0.00     0.055 A 
ATOM     79  C   UNL A   1      48.166  32.455  27.698  1.00  0.00     0.041 A 
ATOM     80  F   UNL A   1      48.338  30.553  29.025  1.00  0.00    -0.206 F 
ATOM     81  C   UNL A   1      47.432  33.288  26.869  1.00  0.00     0.022 A 
BRANCH  78  82
ATOM     82  S   UNL A   1      45.168  34.039  25.455  1.00  0.00     0.124 S 
ATOM     83  O   UNL A   1      44.356  34.742  26.441  1.00  0.00    -0.237 OA
ATOM     84  O   UNL A   1      46.206  34.822  24.794  1.00  0.00    -0.237 OA
ATOM     85  O   UNL A   1      44.424  33.139  24.572  1.00  0.00    -0.744 OA
ENDBRANCH  78  82
ENDBRANCH  51  75
BRANCH  63  86
ATOM     86  C   UNL A   1      45.148  26.128  31.965  1.00  0.00     0.023 A 
ATOM     87  C   UNL A   1      44.008  26.846  32.391  1.00  0.00     0.031 A 
ATOM     88  C   UNL A   1      46.063  25.716  32.951  1.00  0.00     0.131 A 
ATOM     89  C   UNL A   1      43.820  27.122  33.763  1.00  0.00     0.055 A 
ATOM     90  C   UNL A   1      45.866  25.972  34.306  1.00  0.00     0.041 A 
ATOM     91  F   UNL A   1      47.157  25.012  32.610  1.00  0.00    -0.206 F 
ATOM     92  C   UNL A   1      44.744  26.680  34.718  1.00  0.00     0.022 A 
BRANCH  89  93
ATOM     93  S   UNL A   1      42.372  28.070  34.337  1.00  0.00     0.124 S 
ATOM     94  O   UNL A   1      42.192  27.622  35.713  1.00  0.00    -0.237 OA
ATOM     95  O   UNL A   1      42.810  29.454  34.170  1.00  0.00    -0.237 OA
ATOM     96  O   UNL A   1      41.308  27.658  33.419  1.00  0.00    -0.744 OA
ENDBRANCH  89  93
ENDBRANCH  63  86
ENDBRANCH  37  38
ENDBRANCH  29  32
ENDBRANCH  27  28
ENDBRANCH   1  27
TORSDOF 16
ENDMDL
MODEL 3
REMARK VINA RESULT:     -11.2      3.545     12.096
REMARK SMILES COc1ccccc1-n1nnc(C(=O)NCCCNC(=O)c2ccc(-c3c4nc(c(-c5cc(S(=O)(=O)[O-])ccc5F)c5ccc([nH]5)c(-c5cc(S(=O)(=O)[O-])ccc5F)c5nc(c(-c6cc(S(=O)(=O)[O-])ccc6F)c6ccc3[nH]6)C=C5)C=C4)cc2)c1-c1ccc(Cl)cc1
REMARK SMILES IDX 17 1 16 2 15 3 13 4 14 5 12 7 9 8 10 9 85 10 11 11 8 12 3 13
REMARK SMILES IDX 4 14 5 15 7 16 6 17 2 18 1 19 86 20 87 21 92 22 88 23 91 24
REMARK SMILES IDX 89 25 90 26 18 27 19 28 20 29 21 31 22 32 23 33 84 34 24 35
REMARK SMILES IDX 83 36 25 37 26 38 27 39 77 40 28 41 82 42 76 43 78 44 29 45
REMARK SMILES IDX 81 46 75 47 74 48 30 50 62 51 42 52 61 53 43 54 46 55 60 56
REMARK SMILES IDX 79 57 44 58 45 59 59 61 80 62 47 63 31 64 32 65 40 66 33 67
REMARK SMILES IDX 39 68 41 69 38 70 34 71 35 72 36 73 37 74 63 75 64 76 72 77
REMARK SMILES IDX 65 78 71 79 73 80 70 81 66 82 67 83 68 84 69 85 48 86 49 87
REMARK SMILES IDX 57 88 50 89 56 90 58 91 55 92 51 93 52 94 53 95 54 96
REMARK H PARENT 15 6 19 30 78 49 46 60
REMARK Flexibility Score: inf
ROOT
ATOM      1  C   UNL A   1      38.847  30.285  34.433  1.00  0.00     0.042 C 
ENDROOT
BRANCH   1   2
ATOM      2  C   UNL A   1      39.112  31.785  34.387  1.00  0.00     0.118 C 
BRANCH   2   3
ATOM      3  N   UNL A   1      38.162  32.571  35.146  1.00  0.00    -0.351 N 
ATOM      4  C   UNL A   1      36.916  33.092  34.954  1.00  0.00     0.274 C 
ATOM      5  O   UNL A   1      36.427  33.593  35.973  1.00  0.00    -0.267 OA
ATOM      6  H   UNL A   1      38.509  32.788  36.041  1.00  0.00     0.163 HD
BRANCH   4   7
ATOM      7  C   UNL A   1      36.165  33.143  33.697  1.00  0.00     0.178 A 
ATOM      8  N   UNL A   1      35.172  33.250  31.742  1.00  0.00    -0.208 N 
ATOM      9  N   UNL A   1      34.204  33.211  32.671  1.00  0.00    -0.061 NA
ATOM     10  C   UNL A   1      36.440  33.302  32.338  1.00  0.00     0.108 A 
ATOM     11  N   UNL A   1      34.783  33.052  33.840  1.00  0.00    -0.124 NA
BRANCH   8  12
ATOM     12  C   UNL A   1      34.834  33.385  30.377  1.00  0.00     0.109 A 
ATOM     13  C   UNL A   1      34.154  34.504  29.880  1.00  0.00     0.144 A 
ATOM     14  C   UNL A   1      33.523  34.405  28.637  1.00  0.00     0.049 A 
ATOM     15  C   UNL A   1      33.625  33.239  27.873  1.00  0.00     0.004 A 
ATOM     16  C   UNL A   1      35.012  32.244  29.574  1.00  0.00     0.032 A 
ATOM     17  C   UNL A   1      34.392  32.170  28.328  1.00  0.00     0.003 A 
BRANCH  13  18
ATOM     18  O   UNL A   1      33.964  35.697  30.521  1.00  0.00    -0.494 OA
ATOM     19  C   UNL A   1      32.616  36.018  30.854  1.00  0.00     0.278 C 
ENDBRANCH  13  18
ENDBRANCH   8  12
BRANCH  10  20
ATOM     20  C   UNL A   1      37.624  33.582  31.529  1.00  0.00     0.003 A 
ATOM     21  C   UNL A   1      38.081  34.888  31.319  1.00  0.00     0.012 A 
ATOM     22  C   UNL A   1      38.394  32.507  31.046  1.00  0.00     0.012 A 
ATOM     23  C   UNL A   1      39.267  35.116  30.613  1.00  0.00     0.021 A 
ATOM     24  C   UNL A   1      39.575  32.732  30.339  1.00  0.00     0.021 A 
ATOM     25  C   UNL A   1      40.012  34.037  30.135  1.00  0.00     0.041 A 
ATOM     26  Cl  UNL A   1      41.443  34.316  29.227  1.00  0.00    -0.084 Cl
ENDBRANCH  10  20
ENDBRANCH   4   7
ENDBRANCH   2   3
ENDBRANCH   1   2
BRANCH   1  27
ATOM     27  C   UNL A   1      38.592  29.667  33.059  1.00  0.00     0.118 C 
BRANCH  27  28
ATOM     28  N   UNL A   1      37.193  29.629  32.610  1.00  0.00    -0.352 N 
ATOM     29  C   UNL A   1      36.696  29.444  31.315  1.00  0.00     0.251 C 
ATOM     30  H   UNL A   1      36.515  29.749  33.314  1.00  0.00     0.163 HD
ATOM     31  O   UNL A   1      35.583  29.744  30.997  1.00  0.00    -0.269 OA
BRANCH  29  32
ATOM     32  C   UNL A   1      37.630  28.808  30.358  1.00  0.00     0.039 A 
ATOM     33  C   UNL A   1      38.183  29.511  29.283  1.00  0.00     0.014 A 
ATOM     34  C   UNL A   1      38.168  27.619  30.812  1.00  0.00     0.014 A 
ATOM     35  C   UNL A   1      39.416  29.085  28.781  1.00  0.00     0.010 A 
ATOM     36  C   UNL A   1      39.472  27.375  30.478  1.00  0.00     0.010 A 
ATOM     37  C   UNL A   1      40.104  28.054  29.436  1.00  0.00    -0.014 A 
BRANCH  37  38
ATOM     38  C   UNL A   1      41.521  27.755  29.180  1.00  0.00     0.031 A 
ATOM     39  C   UNL A   1      41.819  26.593  28.290  1.00  0.00     0.074 A 
ATOM     40  C   UNL A   1      42.521  28.615  29.487  1.00  0.00     0.049 A 
ATOM     41  N   UNL A   1      42.296  25.440  28.625  1.00  0.00    -0.248 NA
ATOM     42  C   UNL A   1      41.452  26.678  26.868  1.00  0.00     0.031 C 
ATOM     43  C   UNL A   1      42.426  29.959  30.082  1.00  0.00     0.029 A 
ATOM     44  N   UNL A   1      43.850  28.516  29.213  1.00  0.00    -0.354 N 
ATOM     45  C   UNL A   1      42.526  24.745  27.438  1.00  0.00     0.074 A 
ATOM     46  C   UNL A   1      41.796  25.463  26.428  1.00  0.00     0.031 C 
ATOM     47  C   UNL A   1      43.565  30.645  29.868  1.00  0.00     0.029 A 
ATOM     48  C   UNL A   1      44.551  29.703  29.385  1.00  0.00     0.049 A 
ATOM     49  H   UNL A   1      44.277  27.679  28.919  1.00  0.00     0.167 HD
ATOM     50  C   UNL A   1      43.494  23.783  27.355  1.00  0.00     0.034 A 
ATOM     51  C   UNL A   1      45.879  29.918  29.255  1.00  0.00     0.034 A 
ATOM     52  C   UNL A   1      43.996  23.463  28.672  1.00  0.00     0.049 A 
ATOM     53  C   UNL A   1      46.529  28.609  29.466  1.00  0.00     0.074 A 
ATOM     54  C   UNL A   1      43.482  22.891  29.817  1.00  0.00     0.029 A 
ATOM     55  N   UNL A   1      45.139  24.130  29.052  1.00  0.00    -0.354 N 
ATOM     56  N   UNL A   1      46.432  27.937  30.583  1.00  0.00    -0.248 NA
ATOM     57  C   UNL A   1      46.953  27.830  28.314  1.00  0.00     0.031 C 
ATOM     58  C   UNL A   1      44.108  23.586  30.896  1.00  0.00     0.029 A 
ATOM     59  C   UNL A   1      45.025  24.499  30.368  1.00  0.00     0.049 A 
ATOM     60  H   UNL A   1      45.913  24.311  28.470  1.00  0.00     0.167 HD
ATOM     61  C   UNL A   1      46.350  26.612  30.195  1.00  0.00     0.074 A 
ATOM     62  C   UNL A   1      46.844  26.599  28.822  1.00  0.00     0.031 C 
ATOM     63  C   UNL A   1      45.630  25.705  30.921  1.00  0.00     0.034 A 
BRANCH  50  64
ATOM     64  C   UNL A   1      44.288  23.388  26.115  1.00  0.00     0.023 A 
ATOM     65  C   UNL A   1      44.183  22.048  25.671  1.00  0.00     0.031 A 
ATOM     66  C   UNL A   1      45.323  24.139  25.518  1.00  0.00     0.131 A 
ATOM     67  C   UNL A   1      45.112  21.498  24.767  1.00  0.00     0.055 A 
ATOM     68  C   UNL A   1      46.209  23.604  24.573  1.00  0.00     0.041 A 
ATOM     69  F   UNL A   1      45.601  25.397  25.871  1.00  0.00    -0.206 F 
ATOM     70  C   UNL A   1      46.127  22.270  24.214  1.00  0.00     0.022 A 
BRANCH  67  71
ATOM     71  S   UNL A   1      45.076  19.712  24.453  1.00  0.00     0.124 S 
ATOM     72  O   UNL A   1      46.484  19.356  24.585  1.00  0.00    -0.237 OA
ATOM     73  O   UNL A   1      44.187  19.238  25.509  1.00  0.00    -0.237 OA
ATOM     74  O   UNL A   1      44.536  19.616  23.098  1.00  0.00    -0.744 OA
ENDBRANCH  67  71
ENDBRANCH  50  64
BRANCH  51  75
ATOM     75  C   UNL A   1      46.507  31.114  28.652  1.00  0.00     0.023 A 
ATOM     76  C   UNL A   1      45.962  31.781  27.543  1.00  0.00     0.031 A 
ATOM     77  C   UNL A   1      47.572  31.753  29.330  1.00  0.00     0.131 A 
ATOM     78  C   UNL A   1      46.466  33.045  27.163  1.00  0.00     0.055 A 
ATOM     79  C   UNL A   1      48.066  33.002  28.951  1.00  0.00     0.041 A 
ATOM     80  F   UNL A   1      48.113  31.213  30.434  1.00  0.00    -0.206 F 
ATOM     81  C   UNL A   1      47.503  33.661  27.869  1.00  0.00     0.022 A 
BRANCH  78  82
ATOM     82  S   UNL A   1      45.697  33.949  25.785  1.00  0.00     0.124 S 
ATOM     83  O   UNL A   1      46.854  34.516  25.104  1.00  0.00    -0.237 OA
ATOM     84  O   UNL A   1      44.984  32.889  25.079  1.00  0.00    -0.237 OA
ATOM     85  O   UNL A   1      44.835  34.925  26.454  1.00  0.00    -0.744 OA
ENDBRANCH  78  82
ENDBRANCH  51  75
BRANCH  63  86
ATOM     86  C   UNL A   1      45.293  26.046  32.360  1.00  0.00     0.023 A 
ATOM     87  C   UNL A   1      44.126  26.714  32.796  1.00  0.00     0.031 A 
ATOM     88  C   UNL A   1      46.175  25.566  33.346  1.00  0.00     0.131 A 
ATOM     89  C   UNL A   1      43.881  26.876  34.177  1.00  0.00     0.055 A 
ATOM     90  C   UNL A   1      45.921  25.711  34.707  1.00  0.00     0.041 A 
ATOM     91  F   UNL A   1      47.291  24.906  32.993  1.00  0.00    -0.206 F 
ATOM     92  C   UNL A   1      44.774  26.371  35.130  1.00  0.00     0.022 A 
BRANCH  89  93
ATOM     93  S   UNL A   1      42.398  27.759  34.767  1.00  0.00     0.124 S 
ATOM     94  O   UNL A   1      41.366  26.729  34.772  1.00  0.00    -0.237 OA
ATOM     95  O   UNL A   1      42.819  28.247  36.078  1.00  0.00    -0.237 OA
ATOM     96  O   UNL A   1      42.204  28.809  33.764  1.00  0.00    -0.744 OA
ENDBRANCH  89  93
ENDBRANCH  63  86
ENDBRANCH  37  38
ENDBRANCH  29  32
ENDBRANCH  27  28
ENDBRANCH   1  27
TORSDOF 16
ENDMDL
