MODEL 1
REMARK VINA RESULT:     -10.9      0.000      0.000
REMARK SMILES CC[C@@H](Sc1cccc(N)c1)C(=O)NCCCNC(=O)c1ccc(-c2c3nc(c(-c4cc(S(=O)(=O)[O-])ccc4F)c4ccc([nH]4)c(-c4cc(S(=O)(=O)[O-])ccc4F)c4nc(c(-c5cc(S(=O)(=O)[O-])ccc5F)c5ccc2[nH]5)C=C4)C=C3)cc1
REMARK SMILES IDX 16 1 15 2 14 3 12 4 13 5 3 7 2 8 1 9 4 10 5 11 6 12 11 13
REMARK SMILES IDX 7 14 9 15 8 16 10 17 17 20 18 21 19 22 20 24 21 25 22 26
REMARK SMILES IDX 83 27 23 28 82 29 24 30 25 31 26 32 76 33 27 34 81 35 75 36
REMARK SMILES IDX 77 37 28 38 80 39 74 40 73 41 29 43 61 44 41 45 60 46 42 47
REMARK SMILES IDX 45 48 59 49 78 50 43 51 44 52 58 54 79 55 46 56 30 57 31 58
REMARK SMILES IDX 39 59 32 60 38 61 40 62 37 63 33 64 34 65 35 66 36 67 62 68
REMARK SMILES IDX 63 69 71 70 64 71 70 72 72 73 69 74 65 75 66 76 67 77 68 78
REMARK SMILES IDX 47 79 48 80 56 81 49 82 55 83 57 84 54 85 50 86 51 87 52 88
REMARK SMILES IDX 53 89
REMARK H PARENT 14 6 10 18 10 19 18 23 77 42 45 53
REMARK Flexibility Score: inf
ROOT
ATOM      1  C   UNL A   1      31.314  32.217  26.843  1.00  0.00     0.042 C 
ENDROOT
BRANCH   1   2
ATOM      2  C   UNL A   1      31.313  30.948  25.995  1.00  0.00     0.117 C 
BRANCH   2   3
ATOM      3  N   UNL A   1      32.334  29.987  26.405  1.00  0.00    -0.355 N 
ATOM      4  C   UNL A   1      33.033  29.056  25.676  1.00  0.00     0.233 C 
ATOM      5  O   UNL A   1      33.914  28.418  26.261  1.00  0.00    -0.274 OA
ATOM      6  H   UNL A   1      32.559  30.010  27.362  1.00  0.00     0.163 HD
BRANCH   4   7
ATOM      7  C   UNL A   1      32.718  28.786  24.180  1.00  0.00     0.140 C 
BRANCH   7   8
ATOM      8  C   UNL A   1      34.060  28.432  23.507  1.00  0.00     0.021 C 
ATOM      9  C   UNL A   1      34.122  28.221  22.011  1.00  0.00     0.005 C 
ENDBRANCH   7   8
BRANCH   7  10
ATOM     10  S   UNL A   1      31.265  27.624  24.218  1.00  0.00    -0.113 SA
BRANCH  10  11
ATOM     11  C   UNL A   1      29.869  28.375  23.426  1.00  0.00     0.010 A 
ATOM     12  C   UNL A   1      28.570  27.889  23.414  1.00  0.00     0.015 A 
ATOM     13  C   UNL A   1      30.125  29.602  22.786  1.00  0.00     0.040 A 
ATOM     14  C   UNL A   1      27.524  28.686  22.944  1.00  0.00     0.003 A 
ATOM     15  C   UNL A   1      29.103  30.359  22.206  1.00  0.00     0.032 A 
ATOM     16  C   UNL A   1      27.790  29.927  22.367  1.00  0.00     0.025 A 
BRANCH  15  17
ATOM     17  N   UNL A   1      29.382  31.582  21.615  1.00  0.00    -0.399 N 
ATOM     18  H   UNL A   1      28.653  32.219  21.437  1.00  0.00     0.156 HD
ATOM     19  H   UNL A   1      30.308  31.812  21.372  1.00  0.00     0.156 HD
ENDBRANCH  15  17
ENDBRANCH  10  11
ENDBRANCH   7  10
ENDBRANCH   4   7
ENDBRANCH   2   3
ENDBRANCH   1   2
BRANCH   1  20
ATOM     20  C   UNL A   1      32.702  32.707  27.218  1.00  0.00     0.118 C 
BRANCH  20  21
ATOM     21  N   UNL A   1      32.693  34.083  27.687  1.00  0.00    -0.352 N 
ATOM     22  C   UNL A   1      33.419  34.685  28.688  1.00  0.00     0.251 C 
ATOM     23  H   UNL A   1      32.068  34.678  27.213  1.00  0.00     0.163 HD
ATOM     24  O   UNL A   1      33.094  35.807  29.064  1.00  0.00    -0.269 OA
BRANCH  22  25
ATOM     25  C   UNL A   1      34.560  33.986  29.323  1.00  0.00     0.039 A 
ATOM     26  C   UNL A   1      35.859  34.380  28.990  1.00  0.00     0.014 A 
ATOM     27  C   UNL A   1      34.365  32.931  30.217  1.00  0.00     0.014 A 
ATOM     28  C   UNL A   1      36.953  33.763  29.603  1.00  0.00     0.010 A 
ATOM     29  C   UNL A   1      35.450  32.381  30.896  1.00  0.00     0.010 A 
ATOM     30  C   UNL A   1      36.758  32.785  30.592  1.00  0.00    -0.014 A 
BRANCH  30  31
ATOM     31  C   UNL A   1      37.906  32.171  31.312  1.00  0.00     0.031 A 
ATOM     32  C   UNL A   1      38.685  31.049  30.679  1.00  0.00     0.074 A 
ATOM     33  C   UNL A   1      38.213  32.586  32.558  1.00  0.00     0.049 A 
ATOM     34  N   UNL A   1      39.665  30.337  31.175  1.00  0.00    -0.248 NA
ATOM     35  C   UNL A   1      38.289  30.655  29.318  1.00  0.00     0.031 C 
ATOM     36  C   UNL A   1      37.511  33.642  33.293  1.00  0.00     0.029 A 
ATOM     37  N   UNL A   1      39.187  32.171  33.431  1.00  0.00    -0.354 N 
ATOM     38  C   UNL A   1      39.994  29.407  30.194  1.00  0.00     0.074 A 
ATOM     39  C   UNL A   1      39.064  29.605  29.103  1.00  0.00     0.031 C 
ATOM     40  C   UNL A   1      38.094  33.809  34.489  1.00  0.00     0.029 A 
ATOM     41  C   UNL A   1      39.175  32.840  34.635  1.00  0.00     0.049 A 
ATOM     42  H   UNL A   1      39.833  31.460  33.217  1.00  0.00     0.167 HD
ATOM     43  C   UNL A   1      40.994  28.491  30.194  1.00  0.00     0.034 A 
ATOM     44  C   UNL A   1      39.936  32.680  35.737  1.00  0.00     0.034 A 
ATOM     45  C   UNL A   1      41.919  28.313  31.288  1.00  0.00     0.049 A 
ATOM     46  C   UNL A   1      41.016  31.627  35.727  1.00  0.00     0.074 A 
ATOM     47  C   UNL A   1      42.998  27.451  31.371  1.00  0.00     0.029 A 
ATOM     48  N   UNL A   1      41.870  29.003  32.493  1.00  0.00    -0.354 N 
ATOM     49  N   UNL A   1      41.344  30.788  34.772  1.00  0.00    -0.248 NA
ATOM     50  C   UNL A   1      41.834  31.507  36.940  1.00  0.00     0.031 C 
ATOM     51  C   UNL A   1      43.551  27.563  32.652  1.00  0.00     0.029 A 
ATOM     52  C   UNL A   1      42.876  28.559  33.337  1.00  0.00     0.049 A 
ATOM     53  H   UNL A   1      41.215  29.705  32.715  1.00  0.00     0.167 HD
ATOM     54  C   UNL A   1      42.432  30.067  35.259  1.00  0.00     0.074 A 
ATOM     55  C   UNL A   1      42.710  30.579  36.583  1.00  0.00     0.031 C 
ATOM     56  C   UNL A   1      43.139  29.073  34.662  1.00  0.00     0.034 A 
BRANCH  43  57
ATOM     57  C   UNL A   1      41.120  27.594  28.983  1.00  0.00     0.023 A 
ATOM     58  C   UNL A   1      42.116  27.796  28.013  1.00  0.00     0.031 A 
ATOM     59  C   UNL A   1      40.219  26.531  28.787  1.00  0.00     0.131 A 
ATOM     60  C   UNL A   1      42.143  27.000  26.858  1.00  0.00     0.055 A 
ATOM     61  C   UNL A   1      40.304  25.688  27.678  1.00  0.00     0.041 A 
ATOM     62  F   UNL A   1      39.231  26.301  29.666  1.00  0.00    -0.206 F 
ATOM     63  C   UNL A   1      41.261  25.929  26.697  1.00  0.00     0.022 A 
BRANCH  60  64
ATOM     64  S   UNL A   1      43.250  27.477  25.502  1.00  0.00     0.124 S 
ATOM     65  O   UNL A   1      42.328  28.159  24.597  1.00  0.00    -0.237 OA
ATOM     66  O   UNL A   1      44.228  28.323  26.176  1.00  0.00    -0.237 OA
ATOM     67  O   UNL A   1      43.761  26.199  25.011  1.00  0.00    -0.744 OA
ENDBRANCH  60  64
ENDBRANCH  43  57
BRANCH  44  68
ATOM     68  C   UNL A   1      39.702  33.520  36.948  1.00  0.00     0.023 A 
ATOM     69  C   UNL A   1      40.481  34.660  37.200  1.00  0.00     0.031 A 
ATOM     70  C   UNL A   1      38.727  33.166  37.898  1.00  0.00     0.131 A 
ATOM     71  C   UNL A   1      40.311  35.374  38.397  1.00  0.00     0.055 A 
ATOM     72  C   UNL A   1      38.520  33.915  39.058  1.00  0.00     0.041 A 
ATOM     73  F   UNL A   1      37.952  32.087  37.708  1.00  0.00    -0.206 F 
ATOM     74  C   UNL A   1      39.326  35.018  39.320  1.00  0.00     0.022 A 
BRANCH  71  75
ATOM     75  S   UNL A   1      41.470  36.717  38.778  1.00  0.00     0.124 S 
ATOM     76  O   UNL A   1      40.564  37.774  39.213  1.00  0.00    -0.237 OA
ATOM     77  O   UNL A   1      42.299  36.113  39.816  1.00  0.00    -0.237 OA
ATOM     78  O   UNL A   1      42.144  36.955  37.504  1.00  0.00    -0.744 OA
ENDBRANCH  71  75
ENDBRANCH  44  68
BRANCH  56  79
ATOM     79  C   UNL A   1      44.320  28.515  35.423  1.00  0.00     0.023 A 
ATOM     80  C   UNL A   1      44.171  27.508  36.392  1.00  0.00     0.031 A 
ATOM     81  C   UNL A   1      45.614  29.008  35.175  1.00  0.00     0.131 A 
ATOM     82  C   UNL A   1      45.288  27.068  37.119  1.00  0.00     0.055 A 
ATOM     83  C   UNL A   1      46.730  28.518  35.853  1.00  0.00     0.041 A 
ATOM     84  F   UNL A   1      45.816  29.972  34.263  1.00  0.00    -0.206 F 
ATOM     85  C   UNL A   1      46.569  27.552  36.843  1.00  0.00     0.022 A 
BRANCH  82  86
ATOM     86  S   UNL A   1      45.031  25.925  38.504  1.00  0.00     0.124 S 
ATOM     87  O   UNL A   1      44.812  24.657  37.814  1.00  0.00    -0.237 OA
ATOM     88  O   UNL A   1      46.285  26.041  39.242  1.00  0.00    -0.237 OA
ATOM     89  O   UNL A   1      43.859  26.469  39.186  1.00  0.00    -0.744 OA
ENDBRANCH  82  86
ENDBRANCH  56  79
ENDBRANCH  30  31
ENDBRANCH  22  25
ENDBRANCH  20  21
ENDBRANCH   1  20
TORSDOF 17
ENDMDL
MODEL 2
REMARK VINA RESULT:     -10.7      6.325     11.931
REMARK SMILES CC[C@@H](Sc1cccc(N)c1)C(=O)NCCCNC(=O)c1ccc(-c2c3nc(c(-c4cc(S(=O)(=O)[O-])ccc4F)c4ccc([nH]4)c(-c4cc(S(=O)(=O)[O-])ccc4F)c4nc(c(-c5cc(S(=O)(=O)[O-])ccc5F)c5ccc2[nH]5)C=C4)C=C3)cc1
REMARK SMILES IDX 16 1 15 2 14 3 12 4 13 5 3 7 2 8 1 9 4 10 5 11 6 12 11 13
REMARK SMILES IDX 7 14 9 15 8 16 10 17 17 20 18 21 19 22 20 24 21 25 22 26
REMARK SMILES IDX 83 27 23 28 82 29 24 30 25 31 26 32 76 33 27 34 81 35 75 36
REMARK SMILES IDX 77 37 28 38 80 39 74 40 73 41 29 43 61 44 41 45 60 46 42 47
REMARK SMILES IDX 45 48 59 49 78 50 43 51 44 52 58 54 79 55 46 56 30 57 31 58
REMARK SMILES IDX 39 59 32 60 38 61 40 62 37 63 33 64 34 65 35 66 36 67 62 68
REMARK SMILES IDX 63 69 71 70 64 71 70 72 72 73 69 74 65 75 66 76 67 77 68 78
REMARK SMILES IDX 47 79 48 80 56 81 49 82 55 83 57 84 54 85 50 86 51 87 52 88
REMARK SMILES IDX 53 89
REMARK H PARENT 14 6 10 18 10 19 18 23 77 42 45 53
REMARK Flexibility Score: inf
ROOT
ATOM      1  C   UNL A   1      38.106  19.800  24.985  1.00  0.00     0.042 C 
ENDROOT
BRANCH   1   2
ATOM      2  C   UNL A   1      36.890  20.722  25.030  1.00  0.00     0.117 C 
BRANCH   2   3
ATOM      3  N   UNL A   1      35.631  19.999  25.187  1.00  0.00    -0.355 N 
ATOM      4  C   UNL A   1      34.333  20.406  24.993  1.00  0.00     0.233 C 
ATOM      5  O   UNL A   1      33.445  19.557  25.117  1.00  0.00    -0.274 OA
ATOM      6  H   UNL A   1      35.728  19.065  25.480  1.00  0.00     0.163 HD
BRANCH   4   7
ATOM      7  C   UNL A   1      33.981  21.881  24.658  1.00  0.00     0.140 C 
BRANCH   7   8
ATOM      8  C   UNL A   1      32.818  21.835  23.647  1.00  0.00     0.021 C 
ATOM      9  C   UNL A   1      32.671  22.931  22.616  1.00  0.00     0.005 C 
ENDBRANCH   7   8
BRANCH   7  10
ATOM     10  S   UNL A   1      33.849  22.711  26.319  1.00  0.00    -0.113 SA
BRANCH  10  11
ATOM     11  C   UNL A   1      32.995  24.255  26.157  1.00  0.00     0.010 A 
ATOM     12  C   UNL A   1      33.560  25.476  25.815  1.00  0.00     0.015 A 
ATOM     13  C   UNL A   1      31.605  24.203  26.366  1.00  0.00     0.040 A 
ATOM     14  C   UNL A   1      32.745  26.567  25.507  1.00  0.00     0.003 A 
ATOM     15  C   UNL A   1      30.787  25.319  26.176  1.00  0.00     0.032 A 
ATOM     16  C   UNL A   1      31.362  26.478  25.662  1.00  0.00     0.025 A 
BRANCH  15  17
ATOM     17  N   UNL A   1      29.415  25.226  26.354  1.00  0.00    -0.399 N 
ATOM     18  H   UNL A   1      28.901  24.543  25.865  1.00  0.00     0.156 HD
ATOM     19  H   UNL A   1      28.955  25.844  26.967  1.00  0.00     0.156 HD
ENDBRANCH  15  17
ENDBRANCH  10  11
ENDBRANCH   7  10
ENDBRANCH   4   7
ENDBRANCH   2   3
ENDBRANCH   1   2
BRANCH   1  20
ATOM     20  C   UNL A   1      39.272  20.276  25.834  1.00  0.00     0.118 C 
BRANCH  20  21
ATOM     21  N   UNL A   1      40.302  19.260  25.975  1.00  0.00    -0.352 N 
ATOM     22  C   UNL A   1      41.661  19.389  26.139  1.00  0.00     0.251 C 
ATOM     23  H   UNL A   1      39.974  18.332  25.951  1.00  0.00     0.163 HD
ATOM     24  O   UNL A   1      42.371  18.396  26.015  1.00  0.00    -0.269 OA
BRANCH  22  25
ATOM     25  C   UNL A   1      42.267  20.709  26.433  1.00  0.00     0.039 A 
ATOM     26  C   UNL A   1      42.619  21.540  25.366  1.00  0.00     0.014 A 
ATOM     27  C   UNL A   1      42.518  21.121  27.744  1.00  0.00     0.014 A 
ATOM     28  C   UNL A   1      43.157  22.806  25.617  1.00  0.00     0.010 A 
ATOM     29  C   UNL A   1      42.966  22.416  27.995  1.00  0.00     0.010 A 
ATOM     30  C   UNL A   1      43.298  23.272  26.935  1.00  0.00    -0.014 A 
BRANCH  30  31
ATOM     31  C   UNL A   1      43.796  24.643  27.222  1.00  0.00     0.031 A 
ATOM     32  C   UNL A   1      42.861  25.691  27.766  1.00  0.00     0.074 A 
ATOM     33  C   UNL A   1      45.076  24.962  26.940  1.00  0.00     0.049 A 
ATOM     34  N   UNL A   1      43.086  26.958  28.008  1.00  0.00    -0.248 NA
ATOM     35  C   UNL A   1      41.482  25.265  28.046  1.00  0.00     0.031 C 
ATOM     36  C   UNL A   1      46.070  24.044  26.378  1.00  0.00     0.029 A 
ATOM     37  N   UNL A   1      45.762  26.143  27.081  1.00  0.00    -0.354 N 
ATOM     38  C   UNL A   1      41.878  27.480  28.458  1.00  0.00     0.074 A 
ATOM     39  C   UNL A   1      40.909  26.407  28.391  1.00  0.00     0.031 C 
ATOM     40  C   UNL A   1      47.241  24.687  26.250  1.00  0.00     0.029 A 
ATOM     41  C   UNL A   1      47.073  26.075  26.666  1.00  0.00     0.049 A 
ATOM     42  H   UNL A   1      45.354  26.961  27.444  1.00  0.00     0.167 HD
ATOM     43  C   UNL A   1      41.608  28.730  28.908  1.00  0.00     0.034 A 
ATOM     44  C   UNL A   1      48.027  27.026  26.610  1.00  0.00     0.034 A 
ATOM     45  C   UNL A   1      42.589  29.786  28.976  1.00  0.00     0.049 A 
ATOM     46  C   UNL A   1      47.692  28.421  27.079  1.00  0.00     0.074 A 
ATOM     47  C   UNL A   1      42.436  31.074  29.462  1.00  0.00     0.029 A 
ATOM     48  N   UNL A   1      43.904  29.683  28.539  1.00  0.00    -0.354 N 
ATOM     49  N   UNL A   1      46.556  28.884  27.547  1.00  0.00    -0.248 NA
ATOM     50  C   UNL A   1      48.770  29.415  27.022  1.00  0.00     0.031 C 
ATOM     51  C   UNL A   1      43.631  31.770  29.246  1.00  0.00     0.029 A 
ATOM     52  C   UNL A   1      44.560  30.893  28.710  1.00  0.00     0.049 A 
ATOM     53  H   UNL A   1      44.310  28.869  28.162  1.00  0.00     0.167 HD
ATOM     54  C   UNL A   1      46.797  30.217  27.873  1.00  0.00     0.074 A 
ATOM     55  C   UNL A   1      48.187  30.475  27.562  1.00  0.00     0.031 C 
ATOM     56  C   UNL A   1      45.946  31.142  28.388  1.00  0.00     0.034 A 
BRANCH  43  57
ATOM     57  C   UNL A   1      40.189  29.028  29.335  1.00  0.00     0.023 A 
ATOM     58  C   UNL A   1      39.804  29.016  30.687  1.00  0.00     0.031 A 
ATOM     59  C   UNL A   1      39.200  29.312  28.375  1.00  0.00     0.131 A 
ATOM     60  C   UNL A   1      38.458  29.206  31.036  1.00  0.00     0.055 A 
ATOM     61  C   UNL A   1      37.880  29.587  28.734  1.00  0.00     0.041 A 
ATOM     62  F   UNL A   1      39.500  29.317  27.066  1.00  0.00    -0.206 F 
ATOM     63  C   UNL A   1      37.499  29.519  30.071  1.00  0.00     0.022 A 
BRANCH  60  64
ATOM     64  S   UNL A   1      37.956  28.892  32.750  1.00  0.00     0.124 S 
ATOM     65  O   UNL A   1      38.024  27.435  32.814  1.00  0.00    -0.237 OA
ATOM     66  O   UNL A   1      38.967  29.614  33.513  1.00  0.00    -0.237 OA
ATOM     67  O   UNL A   1      36.606  29.448  32.818  1.00  0.00    -0.744 OA
ENDBRANCH  60  64
ENDBRANCH  43  57
BRANCH  44  68
ATOM     68  C   UNL A   1      49.385  26.707  26.080  1.00  0.00     0.023 A 
ATOM     69  C   UNL A   1      49.795  27.163  24.817  1.00  0.00     0.031 A 
ATOM     70  C   UNL A   1      50.276  25.897  26.807  1.00  0.00     0.131 A 
ATOM     71  C   UNL A   1      51.036  26.764  24.297  1.00  0.00     0.055 A 
ATOM     72  C   UNL A   1      51.535  25.553  26.311  1.00  0.00     0.041 A 
ATOM     73  F   UNL A   1      49.937  25.435  28.021  1.00  0.00    -0.206 F 
ATOM     74  C   UNL A   1      51.915  25.974  25.041  1.00  0.00     0.022 A 
BRANCH  71  75
ATOM     75  S   UNL A   1      51.443  27.206  22.584  1.00  0.00     0.124 S 
ATOM     76  O   UNL A   1      52.710  26.511  22.393  1.00  0.00    -0.237 OA
ATOM     77  O   UNL A   1      50.299  26.670  21.855  1.00  0.00    -0.237 OA
ATOM     78  O   UNL A   1      51.529  28.664  22.623  1.00  0.00    -0.744 OA
ENDBRANCH  71  75
ENDBRANCH  44  68
BRANCH  56  79
ATOM     79  C   UNL A   1      46.517  32.506  28.698  1.00  0.00     0.023 A 
ATOM     80  C   UNL A   1      46.549  33.534  27.739  1.00  0.00     0.031 A 
ATOM     81  C   UNL A   1      47.045  32.776  29.974  1.00  0.00     0.131 A 
ATOM     82  C   UNL A   1      47.149  34.763  28.053  1.00  0.00     0.055 A 
ATOM     83  C   UNL A   1      47.578  34.022  30.301  1.00  0.00     0.041 A 
ATOM     84  F   UNL A   1      47.044  31.831  30.928  1.00  0.00    -0.206 F 
ATOM     85  C   UNL A   1      47.646  35.021  29.333  1.00  0.00     0.022 A 
BRANCH  82  86
ATOM     86  S   UNL A   1      47.363  35.990  26.735  1.00  0.00     0.124 S 
ATOM     87  O   UNL A   1      46.658  37.146  27.279  1.00  0.00    -0.237 OA
ATOM     88  O   UNL A   1      48.816  36.110  26.652  1.00  0.00    -0.237 OA
ATOM     89  O   UNL A   1      46.727  35.365  25.577  1.00  0.00    -0.744 OA
ENDBRANCH  82  86
ENDBRANCH  56  79
ENDBRANCH  30  31
ENDBRANCH  22  25
ENDBRANCH  20  21
ENDBRANCH   1  20
TORSDOF 17
ENDMDL
MODEL 3
REMARK VINA RESULT:     -10.7      1.622      2.701
REMARK SMILES CC[C@@H](Sc1cccc(N)c1)C(=O)NCCCNC(=O)c1ccc(-c2c3nc(c(-c4cc(S(=O)(=O)[O-])ccc4F)c4ccc([nH]4)c(-c4cc(S(=O)(=O)[O-])ccc4F)c4nc(c(-c5cc(S(=O)(=O)[O-])ccc5F)c5ccc2[nH]5)C=C4)C=C3)cc1
REMARK SMILES IDX 16 1 15 2 14 3 12 4 13 5 3 7 2 8 1 9 4 10 5 11 6 12 11 13
REMARK SMILES IDX 7 14 9 15 8 16 10 17 17 20 18 21 19 22 20 24 21 25 22 26
REMARK SMILES IDX 83 27 23 28 82 29 24 30 25 31 26 32 76 33 27 34 81 35 75 36
REMARK SMILES IDX 77 37 28 38 80 39 74 40 73 41 29 43 61 44 41 45 60 46 42 47
REMARK SMILES IDX 45 48 59 49 78 50 43 51 44 52 58 54 79 55 46 56 30 57 31 58
REMARK SMILES IDX 39 59 32 60 38 61 40 62 37 63 33 64 34 65 35 66 36 67 62 68
REMARK SMILES IDX 63 69 71 70 64 71 70 72 72 73 69 74 65 75 66 76 67 77 68 78
REMARK SMILES IDX 47 79 48 80 56 81 49 82 55 83 57 84 54 85 50 86 51 87 52 88
REMARK SMILES IDX 53 89
REMARK H PARENT 14 6 10 18 10 19 18 23 77 42 45 53
REMARK Flexibility Score: inf
ROOT
ATOM      1  C   UNL A   1      31.515  31.858  26.506  1.00  0.00     0.042 C 
ENDROOT
BRANCH   1   2
ATOM      2  C   UNL A   1      31.771  30.495  25.868  1.00  0.00     0.117 C 
BRANCH   2   3
ATOM      3  N   UNL A   1      31.028  30.297  24.627  1.00  0.00    -0.355 N 
ATOM      4  C   UNL A   1      30.739  29.150  23.928  1.00  0.00     0.233 C 
ATOM      5  O   UNL A   1      30.010  29.254  22.937  1.00  0.00    -0.274 OA
ATOM      6  H   UNL A   1      30.675  31.122  24.223  1.00  0.00     0.163 HD
BRANCH   4   7
ATOM      7  C   UNL A   1      31.324  27.772  24.342  1.00  0.00     0.140 C 
BRANCH   7   8
ATOM      8  C   UNL A   1      30.124  26.819  24.510  1.00  0.00     0.021 C 
ATOM      9  C   UNL A   1      30.170  25.724  25.551  1.00  0.00     0.005 C 
ENDBRANCH   7   8
BRANCH   7  10
ATOM     10  S   UNL A   1      32.696  27.470  23.121  1.00  0.00    -0.113 SA
BRANCH  10  11
ATOM     11  C   UNL A   1      33.131  25.752  23.113  1.00  0.00     0.010 A 
ATOM     12  C   UNL A   1      32.703  24.799  22.200  1.00  0.00     0.015 A 
ATOM     13  C   UNL A   1      34.027  25.350  24.121  1.00  0.00     0.040 A 
ATOM     14  C   UNL A   1      33.291  23.533  22.175  1.00  0.00     0.003 A 
ATOM     15  C   UNL A   1      34.536  24.051  24.180  1.00  0.00     0.032 A 
ATOM     16  C   UNL A   1      34.224  23.172  23.148  1.00  0.00     0.025 A 
BRANCH  15  17
ATOM     17  N   UNL A   1      35.447  23.695  25.164  1.00  0.00    -0.399 N 
ATOM     18  H   UNL A   1      35.237  22.963  25.788  1.00  0.00     0.156 HD
ATOM     19  H   UNL A   1      36.302  24.177  25.240  1.00  0.00     0.156 HD
ENDBRANCH  15  17
ENDBRANCH  10  11
ENDBRANCH   7  10
ENDBRANCH   4   7
ENDBRANCH   2   3
ENDBRANCH   1   2
BRANCH   1  20
ATOM     20  C   UNL A   1      32.713  32.427  27.247  1.00  0.00     0.118 C 
BRANCH  20  21
ATOM     21  N   UNL A   1      32.536  33.829  27.587  1.00  0.00    -0.352 N 
ATOM     22  C   UNL A   1      33.125  34.586  28.572  1.00  0.00     0.251 C 
ATOM     23  H   UNL A   1      31.891  34.314  27.023  1.00  0.00     0.163 HD
ATOM     24  O   UNL A   1      32.666  35.696  28.824  1.00  0.00    -0.269 OA
BRANCH  22  25
ATOM     25  C   UNL A   1      34.281  34.064  29.339  1.00  0.00     0.039 A 
ATOM     26  C   UNL A   1      34.041  33.222  30.428  1.00  0.00     0.014 A 
ATOM     27  C   UNL A   1      35.593  34.420  29.015  1.00  0.00     0.014 A 
ATOM     28  C   UNL A   1      35.115  32.685  31.144  1.00  0.00     0.010 A 
ATOM     29  C   UNL A   1      36.662  33.813  29.669  1.00  0.00     0.010 A 
ATOM     30  C   UNL A   1      36.436  32.943  30.746  1.00  0.00    -0.014 A 
BRANCH  30  31
ATOM     31  C   UNL A   1      37.591  32.321  31.447  1.00  0.00     0.031 A 
ATOM     32  C   UNL A   1      38.345  31.185  30.806  1.00  0.00     0.074 A 
ATOM     33  C   UNL A   1      37.928  32.741  32.684  1.00  0.00     0.049 A 
ATOM     34  N   UNL A   1      39.327  30.466  31.288  1.00  0.00    -0.248 NA
ATOM     35  C   UNL A   1      37.918  30.787  29.457  1.00  0.00     0.031 C 
ATOM     36  C   UNL A   1      37.253  33.810  33.425  1.00  0.00     0.029 A 
ATOM     37  N   UNL A   1      38.914  32.321  33.540  1.00  0.00    -0.354 N 
ATOM     38  C   UNL A   1      39.626  29.526  30.308  1.00  0.00     0.074 A 
ATOM     39  C   UNL A   1      38.677  29.726  29.234  1.00  0.00     0.031 C 
ATOM     40  C   UNL A   1      37.861  33.978  34.608  1.00  0.00     0.029 A 
ATOM     41  C   UNL A   1      38.934  32.998  34.739  1.00  0.00     0.049 A 
ATOM     42  H   UNL A   1      39.548  31.601  33.319  1.00  0.00     0.167 HD
ATOM     43  C   UNL A   1      40.616  28.598  30.294  1.00  0.00     0.034 A 
ATOM     44  C   UNL A   1      39.714  32.837  35.827  1.00  0.00     0.034 A 
ATOM     45  C   UNL A   1      41.559  28.418  31.371  1.00  0.00     0.049 A 
ATOM     46  C   UNL A   1      40.783  31.772  35.803  1.00  0.00     0.074 A 
ATOM     47  C   UNL A   1      42.631  27.544  31.439  1.00  0.00     0.029 A 
ATOM     48  N   UNL A   1      41.542  29.116  32.572  1.00  0.00    -0.354 N 
ATOM     49  N   UNL A   1      41.082  30.923  34.848  1.00  0.00    -0.248 NA
ATOM     50  C   UNL A   1      41.623  31.651  37.001  1.00  0.00     0.031 C 
ATOM     51  C   UNL A   1      43.210  27.658  32.708  1.00  0.00     0.029 A 
ATOM     52  C   UNL A   1      42.561  28.667  33.399  1.00  0.00     0.049 A 
ATOM     53  H   UNL A   1      40.900  29.827  32.802  1.00  0.00     0.167 HD
ATOM     54  C   UNL A   1      42.171  30.192  35.318  1.00  0.00     0.074 A 
ATOM     55  C   UNL A   1      42.481  30.711  36.634  1.00  0.00     0.031 C 
ATOM     56  C   UNL A   1      42.855  29.187  34.715  1.00  0.00     0.034 A 
BRANCH  43  57
ATOM     57  C   UNL A   1      40.707  27.692  29.088  1.00  0.00     0.023 A 
ATOM     58  C   UNL A   1      41.639  27.918  28.061  1.00  0.00     0.031 A 
ATOM     59  C   UNL A   1      39.838  26.594  28.953  1.00  0.00     0.131 A 
ATOM     60  C   UNL A   1      41.631  27.109  26.914  1.00  0.00     0.055 A 
ATOM     61  C   UNL A   1      39.892  25.740  27.850  1.00  0.00     0.041 A 
ATOM     62  F   UNL A   1      38.910  26.338  29.890  1.00  0.00    -0.206 F 
ATOM     63  C   UNL A   1      40.783  26.005  26.814  1.00  0.00     0.022 A 
BRANCH  60  64
ATOM     64  S   UNL A   1      42.642  27.611  25.494  1.00  0.00     0.124 S 
ATOM     65  O   UNL A   1      43.934  27.861  26.126  1.00  0.00    -0.237 OA
ATOM     66  O   UNL A   1      42.570  26.441  24.626  1.00  0.00    -0.237 OA
ATOM     67  O   UNL A   1      41.961  28.803  24.993  1.00  0.00    -0.744 OA
ENDBRANCH  60  64
ENDBRANCH  43  57
BRANCH  44  68
ATOM     68  C   UNL A   1      39.514  33.688  37.036  1.00  0.00     0.023 A 
ATOM     69  C   UNL A   1      40.343  34.792  37.291  1.00  0.00     0.031 A 
ATOM     70  C   UNL A   1      38.521  33.379  37.984  1.00  0.00     0.131 A 
ATOM     71  C   UNL A   1      40.201  35.514  38.486  1.00  0.00     0.055 A 
ATOM     72  C   UNL A   1      38.343  34.138  39.142  1.00  0.00     0.041 A 
ATOM     73  F   UNL A   1      37.698  32.335  37.791  1.00  0.00    -0.206 F 
ATOM     74  C   UNL A   1      39.197  35.204  39.406  1.00  0.00     0.022 A 
BRANCH  71  75
ATOM     75  S   UNL A   1      41.417  36.804  38.871  1.00  0.00     0.124 S 
ATOM     76  O   UNL A   1      42.166  36.188  39.961  1.00  0.00    -0.237 OA
ATOM     77  O   UNL A   1      42.124  36.940  37.602  1.00  0.00    -0.237 OA
ATOM     78  O   UNL A   1      40.591  37.948  39.248  1.00  0.00    -0.744 OA
ENDBRANCH  71  75
ENDBRANCH  44  68
BRANCH  56  79
ATOM     79  C   UNL A   1      44.045  28.620  35.456  1.00  0.00     0.023 A 
ATOM     80  C   UNL A   1      43.917  27.552  36.360  1.00  0.00     0.031 A 
ATOM     81  C   UNL A   1      45.325  29.168  35.257  1.00  0.00     0.131 A 
ATOM     82  C   UNL A   1      45.039  27.103  37.074  1.00  0.00     0.055 A 
ATOM     83  C   UNL A   1      46.448  28.673  35.918  1.00  0.00     0.041 A 
ATOM     84  F   UNL A   1      45.506  30.193  34.408  1.00  0.00    -0.206 F 
ATOM     85  C   UNL A   1      46.307  27.644  36.845  1.00  0.00     0.022 A 
BRANCH  82  86
ATOM     86  S   UNL A   1      44.803  25.870  38.382  1.00  0.00     0.124 S 
ATOM     87  O   UNL A   1      46.027  26.018  39.163  1.00  0.00    -0.237 OA
ATOM     88  O   UNL A   1      43.576  26.328  39.027  1.00  0.00    -0.237 OA
ATOM     89  O   UNL A   1      44.684  24.611  37.650  1.00  0.00    -0.744 OA
ENDBRANCH  82  86
ENDBRANCH  56  79
ENDBRANCH  30  31
ENDBRANCH  22  25
ENDBRANCH  20  21
ENDBRANCH   1  20
TORSDOF 17
ENDMDL
