MODEL 1
REMARK VINA RESULT:      -8.8      0.000      0.000
REMARK SMILES CC(C)C[C@H](NC(=O)CNC(=O)[C@@H](NC(=O)OCc1ccccc1)C(C)C)C(=O)N[C@@H](C)C(=O)NCCCNC(=O)c1ccc(-c2c3nc(c(-c4cc(S(=O)(=O)[O-])ccc4F)c4ccc([nH]4)c(-c4cc(S(=O)(=O)[O-])ccc4F)c4nc(c(-c5cc(S(=O)(=O)[O-])ccc5F)c5ccc2[nH]5)C=C4)C=C3)cc1
REMARK SMILES IDX 31 1 32 2 30 3 28 4 29 5 5 7 4 8 2 9 1 10 3 11 6 12 7 13
REMARK SMILES IDX 8 15 9 16 10 17 11 18 12 20 13 21 14 22 15 23 16 25 17 26
REMARK SMILES IDX 18 27 19 28 20 29 24 30 21 31 23 32 22 33 25 34 26 35 27 36
REMARK SMILES IDX 33 37 34 38 35 39 36 41 37 42 38 43 39 44 40 45 41 47 42 48
REMARK SMILES IDX 43 49 104 50 44 51 103 52 45 53 46 54 47 55 97 56 48 57
REMARK SMILES IDX 102 58 96 59 98 60 49 61 101 62 95 63 94 64 50 66 82 67
REMARK SMILES IDX 62 68 81 69 63 70 66 71 80 72 99 73 64 74 65 75 79 77 100 78
REMARK SMILES IDX 67 79 51 80 52 81 60 82 53 83 59 84 61 85 58 86 54 87 55 88
REMARK SMILES IDX 56 89 57 90 83 91 84 92 92 93 85 94 91 95 93 96 90 97 86 98
REMARK SMILES IDX 87 99 88 100 89 101 68 102 69 103 77 104 70 105 76 106
REMARK SMILES IDX 78 107 75 108 71 109 72 110 73 111 74 112
REMARK H PARENT 30 6 6 14 10 19 14 24 35 40 39 46 98 65 66 76
REMARK Flexibility Score: inf
ROOT
ATOM      1  C   UNL A   1      34.414  29.261  27.018  1.00  0.00     0.168 C 
ATOM      2  C   UNL A   1      35.760  29.128  27.714  1.00  0.00     0.041 C 
ENDROOT
BRANCH   1   3
ATOM      3  N   UNL A   1      34.503  28.984  25.586  1.00  0.00    -0.343 N 
ATOM      4  C   UNL A   1      34.103  27.880  24.896  1.00  0.00     0.243 C 
ATOM      5  O   UNL A   1      33.900  28.009  23.686  1.00  0.00    -0.273 OA
ATOM      6  H   UNL A   1      34.911  29.697  25.044  1.00  0.00     0.164 HD
BRANCH   4   7
ATOM      7  C   UNL A   1      33.797  26.551  25.610  1.00  0.00     0.171 C 
BRANCH   7   8
ATOM      8  C   UNL A   1      32.851  26.722  26.809  1.00  0.00     0.038 C 
BRANCH   8   9
ATOM      9  C   UNL A   1      31.427  27.241  26.483  1.00  0.00    -0.015 C 
ATOM     10  C   UNL A   1      30.381  26.156  26.220  1.00  0.00     0.007 C 
ATOM     11  C   UNL A   1      30.933  28.119  27.637  1.00  0.00     0.007 C 
ENDBRANCH   8   9
ENDBRANCH   7   8
BRANCH   7  12
ATOM     12  N   UNL A   1      35.049  25.847  25.917  1.00  0.00    -0.343 N 
ATOM     13  C   UNL A   1      35.506  24.616  25.570  1.00  0.00     0.240 C 
ATOM     14  H   UNL A   1      35.673  26.362  26.478  1.00  0.00     0.164 HD
ATOM     15  O   UNL A   1      36.714  24.409  25.742  1.00  0.00    -0.273 OA
BRANCH  13  16
ATOM     16  C   UNL A   1      34.648  23.557  24.866  1.00  0.00     0.216 C 
BRANCH  16  17
ATOM     17  N   UNL A   1      33.260  23.496  25.256  1.00  0.00    -0.345 N 
ATOM     18  C   UNL A   1      32.113  23.274  24.571  1.00  0.00     0.243 C 
ATOM     19  H   UNL A   1      33.117  23.648  26.218  1.00  0.00     0.164 HD
ATOM     20  O   UNL A   1      31.095  23.200  25.273  1.00  0.00    -0.273 OA
BRANCH  18  21
ATOM     21  C   UNL A   1      32.019  22.982  23.044  1.00  0.00     0.177 C 
BRANCH  21  22
ATOM     22  N   UNL A   1      32.506  24.081  22.201  1.00  0.00    -0.309 N 
ATOM     23  C   UNL A   1      31.965  25.255  21.796  1.00  0.00     0.408 C 
ATOM     24  H   UNL A   1      33.417  23.934  21.859  1.00  0.00     0.167 HD
ATOM     25  O   UNL A   1      32.384  25.822  20.795  1.00  0.00    -0.225 OA
BRANCH  23  26
ATOM     26  O   UNL A   1      31.026  25.742  22.631  1.00  0.00    -0.445 OA
BRANCH  26  27
ATOM     27  C   UNL A   1      31.065  27.165  22.800  1.00  0.00     0.270 C 
BRANCH  27  28
ATOM     28  C   UNL A   1      29.700  27.828  22.875  1.00  0.00    -0.011 A 
ATOM     29  C   UNL A   1      28.573  27.219  23.454  1.00  0.00     0.007 A 
ATOM     30  C   UNL A   1      29.566  29.144  22.407  1.00  0.00     0.007 A 
ATOM     31  C   UNL A   1      27.359  27.896  23.565  1.00  0.00     0.000 A 
ATOM     32  C   UNL A   1      28.347  29.821  22.513  1.00  0.00     0.000 A 
ATOM     33  C   UNL A   1      27.246  29.199  23.095  1.00  0.00     0.000 A 
ENDBRANCH  27  28
ENDBRANCH  26  27
ENDBRANCH  23  26
ENDBRANCH  21  22
BRANCH  21  34
ATOM     34  C   UNL A   1      32.484  21.553  22.689  1.00  0.00     0.015 C 
ATOM     35  C   UNL A   1      32.290  20.582  23.863  1.00  0.00     0.010 C 
ATOM     36  C   UNL A   1      31.692  20.999  21.498  1.00  0.00     0.010 C 
ENDBRANCH  21  34
ENDBRANCH  18  21
ENDBRANCH  16  17
ENDBRANCH  13  16
ENDBRANCH   7  12
ENDBRANCH   4   7
ENDBRANCH   1   3
BRANCH   1  37
ATOM     37  C   UNL A   1      33.722  30.607  27.281  1.00  0.00     0.242 C 
ATOM     38  O   UNL A   1      32.628  30.858  26.766  1.00  0.00    -0.273 OA
ATOM     39  N   UNL A   1      34.254  31.539  28.114  1.00  0.00    -0.354 N 
ATOM     40  H   UNL A   1      33.728  32.367  28.187  1.00  0.00     0.163 HD
BRANCH  39  41
ATOM     41  C   UNL A   1      35.463  31.523  28.914  1.00  0.00     0.117 C 
BRANCH  41  42
ATOM     42  C   UNL A   1      35.187  31.829  30.378  1.00  0.00     0.042 C 
BRANCH  42  43
ATOM     43  C   UNL A   1      35.548  33.253  30.788  1.00  0.00     0.118 C 
BRANCH  43  44
ATOM     44  N   UNL A   1      35.410  33.471  32.222  1.00  0.00    -0.352 N 
ATOM     45  C   UNL A   1      36.119  32.941  33.271  1.00  0.00     0.251 C 
ATOM     46  H   UNL A   1      34.695  34.098  32.479  1.00  0.00     0.163 HD
ATOM     47  O   UNL A   1      35.686  33.067  34.413  1.00  0.00    -0.269 OA
BRANCH  45  48
ATOM     48  C   UNL A   1      37.379  32.210  33.022  1.00  0.00     0.039 A 
ATOM     49  C   UNL A   1      38.465  32.896  32.473  1.00  0.00     0.014 A 
ATOM     50  C   UNL A   1      37.488  30.850  33.324  1.00  0.00     0.014 A 
ATOM     51  C   UNL A   1      39.682  32.234  32.301  1.00  0.00     0.010 A 
ATOM     52  C   UNL A   1      38.725  30.218  33.237  1.00  0.00     0.010 A 
ATOM     53  C   UNL A   1      39.835  30.904  32.726  1.00  0.00    -0.014 A 
BRANCH  53  54
ATOM     54  C   UNL A   1      41.151  30.216  32.652  1.00  0.00     0.031 A 
ATOM     55  C   UNL A   1      41.455  29.284  31.510  1.00  0.00     0.074 A 
ATOM     56  C   UNL A   1      42.042  30.384  33.651  1.00  0.00     0.049 A 
ATOM     57  N   UNL A   1      42.512  28.539  31.311  1.00  0.00    -0.248 NA
ATOM     58  C   UNL A   1      40.422  29.151  30.471  1.00  0.00     0.031 C 
ATOM     59  C   UNL A   1      41.841  31.230  34.829  1.00  0.00     0.029 A 
ATOM     60  N   UNL A   1      43.291  29.848  33.841  1.00  0.00    -0.354 N 
ATOM     61  C   UNL A   1      42.266  27.839  30.134  1.00  0.00     0.074 A 
ATOM     62  C   UNL A   1      40.936  28.206  29.698  1.00  0.00     0.031 C 
ATOM     63  C   UNL A   1      42.938  31.182  35.600  1.00  0.00     0.029 A 
ATOM     64  C   UNL A   1      43.900  30.261  35.004  1.00  0.00     0.049 A 
ATOM     65  H   UNL A   1      43.713  29.227  33.204  1.00  0.00     0.167 HD
ATOM     66  C   UNL A   1      43.085  26.987  29.469  1.00  0.00     0.034 A 
ATOM     67  C   UNL A   1      45.090  29.922  35.539  1.00  0.00     0.034 A 
ATOM     68  C   UNL A   1      44.414  26.644  29.913  1.00  0.00     0.049 A 
ATOM     69  C   UNL A   1      45.967  28.946  34.794  1.00  0.00     0.074 A 
ATOM     70  C   UNL A   1      45.351  25.842  29.285  1.00  0.00     0.029 A 
ATOM     71  N   UNL A   1      44.993  27.073  31.102  1.00  0.00    -0.354 N 
ATOM     72  N   UNL A   1      45.743  28.339  33.651  1.00  0.00    -0.248 NA
ATOM     73  C   UNL A   1      47.259  28.617  35.407  1.00  0.00     0.031 C 
ATOM     74  C   UNL A   1      46.461  25.722  30.126  1.00  0.00     0.029 A 
ATOM     75  C   UNL A   1      46.258  26.520  31.241  1.00  0.00     0.049 A 
ATOM     76  H   UNL A   1      44.569  27.680  31.749  1.00  0.00     0.167 HD
ATOM     77  C   UNL A   1      46.884  27.584  33.394  1.00  0.00     0.074 A 
ATOM     78  C   UNL A   1      47.798  27.826  34.491  1.00  0.00     0.031 C 
ATOM     79  C   UNL A   1      47.155  26.765  32.346  1.00  0.00     0.034 A 
BRANCH  66  80
ATOM     80  C   UNL A   1      42.555  26.347  28.208  1.00  0.00     0.023 A 
ATOM     81  C   UNL A   1      41.948  25.078  28.218  1.00  0.00     0.031 A 
ATOM     82  C   UNL A   1      42.662  27.014  26.974  1.00  0.00     0.131 A 
ATOM     83  C   UNL A   1      41.529  24.492  27.014  1.00  0.00     0.055 A 
ATOM     84  C   UNL A   1      42.170  26.459  25.791  1.00  0.00     0.041 A 
ATOM     85  F   UNL A   1      43.252  28.217  26.896  1.00  0.00    -0.206 F 
ATOM     86  C   UNL A   1      41.611  25.184  25.804  1.00  0.00     0.022 A 
BRANCH  83  87
ATOM     87  S   UNL A   1      40.998  22.758  27.034  1.00  0.00     0.124 S 
ATOM     88  O   UNL A   1      41.725  22.213  25.890  1.00  0.00    -0.237 OA
ATOM     89  O   UNL A   1      41.443  22.307  28.347  1.00  0.00    -0.237 OA
ATOM     90  O   UNL A   1      39.549  22.841  26.860  1.00  0.00    -0.744 OA
ENDBRANCH  83  87
ENDBRANCH  66  80
BRANCH  67  91
ATOM     91  C   UNL A   1      45.529  30.492  36.846  1.00  0.00     0.023 A 
ATOM     92  C   UNL A   1      45.384  29.761  38.036  1.00  0.00     0.031 A 
ATOM     93  C   UNL A   1      46.046  31.797  36.935  1.00  0.00     0.131 A 
ATOM     94  C   UNL A   1      45.692  30.359  39.268  1.00  0.00     0.055 A 
ATOM     95  C   UNL A   1      46.412  32.365  38.157  1.00  0.00     0.041 A 
ATOM     96  F   UNL A   1      46.208  32.540  35.830  1.00  0.00    -0.206 F 
ATOM     97  C   UNL A   1      46.219  31.651  39.335  1.00  0.00     0.022 A 
BRANCH  94  98
ATOM     98  S   UNL A   1      45.291  29.462  40.792  1.00  0.00     0.124 S 
ATOM     99  O   UNL A   1      44.223  30.284  41.348  1.00  0.00    -0.237 OA
ATOM    100  O   UNL A   1      44.894  28.156  40.278  1.00  0.00    -0.237 OA
ATOM    101  O   UNL A   1      46.547  29.481  41.539  1.00  0.00    -0.744 OA
ENDBRANCH  94  98
ENDBRANCH  67  91
BRANCH  79 102
ATOM    102  C   UNL A   1      48.515  26.110  32.319  1.00  0.00     0.023 A 
ATOM    103  C   UNL A   1      49.581  26.643  31.573  1.00  0.00     0.031 A 
ATOM    104  C   UNL A   1      48.742  24.924  33.041  1.00  0.00     0.131 A 
ATOM    105  C   UNL A   1      50.805  25.960  31.517  1.00  0.00     0.055 A 
ATOM    106  C   UNL A   1      49.983  24.286  33.036  1.00  0.00     0.041 A 
ATOM    107  F   UNL A   1      47.759  24.367  33.767  1.00  0.00    -0.206 F 
ATOM    108  C   UNL A   1      51.019  24.796  32.259  1.00  0.00     0.022 A 
BRANCH 105 109
ATOM    109  S   UNL A   1      52.084  26.560  30.380  1.00  0.00     0.124 S 
ATOM    110  O   UNL A   1      53.290  25.953  30.931  1.00  0.00    -0.237 OA
ATOM    111  O   UNL A   1      51.633  26.031  29.096  1.00  0.00    -0.237 OA
ATOM    112  O   UNL A   1      52.005  28.014  30.511  1.00  0.00    -0.744 OA
ENDBRANCH 105 109
ENDBRANCH  79 102
ENDBRANCH  53  54
ENDBRANCH  45  48
ENDBRANCH  43  44
ENDBRANCH  42  43
ENDBRANCH  41  42
ENDBRANCH  39  41
ENDBRANCH   1  37
TORSDOF 26
ENDMDL
MODEL 2
REMARK VINA RESULT:      -8.6      7.243     13.351
REMARK SMILES CC(C)C[C@H](NC(=O)CNC(=O)[C@@H](NC(=O)OCc1ccccc1)C(C)C)C(=O)N[C@@H](C)C(=O)NCCCNC(=O)c1ccc(-c2c3nc(c(-c4cc(S(=O)(=O)[O-])ccc4F)c4ccc([nH]4)c(-c4cc(S(=O)(=O)[O-])ccc4F)c4nc(c(-c5cc(S(=O)(=O)[O-])ccc5F)c5ccc2[nH]5)C=C4)C=C3)cc1
REMARK SMILES IDX 31 1 32 2 30 3 28 4 29 5 5 7 4 8 2 9 1 10 3 11 6 12 7 13
REMARK SMILES IDX 8 15 9 16 10 17 11 18 12 20 13 21 14 22 15 23 16 25 17 26
REMARK SMILES IDX 18 27 19 28 20 29 24 30 21 31 23 32 22 33 25 34 26 35 27 36
REMARK SMILES IDX 33 37 34 38 35 39 36 41 37 42 38 43 39 44 40 45 41 47 42 48
REMARK SMILES IDX 43 49 104 50 44 51 103 52 45 53 46 54 47 55 97 56 48 57
REMARK SMILES IDX 102 58 96 59 98 60 49 61 101 62 95 63 94 64 50 66 82 67
REMARK SMILES IDX 62 68 81 69 63 70 66 71 80 72 99 73 64 74 65 75 79 77 100 78
REMARK SMILES IDX 67 79 51 80 52 81 60 82 53 83 59 84 61 85 58 86 54 87 55 88
REMARK SMILES IDX 56 89 57 90 83 91 84 92 92 93 85 94 91 95 93 96 90 97 86 98
REMARK SMILES IDX 87 99 88 100 89 101 68 102 69 103 77 104 70 105 76 106
REMARK SMILES IDX 78 107 75 108 71 109 72 110 73 111 74 112
REMARK H PARENT 30 6 6 14 10 19 14 24 35 40 39 46 98 65 66 76
REMARK Flexibility Score: inf
ROOT
ATOM      1  C   UNL A   1      51.462  33.252  26.989  1.00  0.00     0.168 C 
ATOM      2  C   UNL A   1      52.817  33.421  27.661  1.00  0.00     0.041 C 
ENDROOT
BRANCH   1   3
ATOM      3  N   UNL A   1      51.045  31.852  26.934  1.00  0.00    -0.343 N 
ATOM      4  C   UNL A   1      49.789  31.325  26.965  1.00  0.00     0.243 C 
ATOM      5  O   UNL A   1      49.638  30.188  26.511  1.00  0.00    -0.273 OA
ATOM      6  H   UNL A   1      51.776  31.197  26.866  1.00  0.00     0.164 HD
BRANCH   4   7
ATOM      7  C   UNL A   1      48.581  32.154  27.436  1.00  0.00     0.171 C 
BRANCH   7   8
ATOM      8  C   UNL A   1      48.173  31.845  28.885  1.00  0.00     0.038 C 
BRANCH   8   9
ATOM      9  C   UNL A   1      47.132  32.804  29.518  1.00  0.00    -0.015 C 
ATOM     10  C   UNL A   1      46.801  32.531  30.986  1.00  0.00     0.007 C 
ATOM     11  C   UNL A   1      47.633  34.247  29.396  1.00  0.00     0.007 C 
ENDBRANCH   8   9
ENDBRANCH   7   8
BRANCH   7  12
ATOM     12  N   UNL A   1      47.488  32.049  26.460  1.00  0.00    -0.343 N 
ATOM     13  C   UNL A   1      46.472  31.158  26.328  1.00  0.00     0.240 C 
ATOM     14  H   UNL A   1      47.493  32.755  25.774  1.00  0.00     0.164 HD
ATOM     15  O   UNL A   1      45.545  31.487  25.577  1.00  0.00    -0.273 OA
BRANCH  13  16
ATOM     16  C   UNL A   1      46.358  29.868  27.150  1.00  0.00     0.216 C 
BRANCH  16  17
ATOM     17  N   UNL A   1      45.147  29.103  26.976  1.00  0.00    -0.345 N 
ATOM     18  C   UNL A   1      44.443  28.282  27.791  1.00  0.00     0.243 C 
ATOM     19  H   UNL A   1      44.750  29.197  26.080  1.00  0.00     0.164 HD
ATOM     20  O   UNL A   1      43.377  27.867  27.315  1.00  0.00    -0.273 OA
BRANCH  18  21
ATOM     21  C   UNL A   1      44.808  27.952  29.269  1.00  0.00     0.177 C 
BRANCH  21  22
ATOM     22  N   UNL A   1      45.797  26.877  29.408  1.00  0.00    -0.309 N 
ATOM     23  C   UNL A   1      46.320  25.974  28.544  1.00  0.00     0.408 C 
ATOM     24  H   UNL A   1      46.156  26.795  30.321  1.00  0.00     0.167 HD
ATOM     25  O   UNL A   1      46.821  24.935  28.955  1.00  0.00    -0.225 OA
BRANCH  23  26
ATOM     26  O   UNL A   1      46.304  26.374  27.258  1.00  0.00    -0.445 OA
BRANCH  26  27
ATOM     27  C   UNL A   1      46.970  25.484  26.353  1.00  0.00     0.270 C 
BRANCH  27  28
ATOM     28  C   UNL A   1      46.039  24.620  25.519  1.00  0.00    -0.011 A 
ATOM     29  C   UNL A   1      46.483  23.566  24.703  1.00  0.00     0.007 A 
ATOM     30  C   UNL A   1      44.656  24.836  25.616  1.00  0.00     0.007 A 
ATOM     31  C   UNL A   1      45.583  22.754  24.012  1.00  0.00     0.000 A 
ATOM     32  C   UNL A   1      43.754  24.026  24.920  1.00  0.00     0.000 A 
ATOM     33  C   UNL A   1      44.217  22.984  24.121  1.00  0.00     0.000 A 
ENDBRANCH  27  28
ENDBRANCH  26  27
ENDBRANCH  23  26
ENDBRANCH  21  22
BRANCH  21  34
ATOM     34  C   UNL A   1      45.015  29.224  30.119  1.00  0.00     0.015 C 
ATOM     35  C   UNL A   1      43.727  29.641  30.845  1.00  0.00     0.010 C 
ATOM     36  C   UNL A   1      46.093  28.999  31.188  1.00  0.00     0.010 C 
ENDBRANCH  21  34
ENDBRANCH  18  21
ENDBRANCH  16  17
ENDBRANCH  13  16
ENDBRANCH   7  12
ENDBRANCH   4   7
ENDBRANCH   1   3
BRANCH   1  37
ATOM     37  C   UNL A   1      51.380  33.910  25.604  1.00  0.00     0.242 C 
ATOM     38  O   UNL A   1      52.234  33.670  24.747  1.00  0.00    -0.273 OA
ATOM     39  N   UNL A   1      50.355  34.732  25.259  1.00  0.00    -0.354 N 
ATOM     40  H   UNL A   1      50.423  35.108  24.352  1.00  0.00     0.163 HD
BRANCH  39  41
ATOM     41  C   UNL A   1      49.178  35.151  25.996  1.00  0.00     0.117 C 
BRANCH  41  42
ATOM     42  C   UNL A   1      47.959  35.292  25.098  1.00  0.00     0.042 C 
BRANCH  42  43
ATOM     43  C   UNL A   1      46.669  35.590  25.854  1.00  0.00     0.118 C 
BRANCH  43  44
ATOM     44  N   UNL A   1      45.483  35.181  25.113  1.00  0.00    -0.352 N 
ATOM     45  C   UNL A   1      44.282  34.690  25.565  1.00  0.00     0.251 C 
ATOM     46  H   UNL A   1      45.553  35.271  24.136  1.00  0.00     0.163 HD
ATOM     47  O   UNL A   1      43.504  34.179  24.765  1.00  0.00    -0.269 OA
BRANCH  45  48
ATOM     48  C   UNL A   1      43.943  34.761  27.001  1.00  0.00     0.039 A 
ATOM     49  C   UNL A   1      43.396  35.940  27.513  1.00  0.00     0.014 A 
ATOM     50  C   UNL A   1      44.170  33.670  27.844  1.00  0.00     0.014 A 
ATOM     51  C   UNL A   1      43.004  35.994  28.852  1.00  0.00     0.010 A 
ATOM     52  C   UNL A   1      43.697  33.695  29.152  1.00  0.00     0.010 A 
ATOM     53  C   UNL A   1      43.108  34.857  29.670  1.00  0.00    -0.014 A 
BRANCH  53  54
ATOM     54  C   UNL A   1      42.597  34.860  31.065  1.00  0.00     0.031 A 
ATOM     55  C   UNL A   1      41.161  34.505  31.346  1.00  0.00     0.074 A 
ATOM     56  C   UNL A   1      43.411  35.248  32.068  1.00  0.00     0.049 A 
ATOM     57  N   UNL A   1      40.512  34.523  32.482  1.00  0.00    -0.248 NA
ATOM     58  C   UNL A   1      40.340  34.105  30.192  1.00  0.00     0.031 C 
ATOM     59  C   UNL A   1      44.809  35.654  31.911  1.00  0.00     0.029 A 
ATOM     60  N   UNL A   1      43.183  35.371  33.416  1.00  0.00    -0.354 N 
ATOM     61  C   UNL A   1      39.206  34.152  32.179  1.00  0.00     0.074 A 
ATOM     62  C   UNL A   1      39.143  33.972  30.744  1.00  0.00     0.031 C 
ATOM     63  C   UNL A   1      45.321  35.949  33.116  1.00  0.00     0.029 A 
ATOM     64  C   UNL A   1      44.277  35.808  34.126  1.00  0.00     0.049 A 
ATOM     65  H   UNL A   1      42.316  35.164  33.836  1.00  0.00     0.167 HD
ATOM     66  C   UNL A   1      38.164  33.957  33.025  1.00  0.00     0.034 A 
ATOM     67  C   UNL A   1      44.420  36.081  35.438  1.00  0.00     0.034 A 
ATOM     68  C   UNL A   1      38.250  34.127  34.454  1.00  0.00     0.049 A 
ATOM     69  C   UNL A   1      43.234  35.888  36.351  1.00  0.00     0.074 A 
ATOM     70  C   UNL A   1      37.275  33.895  35.409  1.00  0.00     0.029 A 
ATOM     71  N   UNL A   1      39.373  34.581  35.137  1.00  0.00    -0.354 N 
ATOM     72  N   UNL A   1      42.022  35.478  36.055  1.00  0.00    -0.248 NA
ATOM     73  C   UNL A   1      43.439  36.185  37.773  1.00  0.00     0.031 C 
ATOM     74  C   UNL A   1      37.779  34.282  36.654  1.00  0.00     0.029 A 
ATOM     75  C   UNL A   1      39.100  34.672  36.494  1.00  0.00     0.049 A 
ATOM     76  H   UNL A   1      40.235  34.804  34.719  1.00  0.00     0.167 HD
ATOM     77  C   UNL A   1      41.332  35.436  37.264  1.00  0.00     0.074 A 
ATOM     78  C   UNL A   1      42.268  35.844  38.291  1.00  0.00     0.031 C 
ATOM     79  C   UNL A   1      40.042  35.090  37.505  1.00  0.00     0.034 A 
BRANCH  66  80
ATOM     80  C   UNL A   1      36.836  33.565  32.421  1.00  0.00     0.023 A 
ATOM     81  C   UNL A   1      35.838  34.516  32.143  1.00  0.00     0.031 A 
ATOM     82  C   UNL A   1      36.562  32.218  32.121  1.00  0.00     0.131 A 
ATOM     83  C   UNL A   1      34.594  34.101  31.644  1.00  0.00     0.055 A 
ATOM     84  C   UNL A   1      35.351  31.822  31.549  1.00  0.00     0.041 A 
ATOM     85  F   UNL A   1      37.465  31.262  32.384  1.00  0.00    -0.206 F 
ATOM     86  C   UNL A   1      34.353  32.764  31.320  1.00  0.00     0.022 A 
BRANCH  83  87
ATOM     87  S   UNL A   1      33.250  35.315  31.550  1.00  0.00     0.124 S 
ATOM     88  O   UNL A   1      32.719  35.066  30.212  1.00  0.00    -0.237 OA
ATOM     89  O   UNL A   1      32.391  34.922  32.661  1.00  0.00    -0.237 OA
ATOM     90  O   UNL A   1      33.933  36.597  31.713  1.00  0.00    -0.744 OA
ENDBRANCH  83  87
ENDBRANCH  66  80
BRANCH  67  91
ATOM     91  C   UNL A   1      45.720  36.576  35.977  1.00  0.00     0.023 A 
ATOM     92  C   UNL A   1      46.019  37.947  35.997  1.00  0.00     0.031 A 
ATOM     93  C   UNL A   1      46.709  35.681  36.429  1.00  0.00     0.131 A 
ATOM     94  C   UNL A   1      47.292  38.382  36.398  1.00  0.00     0.055 A 
ATOM     95  C   UNL A   1      47.951  36.124  36.887  1.00  0.00     0.041 A 
ATOM     96  F   UNL A   1      46.477  34.359  36.434  1.00  0.00    -0.206 F 
ATOM     97  C   UNL A   1      48.254  37.481  36.858  1.00  0.00     0.022 A 
BRANCH  94  98
ATOM     98  S   UNL A   1      47.707  40.137  36.206  1.00  0.00     0.124 S 
ATOM     99  O   UNL A   1      47.403  40.361  34.798  1.00  0.00    -0.237 OA
ATOM    100  O   UNL A   1      46.808  40.768  37.166  1.00  0.00    -0.237 OA
ATOM    101  O   UNL A   1      49.126  40.190  36.555  1.00  0.00    -0.744 OA
ENDBRANCH  94  98
ENDBRANCH  67  91
BRANCH  79 102
ATOM    102  C   UNL A   1      39.587  35.095  38.946  1.00  0.00     0.023 A 
ATOM    103  C   UNL A   1      39.581  33.926  39.726  1.00  0.00     0.031 A 
ATOM    104  C   UNL A   1      39.139  36.288  39.539  1.00  0.00     0.131 A 
ATOM    105  C   UNL A   1      39.079  33.963  41.035  1.00  0.00     0.055 A 
ATOM    106  C   UNL A   1      38.706  36.333  40.866  1.00  0.00     0.041 A 
ATOM    107  F   UNL A   1      39.119  37.435  38.840  1.00  0.00    -0.206 F 
ATOM    108  C   UNL A   1      38.660  35.162  41.616  1.00  0.00     0.022 A 
BRANCH 105 109
ATOM    109  S   UNL A   1      38.887  32.401  41.937  1.00  0.00     0.124 S 
ATOM    110  O   UNL A   1      37.488  32.073  41.683  1.00  0.00    -0.237 OA
ATOM    111  O   UNL A   1      39.872  31.541  41.287  1.00  0.00    -0.237 OA
ATOM    112  O   UNL A   1      39.199  32.762  43.319  1.00  0.00    -0.744 OA
ENDBRANCH 105 109
ENDBRANCH  79 102
ENDBRANCH  53  54
ENDBRANCH  45  48
ENDBRANCH  43  44
ENDBRANCH  42  43
ENDBRANCH  41  42
ENDBRANCH  39  41
ENDBRANCH   1  37
TORSDOF 26
ENDMDL
MODEL 3
REMARK VINA RESULT:      -8.5      8.944     15.558
REMARK SMILES CC(C)C[C@H](NC(=O)CNC(=O)[C@@H](NC(=O)OCc1ccccc1)C(C)C)C(=O)N[C@@H](C)C(=O)NCCCNC(=O)c1ccc(-c2c3nc(c(-c4cc(S(=O)(=O)[O-])ccc4F)c4ccc([nH]4)c(-c4cc(S(=O)(=O)[O-])ccc4F)c4nc(c(-c5cc(S(=O)(=O)[O-])ccc5F)c5ccc2[nH]5)C=C4)C=C3)cc1
REMARK SMILES IDX 31 1 32 2 30 3 28 4 29 5 5 7 4 8 2 9 1 10 3 11 6 12 7 13
REMARK SMILES IDX 8 15 9 16 10 17 11 18 12 20 13 21 14 22 15 23 16 25 17 26
REMARK SMILES IDX 18 27 19 28 20 29 24 30 21 31 23 32 22 33 25 34 26 35 27 36
REMARK SMILES IDX 33 37 34 38 35 39 36 41 37 42 38 43 39 44 40 45 41 47 42 48
REMARK SMILES IDX 43 49 104 50 44 51 103 52 45 53 46 54 47 55 97 56 48 57
REMARK SMILES IDX 102 58 96 59 98 60 49 61 101 62 95 63 94 64 50 66 82 67
REMARK SMILES IDX 62 68 81 69 63 70 66 71 80 72 99 73 64 74 65 75 79 77 100 78
REMARK SMILES IDX 67 79 51 80 52 81 60 82 53 83 59 84 61 85 58 86 54 87 55 88
REMARK SMILES IDX 56 89 57 90 83 91 84 92 92 93 85 94 91 95 93 96 90 97 86 98
REMARK SMILES IDX 87 99 88 100 89 101 68 102 69 103 77 104 70 105 76 106
REMARK SMILES IDX 78 107 75 108 71 109 72 110 73 111 74 112
REMARK H PARENT 30 6 6 14 10 19 14 24 35 40 39 46 98 65 66 76
REMARK Flexibility Score: inf
ROOT
ATOM      1  C   UNL A   1      49.619  37.298  28.263  1.00  0.00     0.168 C 
ATOM      2  C   UNL A   1      50.042  36.296  27.199  1.00  0.00     0.041 C 
ENDROOT
BRANCH   1   3
ATOM      3  N   UNL A   1      50.766  37.902  28.938  1.00  0.00    -0.343 N 
ATOM      4  C   UNL A   1      50.844  39.080  29.618  1.00  0.00     0.243 C 
ATOM      5  O   UNL A   1      51.761  39.207  30.433  1.00  0.00    -0.273 OA
ATOM      6  H   UNL A   1      51.601  37.383  28.896  1.00  0.00     0.164 HD
BRANCH   4   7
ATOM      7  C   UNL A   1      49.765  40.167  29.468  1.00  0.00     0.171 C 
BRANCH   7   8
ATOM      8  C   UNL A   1      49.464  40.512  28.002  1.00  0.00     0.038 C 
BRANCH   8   9
ATOM      9  C   UNL A   1      48.152  41.297  27.742  1.00  0.00    -0.015 C 
ATOM     10  C   UNL A   1      46.932  40.804  28.521  1.00  0.00     0.007 C 
ATOM     11  C   UNL A   1      48.373  42.776  28.074  1.00  0.00     0.007 C 
ENDBRANCH   8   9
ENDBRANCH   7   8
BRANCH   7  12
ATOM     12  N   UNL A   1      50.096  41.324  30.311  1.00  0.00    -0.343 N 
ATOM     13  C   UNL A   1      49.538  41.804  31.452  1.00  0.00     0.240 C 
ATOM     14  H   UNL A   1      50.865  41.847  29.990  1.00  0.00     0.164 HD
ATOM     15  O   UNL A   1      50.207  42.629  32.087  1.00  0.00    -0.273 OA
BRANCH  13  16
ATOM     16  C   UNL A   1      48.222  41.281  32.041  1.00  0.00     0.216 C 
BRANCH  16  17
ATOM     17  N   UNL A   1      47.011  41.885  31.538  1.00  0.00    -0.345 N 
ATOM     18  C   UNL A   1      45.713  41.816  31.918  1.00  0.00     0.243 C 
ATOM     19  H   UNL A   1      47.159  42.466  30.758  1.00  0.00     0.164 HD
ATOM     20  O   UNL A   1      44.948  42.563  31.291  1.00  0.00    -0.273 OA
BRANCH  18  21
ATOM     21  C   UNL A   1      45.171  40.996  33.126  1.00  0.00     0.177 C 
BRANCH  21  22
ATOM     22  N   UNL A   1      43.889  41.485  33.646  1.00  0.00    -0.309 N 
ATOM     23  C   UNL A   1      42.659  41.636  33.098  1.00  0.00     0.408 C 
ATOM     24  H   UNL A   1      43.931  41.759  34.590  1.00  0.00     0.167 HD
ATOM     25  O   UNL A   1      41.851  42.417  33.585  1.00  0.00    -0.225 OA
BRANCH  23  26
ATOM     26  O   UNL A   1      42.412  40.805  32.067  1.00  0.00    -0.445 OA
BRANCH  26  27
ATOM     27  C   UNL A   1      41.548  41.350  31.061  1.00  0.00     0.270 C 
BRANCH  27  28
ATOM     28  C   UNL A   1      41.905  40.951  29.639  1.00  0.00    -0.011 A 
ATOM     29  C   UNL A   1      43.224  40.752  29.199  1.00  0.00     0.007 A 
ATOM     30  C   UNL A   1      40.866  40.701  28.731  1.00  0.00     0.007 A 
ATOM     31  C   UNL A   1      43.499  40.316  27.903  1.00  0.00     0.000 A 
ATOM     32  C   UNL A   1      41.140  40.269  27.431  1.00  0.00     0.000 A 
ATOM     33  C   UNL A   1      42.455  40.073  27.017  1.00  0.00     0.000 A 
ENDBRANCH  27  28
ENDBRANCH  26  27
ENDBRANCH  23  26
ENDBRANCH  21  22
BRANCH  21  34
ATOM     34  C   UNL A   1      45.320  39.474  32.916  1.00  0.00     0.015 C 
ATOM     35  C   UNL A   1      44.225  38.686  33.650  1.00  0.00     0.010 C 
ATOM     36  C   UNL A   1      45.226  39.113  31.428  1.00  0.00     0.010 C 
ENDBRANCH  21  34
ENDBRANCH  18  21
ENDBRANCH  16  17
ENDBRANCH  13  16
ENDBRANCH   7  12
ENDBRANCH   4   7
ENDBRANCH   1   3
BRANCH   1  37
ATOM     37  C   UNL A   1      48.616  36.726  29.276  1.00  0.00     0.242 C 
ATOM     38  O   UNL A   1      47.410  36.967  29.165  1.00  0.00    -0.273 OA
ATOM     39  N   UNL A   1      49.004  35.909  30.289  1.00  0.00    -0.354 N 
ATOM     40  H   UNL A   1      48.273  35.623  30.884  1.00  0.00     0.163 HD
BRANCH  39  41
ATOM     41  C   UNL A   1      50.308  35.386  30.647  1.00  0.00     0.117 C 
BRANCH  41  42
ATOM     42  C   UNL A   1      50.817  35.961  31.960  1.00  0.00     0.042 C 
BRANCH  42  43
ATOM     43  C   UNL A   1      51.111  34.906  33.021  1.00  0.00     0.118 C 
BRANCH  43  44
ATOM     44  N   UNL A   1      51.418  35.493  34.319  1.00  0.00    -0.352 N 
ATOM     45  C   UNL A   1      50.582  36.024  35.271  1.00  0.00     0.251 C 
ATOM     46  H   UNL A   1      52.374  35.511  34.550  1.00  0.00     0.163 HD
ATOM     47  O   UNL A   1      51.061  36.686  36.187  1.00  0.00    -0.269 OA
BRANCH  45  48
ATOM     48  C   UNL A   1      49.122  35.815  35.178  1.00  0.00     0.039 A 
ATOM     49  C   UNL A   1      48.292  36.916  34.958  1.00  0.00     0.014 A 
ATOM     50  C   UNL A   1      48.572  34.538  35.314  1.00  0.00     0.014 A 
ATOM     51  C   UNL A   1      46.918  36.723  34.796  1.00  0.00     0.010 A 
ATOM     52  C   UNL A   1      47.219  34.336  35.062  1.00  0.00     0.010 A 
ATOM     53  C   UNL A   1      46.378  35.426  34.800  1.00  0.00    -0.014 A 
BRANCH  53  54
ATOM     54  C   UNL A   1      44.937  35.189  34.520  1.00  0.00     0.031 A 
ATOM     55  C   UNL A   1      44.441  35.135  33.100  1.00  0.00     0.074 A 
ATOM     56  C   UNL A   1      44.071  35.091  35.549  1.00  0.00     0.049 A 
ATOM     57  N   UNL A   1      43.216  35.013  32.657  1.00  0.00    -0.248 NA
ATOM     58  C   UNL A   1      45.452  35.264  32.040  1.00  0.00     0.031 C 
ATOM     59  C   UNL A   1      44.431  35.169  36.967  1.00  0.00     0.029 A 
ATOM     60  N   UNL A   1      42.711  34.909  35.565  1.00  0.00    -0.354 N 
ATOM     61  C   UNL A   1      43.307  35.064  31.270  1.00  0.00     0.074 A 
ATOM     62  C   UNL A   1      44.700  35.287  30.950  1.00  0.00     0.031 C 
ATOM     63  C   UNL A   1      43.327  35.005  37.712  1.00  0.00     0.029 A 
ATOM     64  C   UNL A   1      42.173  34.864  36.831  1.00  0.00     0.049 A 
ATOM     65  H   UNL A   1      42.170  34.818  34.747  1.00  0.00     0.167 HD
ATOM     66  C   UNL A   1      42.321  34.916  30.351  1.00  0.00     0.034 A 
ATOM     67  C   UNL A   1      40.893  34.741  37.236  1.00  0.00     0.034 A 
ATOM     68  C   UNL A   1      40.939  34.680  30.691  1.00  0.00     0.049 A 
ATOM     69  C   UNL A   1      39.812  34.612  36.192  1.00  0.00     0.074 A 
ATOM     70  C   UNL A   1      39.871  34.453  29.840  1.00  0.00     0.029 A 
ATOM     71  N   UNL A   1      40.430  34.651  31.983  1.00  0.00    -0.354 N 
ATOM     72  N   UNL A   1      39.924  34.603  34.883  1.00  0.00    -0.248 NA
ATOM     73  C   UNL A   1      38.435  34.467  36.679  1.00  0.00     0.031 C 
ATOM     74  C   UNL A   1      38.707  34.366  30.611  1.00  0.00     0.029 A 
ATOM     75  C   UNL A   1      39.057  34.449  31.949  1.00  0.00     0.049 A 
ATOM     76  H   UNL A   1      40.963  34.758  32.803  1.00  0.00     0.167 HD
ATOM     77  C   UNL A   1      38.633  34.416  34.394  1.00  0.00     0.074 A 
ATOM     78  C   UNL A   1      37.766  34.300  35.548  1.00  0.00     0.031 C 
ATOM     79  C   UNL A   1      38.203  34.345  33.109  1.00  0.00     0.034 A 
BRANCH  66  80
ATOM     80  C   UNL A   1      42.699  35.032  28.893  1.00  0.00     0.023 A 
ATOM     81  C   UNL A   1      43.399  34.013  28.225  1.00  0.00     0.031 A 
ATOM     82  C   UNL A   1      42.355  36.183  28.161  1.00  0.00     0.131 A 
ATOM     83  C   UNL A   1      43.789  34.189  26.889  1.00  0.00     0.055 A 
ATOM     84  C   UNL A   1      42.676  36.318  26.808  1.00  0.00     0.041 A 
ATOM     85  F   UNL A   1      41.707  37.200  28.748  1.00  0.00    -0.206 F 
ATOM     86  C   UNL A   1      43.408  35.324  26.167  1.00  0.00     0.022 A 
BRANCH  83  87
ATOM     87  S   UNL A   1      44.914  32.976  26.146  1.00  0.00     0.124 S 
ATOM     88  O   UNL A   1      45.779  32.644  27.276  1.00  0.00    -0.237 OA
ATOM     89  O   UNL A   1      44.002  31.926  25.711  1.00  0.00    -0.237 OA
ATOM     90  O   UNL A   1      45.564  33.723  25.071  1.00  0.00    -0.744 OA
ENDBRANCH  83  87
ENDBRANCH  66  80
BRANCH  67  91
ATOM     91  C   UNL A   1      40.549  34.745  38.688  1.00  0.00     0.023 A 
ATOM     92  C   UNL A   1      40.318  33.544  39.378  1.00  0.00     0.031 A 
ATOM     93  C   UNL A   1      40.388  35.951  39.395  1.00  0.00     0.131 A 
ATOM     94  C   UNL A   1      39.881  33.575  40.712  1.00  0.00     0.055 A 
ATOM     95  C   UNL A   1      40.016  35.974  40.740  1.00  0.00     0.041 A 
ATOM     96  F   UNL A   1      40.598  37.128  38.786  1.00  0.00    -0.206 F 
ATOM     97  C   UNL A   1      39.743  34.781  41.402  1.00  0.00     0.022 A 
BRANCH  94  98
ATOM     98  S   UNL A   1      39.390  32.016  41.499  1.00  0.00     0.124 S 
ATOM     99  O   UNL A   1      38.402  31.507  40.555  1.00  0.00    -0.237 OA
ATOM    100  O   UNL A   1      40.656  31.295  41.556  1.00  0.00    -0.237 OA
ATOM    101  O   UNL A   1      38.857  32.442  42.792  1.00  0.00    -0.744 OA
ENDBRANCH  94  98
ENDBRANCH  67  91
BRANCH  79 102
ATOM    102  C   UNL A   1      36.732  34.084  32.891  1.00  0.00     0.023 A 
ATOM    103  C   UNL A   1      35.815  35.129  32.686  1.00  0.00     0.031 A 
ATOM    104  C   UNL A   1      36.240  32.766  32.904  1.00  0.00     0.131 A 
ATOM    105  C   UNL A   1      34.447  34.844  32.563  1.00  0.00     0.055 A 
ATOM    106  C   UNL A   1      34.886  32.484  32.713  1.00  0.00     0.041 A 
ATOM    107  F   UNL A   1      37.069  31.728  33.100  1.00  0.00    -0.206 F 
ATOM    108  C   UNL A   1      33.980  33.528  32.556  1.00  0.00     0.022 A 
BRANCH 105 109
ATOM    109  S   UNL A   1      33.273  36.226  32.515  1.00  0.00     0.124 S 
ATOM    110  O   UNL A   1      31.989  35.535  32.558  1.00  0.00    -0.237 OA
ATOM    111  O   UNL A   1      33.630  36.982  33.710  1.00  0.00    -0.237 OA
ATOM    112  O   UNL A   1      33.577  36.890  31.248  1.00  0.00    -0.744 OA
ENDBRANCH 105 109
ENDBRANCH  79 102
ENDBRANCH  53  54
ENDBRANCH  45  48
ENDBRANCH  43  44
ENDBRANCH  42  43
ENDBRANCH  41  42
ENDBRANCH  39  41
ENDBRANCH   1  37
TORSDOF 26
ENDMDL
