MODEL 1
REMARK VINA RESULT:     -11.1      0.000      0.000
REMARK SMILES CC[C@H](O)C[C@@H](Cc1ccccc1OC)C(=O)NCCCNC(=O)c1ccc(-c2c3nc(c(-c4cc(S(=O)(=O)[O-])ccc4F)c4ccc([nH]4)c(-c4cc(S(=O)(=O)[O-])ccc4F)c4nc(c(-c5cc(S(=O)(=O)[O-])ccc5F)c5ccc2[nH]5)C=C4)C=C3)cc1
REMARK SMILES IDX 20 1 19 2 18 3 16 4 17 5 6 7 5 8 3 9 2 10 1 11 4 12 7 14
REMARK SMILES IDX 8 15 9 16 13 17 10 18 12 19 11 20 14 21 15 22 21 23 22 24
REMARK SMILES IDX 23 25 24 27 25 28 26 29 87 30 27 31 86 32 28 33 29 34 30 35
REMARK SMILES IDX 80 36 31 37 85 38 79 39 81 40 32 41 84 42 78 43 77 44 33 46
REMARK SMILES IDX 65 47 45 48 64 49 46 50 49 51 63 52 82 53 47 54 48 55 62 57
REMARK SMILES IDX 83 58 50 59 34 60 35 61 43 62 36 63 42 64 44 65 41 66 37 67
REMARK SMILES IDX 38 68 39 69 40 70 66 71 67 72 75 73 68 74 74 75 76 76 73 77
REMARK SMILES IDX 69 78 70 79 71 80 72 81 51 82 52 83 60 84 53 85 59 86 61 87
REMARK SMILES IDX 58 88 54 89 55 90 56 91 57 92
REMARK H PARENT 18 6 4 13 22 26 81 45 49 56
REMARK Flexibility Score: inf
ROOT
ATOM      1  C   UNL A   1      32.356  29.696  25.268  1.00  0.00     0.042 C 
ENDROOT
BRANCH   1   2
ATOM      2  C   UNL A   1      33.409  28.615  25.193  1.00  0.00     0.117 C 
BRANCH   2   3
ATOM      3  N   UNL A   1      33.890  28.328  23.858  1.00  0.00    -0.356 N 
ATOM      4  C   UNL A   1      33.638  27.238  23.082  1.00  0.00     0.223 C 
ATOM      5  O   UNL A   1      33.844  27.340  21.868  1.00  0.00    -0.275 OA
ATOM      6  H   UNL A   1      34.477  29.010  23.459  1.00  0.00     0.163 HD
BRANCH   4   7
ATOM      7  C   UNL A   1      33.172  25.905  23.668  1.00  0.00     0.085 C 
BRANCH   7   8
ATOM      8  C   UNL A   1      32.318  25.124  22.646  1.00  0.00     0.045 C 
BRANCH   8   9
ATOM      9  C   UNL A   1      30.806  25.166  22.870  1.00  0.00     0.115 C 
BRANCH   9  10
ATOM     10  C   UNL A   1      30.472  26.116  24.028  1.00  0.00     0.028 C 
ATOM     11  C   UNL A   1      29.694  27.336  23.559  1.00  0.00     0.006 C 
ENDBRANCH   9  10
BRANCH   9  12
ATOM     12  O   UNL A   1      30.313  23.861  23.159  1.00  0.00    -0.393 OA
ATOM     13  H   UNL A   1      29.857  23.508  22.379  1.00  0.00     0.210 HD
ENDBRANCH   9  12
ENDBRANCH   8   9
ENDBRANCH   7   8
BRANCH   7  14
ATOM     14  C   UNL A   1      34.219  25.136  24.509  1.00  0.00     0.053 C 
BRANCH  14  15
ATOM     15  C   UNL A   1      34.187  23.626  24.585  1.00  0.00    -0.005 A 
ATOM     16  C   UNL A   1      35.380  22.948  24.242  1.00  0.00     0.007 A 
ATOM     17  C   UNL A   1      33.104  22.849  25.045  1.00  0.00     0.122 A 
ATOM     18  C   UNL A   1      35.521  21.569  24.411  1.00  0.00     0.001 A 
ATOM     19  C   UNL A   1      33.259  21.460  25.205  1.00  0.00     0.047 A 
ATOM     20  C   UNL A   1      34.461  20.822  24.903  1.00  0.00     0.004 A 
BRANCH  17  21
ATOM     21  O   UNL A   1      31.938  23.303  25.601  1.00  0.00    -0.496 OA
ATOM     22  C   UNL A   1      31.977  23.793  26.930  1.00  0.00     0.278 C 
ENDBRANCH  17  21
ENDBRANCH  14  15
ENDBRANCH   7  14
ENDBRANCH   4   7
ENDBRANCH   2   3
ENDBRANCH   1   2
BRANCH   1  23
ATOM     23  C   UNL A   1      32.116  30.134  26.703  1.00  0.00     0.118 C 
BRANCH  23  24
ATOM     24  N   UNL A   1      32.030  31.592  26.849  1.00  0.00    -0.352 N 
ATOM     25  C   UNL A   1      32.912  32.491  27.408  1.00  0.00     0.251 C 
ATOM     26  H   UNL A   1      31.206  31.992  26.488  1.00  0.00     0.163 HD
ATOM     27  O   UNL A   1      32.575  33.650  27.594  1.00  0.00    -0.269 OA
BRANCH  25  28
ATOM     28  C   UNL A   1      34.250  32.016  27.817  1.00  0.00     0.039 A 
ATOM     29  C   UNL A   1      35.294  32.932  27.957  1.00  0.00     0.014 A 
ATOM     30  C   UNL A   1      34.436  30.676  28.147  1.00  0.00     0.014 A 
ATOM     31  C   UNL A   1      36.488  32.519  28.552  1.00  0.00     0.010 A 
ATOM     32  C   UNL A   1      35.563  30.304  28.860  1.00  0.00     0.010 A 
ATOM     33  C   UNL A   1      36.603  31.221  29.075  1.00  0.00    -0.014 A 
BRANCH  33  34
ATOM     34  C   UNL A   1      37.788  30.778  29.854  1.00  0.00     0.031 A 
ATOM     35  C   UNL A   1      38.783  29.843  29.221  1.00  0.00     0.074 A 
ATOM     36  C   UNL A   1      37.904  31.115  31.154  1.00  0.00     0.049 A 
ATOM     37  N   UNL A   1      39.784  29.202  29.765  1.00  0.00    -0.248 NA
ATOM     38  C   UNL A   1      38.581  29.548  27.795  1.00  0.00     0.031 C 
ATOM     39  C   UNL A   1      36.973  31.968  31.898  1.00  0.00     0.029 A 
ATOM     40  N   UNL A   1      38.849  30.770  32.086  1.00  0.00    -0.354 N 
ATOM     41  C   UNL A   1      40.307  28.400  28.755  1.00  0.00     0.074 A 
ATOM     42  C   UNL A   1      39.451  28.571  27.601  1.00  0.00     0.031 C 
ATOM     43  C   UNL A   1      37.422  32.119  33.155  1.00  0.00     0.029 A 
ATOM     44  C   UNL A   1      38.636  31.328  33.324  1.00  0.00     0.049 A 
ATOM     45  H   UNL A   1      39.610  30.177  31.886  1.00  0.00     0.167 HD
ATOM     46  C   UNL A   1      41.419  27.623  28.775  1.00  0.00     0.034 A 
ATOM     47  C   UNL A   1      39.336  31.208  34.468  1.00  0.00     0.034 A 
ATOM     48  C   UNL A   1      42.273  27.491  29.929  1.00  0.00     0.049 A 
ATOM     49  C   UNL A   1      40.555  30.324  34.482  1.00  0.00     0.074 A 
ATOM     50  C   UNL A   1      43.461  26.794  30.054  1.00  0.00     0.029 A 
ATOM     51  N   UNL A   1      42.023  28.073  31.168  1.00  0.00    -0.354 N 
ATOM     52  N   UNL A   1      41.068  29.607  33.508  1.00  0.00    -0.248 NA
ATOM     53  C   UNL A   1      41.289  30.234  35.750  1.00  0.00     0.031 C 
ATOM     54  C   UNL A   1      43.895  26.901  31.380  1.00  0.00     0.029 A 
ATOM     55  C   UNL A   1      43.018  27.724  32.069  1.00  0.00     0.049 A 
ATOM     56  H   UNL A   1      41.253  28.649  31.375  1.00  0.00     0.167 HD
ATOM     57  C   UNL A   1      42.203  29.003  34.039  1.00  0.00     0.074 A 
ATOM     58  C   UNL A   1      42.302  29.448  35.416  1.00  0.00     0.031 C 
ATOM     59  C   UNL A   1      43.089  28.164  33.443  1.00  0.00     0.034 A 
BRANCH  46  60
ATOM     60  C   UNL A   1      41.741  26.856  27.511  1.00  0.00     0.023 A 
ATOM     61  C   UNL A   1      41.444  25.486  27.387  1.00  0.00     0.031 A 
ATOM     62  C   UNL A   1      42.433  27.472  26.454  1.00  0.00     0.131 A 
ATOM     63  C   UNL A   1      41.948  24.753  26.303  1.00  0.00     0.055 A 
ATOM     64  C   UNL A   1      42.837  26.758  25.324  1.00  0.00     0.041 A 
ATOM     65  F   UNL A   1      42.761  28.772  26.515  1.00  0.00    -0.206 F 
ATOM     66  C   UNL A   1      42.619  25.384  25.255  1.00  0.00     0.022 A 
BRANCH  63  67
ATOM     67  S   UNL A   1      41.898  22.942  26.395  1.00  0.00     0.124 S 
ATOM     68  O   UNL A   1      42.486  22.566  25.110  1.00  0.00    -0.237 OA
ATOM     69  O   UNL A   1      42.708  22.662  27.575  1.00  0.00    -0.237 OA
ATOM     70  O   UNL A   1      40.473  22.644  26.528  1.00  0.00    -0.744 OA
ENDBRANCH  63  67
ENDBRANCH  46  60
BRANCH  47  71
ATOM     71  C   UNL A   1      38.920  31.956  35.688  1.00  0.00     0.023 A 
ATOM     72  C   UNL A   1      38.193  31.313  36.701  1.00  0.00     0.031 A 
ATOM     73  C   UNL A   1      39.228  33.317  35.856  1.00  0.00     0.131 A 
ATOM     74  C   UNL A   1      37.769  32.037  37.827  1.00  0.00     0.055 A 
ATOM     75  C   UNL A   1      38.840  34.023  36.997  1.00  0.00     0.041 A 
ATOM     76  F   UNL A   1      39.930  33.975  34.920  1.00  0.00    -0.206 F 
ATOM     77  C   UNL A   1      38.099  33.385  37.986  1.00  0.00     0.022 A 
BRANCH  74  78
ATOM     78  S   UNL A   1      36.735  31.200  39.058  1.00  0.00     0.124 S 
ATOM     79  O   UNL A   1      37.630  31.141  40.208  1.00  0.00    -0.237 OA
ATOM     80  O   UNL A   1      35.601  32.112  39.171  1.00  0.00    -0.237 OA
ATOM     81  O   UNL A   1      36.436  29.914  38.433  1.00  0.00    -0.744 OA
ENDBRANCH  74  78
ENDBRANCH  47  71
BRANCH  59  82
ATOM     82  C   UNL A   1      44.261  27.709  34.275  1.00  0.00     0.023 A 
ATOM     83  C   UNL A   1      44.231  26.503  34.995  1.00  0.00     0.031 A 
ATOM     84  C   UNL A   1      45.420  28.501  34.353  1.00  0.00     0.131 A 
ATOM     85  C   UNL A   1      45.322  26.146  35.801  1.00  0.00     0.055 A 
ATOM     86  C   UNL A   1      46.524  28.113  35.111  1.00  0.00     0.041 A 
ATOM     87  F   UNL A   1      45.498  29.665  33.687  1.00  0.00    -0.206 F 
ATOM     88  C   UNL A   1      46.475  26.934  35.850  1.00  0.00     0.022 A 
BRANCH  85  89
ATOM     89  S   UNL A   1      45.184  24.673  36.851  1.00  0.00     0.124 S 
ATOM     90  O   UNL A   1      44.258  23.843  36.087  1.00  0.00    -0.237 OA
ATOM     91  O   UNL A   1      46.563  24.201  36.911  1.00  0.00    -0.237 OA
ATOM     92  O   UNL A   1      44.654  25.197  38.109  1.00  0.00    -0.744 OA
ENDBRANCH  85  89
ENDBRANCH  59  82
ENDBRANCH  33  34
ENDBRANCH  25  28
ENDBRANCH  23  24
ENDBRANCH   1  23
TORSDOF 20
ENDMDL
MODEL 2
REMARK VINA RESULT:     -11.0      1.035      2.823
REMARK SMILES CC[C@H](O)C[C@@H](Cc1ccccc1OC)C(=O)NCCCNC(=O)c1ccc(-c2c3nc(c(-c4cc(S(=O)(=O)[O-])ccc4F)c4ccc([nH]4)c(-c4cc(S(=O)(=O)[O-])ccc4F)c4nc(c(-c5cc(S(=O)(=O)[O-])ccc5F)c5ccc2[nH]5)C=C4)C=C3)cc1
REMARK SMILES IDX 20 1 19 2 18 3 16 4 17 5 6 7 5 8 3 9 2 10 1 11 4 12 7 14
REMARK SMILES IDX 8 15 9 16 13 17 10 18 12 19 11 20 14 21 15 22 21 23 22 24
REMARK SMILES IDX 23 25 24 27 25 28 26 29 87 30 27 31 86 32 28 33 29 34 30 35
REMARK SMILES IDX 80 36 31 37 85 38 79 39 81 40 32 41 84 42 78 43 77 44 33 46
REMARK SMILES IDX 65 47 45 48 64 49 46 50 49 51 63 52 82 53 47 54 48 55 62 57
REMARK SMILES IDX 83 58 50 59 34 60 35 61 43 62 36 63 42 64 44 65 41 66 37 67
REMARK SMILES IDX 38 68 39 69 40 70 66 71 67 72 75 73 68 74 74 75 76 76 73 77
REMARK SMILES IDX 69 78 70 79 71 80 72 81 51 82 52 83 60 84 53 85 59 86 61 87
REMARK SMILES IDX 58 88 54 89 55 90 56 91 57 92
REMARK H PARENT 18 6 4 13 22 26 81 45 49 56
REMARK Flexibility Score: inf
ROOT
ATOM      1  C   UNL A   1      31.721  28.445  26.137  1.00  0.00     0.042 C 
ENDROOT
BRANCH   1   2
ATOM      2  C   UNL A   1      32.378  27.092  26.278  1.00  0.00     0.117 C 
BRANCH   2   3
ATOM      3  N   UNL A   1      31.522  26.053  26.811  1.00  0.00    -0.356 N 
ATOM      4  C   UNL A   1      31.437  24.748  26.434  1.00  0.00     0.223 C 
ATOM      5  O   UNL A   1      30.916  23.956  27.226  1.00  0.00    -0.275 OA
ATOM      6  H   UNL A   1      30.922  26.327  27.542  1.00  0.00     0.163 HD
BRANCH   4   7
ATOM      7  C   UNL A   1      31.905  24.260  25.063  1.00  0.00     0.085 C 
BRANCH   7   8
ATOM      8  C   UNL A   1      32.686  22.933  25.189  1.00  0.00     0.045 C 
BRANCH   8   9
ATOM      9  C   UNL A   1      32.137  21.757  24.381  1.00  0.00     0.115 C 
BRANCH   9  10
ATOM     10  C   UNL A   1      32.396  20.440  25.128  1.00  0.00     0.028 C 
ATOM     11  C   UNL A   1      33.556  19.662  24.526  1.00  0.00     0.006 C 
ENDBRANCH   9  10
BRANCH   9  12
ATOM     12  O   UNL A   1      32.750  21.711  23.097  1.00  0.00    -0.393 OA
ATOM     13  H   UNL A   1      33.058  20.809  22.918  1.00  0.00     0.210 HD
ENDBRANCH   9  12
ENDBRANCH   8   9
ENDBRANCH   7   8
BRANCH   7  14
ATOM     14  C   UNL A   1      30.890  24.420  23.906  1.00  0.00     0.053 C 
BRANCH  14  15
ATOM     15  C   UNL A   1      30.478  25.794  23.427  1.00  0.00    -0.005 A 
ATOM     16  C   UNL A   1      29.209  26.258  23.846  1.00  0.00     0.007 A 
ATOM     17  C   UNL A   1      31.279  26.676  22.674  1.00  0.00     0.122 A 
ATOM     18  C   UNL A   1      28.777  27.561  23.590  1.00  0.00     0.001 A 
ATOM     19  C   UNL A   1      30.828  27.985  22.420  1.00  0.00     0.047 A 
ATOM     20  C   UNL A   1      29.593  28.432  22.883  1.00  0.00     0.004 A 
BRANCH  17  21
ATOM     21  O   UNL A   1      32.594  26.510  22.330  1.00  0.00    -0.496 OA
ATOM     22  C   UNL A   1      33.497  27.565  22.611  1.00  0.00     0.278 C 
ENDBRANCH  17  21
ENDBRANCH  14  15
ENDBRANCH   7  14
ENDBRANCH   4   7
ENDBRANCH   2   3
ENDBRANCH   1   2
BRANCH   1  23
ATOM     23  C   UNL A   1      32.734  29.515  25.766  1.00  0.00     0.118 C 
BRANCH  23  24
ATOM     24  N   UNL A   1      32.365  30.847  26.259  1.00  0.00    -0.352 N 
ATOM     25  C   UNL A   1      33.013  31.689  27.137  1.00  0.00     0.251 C 
ATOM     26  H   UNL A   1      31.517  31.196  25.904  1.00  0.00     0.163 HD
ATOM     27  O   UNL A   1      32.452  32.687  27.561  1.00  0.00    -0.269 OA
BRANCH  25  28
ATOM     28  C   UNL A   1      34.376  31.337  27.588  1.00  0.00     0.039 A 
ATOM     29  C   UNL A   1      35.327  32.344  27.759  1.00  0.00     0.014 A 
ATOM     30  C   UNL A   1      34.673  30.018  27.925  1.00  0.00     0.014 A 
ATOM     31  C   UNL A   1      36.535  32.040  28.391  1.00  0.00     0.010 A 
ATOM     32  C   UNL A   1      35.806  29.750  28.673  1.00  0.00     0.010 A 
ATOM     33  C   UNL A   1      36.751  30.756  28.919  1.00  0.00    -0.014 A 
BRANCH  33  34
ATOM     34  C   UNL A   1      37.947  30.422  29.735  1.00  0.00     0.031 A 
ATOM     35  C   UNL A   1      39.011  29.528  29.157  1.00  0.00     0.074 A 
ATOM     36  C   UNL A   1      38.017  30.817  31.021  1.00  0.00     0.049 A 
ATOM     37  N   UNL A   1      40.041  28.974  29.743  1.00  0.00    -0.248 NA
ATOM     38  C   UNL A   1      38.856  29.164  27.741  1.00  0.00     0.031 C 
ATOM     39  C   UNL A   1      37.020  31.637  31.715  1.00  0.00     0.029 A 
ATOM     40  N   UNL A   1      38.964  30.571  31.982  1.00  0.00    -0.354 N 
ATOM     41  C   UNL A   1      40.632  28.168  28.775  1.00  0.00     0.074 A 
ATOM     42  C   UNL A   1      39.789  28.238  27.601  1.00  0.00     0.031 C 
ATOM     43  C   UNL A   1      37.435  31.867  32.971  1.00  0.00     0.029 A 
ATOM     44  C   UNL A   1      38.693  31.163  33.193  1.00  0.00     0.049 A 
ATOM     45  H   UNL A   1      39.765  30.021  31.819  1.00  0.00     0.167 HD
ATOM     46  C   UNL A   1      41.791  27.466  28.845  1.00  0.00     0.034 A 
ATOM     47  C   UNL A   1      39.378  31.134  34.352  1.00  0.00     0.034 A 
ATOM     48  C   UNL A   1      42.629  27.435  30.017  1.00  0.00     0.049 A 
ATOM     49  C   UNL A   1      40.649  30.331  34.422  1.00  0.00     0.074 A 
ATOM     50  C   UNL A   1      43.856  26.821  30.190  1.00  0.00     0.029 A 
ATOM     51  N   UNL A   1      42.320  28.049  31.227  1.00  0.00    -0.354 N 
ATOM     52  N   UNL A   1      41.226  29.610  33.487  1.00  0.00    -0.248 NA
ATOM     53  C   UNL A   1      41.363  30.338  35.704  1.00  0.00     0.031 C 
ATOM     54  C   UNL A   1      44.258  27.009  31.518  1.00  0.00     0.029 A 
ATOM     55  C   UNL A   1      43.318  27.800  32.158  1.00  0.00     0.049 A 
ATOM     56  H   UNL A   1      41.511  28.582  31.398  1.00  0.00     0.167 HD
ATOM     57  C   UNL A   1      42.386  29.102  34.061  1.00  0.00     0.074 A 
ATOM     58  C   UNL A   1      42.431  29.606  35.419  1.00  0.00     0.031 C 
ATOM     59  C   UNL A   1      43.334  28.298  33.514  1.00  0.00     0.034 A 
BRANCH  46  60
ATOM     60  C   UNL A   1      42.185  26.671  27.619  1.00  0.00     0.023 A 
ATOM     61  C   UNL A   1      41.931  25.291  27.525  1.00  0.00     0.031 A 
ATOM     62  C   UNL A   1      42.902  27.275  26.571  1.00  0.00     0.131 A 
ATOM     63  C   UNL A   1      42.498  24.541  26.485  1.00  0.00     0.055 A 
ATOM     64  C   UNL A   1      43.371  26.540  25.481  1.00  0.00     0.041 A 
ATOM     65  F   UNL A   1      43.191  28.586  26.606  1.00  0.00    -0.206 F 
ATOM     66  C   UNL A   1      43.194  25.159  25.446  1.00  0.00     0.022 A 
BRANCH  63  67
ATOM     67  S   UNL A   1      42.494  22.732  26.630  1.00  0.00     0.124 S 
ATOM     68  O   UNL A   1      42.367  22.325  25.232  1.00  0.00    -0.237 OA
ATOM     69  O   UNL A   1      43.782  22.462  27.259  1.00  0.00    -0.237 OA
ATOM     70  O   UNL A   1      41.322  22.457  27.458  1.00  0.00    -0.744 OA
ENDBRANCH  63  67
ENDBRANCH  46  60
BRANCH  47  71
ATOM     71  C   UNL A   1      38.891  31.901  35.533  1.00  0.00     0.023 A 
ATOM     72  C   UNL A   1      38.250  31.242  36.593  1.00  0.00     0.031 A 
ATOM     73  C   UNL A   1      39.047  33.295  35.618  1.00  0.00     0.131 A 
ATOM     74  C   UNL A   1      37.759  31.980  37.682  1.00  0.00     0.055 A 
ATOM     75  C   UNL A   1      38.594  34.020  36.723  1.00  0.00     0.041 A 
ATOM     76  F   UNL A   1      39.663  33.971  34.635  1.00  0.00    -0.206 F 
ATOM     77  C   UNL A   1      37.937  33.363  37.758  1.00  0.00     0.022 A 
BRANCH  74  78
ATOM     78  S   UNL A   1      36.835  31.108  38.975  1.00  0.00     0.124 S 
ATOM     79  O   UNL A   1      36.683  29.781  38.388  1.00  0.00    -0.237 OA
ATOM     80  O   UNL A   1      37.742  31.207  40.114  1.00  0.00    -0.237 OA
ATOM     81  O   UNL A   1      35.603  31.883  39.094  1.00  0.00    -0.744 OA
ENDBRANCH  74  78
ENDBRANCH  47  71
BRANCH  59  82
ATOM     82  C   UNL A   1      44.517  27.952  34.382  1.00  0.00     0.023 A 
ATOM     83  C   UNL A   1      44.563  26.762  35.128  1.00  0.00     0.031 A 
ATOM     84  C   UNL A   1      45.609  28.834  34.471  1.00  0.00     0.131 A 
ATOM     85  C   UNL A   1      45.657  26.508  35.967  1.00  0.00     0.055 A 
ATOM     86  C   UNL A   1      46.720  28.548  35.262  1.00  0.00     0.041 A 
ATOM     87  F   UNL A   1      45.613  29.987  33.781  1.00  0.00    -0.206 F 
ATOM     88  C   UNL A   1      46.744  27.385  36.026  1.00  0.00     0.022 A 
BRANCH  85  89
ATOM     89  S   UNL A   1      45.607  25.050  37.046  1.00  0.00     0.124 S 
ATOM     90  O   UNL A   1      45.143  25.623  38.306  1.00  0.00    -0.237 OA
ATOM     91  O   UNL A   1      44.662  24.181  36.354  1.00  0.00    -0.237 OA
ATOM     92  O   UNL A   1      46.992  24.579  37.051  1.00  0.00    -0.744 OA
ENDBRANCH  85  89
ENDBRANCH  59  82
ENDBRANCH  33  34
ENDBRANCH  25  28
ENDBRANCH  23  24
ENDBRANCH   1  23
TORSDOF 20
ENDMDL
MODEL 3
REMARK VINA RESULT:     -11.0      5.205     10.284
REMARK SMILES CC[C@H](O)C[C@@H](Cc1ccccc1OC)C(=O)NCCCNC(=O)c1ccc(-c2c3nc(c(-c4cc(S(=O)(=O)[O-])ccc4F)c4ccc([nH]4)c(-c4cc(S(=O)(=O)[O-])ccc4F)c4nc(c(-c5cc(S(=O)(=O)[O-])ccc5F)c5ccc2[nH]5)C=C4)C=C3)cc1
REMARK SMILES IDX 20 1 19 2 18 3 16 4 17 5 6 7 5 8 3 9 2 10 1 11 4 12 7 14
REMARK SMILES IDX 8 15 9 16 13 17 10 18 12 19 11 20 14 21 15 22 21 23 22 24
REMARK SMILES IDX 23 25 24 27 25 28 26 29 87 30 27 31 86 32 28 33 29 34 30 35
REMARK SMILES IDX 80 36 31 37 85 38 79 39 81 40 32 41 84 42 78 43 77 44 33 46
REMARK SMILES IDX 65 47 45 48 64 49 46 50 49 51 63 52 82 53 47 54 48 55 62 57
REMARK SMILES IDX 83 58 50 59 34 60 35 61 43 62 36 63 42 64 44 65 41 66 37 67
REMARK SMILES IDX 38 68 39 69 40 70 66 71 67 72 75 73 68 74 74 75 76 76 73 77
REMARK SMILES IDX 69 78 70 79 71 80 72 81 51 82 52 83 60 84 53 85 59 86 61 87
REMARK SMILES IDX 58 88 54 89 55 90 56 91 57 92
REMARK H PARENT 18 6 4 13 22 26 81 45 49 56
REMARK Flexibility Score: inf
ROOT
ATOM      1  C   UNL A   1      36.852  21.974  23.888  1.00  0.00     0.042 C 
ENDROOT
BRANCH   1   2
ATOM      2  C   UNL A   1      35.797  23.037  23.689  1.00  0.00     0.117 C 
BRANCH   2   3
ATOM      3  N   UNL A   1      34.537  22.552  23.168  1.00  0.00    -0.356 N 
ATOM      4  C   UNL A   1      33.402  23.256  22.902  1.00  0.00     0.223 C 
ATOM      5  O   UNL A   1      32.572  22.739  22.146  1.00  0.00    -0.275 OA
ATOM      6  H   UNL A   1      34.495  21.586  22.981  1.00  0.00     0.163 HD
BRANCH   4   7
ATOM      7  C   UNL A   1      33.109  24.611  23.546  1.00  0.00     0.085 C 
BRANCH   7   8
ATOM      8  C   UNL A   1      31.812  25.222  22.974  1.00  0.00     0.045 C 
BRANCH   8   9
ATOM      9  C   UNL A   1      31.996  26.379  21.991  1.00  0.00     0.115 C 
BRANCH   9  10
ATOM     10  C   UNL A   1      31.172  27.592  22.448  1.00  0.00     0.028 C 
ATOM     11  C   UNL A   1      32.032  28.638  23.140  1.00  0.00     0.006 C 
ENDBRANCH   9  10
BRANCH   9  12
ATOM     12  O   UNL A   1      31.592  25.987  20.683  1.00  0.00    -0.393 OA
ATOM     13  H   UNL A   1      32.335  25.558  20.231  1.00  0.00     0.210 HD
ENDBRANCH   9  12
ENDBRANCH   8   9
ENDBRANCH   7   8
BRANCH   7  14
ATOM     14  C   UNL A   1      33.369  24.705  25.068  1.00  0.00     0.053 C 
BRANCH  14  15
ATOM     15  C   UNL A   1      33.079  25.983  25.823  1.00  0.00    -0.005 A 
ATOM     16  C   UNL A   1      34.057  27.001  25.746  1.00  0.00     0.007 A 
ATOM     17  C   UNL A   1      31.890  26.271  26.522  1.00  0.00     0.122 A 
ATOM     18  C   UNL A   1      33.841  28.274  26.278  1.00  0.00     0.001 A 
ATOM     19  C   UNL A   1      31.688  27.557  27.057  1.00  0.00     0.047 A 
ATOM     20  C   UNL A   1      32.649  28.558  26.927  1.00  0.00     0.004 A 
BRANCH  17  21
ATOM     21  O   UNL A   1      30.749  25.515  26.561  1.00  0.00    -0.496 OA
ATOM     22  C   UNL A   1      29.717  25.811  25.637  1.00  0.00     0.278 C 
ENDBRANCH  17  21
ENDBRANCH  14  15
ENDBRANCH   7  14
ENDBRANCH   4   7
ENDBRANCH   2   3
ENDBRANCH   1   2
BRANCH   1  23
ATOM     23  C   UNL A   1      37.184  21.794  25.359  1.00  0.00     0.118 C 
BRANCH  23  24
ATOM     24  N   UNL A   1      38.190  20.751  25.595  1.00  0.00    -0.352 N 
ATOM     25  C   UNL A   1      39.444  20.827  26.161  1.00  0.00     0.251 C 
ATOM     26  H   UNL A   1      37.925  19.851  25.300  1.00  0.00     0.163 HD
ATOM     27  O   UNL A   1      40.205  19.873  26.105  1.00  0.00    -0.269 OA
BRANCH  25  28
ATOM     28  C   UNL A   1      39.865  22.094  26.794  1.00  0.00     0.039 A 
ATOM     29  C   UNL A   1      40.876  22.083  27.755  1.00  0.00     0.014 A 
ATOM     30  C   UNL A   1      39.314  23.298  26.362  1.00  0.00     0.014 A 
ATOM     31  C   UNL A   1      41.421  23.294  28.187  1.00  0.00     0.010 A 
ATOM     32  C   UNL A   1      39.947  24.487  26.683  1.00  0.00     0.010 A 
ATOM     33  C   UNL A   1      41.011  24.501  27.598  1.00  0.00    -0.014 A 
BRANCH  33  34
ATOM     34  C   UNL A   1      41.664  25.800  27.905  1.00  0.00     0.031 A 
ATOM     35  C   UNL A   1      40.901  26.851  28.666  1.00  0.00     0.074 A 
ATOM     36  C   UNL A   1      42.882  26.076  27.401  1.00  0.00     0.049 A 
ATOM     37  N   UNL A   1      41.208  28.102  28.891  1.00  0.00    -0.248 NA
ATOM     38  C   UNL A   1      39.587  26.449  29.189  1.00  0.00     0.031 C 
ATOM     39  C   UNL A   1      43.699  25.162  26.599  1.00  0.00     0.029 A 
ATOM     40  N   UNL A   1      43.645  27.214  27.479  1.00  0.00    -0.354 N 
ATOM     41  C   UNL A   1      40.109  28.644  29.550  1.00  0.00     0.074 A 
ATOM     42  C   UNL A   1      39.099  27.608  29.599  1.00  0.00     0.031 C 
ATOM     43  C   UNL A   1      44.867  25.756  26.303  1.00  0.00     0.029 A 
ATOM     44  C   UNL A   1      44.858  27.113  26.840  1.00  0.00     0.049 A 
ATOM     45  H   UNL A   1      43.350  28.028  27.949  1.00  0.00     0.167 HD
ATOM     46  C   UNL A   1      39.968  29.877  30.098  1.00  0.00     0.034 A 
ATOM     47  C   UNL A   1      45.848  28.015  26.698  1.00  0.00     0.034 A 
ATOM     48  C   UNL A   1      41.000  30.882  30.062  1.00  0.00     0.049 A 
ATOM     49  C   UNL A   1      45.668  29.387  27.291  1.00  0.00     0.074 A 
ATOM     50  C   UNL A   1      41.006  32.140  30.638  1.00  0.00     0.029 A 
ATOM     51  N   UNL A   1      42.218  30.742  29.404  1.00  0.00    -0.354 N 
ATOM     52  N   UNL A   1      44.644  29.874  27.954  1.00  0.00    -0.248 NA
ATOM     53  C   UNL A   1      46.779  30.330  27.116  1.00  0.00     0.031 C 
ATOM     54  C   UNL A   1      42.197  32.782  30.277  1.00  0.00     0.029 A 
ATOM     55  C   UNL A   1      42.968  31.902  29.535  1.00  0.00     0.049 A 
ATOM     56  H   UNL A   1      42.507  29.937  28.917  1.00  0.00     0.167 HD
ATOM     57  C   UNL A   1      45.000  31.173  28.300  1.00  0.00     0.074 A 
ATOM     58  C   UNL A   1      46.336  31.389  27.780  1.00  0.00     0.031 C 
ATOM     59  C   UNL A   1      44.292  32.102  28.993  1.00  0.00     0.034 A 
BRANCH  46  60
ATOM     60  C   UNL A   1      38.642  30.186  30.757  1.00  0.00     0.023 A 
ATOM     61  C   UNL A   1      37.588  30.786  30.044  1.00  0.00     0.031 A 
ATOM     62  C   UNL A   1      38.454  29.963  32.133  1.00  0.00     0.131 A 
ATOM     63  C   UNL A   1      36.459  31.261  30.726  1.00  0.00     0.055 A 
ATOM     64  C   UNL A   1      37.279  30.340  32.786  1.00  0.00     0.041 A 
ATOM     65  F   UNL A   1      39.425  29.407  32.875  1.00  0.00    -0.206 F 
ATOM     66  C   UNL A   1      36.282  31.018  32.088  1.00  0.00     0.022 A 
BRANCH  63  67
ATOM     67  S   UNL A   1      35.335  32.382  29.847  1.00  0.00     0.124 S 
ATOM     68  O   UNL A   1      34.903  31.547  28.727  1.00  0.00    -0.237 OA
ATOM     69  O   UNL A   1      34.323  32.670  30.857  1.00  0.00    -0.237 OA
ATOM     70  O   UNL A   1      36.191  33.508  29.479  1.00  0.00    -0.744 OA
ENDBRANCH  63  67
ENDBRANCH  46  60
BRANCH  47  71
ATOM     71  C   UNL A   1      47.104  27.648  25.984  1.00  0.00     0.023 A 
ATOM     72  C   UNL A   1      47.217  27.844  24.600  1.00  0.00     0.031 A 
ATOM     73  C   UNL A   1      48.200  27.091  26.665  1.00  0.00     0.131 A 
ATOM     74  C   UNL A   1      48.388  27.456  23.931  1.00  0.00     0.055 A 
ATOM     75  C   UNL A   1      49.379  26.746  26.002  1.00  0.00     0.041 A 
ATOM     76  F   UNL A   1      48.146  26.893  27.992  1.00  0.00    -0.206 F 
ATOM     77  C   UNL A   1      49.474  26.919  24.625  1.00  0.00     0.022 A 
BRANCH  74  78
ATOM     78  S   UNL A   1      48.451  27.618  22.126  1.00  0.00     0.124 S 
ATOM     79  O   UNL A   1      48.669  26.237  21.711  1.00  0.00    -0.237 OA
ATOM     80  O   UNL A   1      47.139  28.181  21.826  1.00  0.00    -0.237 OA
ATOM     81  O   UNL A   1      49.579  28.522  21.906  1.00  0.00    -0.744 OA
ENDBRANCH  74  78
ENDBRANCH  47  71
BRANCH  59  82
ATOM     82  C   UNL A   1      44.974  33.420  29.256  1.00  0.00     0.023 A 
ATOM     83  C   UNL A   1      44.863  34.501  28.365  1.00  0.00     0.031 A 
ATOM     84  C   UNL A   1      45.755  33.591  30.414  1.00  0.00     0.131 A 
ATOM     85  C   UNL A   1      45.561  35.690  28.622  1.00  0.00     0.055 A 
ATOM     86  C   UNL A   1      46.400  34.796  30.692  1.00  0.00     0.041 A 
ATOM     87  F   UNL A   1      45.896  32.589  31.296  1.00  0.00    -0.206 F 
ATOM     88  C   UNL A   1      46.315  35.850  29.788  1.00  0.00     0.022 A 
BRANCH  85  89
ATOM     89  S   UNL A   1      45.537  37.002  27.369  1.00  0.00     0.124 S 
ATOM     90  O   UNL A   1      44.109  37.282  27.253  1.00  0.00    -0.237 OA
ATOM     91  O   UNL A   1      46.343  38.046  27.993  1.00  0.00    -0.237 OA
ATOM     92  O   UNL A   1      46.142  36.370  26.198  1.00  0.00    -0.744 OA
ENDBRANCH  85  89
ENDBRANCH  59  82
ENDBRANCH  33  34
ENDBRANCH  25  28
ENDBRANCH  23  24
ENDBRANCH   1  23
TORSDOF 20
ENDMDL
