MODEL 1
REMARK VINA RESULT:      -9.7      0.000      0.000
REMARK SMILES COc1cc(OC)cc(-c2ccc([C@@H](C)C(=O)NCCCNC(=O)c3ccc(-c4c5nc(c(-c6cc(S(=O)(=O)[O-])ccc6F)c6ccc([nH]6)c(-c6cc(S(=O)(=O)[O-])ccc6F)c6nc(c(-c7cc(S(=O)(=O)[O-])ccc7F)c7ccc4[nH]7)C=C6)C=C5)cc3)cc2F)c1
REMARK SMILES IDX 20 1 19 2 18 3 16 4 17 5 14 7 15 8 13 9 10 10 11 11 89 12
REMARK SMILES IDX 12 13 88 14 90 15 9 16 3 17 4 18 91 19 5 20 8 21 2 22 1 23
REMARK SMILES IDX 6 24 7 25 21 26 22 27 23 28 24 30 25 31 26 32 87 33 27 34
REMARK SMILES IDX 86 35 28 36 29 37 30 38 80 39 31 40 85 41 79 42 81 43 32 44
REMARK SMILES IDX 84 45 78 46 77 47 33 49 65 50 45 51 64 52 46 53 49 54 63 55
REMARK SMILES IDX 82 56 47 57 48 58 62 60 83 61 50 62 34 63 35 64 43 65 36 66
REMARK SMILES IDX 42 67 44 68 41 69 37 70 38 71 39 72 40 73 66 74 67 75 75 76
REMARK SMILES IDX 68 77 74 78 76 79 73 80 69 81 70 82 71 83 72 84 51 85 52 86
REMARK SMILES IDX 60 87 53 88 59 89 61 90 58 91 54 92 55 93 56 94 57 95
REMARK H PARENT 18 6 22 29 81 48 49 59
REMARK Flexibility Score: inf
ROOT
ATOM      1  C   UNL A   1      41.938  20.222  27.203  1.00  0.00     0.042 C 
ENDROOT
BRANCH   1   2
ATOM      2  C   UNL A   1      42.473  20.503  25.800  1.00  0.00     0.117 C 
BRANCH   2   3
ATOM      3  N   UNL A   1      43.920  20.585  25.759  1.00  0.00    -0.356 N 
ATOM      4  C   UNL A   1      44.779  21.641  25.781  1.00  0.00     0.227 C 
ATOM      5  O   UNL A   1      45.984  21.368  25.704  1.00  0.00    -0.274 OA
ATOM      6  H   UNL A   1      44.368  19.710  25.706  1.00  0.00     0.163 HD
BRANCH   4   7
ATOM      7  C   UNL A   1      44.341  23.109  25.898  1.00  0.00     0.105 C 
ATOM      8  C   UNL A   1      44.952  24.040  24.851  1.00  0.00     0.023 C 
BRANCH   7   9
ATOM      9  C   UNL A   1      44.351  23.626  27.328  1.00  0.00    -0.033 A 
ATOM     10  C   UNL A   1      44.398  24.766  29.954  1.00  0.00     0.018 A 
ATOM     11  C   UNL A   1      43.226  24.219  29.401  1.00  0.00     0.012 A 
ATOM     12  C   UNL A   1      45.549  24.707  29.157  1.00  0.00     0.131 A 
ATOM     13  C   UNL A   1      43.214  23.624  28.135  1.00  0.00     0.005 A 
ATOM     14  C   UNL A   1      45.527  24.168  27.866  1.00  0.00     0.044 A 
ATOM     15  F   UNL A   1      46.724  25.160  29.622  1.00  0.00    -0.206 F 
BRANCH  10  16
ATOM     16  C   UNL A   1      44.382  25.334  31.320  1.00  0.00    -0.008 A 
ATOM     17  C   UNL A   1      44.210  27.210  32.871  1.00  0.00     0.123 A 
ATOM     18  C   UNL A   1      44.360  26.337  33.950  1.00  0.00     0.092 A 
ATOM     19  C   UNL A   1      44.224  26.710  31.565  1.00  0.00     0.055 A 
ATOM     20  C   UNL A   1      44.512  24.969  33.742  1.00  0.00     0.123 A 
ATOM     21  C   UNL A   1      44.528  24.482  32.435  1.00  0.00     0.055 A 
BRANCH  17  22
ATOM     22  O   UNL A   1      44.123  28.534  33.206  1.00  0.00    -0.497 OA
ATOM     23  C   UNL A   1      43.737  29.413  32.155  1.00  0.00     0.278 C 
ENDBRANCH  17  22
BRANCH  20  24
ATOM     24  O   UNL A   1      44.648  24.215  34.874  1.00  0.00    -0.497 OA
ATOM     25  C   UNL A   1      45.435  23.034  34.771  1.00  0.00     0.278 C 
ENDBRANCH  20  24
ENDBRANCH  10  16
ENDBRANCH   7   9
ENDBRANCH   4   7
ENDBRANCH   2   3
ENDBRANCH   1   2
BRANCH   1  26
ATOM     26  C   UNL A   1      40.903  21.230  27.690  1.00  0.00     0.118 C 
BRANCH  26  27
ATOM     27  N   UNL A   1      39.870  21.480  26.696  1.00  0.00    -0.352 N 
ATOM     28  C   UNL A   1      39.206  22.634  26.357  1.00  0.00     0.251 C 
ATOM     29  H   UNL A   1      39.602  20.687  26.177  1.00  0.00     0.163 HD
ATOM     30  O   UNL A   1      38.209  22.547  25.646  1.00  0.00    -0.269 OA
BRANCH  28  31
ATOM     31  C   UNL A   1      39.656  23.963  26.841  1.00  0.00     0.039 A 
ATOM     32  C   UNL A   1      40.375  24.786  25.968  1.00  0.00     0.014 A 
ATOM     33  C   UNL A   1      39.436  24.384  28.155  1.00  0.00     0.014 A 
ATOM     34  C   UNL A   1      40.819  26.043  26.391  1.00  0.00     0.010 A 
ATOM     35  C   UNL A   1      39.809  25.667  28.553  1.00  0.00     0.010 A 
ATOM     36  C   UNL A   1      40.511  26.511  27.678  1.00  0.00    -0.014 A 
BRANCH  36  37
ATOM     37  C   UNL A   1      40.919  27.871  28.127  1.00  0.00     0.031 A 
ATOM     38  C   UNL A   1      42.374  28.263  28.126  1.00  0.00     0.074 A 
ATOM     39  C   UNL A   1      39.988  28.727  28.592  1.00  0.00     0.049 A 
ATOM     40  N   UNL A   1      42.935  29.363  28.562  1.00  0.00    -0.248 NA
ATOM     41  C   UNL A   1      43.326  27.279  27.590  1.00  0.00     0.031 C 
ATOM     42  C   UNL A   1      38.551  28.448  28.680  1.00  0.00     0.029 A 
ATOM     43  N   UNL A   1      40.105  30.000  29.094  1.00  0.00    -0.354 N 
ATOM     44  C   UNL A   1      44.303  29.194  28.374  1.00  0.00     0.074 A 
ATOM     45  C   UNL A   1      44.490  27.868  27.827  1.00  0.00     0.031 C 
ATOM     46  C   UNL A   1      37.924  29.519  29.188  1.00  0.00     0.029 A 
ATOM     47  C   UNL A   1      38.910  30.545  29.510  1.00  0.00     0.049 A 
ATOM     48  H   UNL A   1      40.963  30.478  29.152  1.00  0.00     0.167 HD
ATOM     49  C   UNL A   1      45.308  30.072  28.619  1.00  0.00     0.034 A 
ATOM     50  C   UNL A   1      38.641  31.727  30.099  1.00  0.00     0.034 A 
ATOM     51  C   UNL A   1      45.102  31.402  29.138  1.00  0.00     0.049 A 
ATOM     52  C   UNL A   1      39.779  32.682  30.366  1.00  0.00     0.074 A 
ATOM     53  C   UNL A   1      46.043  32.396  29.353  1.00  0.00     0.029 A 
ATOM     54  N   UNL A   1      43.877  31.925  29.529  1.00  0.00    -0.354 N 
ATOM     55  N   UNL A   1      41.061  32.528  30.123  1.00  0.00    -0.248 NA
ATOM     56  C   UNL A   1      39.434  33.974  30.974  1.00  0.00     0.031 C 
ATOM     57  C   UNL A   1      45.398  33.491  29.938  1.00  0.00     0.029 A 
ATOM     58  C   UNL A   1      44.043  33.214  30.015  1.00  0.00     0.049 A 
ATOM     59  H   UNL A   1      43.017  31.451  29.471  1.00  0.00     0.167 HD
ATOM     60  C   UNL A   1      41.666  33.717  30.520  1.00  0.00     0.074 A 
ATOM     61  C   UNL A   1      40.609  34.583  30.997  1.00  0.00     0.031 C 
ATOM     62  C   UNL A   1      42.978  34.064  30.492  1.00  0.00     0.034 A 
BRANCH  49  63
ATOM     63  C   UNL A   1      46.723  29.616  28.352  1.00  0.00     0.023 A 
ATOM     64  C   UNL A   1      47.488  28.961  29.332  1.00  0.00     0.031 A 
ATOM     65  C   UNL A   1      47.310  29.831  27.092  1.00  0.00     0.131 A 
ATOM     66  C   UNL A   1      48.815  28.594  29.055  1.00  0.00     0.055 A 
ATOM     67  C   UNL A   1      48.605  29.399  26.799  1.00  0.00     0.041 A 
ATOM     68  F   UNL A   1      46.634  30.469  26.124  1.00  0.00    -0.206 F 
ATOM     69  C   UNL A   1      49.370  28.786  27.787  1.00  0.00     0.022 A 
BRANCH  66  70
ATOM     70  S   UNL A   1      49.843  27.965  30.409  1.00  0.00     0.124 S 
ATOM     71  O   UNL A   1      51.042  27.535  29.694  1.00  0.00    -0.237 OA
ATOM     72  O   UNL A   1      49.996  29.138  31.262  1.00  0.00    -0.237 OA
ATOM     73  O   UNL A   1      49.042  26.882  30.975  1.00  0.00    -0.744 OA
ENDBRANCH  66  70
ENDBRANCH  49  63
BRANCH  50  74
ATOM     74  C   UNL A   1      37.247  32.078  30.505  1.00  0.00     0.023 A 
ATOM     75  C   UNL A   1      36.351  32.656  29.593  1.00  0.00     0.031 A 
ATOM     76  C   UNL A   1      36.813  31.898  31.832  1.00  0.00     0.131 A 
ATOM     77  C   UNL A   1      35.090  33.092  30.031  1.00  0.00     0.055 A 
ATOM     78  C   UNL A   1      35.535  32.276  32.247  1.00  0.00     0.041 A 
ATOM     79  F   UNL A   1      37.628  31.346  32.744  1.00  0.00    -0.206 F 
ATOM     80  C   UNL A   1      34.672  32.895  31.348  1.00  0.00     0.022 A 
BRANCH  77  81
ATOM     81  S   UNL A   1      34.048  34.025  28.876  1.00  0.00     0.124 S 
ATOM     82  O   UNL A   1      34.993  34.997  28.340  1.00  0.00    -0.237 OA
ATOM     83  O   UNL A   1      33.610  32.982  27.955  1.00  0.00    -0.237 OA
ATOM     84  O   UNL A   1      33.002  34.578  29.733  1.00  0.00    -0.744 OA
ENDBRANCH  77  81
ENDBRANCH  50  74
BRANCH  62  85
ATOM     85  C   UNL A   1      43.329  35.460  30.947  1.00  0.00     0.023 A 
ATOM     86  C   UNL A   1      43.455  36.525  30.037  1.00  0.00     0.031 A 
ATOM     87  C   UNL A   1      43.553  35.723  32.310  1.00  0.00     0.131 A 
ATOM     88  C   UNL A   1      43.851  37.790  30.496  1.00  0.00     0.055 A 
ATOM     89  C   UNL A   1      43.886  36.998  32.767  1.00  0.00     0.041 A 
ATOM     90  F   UNL A   1      43.446  34.742  33.221  1.00  0.00    -0.206 F 
ATOM     91  C   UNL A   1      44.050  38.037  31.857  1.00  0.00     0.022 A 
BRANCH  88  92
ATOM     92  S   UNL A   1      44.191  39.090  29.277  1.00  0.00     0.124 S 
ATOM     93  O   UNL A   1      43.586  40.260  29.905  1.00  0.00    -0.237 OA
ATOM     94  O   UNL A   1      45.648  39.084  29.212  1.00  0.00    -0.237 OA
ATOM     95  O   UNL A   1      43.516  38.614  28.071  1.00  0.00    -0.744 OA
ENDBRANCH  88  92
ENDBRANCH  62  85
ENDBRANCH  36  37
ENDBRANCH  28  31
ENDBRANCH  26  27
ENDBRANCH   1  26
TORSDOF 17
ENDMDL
MODEL 2
REMARK VINA RESULT:      -9.7      3.438     11.105
REMARK SMILES COc1cc(OC)cc(-c2ccc([C@@H](C)C(=O)NCCCNC(=O)c3ccc(-c4c5nc(c(-c6cc(S(=O)(=O)[O-])ccc6F)c6ccc([nH]6)c(-c6cc(S(=O)(=O)[O-])ccc6F)c6nc(c(-c7cc(S(=O)(=O)[O-])ccc7F)c7ccc4[nH]7)C=C6)C=C5)cc3)cc2F)c1
REMARK SMILES IDX 20 1 19 2 18 3 16 4 17 5 14 7 15 8 13 9 10 10 11 11 89 12
REMARK SMILES IDX 12 13 88 14 90 15 9 16 3 17 4 18 91 19 5 20 8 21 2 22 1 23
REMARK SMILES IDX 6 24 7 25 21 26 22 27 23 28 24 30 25 31 26 32 87 33 27 34
REMARK SMILES IDX 86 35 28 36 29 37 30 38 80 39 31 40 85 41 79 42 81 43 32 44
REMARK SMILES IDX 84 45 78 46 77 47 33 49 65 50 45 51 64 52 46 53 49 54 63 55
REMARK SMILES IDX 82 56 47 57 48 58 62 60 83 61 50 62 34 63 35 64 43 65 36 66
REMARK SMILES IDX 42 67 44 68 41 69 37 70 38 71 39 72 40 73 66 74 67 75 75 76
REMARK SMILES IDX 68 77 74 78 76 79 73 80 69 81 70 82 71 83 72 84 51 85 52 86
REMARK SMILES IDX 60 87 53 88 59 89 61 90 58 91 54 92 55 93 56 94 57 95
REMARK H PARENT 18 6 22 29 81 48 49 59
REMARK Flexibility Score: inf
ROOT
ATOM      1  C   UNL A   1      33.409  34.153  28.590  1.00  0.00     0.042 C 
ENDROOT
BRANCH   1   2
ATOM      2  C   UNL A   1      34.139  35.357  29.183  1.00  0.00     0.117 C 
BRANCH   2   3
ATOM      3  N   UNL A   1      34.014  35.431  30.626  1.00  0.00    -0.356 N 
ATOM      4  C   UNL A   1      34.453  34.619  31.627  1.00  0.00     0.227 C 
ATOM      5  O   UNL A   1      34.151  34.959  32.778  1.00  0.00    -0.274 OA
ATOM      6  H   UNL A   1      33.516  36.219  30.943  1.00  0.00     0.163 HD
BRANCH   4   7
ATOM      7  C   UNL A   1      35.284  33.347  31.405  1.00  0.00     0.105 C 
ATOM      8  C   UNL A   1      35.115  32.281  32.488  1.00  0.00     0.023 C 
BRANCH   7   9
ATOM      9  C   UNL A   1      36.714  33.631  30.976  1.00  0.00    -0.033 A 
ATOM     10  C   UNL A   1      39.463  34.038  30.285  1.00  0.00     0.018 A 
ATOM     11  C   UNL A   1      38.539  33.498  29.373  1.00  0.00     0.012 A 
ATOM     12  C   UNL A   1      38.964  34.384  31.548  1.00  0.00     0.131 A 
ATOM     13  C   UNL A   1      37.188  33.339  29.697  1.00  0.00     0.005 A 
ATOM     14  C   UNL A   1      37.625  34.170  31.897  1.00  0.00     0.044 A 
ATOM     15  F   UNL A   1      39.762  34.951  32.465  1.00  0.00    -0.206 F 
BRANCH  10  16
ATOM     16  C   UNL A   1      40.872  34.245  29.883  1.00  0.00    -0.008 A 
ATOM     17  C   UNL A   1      42.622  35.498  28.732  1.00  0.00     0.123 A 
ATOM     18  C   UNL A   1      43.573  34.571  29.161  1.00  0.00     0.092 A 
ATOM     19  C   UNL A   1      41.280  35.333  29.089  1.00  0.00     0.055 A 
ATOM     20  C   UNL A   1      43.204  33.488  29.953  1.00  0.00     0.123 A 
ATOM     21  C   UNL A   1      41.862  33.331  30.301  1.00  0.00     0.055 A 
BRANCH  17  22
ATOM     22  O   UNL A   1      43.103  36.486  27.915  1.00  0.00    -0.497 OA
ATOM     23  C   UNL A   1      42.784  37.817  28.304  1.00  0.00     0.278 C 
ENDBRANCH  17  22
BRANCH  20  24
ATOM     24  O   UNL A   1      44.223  32.650  30.314  1.00  0.00    -0.497 OA
ATOM     25  C   UNL A   1      45.491  32.883  29.713  1.00  0.00     0.278 C 
ENDBRANCH  20  24
ENDBRANCH  10  16
ENDBRANCH   7   9
ENDBRANCH   4   7
ENDBRANCH   2   3
ENDBRANCH   1   2
BRANCH   1  26
ATOM     26  C   UNL A   1      34.331  33.099  27.986  1.00  0.00     0.118 C 
BRANCH  26  27
ATOM     27  N   UNL A   1      33.612  31.891  27.611  1.00  0.00    -0.352 N 
ATOM     28  C   UNL A   1      34.036  30.588  27.506  1.00  0.00     0.251 C 
ATOM     29  H   UNL A   1      32.662  32.031  27.396  1.00  0.00     0.163 HD
ATOM     30  O   UNL A   1      33.301  29.779  26.945  1.00  0.00    -0.269 OA
BRANCH  28  31
ATOM     31  C   UNL A   1      35.350  30.150  28.037  1.00  0.00     0.039 A 
ATOM     32  C   UNL A   1      35.432  29.742  29.373  1.00  0.00     0.014 A 
ATOM     33  C   UNL A   1      36.511  30.192  27.261  1.00  0.00     0.014 A 
ATOM     34  C   UNL A   1      36.655  29.327  29.908  1.00  0.00     0.010 A 
ATOM     35  C   UNL A   1      37.715  29.704  27.770  1.00  0.00     0.010 A 
ATOM     36  C   UNL A   1      37.803  29.271  29.102  1.00  0.00    -0.014 A 
BRANCH  36  37
ATOM     37  C   UNL A   1      39.101  28.773  29.635  1.00  0.00     0.031 A 
ATOM     38  C   UNL A   1      39.734  29.436  30.831  1.00  0.00     0.074 A 
ATOM     39  C   UNL A   1      39.738  27.765  29.005  1.00  0.00     0.049 A 
ATOM     40  N   UNL A   1      40.897  29.207  31.386  1.00  0.00    -0.248 NA
ATOM     41  C   UNL A   1      38.970  30.519  31.470  1.00  0.00     0.031 C 
ATOM     42  C   UNL A   1      39.245  27.068  27.814  1.00  0.00     0.029 A 
ATOM     43  N   UNL A   1      40.942  27.159  29.265  1.00  0.00    -0.354 N 
ATOM     44  C   UNL A   1      41.014  30.129  32.423  1.00  0.00     0.074 A 
ATOM     45  C   UNL A   1      39.823  30.949  32.389  1.00  0.00     0.031 C 
ATOM     46  C   UNL A   1      40.129  26.124  27.457  1.00  0.00     0.029 A 
ATOM     47  C   UNL A   1      41.276  26.176  28.359  1.00  0.00     0.049 A 
ATOM     48  H   UNL A   1      41.515  27.404  30.026  1.00  0.00     0.167 HD
ATOM     49  C   UNL A   1      42.015  30.264  33.328  1.00  0.00     0.034 A 
ATOM     50  C   UNL A   1      42.384  25.416  28.255  1.00  0.00     0.034 A 
ATOM     51  C   UNL A   1      43.183  29.419  33.365  1.00  0.00     0.049 A 
ATOM     52  C   UNL A   1      43.485  25.592  29.272  1.00  0.00     0.074 A 
ATOM     53  C   UNL A   1      44.219  29.424  34.285  1.00  0.00     0.029 A 
ATOM     54  N   UNL A   1      43.477  28.423  32.444  1.00  0.00    -0.354 N 
ATOM     55  N   UNL A   1      43.548  26.429  30.283  1.00  0.00    -0.248 NA
ATOM     56  C   UNL A   1      44.656  24.716  29.143  1.00  0.00     0.031 C 
ATOM     57  C   UNL A   1      45.170  28.481  33.880  1.00  0.00     0.029 A 
ATOM     58  C   UNL A   1      44.692  27.831  32.753  1.00  0.00     0.049 A 
ATOM     59  H   UNL A   1      42.906  28.173  31.682  1.00  0.00     0.167 HD
ATOM     60  C   UNL A   1      44.752  26.153  30.926  1.00  0.00     0.074 A 
ATOM     61  C   UNL A   1      45.370  25.062  30.202  1.00  0.00     0.031 C 
ATOM     62  C   UNL A   1      45.298  26.746  32.018  1.00  0.00     0.034 A 
BRANCH  49  63
ATOM     63  C   UNL A   1      41.904  31.381  34.338  1.00  0.00     0.023 A 
ATOM     64  C   UNL A   1      42.238  32.708  34.016  1.00  0.00     0.031 A 
ATOM     65  C   UNL A   1      41.446  31.115  35.640  1.00  0.00     0.131 A 
ATOM     66  C   UNL A   1      42.163  33.707  35.000  1.00  0.00     0.055 A 
ATOM     67  C   UNL A   1      41.304  32.126  36.593  1.00  0.00     0.041 A 
ATOM     68  F   UNL A   1      41.131  29.864  36.011  1.00  0.00    -0.206 F 
ATOM     69  C   UNL A   1      41.674  33.430  36.279  1.00  0.00     0.022 A 
BRANCH  66  70
ATOM     70  S   UNL A   1      42.820  35.353  34.618  1.00  0.00     0.124 S 
ATOM     71  O   UNL A   1      42.841  35.330  33.157  1.00  0.00    -0.237 OA
ATOM     72  O   UNL A   1      41.835  36.238  35.229  1.00  0.00    -0.237 OA
ATOM     73  O   UNL A   1      44.137  35.354  35.252  1.00  0.00    -0.744 OA
ENDBRANCH  66  70
ENDBRANCH  49  63
BRANCH  50  74
ATOM     74  C   UNL A   1      42.534  24.434  27.140  1.00  0.00     0.023 A 
ATOM     75  C   UNL A   1      41.939  23.165  27.207  1.00  0.00     0.031 A 
ATOM     76  C   UNL A   1      43.331  24.729  26.017  1.00  0.00     0.131 A 
ATOM     77  C   UNL A   1      42.198  22.216  26.205  1.00  0.00     0.055 A 
ATOM     78  C   UNL A   1      43.534  23.803  24.993  1.00  0.00     0.041 A 
ATOM     79  F   UNL A   1      43.919  25.929  25.900  1.00  0.00    -0.206 F 
ATOM     80  C   UNL A   1      42.982  22.531  25.093  1.00  0.00     0.022 A 
BRANCH  77  81
ATOM     81  S   UNL A   1      41.587  20.523  26.437  1.00  0.00     0.124 S 
ATOM     82  O   UNL A   1      40.151  20.697  26.249  1.00  0.00    -0.237 OA
ATOM     83  O   UNL A   1      42.288  19.802  25.381  1.00  0.00    -0.237 OA
ATOM     84  O   UNL A   1      42.003  20.194  27.798  1.00  0.00    -0.744 OA
ENDBRANCH  77  81
ENDBRANCH  50  74
BRANCH  62  85
ATOM     85  C   UNL A   1      46.608  26.189  32.519  1.00  0.00     0.023 A 
ATOM     86  C   UNL A   1      46.657  25.117  33.429  1.00  0.00     0.031 A 
ATOM     87  C   UNL A   1      47.824  26.748  32.089  1.00  0.00     0.131 A 
ATOM     88  C   UNL A   1      47.894  24.676  33.921  1.00  0.00     0.055 A 
ATOM     89  C   UNL A   1      49.054  26.265  32.536  1.00  0.00     0.041 A 
ATOM     90  F   UNL A   1      47.836  27.774  31.222  1.00  0.00    -0.206 F 
ATOM     91  C   UNL A   1      49.094  25.232  33.467  1.00  0.00     0.022 A 
BRANCH  88  92
ATOM     92  S   UNL A   1      47.912  23.425  35.235  1.00  0.00     0.124 S 
ATOM     93  O   UNL A   1      48.008  24.249  36.436  1.00  0.00    -0.237 OA
ATOM     94  O   UNL A   1      46.641  22.740  35.031  1.00  0.00    -0.237 OA
ATOM     95  O   UNL A   1      49.100  22.629  34.932  1.00  0.00    -0.744 OA
ENDBRANCH  88  92
ENDBRANCH  62  85
ENDBRANCH  36  37
ENDBRANCH  28  31
ENDBRANCH  26  27
ENDBRANCH   1  26
TORSDOF 17
ENDMDL
MODEL 3
REMARK VINA RESULT:      -9.6      4.579     10.583
REMARK SMILES COc1cc(OC)cc(-c2ccc([C@@H](C)C(=O)NCCCNC(=O)c3ccc(-c4c5nc(c(-c6cc(S(=O)(=O)[O-])ccc6F)c6ccc([nH]6)c(-c6cc(S(=O)(=O)[O-])ccc6F)c6nc(c(-c7cc(S(=O)(=O)[O-])ccc7F)c7ccc4[nH]7)C=C6)C=C5)cc3)cc2F)c1
REMARK SMILES IDX 20 1 19 2 18 3 16 4 17 5 14 7 15 8 13 9 10 10 11 11 89 12
REMARK SMILES IDX 12 13 88 14 90 15 9 16 3 17 4 18 91 19 5 20 8 21 2 22 1 23
REMARK SMILES IDX 6 24 7 25 21 26 22 27 23 28 24 30 25 31 26 32 87 33 27 34
REMARK SMILES IDX 86 35 28 36 29 37 30 38 80 39 31 40 85 41 79 42 81 43 32 44
REMARK SMILES IDX 84 45 78 46 77 47 33 49 65 50 45 51 64 52 46 53 49 54 63 55
REMARK SMILES IDX 82 56 47 57 48 58 62 60 83 61 50 62 34 63 35 64 43 65 36 66
REMARK SMILES IDX 42 67 44 68 41 69 37 70 38 71 39 72 40 73 66 74 67 75 75 76
REMARK SMILES IDX 68 77 74 78 76 79 73 80 69 81 70 82 71 83 72 84 51 85 52 86
REMARK SMILES IDX 60 87 53 88 59 89 61 90 58 91 54 92 55 93 56 94 57 95
REMARK H PARENT 18 6 22 29 81 48 49 59
REMARK Flexibility Score: inf
ROOT
ATOM      1  C   UNL A   1      35.290  21.573  25.647  1.00  0.00     0.042 C 
ENDROOT
BRANCH   1   2
ATOM      2  C   UNL A   1      35.125  20.294  24.828  1.00  0.00     0.117 C 
BRANCH   2   3
ATOM      3  N   UNL A   1      34.232  19.339  25.457  1.00  0.00    -0.356 N 
ATOM      4  C   UNL A   1      32.980  18.909  25.141  1.00  0.00     0.227 C 
ATOM      5  O   UNL A   1      32.472  18.088  25.915  1.00  0.00    -0.274 OA
ATOM      6  H   UNL A   1      34.602  18.923  26.269  1.00  0.00     0.163 HD
BRANCH   4   7
ATOM      7  C   UNL A   1      32.194  19.373  23.905  1.00  0.00     0.105 C 
ATOM      8  C   UNL A   1      32.527  18.614  22.620  1.00  0.00     0.023 C 
BRANCH   7   9
ATOM      9  C   UNL A   1      32.114  20.885  23.777  1.00  0.00    -0.033 A 
ATOM     10  C   UNL A   1      32.094  23.746  23.660  1.00  0.00     0.018 A 
ATOM     11  C   UNL A   1      32.516  22.960  22.573  1.00  0.00     0.012 A 
ATOM     12  C   UNL A   1      31.666  23.054  24.801  1.00  0.00     0.131 A 
ATOM     13  C   UNL A   1      32.485  21.562  22.616  1.00  0.00     0.005 A 
ATOM     14  C   UNL A   1      31.691  21.656  24.870  1.00  0.00     0.044 A 
ATOM     15  F   UNL A   1      31.200  23.721  25.869  1.00  0.00    -0.206 F 
BRANCH  10  16
ATOM     16  C   UNL A   1      32.087  25.222  23.554  1.00  0.00    -0.008 A 
ATOM     17  C   UNL A   1      31.140  27.318  22.738  1.00  0.00     0.123 A 
ATOM     18  C   UNL A   1      32.138  28.032  23.401  1.00  0.00     0.092 A 
ATOM     19  C   UNL A   1      31.117  25.921  22.813  1.00  0.00     0.055 A 
ATOM     20  C   UNL A   1      33.109  27.371  24.148  1.00  0.00     0.123 A 
ATOM     21  C   UNL A   1      33.079  25.978  24.213  1.00  0.00     0.055 A 
BRANCH  17  22
ATOM     22  O   UNL A   1      30.278  28.080  21.995  1.00  0.00    -0.497 OA
ATOM     23  C   UNL A   1      29.969  29.362  22.532  1.00  0.00     0.278 C 
ENDBRANCH  17  22
BRANCH  20  24
ATOM     24  O   UNL A   1      34.033  28.176  24.754  1.00  0.00    -0.497 OA
ATOM     25  C   UNL A   1      33.902  28.364  26.158  1.00  0.00     0.278 C 
ENDBRANCH  20  24
ENDBRANCH  10  16
ENDBRANCH   7   9
ENDBRANCH   4   7
ENDBRANCH   2   3
ENDBRANCH   1   2
BRANCH   1  26
ATOM     26  C   UNL A   1      36.702  22.150  25.626  1.00  0.00     0.118 C 
BRANCH  26  27
ATOM     27  N   UNL A   1      37.715  21.128  25.843  1.00  0.00    -0.352 N 
ATOM     28  C   UNL A   1      39.050  21.236  26.150  1.00  0.00     0.251 C 
ATOM     29  H   UNL A   1      37.389  20.204  25.756  1.00  0.00     0.163 HD
ATOM     30  O   UNL A   1      39.754  20.234  26.054  1.00  0.00    -0.269 OA
BRANCH  28  31
ATOM     31  C   UNL A   1      39.651  22.525  26.573  1.00  0.00     0.039 A 
ATOM     32  C   UNL A   1      40.636  22.511  27.567  1.00  0.00     0.014 A 
ATOM     33  C   UNL A   1      39.219  23.748  26.054  1.00  0.00     0.014 A 
ATOM     34  C   UNL A   1      41.222  23.706  27.994  1.00  0.00     0.010 A 
ATOM     35  C   UNL A   1      39.858  24.932  26.423  1.00  0.00     0.010 A 
ATOM     36  C   UNL A   1      40.863  24.927  27.402  1.00  0.00    -0.014 A 
BRANCH  36  37
ATOM     37  C   UNL A   1      41.519  26.204  27.797  1.00  0.00     0.031 A 
ATOM     38  C   UNL A   1      40.722  27.285  28.479  1.00  0.00     0.074 A 
ATOM     39  C   UNL A   1      42.815  26.412  27.487  1.00  0.00     0.049 A 
ATOM     40  N   UNL A   1      41.089  28.495  28.819  1.00  0.00    -0.248 NA
ATOM     41  C   UNL A   1      39.319  26.976  28.796  1.00  0.00     0.031 C 
ATOM     42  C   UNL A   1      43.681  25.455  26.793  1.00  0.00     0.029 A 
ATOM     43  N   UNL A   1      43.628  27.497  27.700  1.00  0.00    -0.354 N 
ATOM     44  C   UNL A   1      39.960  29.097  29.367  1.00  0.00     0.074 A 
ATOM     45  C   UNL A   1      38.885  28.135  29.272  1.00  0.00     0.031 C 
ATOM     46  C   UNL A   1      44.904  25.990  26.651  1.00  0.00     0.029 A 
ATOM     47  C   UNL A   1      44.902  27.343  27.197  1.00  0.00     0.049 A 
ATOM     48  H   UNL A   1      43.330  28.310  28.166  1.00  0.00     0.167 HD
ATOM     49  C   UNL A   1      39.839  30.333  29.914  1.00  0.00     0.034 A 
ATOM     50  C   UNL A   1      45.943  28.199  27.163  1.00  0.00     0.034 A 
ATOM     51  C   UNL A   1      40.929  31.270  30.028  1.00  0.00     0.049 A 
ATOM     52  C   UNL A   1      45.778  29.569  27.773  1.00  0.00     0.074 A 
ATOM     53  C   UNL A   1      40.931  32.518  30.630  1.00  0.00     0.029 A 
ATOM     54  N   UNL A   1      42.208  31.072  29.525  1.00  0.00    -0.354 N 
ATOM     55  N   UNL A   1      44.718  30.097  28.343  1.00  0.00    -0.248 NA
ATOM     56  C   UNL A   1      46.950  30.453  27.748  1.00  0.00     0.031 C 
ATOM     57  C   UNL A   1      42.188  33.099  30.431  1.00  0.00     0.029 A 
ATOM     58  C   UNL A   1      42.996  32.186  29.773  1.00  0.00     0.049 A 
ATOM     59  H   UNL A   1      42.510  30.260  29.059  1.00  0.00     0.167 HD
ATOM     60  C   UNL A   1      45.111  31.363  28.771  1.00  0.00     0.074 A 
ATOM     61  C   UNL A   1      46.506  31.509  28.413  1.00  0.00     0.031 C 
ATOM     62  C   UNL A   1      44.385  32.318  29.406  1.00  0.00     0.034 A 
BRANCH  49  63
ATOM     63  C   UNL A   1      38.476  30.752  30.411  1.00  0.00     0.023 A 
ATOM     64  C   UNL A   1      37.571  31.450  29.594  1.00  0.00     0.031 A 
ATOM     65  C   UNL A   1      38.073  30.437  31.721  1.00  0.00     0.131 A 
ATOM     66  C   UNL A   1      36.332  31.860  30.112  1.00  0.00     0.055 A 
ATOM     67  C   UNL A   1      36.810  30.784  32.207  1.00  0.00     0.041 A 
ATOM     68  F   UNL A   1      38.902  29.789  32.554  1.00  0.00    -0.206 F 
ATOM     69  C   UNL A   1      35.935  31.509  31.405  1.00  0.00     0.022 A 
BRANCH  66  70
ATOM     70  S   UNL A   1      35.291  32.955  29.110  1.00  0.00     0.124 S 
ATOM     71  O   UNL A   1      36.049  34.203  29.153  1.00  0.00    -0.237 OA
ATOM     72  O   UNL A   1      35.260  32.272  27.822  1.00  0.00    -0.237 OA
ATOM     73  O   UNL A   1      34.022  32.981  29.834  1.00  0.00    -0.744 OA
ENDBRANCH  66  70
ENDBRANCH  49  63
BRANCH  50  74
ATOM     74  C   UNL A   1      47.229  27.811  26.511  1.00  0.00     0.023 A 
ATOM     75  C   UNL A   1      47.407  27.943  25.125  1.00  0.00     0.031 A 
ATOM     76  C   UNL A   1      48.276  27.239  27.257  1.00  0.00     0.131 A 
ATOM     77  C   UNL A   1      48.576  27.456  24.519  1.00  0.00     0.055 A 
ATOM     78  C   UNL A   1      49.463  26.813  26.658  1.00  0.00     0.041 A 
ATOM     79  F   UNL A   1      48.160  27.093  28.586  1.00  0.00    -0.206 F 
ATOM     80  C   UNL A   1      49.609  26.902  25.278  1.00  0.00     0.022 A 
BRANCH  77  81
ATOM     81  S   UNL A   1      48.675  27.452  22.707  1.00  0.00     0.124 S 
ATOM     82  O   UNL A   1      47.486  28.214  22.342  1.00  0.00    -0.237 OA
ATOM     83  O   UNL A   1      49.955  28.111  22.475  1.00  0.00    -0.237 OA
ATOM     84  O   UNL A   1      48.636  26.032  22.367  1.00  0.00    -0.744 OA
ENDBRANCH  77  81
ENDBRANCH  50  74
BRANCH  62  85
ATOM     85  C   UNL A   1      45.108  33.585  29.793  1.00  0.00     0.023 A 
ATOM     86  C   UNL A   1      45.204  34.681  28.916  1.00  0.00     0.031 A 
ATOM     87  C   UNL A   1      45.721  33.691  31.054  1.00  0.00     0.131 A 
ATOM     88  C   UNL A   1      45.945  35.811  29.291  1.00  0.00     0.055 A 
ATOM     89  C   UNL A   1      46.404  34.843  31.445  1.00  0.00     0.041 A 
ATOM     90  F   UNL A   1      45.662  32.675  31.930  1.00  0.00    -0.206 F 
ATOM     91  C   UNL A   1      46.530  35.906  30.557  1.00  0.00     0.022 A 
BRANCH  88  92
ATOM     92  S   UNL A   1      46.209  37.123  28.067  1.00  0.00     0.124 S 
ATOM     93  O   UNL A   1      46.319  36.362  26.826  1.00  0.00    -0.237 OA
ATOM     94  O   UNL A   1      45.006  37.934  28.213  1.00  0.00    -0.237 OA
ATOM     95  O   UNL A   1      47.445  37.764  28.513  1.00  0.00    -0.744 OA
ENDBRANCH  88  92
ENDBRANCH  62  85
ENDBRANCH  36  37
ENDBRANCH  28  31
ENDBRANCH  26  27
ENDBRANCH   1  26
TORSDOF 17
ENDMDL
