MODEL 1
REMARK VINA RESULT:     -11.9      0.000      0.000
REMARK SMILES CC[C@H](CNC(=O)[C@H]1CSc2ccccc21)C(=O)NCCCNC(=O)c1ccc(-c2c3nc(c(-c4cc(S(=O)(=O)[O-])ccc4F)c4ccc([nH]4)c(-c4cc(S(=O)(=O)[O-])ccc4F)c4nc(c(-c5cc(S(=O)(=O)[O-])ccc5F)c5ccc2[nH]5)C=C4)C=C3)cc1
REMARK SMILES IDX 21 1 20 2 19 3 17 4 18 5 3 7 2 8 1 9 4 10 5 11 6 12 7 14
REMARK SMILES IDX 8 15 9 16 16 17 10 18 11 19 15 20 12 21 14 22 13 23 22 24
REMARK SMILES IDX 23 25 24 26 25 28 26 29 27 30 88 31 28 32 87 33 29 34 30 35
REMARK SMILES IDX 31 36 81 37 32 38 86 39 80 40 82 41 33 42 85 43 79 44 78 45
REMARK SMILES IDX 34 47 66 48 46 49 65 50 47 51 50 52 64 53 83 54 48 55 49 56
REMARK SMILES IDX 63 58 84 59 51 60 35 61 36 62 44 63 37 64 43 65 45 66 42 67
REMARK SMILES IDX 38 68 39 69 40 70 41 71 67 72 68 73 76 74 69 75 75 76 77 77
REMARK SMILES IDX 74 78 70 79 71 80 72 81 73 82 52 83 53 84 61 85 54 86 60 87
REMARK SMILES IDX 62 88 59 89 55 90 56 91 57 92 58 93
REMARK H PARENT 19 6 5 13 23 27 82 46 50 57
REMARK Flexibility Score: inf
ROOT
ATOM      1  C   UNL A   1      36.661  22.496  24.133  1.00  0.00     0.042 C 
ENDROOT
BRANCH   1   2
ATOM      2  C   UNL A   1      35.461  23.416  23.940  1.00  0.00     0.117 C 
BRANCH   2   3
ATOM      3  N   UNL A   1      34.391  22.847  23.137  1.00  0.00    -0.356 N 
ATOM      4  C   UNL A   1      33.382  21.978  23.417  1.00  0.00     0.224 C 
ATOM      5  O   UNL A   1      32.527  21.817  22.540  1.00  0.00    -0.275 OA
ATOM      6  H   UNL A   1      34.398  23.151  22.200  1.00  0.00     0.163 HD
BRANCH   4   7
ATOM      7  C   UNL A   1      33.277  21.209  24.736  1.00  0.00     0.097 C 
BRANCH   7   8
ATOM      8  C   UNL A   1      33.891  19.806  24.614  1.00  0.00     0.012 C 
ATOM      9  C   UNL A   1      33.015  18.679  25.134  1.00  0.00     0.005 C 
ENDBRANCH   7   8
BRANCH   7  10
ATOM     10  C   UNL A   1      31.841  21.313  25.264  1.00  0.00     0.129 C 
BRANCH  10  11
ATOM     11  N   UNL A   1      31.659  22.303  26.320  1.00  0.00    -0.355 N 
ATOM     12  C   UNL A   1      31.671  23.660  26.350  1.00  0.00     0.228 C 
ATOM     13  H   UNL A   1      31.491  21.899  27.202  1.00  0.00     0.163 HD
ATOM     14  O   UNL A   1      31.278  24.150  27.422  1.00  0.00    -0.274 OA
BRANCH  12  15
ATOM     15  C   UNL A   1      32.094  24.609  25.221  1.00  0.00     0.120 C 
ATOM     16  C   UNL A   1      30.898  24.747  24.252  1.00  0.00     0.093 C 
ATOM     17  C   UNL A   1      32.464  26.031  25.544  1.00  0.00    -0.021 A 
ATOM     18  S   UNL A   1      29.919  26.157  24.881  1.00  0.00    -0.125 SA
ATOM     19  C   UNL A   1      31.379  26.917  25.527  1.00  0.00     0.011 A 
ATOM     20  C   UNL A   1      33.738  26.489  25.871  1.00  0.00     0.006 A 
ATOM     21  C   UNL A   1      31.517  28.229  25.946  1.00  0.00     0.015 A 
ATOM     22  C   UNL A   1      33.889  27.820  26.269  1.00  0.00     0.000 A 
ATOM     23  C   UNL A   1      32.781  28.676  26.336  1.00  0.00     0.001 A 
ENDBRANCH  12  15
ENDBRANCH  10  11
ENDBRANCH   7  10
ENDBRANCH   4   7
ENDBRANCH   2   3
ENDBRANCH   1   2
BRANCH   1  24
ATOM     24  C   UNL A   1      37.013  22.158  25.576  1.00  0.00     0.118 C 
BRANCH  24  25
ATOM     25  N   UNL A   1      38.124  21.228  25.709  1.00  0.00    -0.352 N 
ATOM     26  C   UNL A   1      39.407  21.435  26.172  1.00  0.00     0.251 C 
ATOM     27  H   UNL A   1      37.930  20.306  25.424  1.00  0.00     0.163 HD
ATOM     28  O   UNL A   1      40.226  20.525  26.081  1.00  0.00    -0.269 OA
BRANCH  26  29
ATOM     29  C   UNL A   1      39.816  22.748  26.734  1.00  0.00     0.039 A 
ATOM     30  C   UNL A   1      39.344  23.950  26.208  1.00  0.00     0.014 A 
ATOM     31  C   UNL A   1      40.689  22.773  27.829  1.00  0.00     0.014 A 
ATOM     32  C   UNL A   1      39.879  25.161  26.646  1.00  0.00     0.010 A 
ATOM     33  C   UNL A   1      41.156  23.997  28.329  1.00  0.00     0.010 A 
ATOM     34  C   UNL A   1      40.801  25.203  27.706  1.00  0.00    -0.014 A 
BRANCH  34  35
ATOM     35  C   UNL A   1      41.364  26.513  28.143  1.00  0.00     0.031 A 
ATOM     36  C   UNL A   1      42.779  26.906  27.801  1.00  0.00     0.074 A 
ATOM     37  C   UNL A   1      40.578  27.383  28.810  1.00  0.00     0.049 A 
ATOM     38  N   UNL A   1      43.394  28.042  28.020  1.00  0.00    -0.248 NA
ATOM     39  C   UNL A   1      43.616  25.899  27.132  1.00  0.00     0.031 C 
ATOM     40  C   UNL A   1      39.201  27.114  29.221  1.00  0.00     0.029 A 
ATOM     41  N   UNL A   1      40.807  28.669  29.236  1.00  0.00    -0.354 N 
ATOM     42  C   UNL A   1      44.684  27.884  27.528  1.00  0.00     0.074 A 
ATOM     43  C   UNL A   1      44.781  26.527  27.038  1.00  0.00     0.031 C 
ATOM     44  C   UNL A   1      38.687  28.217  29.783  1.00  0.00     0.029 A 
ATOM     45  C   UNL A   1      39.712  29.258  29.827  1.00  0.00     0.049 A 
ATOM     46  H   UNL A   1      41.672  29.126  29.129  1.00  0.00     0.167 HD
ATOM     47  C   UNL A   1      45.691  28.792  27.473  1.00  0.00     0.034 A 
ATOM     48  C   UNL A   1      39.541  30.493  30.342  1.00  0.00     0.034 A 
ATOM     49  C   UNL A   1      45.585  30.147  27.953  1.00  0.00     0.049 A 
ATOM     50  C   UNL A   1      40.675  31.484  30.265  1.00  0.00     0.074 A 
ATOM     51  C   UNL A   1      46.545  31.145  27.912  1.00  0.00     0.029 A 
ATOM     52  N   UNL A   1      44.463  30.701  28.551  1.00  0.00    -0.354 N 
ATOM     53  N   UNL A   1      41.865  31.337  29.733  1.00  0.00    -0.248 NA
ATOM     54  C   UNL A   1      40.443  32.814  30.847  1.00  0.00     0.031 C 
ATOM     55  C   UNL A   1      46.025  32.278  28.536  1.00  0.00     0.029 A 
ATOM     56  C   UNL A   1      44.715  32.019  28.900  1.00  0.00     0.049 A 
ATOM     57  H   UNL A   1      43.613  30.228  28.706  1.00  0.00     0.167 HD
ATOM     58  C   UNL A   1      42.510  32.561  29.889  1.00  0.00     0.074 A 
ATOM     59  C   UNL A   1      41.570  33.445  30.544  1.00  0.00     0.031 C 
ATOM     60  C   UNL A   1      43.770  32.912  29.527  1.00  0.00     0.034 A 
BRANCH  47  61
ATOM     61  C   UNL A   1      47.005  28.377  26.854  1.00  0.00     0.023 A 
ATOM     62  C   UNL A   1      47.122  28.259  25.456  1.00  0.00     0.031 A 
ATOM     63  C   UNL A   1      48.090  27.965  27.649  1.00  0.00     0.131 A 
ATOM     64  C   UNL A   1      48.283  27.709  24.898  1.00  0.00     0.055 A 
ATOM     65  C   UNL A   1      49.262  27.457  27.084  1.00  0.00     0.041 A 
ATOM     66  F   UNL A   1      48.030  28.057  28.987  1.00  0.00    -0.206 F 
ATOM     67  C   UNL A   1      49.356  27.315  25.704  1.00  0.00     0.022 A 
BRANCH  64  68
ATOM     68  S   UNL A   1      48.421  27.423  23.112  1.00  0.00     0.124 S 
ATOM     69  O   UNL A   1      47.291  28.196  22.598  1.00  0.00    -0.237 OA
ATOM     70  O   UNL A   1      49.741  27.980  22.816  1.00  0.00    -0.237 OA
ATOM     71  O   UNL A   1      48.300  25.979  22.975  1.00  0.00    -0.744 OA
ENDBRANCH  64  68
ENDBRANCH  47  61
BRANCH  48  72
ATOM     72  C   UNL A   1      38.209  30.868  30.903  1.00  0.00     0.023 A 
ATOM     73  C   UNL A   1      37.228  31.472  30.096  1.00  0.00     0.031 A 
ATOM     74  C   UNL A   1      37.940  30.727  32.275  1.00  0.00     0.131 A 
ATOM     75  C   UNL A   1      36.059  31.977  30.681  1.00  0.00     0.055 A 
ATOM     76  C   UNL A   1      36.741  31.163  32.840  1.00  0.00     0.041 A 
ATOM     77  F   UNL A   1      38.851  30.170  33.088  1.00  0.00    -0.206 F 
ATOM     78  C   UNL A   1      35.801  31.809  32.044  1.00  0.00     0.022 A 
BRANCH  75  79
ATOM     79  S   UNL A   1      34.905  32.995  29.718  1.00  0.00     0.124 S 
ATOM     80  O   UNL A   1      35.805  33.939  29.063  1.00  0.00    -0.237 OA
ATOM     81  O   UNL A   1      34.288  32.000  28.845  1.00  0.00    -0.237 OA
ATOM     82  O   UNL A   1      34.021  33.563  30.730  1.00  0.00    -0.744 OA
ENDBRANCH  75  79
ENDBRANCH  48  72
BRANCH  60  83
ATOM     83  C   UNL A   1      44.238  34.324  29.796  1.00  0.00     0.023 A 
ATOM     84  C   UNL A   1      44.064  35.320  28.813  1.00  0.00     0.031 A 
ATOM     85  C   UNL A   1      44.982  34.649  30.944  1.00  0.00     0.131 A 
ATOM     86  C   UNL A   1      44.655  36.578  28.981  1.00  0.00     0.055 A 
ATOM     87  C   UNL A   1      45.529  35.920  31.127  1.00  0.00     0.041 A 
ATOM     88  F   UNL A   1      45.190  33.733  31.903  1.00  0.00    -0.206 F 
ATOM     89  C   UNL A   1      45.380  36.887  30.136  1.00  0.00     0.022 A 
BRANCH  86  90
ATOM     90  S   UNL A   1      44.590  37.826  27.665  1.00  0.00     0.124 S 
ATOM     91  O   UNL A   1      43.473  37.350  26.854  1.00  0.00    -0.237 OA
ATOM     92  O   UNL A   1      44.337  39.053  28.416  1.00  0.00    -0.237 OA
ATOM     93  O   UNL A   1      45.902  37.739  27.031  1.00  0.00    -0.744 OA
ENDBRANCH  86  90
ENDBRANCH  60  83
ENDBRANCH  34  35
ENDBRANCH  26  29
ENDBRANCH  24  25
ENDBRANCH   1  24
TORSDOF 17
ENDMDL
MODEL 2
REMARK VINA RESULT:     -11.8      1.577      2.334
REMARK SMILES CC[C@H](CNC(=O)[C@H]1CSc2ccccc21)C(=O)NCCCNC(=O)c1ccc(-c2c3nc(c(-c4cc(S(=O)(=O)[O-])ccc4F)c4ccc([nH]4)c(-c4cc(S(=O)(=O)[O-])ccc4F)c4nc(c(-c5cc(S(=O)(=O)[O-])ccc5F)c5ccc2[nH]5)C=C4)C=C3)cc1
REMARK SMILES IDX 21 1 20 2 19 3 17 4 18 5 3 7 2 8 1 9 4 10 5 11 6 12 7 14
REMARK SMILES IDX 8 15 9 16 16 17 10 18 11 19 15 20 12 21 14 22 13 23 22 24
REMARK SMILES IDX 23 25 24 26 25 28 26 29 27 30 88 31 28 32 87 33 29 34 30 35
REMARK SMILES IDX 31 36 81 37 32 38 86 39 80 40 82 41 33 42 85 43 79 44 78 45
REMARK SMILES IDX 34 47 66 48 46 49 65 50 47 51 50 52 64 53 83 54 48 55 49 56
REMARK SMILES IDX 63 58 84 59 51 60 35 61 36 62 44 63 37 64 43 65 45 66 42 67
REMARK SMILES IDX 38 68 39 69 40 70 41 71 67 72 68 73 76 74 69 75 75 76 77 77
REMARK SMILES IDX 74 78 70 79 71 80 72 81 73 82 52 83 53 84 61 85 54 86 60 87
REMARK SMILES IDX 62 88 59 89 55 90 56 91 57 92 58 93
REMARK H PARENT 19 6 5 13 23 27 82 46 50 57
REMARK Flexibility Score: inf
ROOT
ATOM      1  C   UNL A   1      35.933  21.557  26.133  1.00  0.00     0.042 C 
ENDROOT
BRANCH   1   2
ATOM      2  C   UNL A   1      34.476  21.211  25.854  1.00  0.00     0.117 C 
BRANCH   2   3
ATOM      3  N   UNL A   1      33.537  21.722  26.839  1.00  0.00    -0.356 N 
ATOM      4  C   UNL A   1      32.675  22.775  26.841  1.00  0.00     0.224 C 
ATOM      5  O   UNL A   1      31.885  22.845  27.788  1.00  0.00    -0.275 OA
ATOM      6  H   UNL A   1      33.522  21.201  27.675  1.00  0.00     0.163 HD
BRANCH   4   7
ATOM      7  C   UNL A   1      32.659  23.849  25.751  1.00  0.00     0.097 C 
BRANCH   7   8
ATOM      8  C   UNL A   1      33.966  24.656  25.743  1.00  0.00     0.012 C 
ATOM      9  C   UNL A   1      34.783  24.532  24.468  1.00  0.00     0.005 C 
ENDBRANCH   7   8
BRANCH   7  10
ATOM     10  C   UNL A   1      31.342  24.630  25.837  1.00  0.00     0.129 C 
BRANCH  10  11
ATOM     11  N   UNL A   1      31.395  25.808  26.694  1.00  0.00    -0.355 N 
ATOM     12  C   UNL A   1      31.148  27.129  26.496  1.00  0.00     0.228 C 
ATOM     13  H   UNL A   1      31.671  25.602  27.617  1.00  0.00     0.163 HD
ATOM     14  O   UNL A   1      31.118  27.803  27.539  1.00  0.00    -0.274 OA
BRANCH  12  15
ATOM     15  C   UNL A   1      30.896  27.834  25.157  1.00  0.00     0.120 C 
ATOM     16  C   UNL A   1      31.403  29.287  25.291  1.00  0.00     0.093 C 
ATOM     17  C   UNL A   1      31.573  27.328  23.912  1.00  0.00    -0.021 A 
ATOM     18  S   UNL A   1      33.158  29.243  24.779  1.00  0.00    -0.125 SA
ATOM     19  C   UNL A   1      32.831  27.899  23.678  1.00  0.00     0.011 A 
ATOM     20  C   UNL A   1      31.070  26.360  23.046  1.00  0.00     0.006 A 
ATOM     21  C   UNL A   1      33.650  27.438  22.662  1.00  0.00     0.015 A 
ATOM     22  C   UNL A   1      31.882  25.910  22.002  1.00  0.00     0.000 A 
ATOM     23  C   UNL A   1      33.176  26.423  21.830  1.00  0.00     0.001 A 
ENDBRANCH  12  15
ENDBRANCH  10  11
ENDBRANCH   7  10
ENDBRANCH   4   7
ENDBRANCH   2   3
ENDBRANCH   1   2
BRANCH   1  24
ATOM     24  C   UNL A   1      36.897  21.362  24.969  1.00  0.00     0.118 C 
BRANCH  24  25
ATOM     25  N   UNL A   1      37.914  20.351  25.209  1.00  0.00    -0.352 N 
ATOM     26  C   UNL A   1      39.177  20.470  25.753  1.00  0.00     0.251 C 
ATOM     27  H   UNL A   1      37.664  19.437  24.941  1.00  0.00     0.163 HD
ATOM     28  O   UNL A   1      39.921  19.494  25.749  1.00  0.00    -0.269 OA
BRANCH  26  29
ATOM     29  C   UNL A   1      39.656  21.765  26.300  1.00  0.00     0.039 A 
ATOM     30  C   UNL A   1      39.151  22.984  25.846  1.00  0.00     0.014 A 
ATOM     31  C   UNL A   1      40.631  21.757  27.305  1.00  0.00     0.014 A 
ATOM     32  C   UNL A   1      39.743  24.179  26.255  1.00  0.00     0.010 A 
ATOM     33  C   UNL A   1      41.161  22.964  27.782  1.00  0.00     0.010 A 
ATOM     34  C   UNL A   1      40.764  24.187  27.221  1.00  0.00    -0.014 A 
BRANCH  34  35
ATOM     35  C   UNL A   1      41.384  25.481  27.628  1.00  0.00     0.031 A 
ATOM     36  C   UNL A   1      42.770  25.859  27.169  1.00  0.00     0.074 A 
ATOM     37  C   UNL A   1      40.674  26.350  28.375  1.00  0.00     0.049 A 
ATOM     38  N   UNL A   1      43.420  26.982  27.352  1.00  0.00    -0.248 NA
ATOM     39  C   UNL A   1      43.529  24.852  26.413  1.00  0.00     0.031 C 
ATOM     40  C   UNL A   1      39.334  26.094  28.902  1.00  0.00     0.029 A 
ATOM     41  N   UNL A   1      40.961  27.625  28.801  1.00  0.00    -0.354 N 
ATOM     42  C   UNL A   1      44.660  26.814  26.746  1.00  0.00     0.074 A 
ATOM     43  C   UNL A   1      44.691  25.464  26.226  1.00  0.00     0.031 C 
ATOM     44  C   UNL A   1      38.890  27.195  29.525  1.00  0.00     0.029 A 
ATOM     45  C   UNL A   1      39.931  28.220  29.495  1.00  0.00     0.049 A 
ATOM     46  H   UNL A   1      41.820  28.071  28.626  1.00  0.00     0.167 HD
ATOM     47  C   UNL A   1      45.672  27.707  26.616  1.00  0.00     0.034 A 
ATOM     48  C   UNL A   1      39.827  29.448  30.044  1.00  0.00     0.034 A 
ATOM     49  C   UNL A   1      45.630  29.055  27.126  1.00  0.00     0.049 A 
ATOM     50  C   UNL A   1      40.965  30.423  29.884  1.00  0.00     0.074 A 
ATOM     51  C   UNL A   1      46.599  30.039  27.017  1.00  0.00     0.029 A 
ATOM     52  N   UNL A   1      44.574  29.614  27.830  1.00  0.00    -0.354 N 
ATOM     53  N   UNL A   1      42.101  30.268  29.246  1.00  0.00    -0.248 NA
ATOM     54  C   UNL A   1      40.807  31.746  30.505  1.00  0.00     0.031 C 
ATOM     55  C   UNL A   1      46.155  31.169  27.702  1.00  0.00     0.029 A 
ATOM     56  C   UNL A   1      44.877  30.923  28.176  1.00  0.00     0.049 A 
ATOM     57  H   UNL A   1      43.734  29.152  28.051  1.00  0.00     0.167 HD
ATOM     58  C   UNL A   1      42.778  31.479  29.365  1.00  0.00     0.074 A 
ATOM     59  C   UNL A   1      41.913  32.366  30.114  1.00  0.00     0.031 C 
ATOM     60  C   UNL A   1      44.006  31.819  28.899  1.00  0.00     0.034 A 
BRANCH  47  61
ATOM     61  C   UNL A   1      46.920  27.284  25.878  1.00  0.00     0.023 A 
ATOM     62  C   UNL A   1      47.128  27.697  24.548  1.00  0.00     0.031 A 
ATOM     63  C   UNL A   1      47.825  26.364  26.437  1.00  0.00     0.131 A 
ATOM     64  C   UNL A   1      48.194  27.164  23.812  1.00  0.00     0.055 A 
ATOM     65  C   UNL A   1      48.909  25.868  25.712  1.00  0.00     0.041 A 
ATOM     66  F   UNL A   1      47.670  25.937  27.701  1.00  0.00    -0.206 F 
ATOM     67  C   UNL A   1      49.090  26.257  24.389  1.00  0.00     0.022 A 
BRANCH  64  68
ATOM     68  S   UNL A   1      48.421  27.574  22.059  1.00  0.00     0.124 S 
ATOM     69  O   UNL A   1      47.146  28.211  21.734  1.00  0.00    -0.237 OA
ATOM     70  O   UNL A   1      49.572  28.476  22.105  1.00  0.00    -0.237 OA
ATOM     71  O   UNL A   1      48.654  26.287  21.422  1.00  0.00    -0.744 OA
ENDBRANCH  64  68
ENDBRANCH  47  61
BRANCH  48  72
ATOM     72  C   UNL A   1      38.555  29.833  30.726  1.00  0.00     0.023 A 
ATOM     73  C   UNL A   1      37.587  30.612  30.067  1.00  0.00     0.031 A 
ATOM     74  C   UNL A   1      38.340  29.518  32.079  1.00  0.00     0.131 A 
ATOM     75  C   UNL A   1      36.490  31.111  30.781  1.00  0.00     0.055 A 
ATOM     76  C   UNL A   1      37.206  29.953  32.765  1.00  0.00     0.041 A 
ATOM     77  F   UNL A   1      39.242  28.789  32.754  1.00  0.00    -0.206 F 
ATOM     78  C   UNL A   1      36.283  30.770  32.121  1.00  0.00     0.022 A 
BRANCH  75  79
ATOM     79  S   UNL A   1      35.375  32.333  30.035  1.00  0.00     0.124 S 
ATOM     80  O   UNL A   1      36.289  33.427  29.723  1.00  0.00    -0.237 OA
ATOM     81  O   UNL A   1      34.853  31.597  28.887  1.00  0.00    -0.237 OA
ATOM     82  O   UNL A   1      34.404  32.602  31.091  1.00  0.00    -0.744 OA
ENDBRANCH  75  79
ENDBRANCH  48  72
BRANCH  60  83
ATOM     83  C   UNL A   1      44.519  33.219  29.148  1.00  0.00     0.023 A 
ATOM     84  C   UNL A   1      44.541  34.155  28.095  1.00  0.00     0.031 A 
ATOM     85  C   UNL A   1      45.119  33.579  30.367  1.00  0.00     0.131 A 
ATOM     86  C   UNL A   1      45.180  35.389  28.270  1.00  0.00     0.055 A 
ATOM     87  C   UNL A   1      45.712  34.828  30.552  1.00  0.00     0.041 A 
ATOM     88  F   UNL A   1      45.139  32.718  31.397  1.00  0.00    -0.206 F 
ATOM     89  C   UNL A   1      45.759  35.734  29.495  1.00  0.00     0.022 A 
BRANCH  86  90
ATOM     90  S   UNL A   1      45.370  36.550  26.888  1.00  0.00     0.124 S 
ATOM     91  O   UNL A   1      46.548  37.312  27.296  1.00  0.00    -0.237 OA
ATOM     92  O   UNL A   1      45.572  35.651  25.755  1.00  0.00    -0.237 OA
ATOM     93  O   UNL A   1      44.117  37.297  26.880  1.00  0.00    -0.744 OA
ENDBRANCH  86  90
ENDBRANCH  60  83
ENDBRANCH  34  35
ENDBRANCH  26  29
ENDBRANCH  24  25
ENDBRANCH   1  24
TORSDOF 17
ENDMDL
MODEL 3
REMARK VINA RESULT:     -11.8      5.063     10.042
REMARK SMILES CC[C@H](CNC(=O)[C@H]1CSc2ccccc21)C(=O)NCCCNC(=O)c1ccc(-c2c3nc(c(-c4cc(S(=O)(=O)[O-])ccc4F)c4ccc([nH]4)c(-c4cc(S(=O)(=O)[O-])ccc4F)c4nc(c(-c5cc(S(=O)(=O)[O-])ccc5F)c5ccc2[nH]5)C=C4)C=C3)cc1
REMARK SMILES IDX 21 1 20 2 19 3 17 4 18 5 3 7 2 8 1 9 4 10 5 11 6 12 7 14
REMARK SMILES IDX 8 15 9 16 16 17 10 18 11 19 15 20 12 21 14 22 13 23 22 24
REMARK SMILES IDX 23 25 24 26 25 28 26 29 27 30 88 31 28 32 87 33 29 34 30 35
REMARK SMILES IDX 31 36 81 37 32 38 86 39 80 40 82 41 33 42 85 43 79 44 78 45
REMARK SMILES IDX 34 47 66 48 46 49 65 50 47 51 50 52 64 53 83 54 48 55 49 56
REMARK SMILES IDX 63 58 84 59 51 60 35 61 36 62 44 63 37 64 43 65 45 66 42 67
REMARK SMILES IDX 38 68 39 69 40 70 41 71 67 72 68 73 76 74 69 75 75 76 77 77
REMARK SMILES IDX 74 78 70 79 71 80 72 81 73 82 52 83 53 84 61 85 54 86 60 87
REMARK SMILES IDX 62 88 59 89 55 90 56 91 57 92 58 93
REMARK H PARENT 19 6 5 13 23 27 82 46 50 57
REMARK Flexibility Score: inf
ROOT
ATOM      1  C   UNL A   1      31.288  30.370  25.211  1.00  0.00     0.042 C 
ENDROOT
BRANCH   1   2
ATOM      2  C   UNL A   1      31.911  29.186  24.483  1.00  0.00     0.117 C 
BRANCH   2   3
ATOM      3  N   UNL A   1      31.057  28.012  24.404  1.00  0.00    -0.356 N 
ATOM      4  C   UNL A   1      31.296  26.679  24.541  1.00  0.00     0.224 C 
ATOM      5  O   UNL A   1      30.309  25.938  24.577  1.00  0.00    -0.275 OA
ATOM      6  H   UNL A   1      30.114  28.224  24.213  1.00  0.00     0.163 HD
BRANCH   4   7
ATOM      7  C   UNL A   1      32.702  26.083  24.635  1.00  0.00     0.097 C 
BRANCH   7   8
ATOM      8  C   UNL A   1      32.924  25.002  23.567  1.00  0.00     0.012 C 
ATOM      9  C   UNL A   1      33.596  25.492  22.295  1.00  0.00     0.005 C 
ENDBRANCH   7   8
BRANCH   7  10
ATOM     10  C   UNL A   1      32.992  25.711  26.095  1.00  0.00     0.129 C 
BRANCH  10  11
ATOM     11  N   UNL A   1      32.168  24.625  26.613  1.00  0.00    -0.355 N 
ATOM     12  C   UNL A   1      32.443  23.413  27.161  1.00  0.00     0.228 C 
ATOM     13  H   UNL A   1      31.202  24.810  26.553  1.00  0.00     0.163 HD
ATOM     14  O   UNL A   1      31.459  22.846  27.664  1.00  0.00    -0.274 OA
BRANCH  12  15
ATOM     15  C   UNL A   1      33.807  22.715  27.227  1.00  0.00     0.120 C 
ATOM     16  C   UNL A   1      33.550  21.194  27.327  1.00  0.00     0.093 C 
ATOM     17  C   UNL A   1      34.765  22.844  26.074  1.00  0.00    -0.021 A 
ATOM     18  S   UNL A   1      33.483  20.594  25.601  1.00  0.00    -0.125 SA
ATOM     19  C   UNL A   1      34.603  21.862  25.088  1.00  0.00     0.011 A 
ATOM     20  C   UNL A   1      35.726  23.841  25.919  1.00  0.00     0.006 A 
ATOM     21  C   UNL A   1      35.300  21.922  23.894  1.00  0.00     0.015 A 
ATOM     22  C   UNL A   1      36.452  23.891  24.727  1.00  0.00     0.000 A 
ATOM     23  C   UNL A   1      36.219  22.957  23.708  1.00  0.00     0.001 A 
ENDBRANCH  12  15
ENDBRANCH  10  11
ENDBRANCH   7  10
ENDBRANCH   4   7
ENDBRANCH   2   3
ENDBRANCH   1   2
BRANCH   1  24
ATOM     24  C   UNL A   1      31.949  30.765  26.526  1.00  0.00     0.118 C 
BRANCH  24  25
ATOM     25  N   UNL A   1      31.893  32.190  26.809  1.00  0.00    -0.352 N 
ATOM     26  C   UNL A   1      32.778  32.997  27.495  1.00  0.00     0.251 C 
ATOM     27  H   UNL A   1      31.099  32.653  26.457  1.00  0.00     0.163 HD
ATOM     28  O   UNL A   1      32.468  34.163  27.722  1.00  0.00    -0.269 OA
BRANCH  26  29
ATOM     29  C   UNL A   1      34.072  32.463  27.994  1.00  0.00     0.039 A 
ATOM     30  C   UNL A   1      34.212  31.134  28.393  1.00  0.00     0.014 A 
ATOM     31  C   UNL A   1      35.180  33.318  28.052  1.00  0.00     0.014 A 
ATOM     32  C   UNL A   1      35.387  30.712  29.015  1.00  0.00     0.010 A 
ATOM     33  C   UNL A   1      36.390  32.865  28.594  1.00  0.00     0.010 A 
ATOM     34  C   UNL A   1      36.490  31.574  29.134  1.00  0.00    -0.014 A 
BRANCH  34  35
ATOM     35  C   UNL A   1      37.728  31.097  29.815  1.00  0.00     0.031 A 
ATOM     36  C   UNL A   1      38.040  31.496  31.236  1.00  0.00     0.074 A 
ATOM     37  C   UNL A   1      38.557  30.252  29.169  1.00  0.00     0.049 A 
ATOM     38  N   UNL A   1      39.021  31.097  32.007  1.00  0.00    -0.248 NA
ATOM     39  C   UNL A   1      37.143  32.471  31.875  1.00  0.00     0.031 C 
ATOM     40  C   UNL A   1      38.380  29.808  27.787  1.00  0.00     0.029 A 
ATOM     41  N   UNL A   1      39.690  29.596  29.586  1.00  0.00    -0.354 N 
ATOM     42  C   UNL A   1      38.865  31.774  33.211  1.00  0.00     0.074 A 
ATOM     43  C   UNL A   1      37.721  32.645  33.056  1.00  0.00     0.031 C 
ATOM     44  C   UNL A   1      39.330  28.910  27.489  1.00  0.00     0.029 A 
ATOM     45  C   UNL A   1      40.221  28.752  28.637  1.00  0.00     0.049 A 
ATOM     46  H   UNL A   1      40.086  29.719  30.479  1.00  0.00     0.167 HD
ATOM     47  C   UNL A   1      39.597  31.667  34.349  1.00  0.00     0.034 A 
ATOM     48  C   UNL A   1      41.295  27.937  28.679  1.00  0.00     0.034 A 
ATOM     49  C   UNL A   1      40.729  30.788  34.501  1.00  0.00     0.049 A 
ATOM     50  C   UNL A   1      42.090  27.834  29.955  1.00  0.00     0.074 A 
ATOM     51  C   UNL A   1      41.513  30.593  35.627  1.00  0.00     0.029 A 
ATOM     52  N   UNL A   1      41.238  29.956  33.515  1.00  0.00    -0.354 N 
ATOM     53  N   UNL A   1      41.884  28.430  31.106  1.00  0.00    -0.248 NA
ATOM     54  C   UNL A   1      43.256  26.938  29.948  1.00  0.00     0.031 C 
ATOM     55  C   UNL A   1      42.527  29.692  35.304  1.00  0.00     0.029 A 
ATOM     56  C   UNL A   1      42.336  29.262  34.002  1.00  0.00     0.049 A 
ATOM     57  H   UNL A   1      40.875  29.872  32.604  1.00  0.00     0.167 HD
ATOM     58  C   UNL A   1      42.875  27.961  31.965  1.00  0.00     0.074 A 
ATOM     59  C   UNL A   1      43.664  27.012  31.209  1.00  0.00     0.031 C 
ATOM     60  C   UNL A   1      43.108  28.294  33.259  1.00  0.00     0.034 A 
BRANCH  47  61
ATOM     61  C   UNL A   1      39.200  32.500  35.545  1.00  0.00     0.023 A 
ATOM     62  C   UNL A   1      39.668  33.821  35.672  1.00  0.00     0.031 A 
ATOM     63  C   UNL A   1      38.480  31.943  36.618  1.00  0.00     0.131 A 
ATOM     64  C   UNL A   1      39.442  34.528  36.860  1.00  0.00     0.055 A 
ATOM     65  C   UNL A   1      38.223  32.668  37.782  1.00  0.00     0.041 A 
ATOM     66  F   UNL A   1      38.012  30.686  36.546  1.00  0.00    -0.206 F 
ATOM     67  C   UNL A   1      38.716  33.961  37.913  1.00  0.00     0.022 A 
BRANCH  64  68
ATOM     68  S   UNL A   1      40.138  36.185  37.113  1.00  0.00     0.124 S 
ATOM     69  O   UNL A   1      41.528  35.877  37.446  1.00  0.00    -0.237 OA
ATOM     70  O   UNL A   1      39.937  36.802  35.801  1.00  0.00    -0.237 OA
ATOM     71  O   UNL A   1      39.346  36.739  38.199  1.00  0.00    -0.744 OA
ENDBRANCH  64  68
ENDBRANCH  47  61
BRANCH  48  72
ATOM     72  C   UNL A   1      41.620  27.102  27.483  1.00  0.00     0.023 A 
ATOM     73  C   UNL A   1      41.339  25.724  27.466  1.00  0.00     0.031 A 
ATOM     74  C   UNL A   1      42.312  27.649  26.390  1.00  0.00     0.131 A 
ATOM     75  C   UNL A   1      41.813  24.930  26.413  1.00  0.00     0.055 A 
ATOM     76  C   UNL A   1      42.715  26.867  25.307  1.00  0.00     0.041 A 
ATOM     77  F   UNL A   1      42.615  28.956  26.367  1.00  0.00    -0.206 F 
ATOM     78  C   UNL A   1      42.482  25.495  25.324  1.00  0.00     0.022 A 
BRANCH  75  79
ATOM     79  S   UNL A   1      41.704  23.120  26.494  1.00  0.00     0.124 S 
ATOM     80  O   UNL A   1      42.505  22.715  25.343  1.00  0.00    -0.237 OA
ATOM     81  O   UNL A   1      42.291  22.845  27.802  1.00  0.00    -0.237 OA
ATOM     82  O   UNL A   1      40.272  22.857  26.391  1.00  0.00    -0.744 OA
ENDBRANCH  75  79
ENDBRANCH  48  72
BRANCH  60  83
ATOM     83  C   UNL A   1      44.251  27.626  33.989  1.00  0.00     0.023 A 
ATOM     84  C   UNL A   1      44.001  26.509  34.811  1.00  0.00     0.031 A 
ATOM     85  C   UNL A   1      45.545  28.177  33.994  1.00  0.00     0.131 A 
ATOM     86  C   UNL A   1      45.018  26.001  35.628  1.00  0.00     0.055 A 
ATOM     87  C   UNL A   1      46.568  27.636  34.775  1.00  0.00     0.041 A 
ATOM     88  F   UNL A   1      45.832  29.251  33.242  1.00  0.00    -0.206 F 
ATOM     89  C   UNL A   1      46.302  26.553  35.609  1.00  0.00     0.022 A 
BRANCH  86  90
ATOM     90  S   UNL A   1      44.688  24.670  36.817  1.00  0.00     0.124 S 
ATOM     91  O   UNL A   1      44.576  23.506  35.942  1.00  0.00    -0.237 OA
ATOM     92  O   UNL A   1      45.880  24.705  37.659  1.00  0.00    -0.237 OA
ATOM     93  O   UNL A   1      43.448  25.080  37.469  1.00  0.00    -0.744 OA
ENDBRANCH  86  90
ENDBRANCH  60  83
ENDBRANCH  34  35
ENDBRANCH  26  29
ENDBRANCH  24  25
ENDBRANCH   1  24
TORSDOF 17
ENDMDL
