MODEL 1
REMARK VINA RESULT:     -12.9      0.000      0.000
REMARK SMILES CSc1ccc(/C=C2\C(C)=C(CC(=O)NCCCNC(=O)c3ccc(-c4c5nc(c(-c6cc(S(=O)(=O)[O-])ccc6F)c6ccc([nH]6)c(-c6cc(S(=O)(=O)[O-])ccc6F)c6nc(c(-c7cc(S(=O)(=O)[O-])ccc7F)c7ccc4[nH]7)C=C6)C=C5)cc3)c3cc(F)ccc32)cc1
REMARK SMILES IDX 17 1 16 2 15 3 13 4 14 5 12 7 11 8 7 9 8 10 9 11 91 12 10 13
REMARK SMILES IDX 85 14 90 15 86 16 89 17 87 18 88 19 6 20 3 21 4 22 93 23
REMARK SMILES IDX 5 24 92 25 2 26 1 27 18 28 19 29 20 30 21 32 22 33 23 34
REMARK SMILES IDX 84 35 24 36 83 37 25 38 26 39 27 40 77 41 28 42 82 43 76 44
REMARK SMILES IDX 78 45 29 46 81 47 75 48 74 49 30 51 62 52 42 53 61 54 43 55
REMARK SMILES IDX 46 56 60 57 79 58 44 59 45 60 59 62 80 63 47 64 31 65 32 66
REMARK SMILES IDX 40 67 33 68 39 69 41 70 38 71 34 72 35 73 36 74 37 75 63 76
REMARK SMILES IDX 64 77 72 78 65 79 71 80 73 81 70 82 66 83 67 84 68 85 69 86
REMARK SMILES IDX 48 87 49 88 57 89 50 90 56 91 58 92 55 93 51 94 52 95 53 96
REMARK SMILES IDX 54 97
REMARK H PARENT 15 6 19 31 78 50 46 61
REMARK Flexibility Score: inf
ROOT
ATOM      1  C   UNL A   1      31.924  27.709  27.036  1.00  0.00     0.042 C 
ENDROOT
BRANCH   1   2
ATOM      2  C   UNL A   1      31.770  26.550  26.060  1.00  0.00     0.117 C 
BRANCH   2   3
ATOM      3  N   UNL A   1      31.013  25.447  26.623  1.00  0.00    -0.356 N 
ATOM      4  C   UNL A   1      31.442  24.191  26.940  1.00  0.00     0.224 C 
ATOM      5  O   UNL A   1      30.620  23.362  27.332  1.00  0.00    -0.275 OA
ATOM      6  H   UNL A   1      30.063  25.630  26.802  1.00  0.00     0.163 HD
BRANCH   4   7
ATOM      7  C   UNL A   1      32.910  23.849  26.805  1.00  0.00     0.136 C 
BRANCH   7   8
ATOM      8  C   UNL A   1      33.162  23.154  25.481  1.00  0.00    -0.027 C 
ATOM      9  C   UNL A   1      34.340  25.784  23.564  1.00  0.00     0.017 C 
ATOM     10  C   UNL A   1      34.205  24.548  24.069  1.00  0.00    -0.014 C 
ATOM     11  C   UNL A   1      32.958  23.785  24.290  1.00  0.00    -0.039 C 
ATOM     12  C   UNL A   1      35.261  23.617  24.524  1.00  0.00    -0.010 A 
ATOM     13  C   UNL A   1      32.669  22.916  23.047  1.00  0.00     0.045 C 
ATOM     14  C   UNL A   1      34.564  22.693  25.333  1.00  0.00    -0.011 A 
ATOM     15  C   UNL A   1      36.433  23.250  23.883  1.00  0.00     0.012 A 
ATOM     16  C   UNL A   1      35.001  21.394  25.521  1.00  0.00     0.048 A 
ATOM     17  C   UNL A   1      36.870  21.927  24.044  1.00  0.00     0.040 A 
ATOM     18  C   UNL A   1      36.154  21.021  24.845  1.00  0.00     0.123 A 
ATOM     19  F   UNL A   1      36.529  19.733  24.864  1.00  0.00    -0.207 F 
BRANCH   9  20
ATOM     20  C   UNL A   1      33.349  26.584  22.790  1.00  0.00    -0.025 A 
ATOM     21  C   UNL A   1      30.870  27.892  22.474  1.00  0.00     0.007 A 
ATOM     22  C   UNL A   1      32.010  28.609  22.822  1.00  0.00     0.015 A 
ATOM     23  C   UNL A   1      31.034  26.573  22.048  1.00  0.00     0.015 A 
ATOM     24  C   UNL A   1      33.245  27.970  22.914  1.00  0.00     0.009 A 
ATOM     25  C   UNL A   1      32.264  25.918  22.214  1.00  0.00     0.009 A 
BRANCH  21  26
ATOM     26  S   UNL A   1      29.314  28.733  22.696  1.00  0.00    -0.130 SA
ATOM     27  C   UNL A   1      29.561  30.304  21.836  1.00  0.00     0.091 C 
ENDBRANCH  21  26
ENDBRANCH   9  20
ENDBRANCH   7   8
ENDBRANCH   4   7
ENDBRANCH   2   3
ENDBRANCH   1   2
BRANCH   1  28
ATOM     28  C   UNL A   1      33.338  28.251  27.156  1.00  0.00     0.118 C 
BRANCH  28  29
ATOM     29  N   UNL A   1      33.365  29.693  27.027  1.00  0.00    -0.352 N 
ATOM     30  C   UNL A   1      34.199  30.613  27.604  1.00  0.00     0.251 C 
ATOM     31  H   UNL A   1      32.679  30.071  26.431  1.00  0.00     0.163 HD
ATOM     32  O   UNL A   1      33.832  31.786  27.654  1.00  0.00    -0.269 OA
BRANCH  30  33
ATOM     33  C   UNL A   1      35.515  30.216  28.156  1.00  0.00     0.039 A 
ATOM     34  C   UNL A   1      36.636  30.292  27.324  1.00  0.00     0.014 A 
ATOM     35  C   UNL A   1      35.644  29.686  29.443  1.00  0.00     0.014 A 
ATOM     36  C   UNL A   1      37.876  29.850  27.787  1.00  0.00     0.010 A 
ATOM     37  C   UNL A   1      36.899  29.339  29.938  1.00  0.00     0.010 A 
ATOM     38  C   UNL A   1      38.022  29.382  29.103  1.00  0.00    -0.014 A 
BRANCH  38  39
ATOM     39  C   UNL A   1      39.334  28.883  29.586  1.00  0.00     0.031 A 
ATOM     40  C   UNL A   1      40.004  29.536  30.768  1.00  0.00     0.074 A 
ATOM     41  C   UNL A   1      39.925  27.853  28.951  1.00  0.00     0.049 A 
ATOM     42  N   UNL A   1      41.138  29.237  31.347  1.00  0.00    -0.248 NA
ATOM     43  C   UNL A   1      39.322  30.700  31.356  1.00  0.00     0.031 C 
ATOM     44  C   UNL A   1      39.395  27.180  27.763  1.00  0.00     0.029 A 
ATOM     45  N   UNL A   1      41.093  27.185  29.217  1.00  0.00    -0.354 N 
ATOM     46  C   UNL A   1      41.309  30.175  32.361  1.00  0.00     0.074 A 
ATOM     47  C   UNL A   1      40.199  31.098  32.265  1.00  0.00     0.031 C 
ATOM     48  C   UNL A   1      40.215  26.172  27.427  1.00  0.00     0.029 A 
ATOM     49  C   UNL A   1      41.345  26.148  28.349  1.00  0.00     0.049 A 
ATOM     50  H   UNL A   1      41.695  27.426  29.958  1.00  0.00     0.167 HD
ATOM     51  C   UNL A   1      42.283  30.243  33.301  1.00  0.00     0.034 A 
ATOM     52  C   UNL A   1      42.369  25.274  28.306  1.00  0.00     0.034 A 
ATOM     53  C   UNL A   1      43.375  29.304  33.385  1.00  0.00     0.049 A 
ATOM     54  C   UNL A   1      43.435  25.360  29.368  1.00  0.00     0.074 A 
ATOM     55  C   UNL A   1      44.397  29.246  34.316  1.00  0.00     0.029 A 
ATOM     56  N   UNL A   1      43.590  28.255  32.497  1.00  0.00    -0.354 N 
ATOM     57  N   UNL A   1      43.552  26.219  30.355  1.00  0.00    -0.248 NA
ATOM     58  C   UNL A   1      44.492  24.344  29.325  1.00  0.00     0.031 C 
ATOM     59  C   UNL A   1      45.261  28.204  33.957  1.00  0.00     0.029 A 
ATOM     60  C   UNL A   1      44.738  27.561  32.847  1.00  0.00     0.049 A 
ATOM     61  H   UNL A   1      43.011  28.037  31.731  1.00  0.00     0.167 HD
ATOM     62  C   UNL A   1      44.681  25.826  31.067  1.00  0.00     0.074 A 
ATOM     63  C   UNL A   1      45.194  24.642  30.407  1.00  0.00     0.031 C 
ATOM     64  C   UNL A   1      45.241  26.388  32.170  1.00  0.00     0.034 A 
BRANCH  51  65
ATOM     65  C   UNL A   1      42.215  31.382  34.293  1.00  0.00     0.023 A 
ATOM     66  C   UNL A   1      41.300  31.378  35.362  1.00  0.00     0.031 A 
ATOM     67  C   UNL A   1      43.049  32.506  34.151  1.00  0.00     0.131 A 
ATOM     68  C   UNL A   1      41.184  32.502  36.194  1.00  0.00     0.055 A 
ATOM     69  C   UNL A   1      42.987  33.586  35.035  1.00  0.00     0.041 A 
ATOM     70  F   UNL A   1      43.928  32.582  33.140  1.00  0.00    -0.206 F 
ATOM     71  C   UNL A   1      42.040  33.597  36.054  1.00  0.00     0.022 A 
BRANCH  68  72
ATOM     72  S   UNL A   1      39.799  32.581  37.364  1.00  0.00     0.124 S 
ATOM     73  O   UNL A   1      39.015  31.410  36.969  1.00  0.00    -0.237 OA
ATOM     74  O   UNL A   1      40.476  32.485  38.658  1.00  0.00    -0.237 OA
ATOM     75  O   UNL A   1      39.178  33.864  37.079  1.00  0.00    -0.744 OA
ENDBRANCH  68  72
ENDBRANCH  51  65
BRANCH  52  76
ATOM     76  C   UNL A   1      42.431  24.239  27.235  1.00  0.00     0.023 A 
ATOM     77  C   UNL A   1      41.635  23.084  27.293  1.00  0.00     0.031 A 
ATOM     78  C   UNL A   1      43.307  24.382  26.145  1.00  0.00     0.131 A 
ATOM     79  C   UNL A   1      41.765  22.095  26.305  1.00  0.00     0.055 A 
ATOM     80  C   UNL A   1      43.393  23.420  25.137  1.00  0.00     0.041 A 
ATOM     81  F   UNL A   1      44.082  25.473  26.035  1.00  0.00    -0.206 F 
ATOM     82  C   UNL A   1      42.629  22.261  25.222  1.00  0.00     0.022 A 
BRANCH  79  83
ATOM     83  S   UNL A   1      40.842  20.546  26.502  1.00  0.00     0.124 S 
ATOM     84  O   UNL A   1      40.972  20.300  27.933  1.00  0.00    -0.237 OA
ATOM     85  O   UNL A   1      39.513  20.923  26.034  1.00  0.00    -0.237 OA
ATOM     86  O   UNL A   1      41.561  19.610  25.640  1.00  0.00    -0.744 OA
ENDBRANCH  79  83
ENDBRANCH  52  76
BRANCH  64  87
ATOM     87  C   UNL A   1      46.448  25.692  32.750  1.00  0.00     0.023 A 
ATOM     88  C   UNL A   1      46.326  24.678  33.715  1.00  0.00     0.031 A 
ATOM     89  C   UNL A   1      47.741  26.071  32.348  1.00  0.00     0.131 A 
ATOM     90  C   UNL A   1      47.477  24.123  34.295  1.00  0.00     0.055 A 
ATOM     91  C   UNL A   1      48.882  25.469  32.880  1.00  0.00     0.041 A 
ATOM     92  F   UNL A   1      47.918  27.036  31.430  1.00  0.00    -0.206 F 
ATOM     93  C   UNL A   1      48.754  24.500  33.871  1.00  0.00     0.022 A 
BRANCH  90  94
ATOM     94  S   UNL A   1      47.284  22.979  35.689  1.00  0.00     0.124 S 
ATOM     95  O   UNL A   1      48.178  23.561  36.685  1.00  0.00    -0.237 OA
ATOM     96  O   UNL A   1      45.856  23.078  35.978  1.00  0.00    -0.237 OA
ATOM     97  O   UNL A   1      47.717  21.694  35.142  1.00  0.00    -0.744 OA
ENDBRANCH  90  94
ENDBRANCH  64  87
ENDBRANCH  38  39
ENDBRANCH  30  33
ENDBRANCH  28  29
ENDBRANCH   1  28
TORSDOF 16
ENDMDL
MODEL 2
REMARK VINA RESULT:     -12.9      5.576      8.218
REMARK SMILES CSc1ccc(/C=C2\C(C)=C(CC(=O)NCCCNC(=O)c3ccc(-c4c5nc(c(-c6cc(S(=O)(=O)[O-])ccc6F)c6ccc([nH]6)c(-c6cc(S(=O)(=O)[O-])ccc6F)c6nc(c(-c7cc(S(=O)(=O)[O-])ccc7F)c7ccc4[nH]7)C=C6)C=C5)cc3)c3cc(F)ccc32)cc1
REMARK SMILES IDX 17 1 16 2 15 3 13 4 14 5 12 7 11 8 7 9 8 10 9 11 91 12 10 13
REMARK SMILES IDX 85 14 90 15 86 16 89 17 87 18 88 19 6 20 3 21 4 22 93 23
REMARK SMILES IDX 5 24 92 25 2 26 1 27 18 28 19 29 20 30 21 32 22 33 23 34
REMARK SMILES IDX 84 35 24 36 83 37 25 38 26 39 27 40 77 41 28 42 82 43 76 44
REMARK SMILES IDX 78 45 29 46 81 47 75 48 74 49 30 51 62 52 42 53 61 54 43 55
REMARK SMILES IDX 46 56 60 57 79 58 44 59 45 60 59 62 80 63 47 64 31 65 32 66
REMARK SMILES IDX 40 67 33 68 39 69 41 70 38 71 34 72 35 73 36 74 37 75 63 76
REMARK SMILES IDX 64 77 72 78 65 79 71 80 73 81 70 82 66 83 67 84 68 85 69 86
REMARK SMILES IDX 48 87 49 88 57 89 50 90 56 91 58 92 55 93 51 94 52 95 53 96
REMARK SMILES IDX 54 97
REMARK H PARENT 15 6 19 31 78 50 46 61
REMARK Flexibility Score: inf
ROOT
ATOM      1  C   UNL A   1      38.574  19.760  25.123  1.00  0.00     0.042 C 
ENDROOT
BRANCH   1   2
ATOM      2  C   UNL A   1      37.502  20.817  24.894  1.00  0.00     0.117 C 
BRANCH   2   3
ATOM      3  N   UNL A   1      37.664  21.967  25.765  1.00  0.00    -0.356 N 
ATOM      4  C   UNL A   1      37.180  23.234  25.607  1.00  0.00     0.224 C 
ATOM      5  O   UNL A   1      37.501  24.100  26.421  1.00  0.00    -0.275 OA
ATOM      6  H   UNL A   1      38.194  21.813  26.581  1.00  0.00     0.163 HD
BRANCH   4   7
ATOM      7  C   UNL A   1      36.263  23.540  24.442  1.00  0.00     0.136 C 
BRANCH   7   8
ATOM      8  C   UNL A   1      34.817  23.341  24.852  1.00  0.00    -0.027 C 
ATOM      9  C   UNL A   1      33.179  25.174  22.415  1.00  0.00     0.017 C 
ATOM     10  C   UNL A   1      33.453  24.195  23.291  1.00  0.00    -0.014 C 
ATOM     11  C   UNL A   1      33.887  24.326  24.698  1.00  0.00    -0.039 C 
ATOM     12  C   UNL A   1      33.382  22.731  23.089  1.00  0.00    -0.010 A 
ATOM     13  C   UNL A   1      32.644  24.302  25.615  1.00  0.00     0.045 C 
ATOM     14  C   UNL A   1      34.170  22.212  24.141  1.00  0.00    -0.011 A 
ATOM     15  C   UNL A   1      32.362  21.977  22.533  1.00  0.00     0.012 A 
ATOM     16  C   UNL A   1      33.964  20.950  24.668  1.00  0.00     0.048 A 
ATOM     17  C   UNL A   1      32.127  20.707  23.080  1.00  0.00     0.040 A 
ATOM     18  C   UNL A   1      32.915  20.215  24.134  1.00  0.00     0.123 A 
ATOM     19  F   UNL A   1      32.573  19.056  24.716  1.00  0.00    -0.207 F 
BRANCH   9  20
ATOM     20  C   UNL A   1      32.908  26.614  22.688  1.00  0.00    -0.025 A 
ATOM     21  C   UNL A   1      32.357  28.790  24.395  1.00  0.00     0.007 A 
ATOM     22  C   UNL A   1      33.654  28.544  23.959  1.00  0.00     0.015 A 
ATOM     23  C   UNL A   1      31.317  28.095  23.777  1.00  0.00     0.015 A 
ATOM     24  C   UNL A   1      33.912  27.507  23.064  1.00  0.00     0.009 A 
ATOM     25  C   UNL A   1      31.589  27.005  22.935  1.00  0.00     0.009 A 
BRANCH  21  26
ATOM     26  S   UNL A   1      32.190  29.918  25.766  1.00  0.00    -0.130 SA
ATOM     27  C   UNL A   1      32.787  28.955  27.175  1.00  0.00     0.091 C 
ENDBRANCH  21  26
ENDBRANCH   9  20
ENDBRANCH   7   8
ENDBRANCH   4   7
ENDBRANCH   2   3
ENDBRANCH   1   2
BRANCH   1  28
ATOM     28  C   UNL A   1      39.583  20.107  26.205  1.00  0.00     0.118 C 
BRANCH  28  29
ATOM     29  N   UNL A   1      40.703  19.188  26.200  1.00  0.00    -0.352 N 
ATOM     30  C   UNL A   1      42.039  19.432  26.032  1.00  0.00     0.251 C 
ATOM     31  H   UNL A   1      40.466  18.244  26.340  1.00  0.00     0.163 HD
ATOM     32  O   UNL A   1      42.768  18.497  25.701  1.00  0.00    -0.269 OA
BRANCH  30  33
ATOM     33  C   UNL A   1      42.606  20.784  26.243  1.00  0.00     0.039 A 
ATOM     34  C   UNL A   1      42.696  21.270  27.551  1.00  0.00     0.014 A 
ATOM     35  C   UNL A   1      42.961  21.609  25.172  1.00  0.00     0.014 A 
ATOM     36  C   UNL A   1      43.151  22.570  27.778  1.00  0.00     0.010 A 
ATOM     37  C   UNL A   1      43.508  22.869  25.406  1.00  0.00     0.010 A 
ATOM     38  C   UNL A   1      43.573  23.377  26.710  1.00  0.00    -0.014 A 
BRANCH  38  39
ATOM     39  C   UNL A   1      44.028  24.770  26.948  1.00  0.00     0.031 A 
ATOM     40  C   UNL A   1      43.078  25.789  27.523  1.00  0.00     0.074 A 
ATOM     41  C   UNL A   1      45.291  25.116  26.635  1.00  0.00     0.049 A 
ATOM     42  N   UNL A   1      43.290  27.046  27.817  1.00  0.00    -0.248 NA
ATOM     43  C   UNL A   1      41.698  25.343  27.769  1.00  0.00     0.031 C 
ATOM     44  C   UNL A   1      46.281  24.226  26.022  1.00  0.00     0.029 A 
ATOM     45  N   UNL A   1      45.963  26.301  26.793  1.00  0.00    -0.354 N 
ATOM     46  C   UNL A   1      42.073  27.541  28.276  1.00  0.00     0.074 A 
ATOM     47  C   UNL A   1      41.111  26.469  28.146  1.00  0.00     0.031 C 
ATOM     48  C   UNL A   1      47.443  24.886  25.893  1.00  0.00     0.029 A 
ATOM     49  C   UNL A   1      47.274  26.252  26.377  1.00  0.00     0.049 A 
ATOM     50  H   UNL A   1      45.547  27.111  27.167  1.00  0.00     0.167 HD
ATOM     51  C   UNL A   1      41.791  28.766  28.784  1.00  0.00     0.034 A 
ATOM     52  C   UNL A   1      48.230  27.200  26.391  1.00  0.00     0.034 A 
ATOM     53  C   UNL A   1      42.770  29.818  28.914  1.00  0.00     0.049 A 
ATOM     54  C   UNL A   1      47.900  28.550  26.972  1.00  0.00     0.074 A 
ATOM     55  C   UNL A   1      42.613  31.084  29.451  1.00  0.00     0.029 A 
ATOM     56  N   UNL A   1      44.093  29.727  28.498  1.00  0.00    -0.354 N 
ATOM     57  N   UNL A   1      46.758  28.985  27.454  1.00  0.00    -0.248 NA
ATOM     58  C   UNL A   1      48.992  29.528  27.033  1.00  0.00     0.031 C 
ATOM     59  C   UNL A   1      43.821  31.777  29.303  1.00  0.00     0.029 A 
ATOM     60  C   UNL A   1      44.756  30.920  28.746  1.00  0.00     0.049 A 
ATOM     61  H   UNL A   1      44.501  28.932  28.085  1.00  0.00     0.167 HD
ATOM     62  C   UNL A   1      47.005  30.279  27.904  1.00  0.00     0.074 A 
ATOM     63  C   UNL A   1      48.408  30.542  27.652  1.00  0.00     0.031 C 
ATOM     64  C   UNL A   1      46.153  31.168  28.477  1.00  0.00     0.034 A 
BRANCH  51  65
ATOM     65  C   UNL A   1      40.366  29.031  29.214  1.00  0.00     0.023 A 
ATOM     66  C   UNL A   1      39.974  28.955  30.564  1.00  0.00     0.031 A 
ATOM     67  C   UNL A   1      39.375  29.327  28.261  1.00  0.00     0.131 A 
ATOM     68  C   UNL A   1      38.622  29.091  30.912  1.00  0.00     0.055 A 
ATOM     69  C   UNL A   1      38.044  29.547  28.625  1.00  0.00     0.041 A 
ATOM     70  F   UNL A   1      39.678  29.392  26.955  1.00  0.00    -0.206 F 
ATOM     71  C   UNL A   1      37.657  29.413  29.956  1.00  0.00     0.022 A 
BRANCH  68  72
ATOM     72  S   UNL A   1      38.115  28.693  32.609  1.00  0.00     0.124 S 
ATOM     73  O   UNL A   1      36.759  29.245  32.646  1.00  0.00    -0.237 OA
ATOM     74  O   UNL A   1      38.208  27.234  32.629  1.00  0.00    -0.237 OA
ATOM     75  O   UNL A   1      39.087  29.393  33.433  1.00  0.00    -0.744 OA
ENDBRANCH  68  72
ENDBRANCH  51  65
BRANCH  52  76
ATOM     76  C   UNL A   1      49.589  26.904  25.853  1.00  0.00     0.023 A 
ATOM     77  C   UNL A   1      49.936  27.235  24.533  1.00  0.00     0.031 A 
ATOM     78  C   UNL A   1      50.555  26.263  26.648  1.00  0.00     0.131 A 
ATOM     79  C   UNL A   1      51.200  26.882  24.033  1.00  0.00     0.055 A 
ATOM     80  C   UNL A   1      51.829  25.963  26.163  1.00  0.00     0.041 A 
ATOM     81  F   UNL A   1      50.278  25.935  27.920  1.00  0.00    -0.206 F 
ATOM     82  C   UNL A   1      52.153  26.260  24.843  1.00  0.00     0.022 A 
BRANCH  79  83
ATOM     83  S   UNL A   1      51.554  27.177  22.279  1.00  0.00     0.124 S 
ATOM     84  O   UNL A   1      50.281  26.831  21.656  1.00  0.00    -0.237 OA
ATOM     85  O   UNL A   1      51.905  28.593  22.275  1.00  0.00    -0.237 OA
ATOM     86  O   UNL A   1      52.657  26.262  21.995  1.00  0.00    -0.744 OA
ENDBRANCH  79  83
ENDBRANCH  52  76
BRANCH  64  87
ATOM     87  C   UNL A   1      46.739  32.491  28.909  1.00  0.00     0.023 A 
ATOM     88  C   UNL A   1      46.755  33.608  28.057  1.00  0.00     0.031 A 
ATOM     89  C   UNL A   1      47.310  32.625  30.187  1.00  0.00     0.131 A 
ATOM     90  C   UNL A   1      47.391  34.790  28.466  1.00  0.00     0.055 A 
ATOM     91  C   UNL A   1      47.884  33.823  30.613  1.00  0.00     0.041 A 
ATOM     92  F   UNL A   1      47.324  31.589  31.042  1.00  0.00    -0.206 F 
ATOM     93  C   UNL A   1      47.941  34.910  29.745  1.00  0.00     0.022 A 
BRANCH  90  94
ATOM     94  S   UNL A   1      47.588  36.133  27.264  1.00  0.00     0.124 S 
ATOM     95  O   UNL A   1      48.303  37.137  28.045  1.00  0.00    -0.237 OA
ATOM     96  O   UNL A   1      48.352  35.489  26.200  1.00  0.00    -0.237 OA
ATOM     97  O   UNL A   1      46.213  36.485  26.913  1.00  0.00    -0.744 OA
ENDBRANCH  90  94
ENDBRANCH  64  87
ENDBRANCH  38  39
ENDBRANCH  30  33
ENDBRANCH  28  29
ENDBRANCH   1  28
TORSDOF 16
ENDMDL
MODEL 3
REMARK VINA RESULT:     -12.8      3.474      9.040
REMARK SMILES CSc1ccc(/C=C2\C(C)=C(CC(=O)NCCCNC(=O)c3ccc(-c4c5nc(c(-c6cc(S(=O)(=O)[O-])ccc6F)c6ccc([nH]6)c(-c6cc(S(=O)(=O)[O-])ccc6F)c6nc(c(-c7cc(S(=O)(=O)[O-])ccc7F)c7ccc4[nH]7)C=C6)C=C5)cc3)c3cc(F)ccc32)cc1
REMARK SMILES IDX 17 1 16 2 15 3 13 4 14 5 12 7 11 8 7 9 8 10 9 11 91 12 10 13
REMARK SMILES IDX 85 14 90 15 86 16 89 17 87 18 88 19 6 20 3 21 4 22 93 23
REMARK SMILES IDX 5 24 92 25 2 26 1 27 18 28 19 29 20 30 21 32 22 33 23 34
REMARK SMILES IDX 84 35 24 36 83 37 25 38 26 39 27 40 77 41 28 42 82 43 76 44
REMARK SMILES IDX 78 45 29 46 81 47 75 48 74 49 30 51 62 52 42 53 61 54 43 55
REMARK SMILES IDX 46 56 60 57 79 58 44 59 45 60 59 62 80 63 47 64 31 65 32 66
REMARK SMILES IDX 40 67 33 68 39 69 41 70 38 71 34 72 35 73 36 74 37 75 63 76
REMARK SMILES IDX 64 77 72 78 65 79 71 80 73 81 70 82 66 83 67 84 68 85 69 86
REMARK SMILES IDX 48 87 49 88 57 89 50 90 56 91 58 92 55 93 51 94 52 95 53 96
REMARK SMILES IDX 54 97
REMARK H PARENT 15 6 19 31 78 50 46 61
REMARK Flexibility Score: inf
ROOT
ATOM      1  C   UNL A   1      31.688  32.160  26.896  1.00  0.00     0.042 C 
ENDROOT
BRANCH   1   2
ATOM      2  C   UNL A   1      31.778  30.645  26.767  1.00  0.00     0.117 C 
BRANCH   2   3
ATOM      3  N   UNL A   1      33.150  30.171  26.763  1.00  0.00    -0.356 N 
ATOM      4  C   UNL A   1      33.611  28.889  26.851  1.00  0.00     0.224 C 
ATOM      5  O   UNL A   1      34.825  28.696  26.918  1.00  0.00    -0.275 OA
ATOM      6  H   UNL A   1      33.842  30.867  26.685  1.00  0.00     0.163 HD
BRANCH   4   7
ATOM      7  C   UNL A   1      32.623  27.743  26.863  1.00  0.00     0.136 C 
BRANCH   7   8
ATOM      8  C   UNL A   1      32.419  27.218  25.456  1.00  0.00    -0.027 C 
ATOM      9  C   UNL A   1      30.945  24.152  26.099  1.00  0.00     0.017 C 
ATOM     10  C   UNL A   1      31.214  25.327  25.510  1.00  0.00    -0.014 C 
ATOM     11  C   UNL A   1      32.536  25.891  25.162  1.00  0.00    -0.039 C 
ATOM     12  C   UNL A   1      30.266  26.362  25.041  1.00  0.00    -0.010 A 
ATOM     13  C   UNL A   1      32.888  25.497  23.711  1.00  0.00     0.045 C 
ATOM     14  C   UNL A   1      31.068  27.518  24.922  1.00  0.00    -0.011 A 
ATOM     15  C   UNL A   1      29.125  26.212  24.270  1.00  0.00     0.012 A 
ATOM     16  C   UNL A   1      30.768  28.541  24.041  1.00  0.00     0.048 A 
ATOM     17  C   UNL A   1      28.828  27.230  23.353  1.00  0.00     0.040 A 
ATOM     18  C   UNL A   1      29.646  28.367  23.243  1.00  0.00     0.123 A 
ATOM     19  F   UNL A   1      29.404  29.251  22.263  1.00  0.00    -0.207 F 
BRANCH   9  20
ATOM     20  C   UNL A   1      31.836  22.968  26.257  1.00  0.00    -0.025 A 
ATOM     21  C   UNL A   1      34.167  21.481  25.696  1.00  0.00     0.007 A 
ATOM     22  C   UNL A   1      34.089  22.272  26.838  1.00  0.00     0.015 A 
ATOM     23  C   UNL A   1      32.991  21.250  24.980  1.00  0.00     0.015 A 
ATOM     24  C   UNL A   1      32.913  22.953  27.144  1.00  0.00     0.009 A 
ATOM     25  C   UNL A   1      31.833  21.997  25.252  1.00  0.00     0.009 A 
BRANCH  21  26
ATOM     26  S   UNL A   1      35.796  20.920  25.237  1.00  0.00    -0.130 SA
ATOM     27  C   UNL A   1      36.858  22.311  25.688  1.00  0.00     0.091 C 
ENDBRANCH  21  26
ENDBRANCH   9  20
ENDBRANCH   7   8
ENDBRANCH   4   7
ENDBRANCH   2   3
ENDBRANCH   1   2
BRANCH   1  28
ATOM     28  C   UNL A   1      33.014  32.852  27.161  1.00  0.00     0.118 C 
BRANCH  28  29
ATOM     29  N   UNL A   1      32.820  34.189  27.683  1.00  0.00    -0.352 N 
ATOM     30  C   UNL A   1      33.229  34.739  28.867  1.00  0.00     0.251 C 
ATOM     31  H   UNL A   1      32.317  34.796  27.094  1.00  0.00     0.163 HD
ATOM     32  O   UNL A   1      32.660  35.753  29.271  1.00  0.00    -0.269 OA
BRANCH  30  33
ATOM     33  C   UNL A   1      34.333  34.138  29.653  1.00  0.00     0.039 A 
ATOM     34  C   UNL A   1      35.648  34.415  29.270  1.00  0.00     0.014 A 
ATOM     35  C   UNL A   1      34.090  33.240  30.696  1.00  0.00     0.014 A 
ATOM     36  C   UNL A   1      36.709  33.801  29.938  1.00  0.00     0.010 A 
ATOM     37  C   UNL A   1      35.149  32.706  31.426  1.00  0.00     0.010 A 
ATOM     38  C   UNL A   1      36.470  32.952  31.031  1.00  0.00    -0.014 A 
BRANCH  38  39
ATOM     39  C   UNL A   1      37.596  32.275  31.722  1.00  0.00     0.031 A 
ATOM     40  C   UNL A   1      38.348  31.164  31.037  1.00  0.00     0.074 A 
ATOM     41  C   UNL A   1      37.930  32.656  32.971  1.00  0.00     0.049 A 
ATOM     42  N   UNL A   1      39.366  30.464  31.468  1.00  0.00    -0.248 NA
ATOM     43  C   UNL A   1      37.872  30.765  29.704  1.00  0.00     0.031 C 
ATOM     44  C   UNL A   1      37.236  33.683  33.752  1.00  0.00     0.029 A 
ATOM     45  N   UNL A   1      38.937  32.233  33.799  1.00  0.00    -0.354 N 
ATOM     46  C   UNL A   1      39.647  29.541  30.464  1.00  0.00     0.074 A 
ATOM     47  C   UNL A   1      38.643  29.721  29.440  1.00  0.00     0.031 C 
ATOM     48  C   UNL A   1      37.863  33.836  34.929  1.00  0.00     0.029 A 
ATOM     49  C   UNL A   1      38.977  32.897  35.004  1.00  0.00     0.049 A 
ATOM     50  H   UNL A   1      39.571  31.520  33.557  1.00  0.00     0.167 HD
ATOM     51  C   UNL A   1      40.665  28.648  30.392  1.00  0.00     0.034 A 
ATOM     52  C   UNL A   1      39.819  32.766  36.046  1.00  0.00     0.034 A 
ATOM     53  C   UNL A   1      41.663  28.493  31.422  1.00  0.00     0.049 A 
ATOM     54  C   UNL A   1      40.951  31.777  35.939  1.00  0.00     0.074 A 
ATOM     55  C   UNL A   1      42.762  27.653  31.441  1.00  0.00     0.029 A 
ATOM     56  N   UNL A   1      41.681  29.195  32.622  1.00  0.00    -0.354 N 
ATOM     57  N   UNL A   1      41.236  30.950  34.958  1.00  0.00    -0.248 NA
ATOM     58  C   UNL A   1      41.886  31.719  37.068  1.00  0.00     0.031 C 
ATOM     59  C   UNL A   1      43.407  27.802  32.675  1.00  0.00     0.029 A 
ATOM     60  C   UNL A   1      42.758  28.791  33.396  1.00  0.00     0.049 A 
ATOM     61  H   UNL A   1      41.023  29.880  32.884  1.00  0.00     0.167 HD
ATOM     62  C   UNL A   1      42.404  30.296  35.342  1.00  0.00     0.074 A 
ATOM     63  C   UNL A   1      42.776  30.841  36.632  1.00  0.00     0.031 C 
ATOM     64  C   UNL A   1      43.108  29.337  34.687  1.00  0.00     0.034 A 
BRANCH  51  65
ATOM     65  C   UNL A   1      40.727  27.763  29.167  1.00  0.00     0.023 A 
ATOM     66  C   UNL A   1      41.661  27.989  28.138  1.00  0.00     0.031 A 
ATOM     67  C   UNL A   1      39.821  26.700  29.005  1.00  0.00     0.131 A 
ATOM     68  C   UNL A   1      41.614  27.221  26.965  1.00  0.00     0.055 A 
ATOM     69  C   UNL A   1      39.837  25.884  27.871  1.00  0.00     0.041 A 
ATOM     70  F   UNL A   1      38.892  26.445  29.939  1.00  0.00    -0.206 F 
ATOM     71  C   UNL A   1      40.726  26.152  26.834  1.00  0.00     0.022 A 
BRANCH  68  72
ATOM     72  S   UNL A   1      42.628  27.732  25.548  1.00  0.00     0.124 S 
ATOM     73  O   UNL A   1      41.878  28.889  25.055  1.00  0.00    -0.237 OA
ATOM     74  O   UNL A   1      43.915  28.031  26.175  1.00  0.00    -0.237 OA
ATOM     75  O   UNL A   1      42.613  26.570  24.676  1.00  0.00    -0.744 OA
ENDBRANCH  68  72
ENDBRANCH  51  65
BRANCH  52  76
ATOM     76  C   UNL A   1      39.637  33.598  37.270  1.00  0.00     0.023 A 
ATOM     77  C   UNL A   1      39.115  33.048  38.451  1.00  0.00     0.031 A 
ATOM     78  C   UNL A   1      39.961  34.966  37.266  1.00  0.00     0.131 A 
ATOM     79  C   UNL A   1      38.889  33.872  39.566  1.00  0.00     0.055 A 
ATOM     80  C   UNL A   1      39.785  35.769  38.394  1.00  0.00     0.041 A 
ATOM     81  F   UNL A   1      40.473  35.539  36.165  1.00  0.00    -0.206 F 
ATOM     82  C   UNL A   1      39.233  35.225  39.549  1.00  0.00     0.022 A 
BRANCH  79  83
ATOM     83  S   UNL A   1      38.064  33.163  41.017  1.00  0.00     0.124 S 
ATOM     84  O   UNL A   1      38.452  31.760  40.925  1.00  0.00    -0.237 OA
ATOM     85  O   UNL A   1      38.662  33.924  42.108  1.00  0.00    -0.237 OA
ATOM     86  O   UNL A   1      36.649  33.436  40.771  1.00  0.00    -0.744 OA
ENDBRANCH  79  83
ENDBRANCH  52  76
BRANCH  64  87
ATOM     87  C   UNL A   1      44.378  28.855  35.345  1.00  0.00     0.023 A 
ATOM     88  C   UNL A   1      44.366  27.862  36.339  1.00  0.00     0.031 A 
ATOM     89  C   UNL A   1      45.615  29.419  34.986  1.00  0.00     0.131 A 
ATOM     90  C   UNL A   1      45.559  27.510  36.988  1.00  0.00     0.055 A 
ATOM     91  C   UNL A   1      46.808  29.017  35.589  1.00  0.00     0.041 A 
ATOM     92  F   UNL A   1      45.685  30.372  34.043  1.00  0.00    -0.206 F 
ATOM     93  C   UNL A   1      46.782  28.069  36.608  1.00  0.00     0.022 A 
BRANCH  90  94
ATOM     94  S   UNL A   1      45.476  26.390  38.412  1.00  0.00     0.124 S 
ATOM     95  O   UNL A   1      45.689  25.088  37.788  1.00  0.00    -0.237 OA
ATOM     96  O   UNL A   1      46.564  26.878  39.255  1.00  0.00    -0.237 OA
ATOM     97  O   UNL A   1      44.133  26.611  38.945  1.00  0.00    -0.744 OA
ENDBRANCH  90  94
ENDBRANCH  64  87
ENDBRANCH  38  39
ENDBRANCH  30  33
ENDBRANCH  28  29
ENDBRANCH   1  28
TORSDOF 16
ENDMDL
