MODEL 1
REMARK VINA RESULT:     -12.7      0.000      0.000
REMARK SMILES Cc1cc(C)c(S(=O)(=O)Nc2ccc(N3CCN(c4ccccn4)CC3)c(C(=O)NCCCNC(=O)c3ccc(-c4c5nc(c(-c6cc(S(=O)(=O)[O-])ccc6F)c6ccc([nH]6)c(-c6cc(S(=O)(=O)[O-])ccc6F)c6nc(c(-c7cc(S(=O)(=O)[O-])ccc7F)c7ccc4[nH]7)C=C6)C=C5)cc3)c2)c(C)c1
REMARK SMILES IDX 32 1 31 2 30 3 28 4 29 5 27 7 11 8 12 9 100 10 13 11 14 12
REMARK SMILES IDX 10 13 7 15 8 16 9 17 6 18 1 19 2 20 3 21 103 22 4 23 101 24
REMARK SMILES IDX 5 25 102 26 15 27 16 28 26 29 17 30 25 31 18 32 19 33 20 34
REMARK SMILES IDX 24 35 21 36 23 37 22 38 33 39 34 40 35 41 36 43 37 44 38 45
REMARK SMILES IDX 99 46 39 47 98 48 40 49 41 50 42 51 92 52 43 53 97 54 91 55
REMARK SMILES IDX 93 56 44 57 96 58 90 59 89 60 45 62 77 63 57 64 76 65 58 66
REMARK SMILES IDX 61 67 75 68 94 69 59 70 60 71 74 73 95 74 62 75 46 76 47 77
REMARK SMILES IDX 55 78 48 79 54 80 56 81 53 82 49 83 50 84 51 85 52 86 78 87
REMARK SMILES IDX 79 88 87 89 80 90 86 91 88 92 85 93 81 94 82 95 83 96 84 97
REMARK SMILES IDX 63 98 64 99 72 100 65 101 71 102 73 103 70 104 66 105 67 106
REMARK SMILES IDX 68 107 69 108
REMARK H PARENT 30 6 10 14 34 42 93 61 61 72
REMARK Flexibility Score: inf
ROOT
ATOM      1  C   UNL A   1      32.023  28.885  27.189  1.00  0.00     0.042 C 
ENDROOT
BRANCH   1   2
ATOM      2  C   UNL A   1      32.024  27.426  27.632  1.00  0.00     0.118 C 
BRANCH   2   3
ATOM      3  N   UNL A   1      30.959  26.693  26.981  1.00  0.00    -0.352 N 
ATOM      4  C   UNL A   1      30.876  26.033  25.782  1.00  0.00     0.253 C 
ATOM      5  O   UNL A   1      29.737  25.726  25.434  1.00  0.00    -0.269 OA
ATOM      6  H   UNL A   1      30.125  26.665  27.504  1.00  0.00     0.163 HD
BRANCH   4   7
ATOM      7  C   UNL A   1      32.073  25.684  24.943  1.00  0.00     0.065 A 
ATOM      8  C   UNL A   1      33.709  24.049  24.211  1.00  0.00     0.050 A 
ATOM      9  C   UNL A   1      34.264  24.976  23.337  1.00  0.00     0.029 A 
ATOM     10  C   UNL A   1      32.748  24.465  25.126  1.00  0.00     0.042 A 
ATOM     11  C   UNL A   1      33.659  26.217  23.184  1.00  0.00     0.029 A 
ATOM     12  C   UNL A   1      32.487  26.543  23.889  1.00  0.00     0.050 A 
BRANCH   8  13
ATOM     13  N   UNL A   1      34.068  22.694  23.993  1.00  0.00    -0.280 N 
ATOM     14  H   UNL A   1      33.571  22.217  23.292  1.00  0.00     0.180 HD
BRANCH  13  15
ATOM     15  S   UNL A   1      35.244  21.821  24.798  1.00  0.00     0.262 S 
ATOM     16  O   UNL A   1      35.279  22.347  26.153  1.00  0.00    -0.201 OA
ATOM     17  O   UNL A   1      36.403  21.890  23.937  1.00  0.00    -0.201 OA
BRANCH  15  18
ATOM     18  C   UNL A   1      34.842  20.064  24.949  1.00  0.00     0.093 A 
ATOM     19  C   UNL A   1      33.418  16.048  24.145  1.00  0.00     0.044 C 
ATOM     20  C   UNL A   1      33.913  17.423  24.483  1.00  0.00    -0.051 A 
ATOM     21  C   UNL A   1      33.022  18.427  24.844  1.00  0.00     0.008 A 
ATOM     22  C   UNL A   1      35.277  17.710  24.517  1.00  0.00     0.008 A 
ATOM     23  C   UNL A   1      33.462  19.746  25.081  1.00  0.00    -0.030 A 
ATOM     24  C   UNL A   1      35.765  19.009  24.798  1.00  0.00    -0.030 A 
ATOM     25  C   UNL A   1      32.403  20.707  25.564  1.00  0.00     0.046 C 
ATOM     26  C   UNL A   1      37.251  19.106  24.950  1.00  0.00     0.046 C 
ENDBRANCH  15  18
ENDBRANCH  13  15
ENDBRANCH   8  13
BRANCH  12  27
ATOM     27  N   UNL A   1      31.717  27.597  23.422  1.00  0.00    -0.367 N 
ATOM     28  C   UNL A   1      30.733  27.363  22.347  1.00  0.00     0.138 C 
ATOM     29  C   UNL A   1      32.241  28.971  23.487  1.00  0.00     0.138 C 
ATOM     30  C   UNL A   1      29.580  28.393  22.407  1.00  0.00     0.139 C 
ATOM     31  C   UNL A   1      31.060  29.956  23.623  1.00  0.00     0.139 C 
ATOM     32  N   UNL A   1      30.126  29.756  22.493  1.00  0.00    -0.353 N 
BRANCH  32  33
ATOM     33  C   UNL A   1      29.309  30.808  22.118  1.00  0.00     0.128 A 
ATOM     34  C   UNL A   1      29.124  31.882  22.990  1.00  0.00     0.047 A 
ATOM     35  N   UNL A   1      28.754  30.815  20.886  1.00  0.00    -0.239 NA
ATOM     36  C   UNL A   1      28.340  32.967  22.611  1.00  0.00     0.005 A 
ATOM     37  C   UNL A   1      27.974  31.866  20.544  1.00  0.00     0.113 A 
ATOM     38  C   UNL A   1      27.741  32.957  21.362  1.00  0.00     0.020 A 
ENDBRANCH  32  33
ENDBRANCH  12  27
ENDBRANCH   4   7
ENDBRANCH   2   3
ENDBRANCH   1   2
BRANCH   1  39
ATOM     39  C   UNL A   1      33.427  29.423  26.953  1.00  0.00     0.118 C 
BRANCH  39  40
ATOM     40  N   UNL A   1      33.481  30.867  27.121  1.00  0.00    -0.352 N 
ATOM     41  C   UNL A   1      34.372  31.621  27.840  1.00  0.00     0.251 C 
ATOM     42  H   UNL A   1      32.779  31.374  26.653  1.00  0.00     0.163 HD
ATOM     43  O   UNL A   1      34.116  32.801  28.063  1.00  0.00    -0.269 OA
BRANCH  41  44
ATOM     44  C   UNL A   1      35.619  31.011  28.352  1.00  0.00     0.039 A 
ATOM     45  C   UNL A   1      35.526  29.933  29.237  1.00  0.00     0.014 A 
ATOM     46  C   UNL A   1      36.873  31.515  27.993  1.00  0.00     0.014 A 
ATOM     47  C   UNL A   1      36.690  29.345  29.735  1.00  0.00     0.010 A 
ATOM     48  C   UNL A   1      38.030  30.877  28.427  1.00  0.00     0.010 A 
ATOM     49  C   UNL A   1      37.951  29.801  29.323  1.00  0.00    -0.014 A 
BRANCH  49  50
ATOM     50  C   UNL A   1      39.198  29.201  29.861  1.00  0.00     0.031 A 
ATOM     51  C   UNL A   1      39.828  29.775  31.102  1.00  0.00     0.074 A 
ATOM     52  C   UNL A   1      39.785  28.179  29.210  1.00  0.00     0.049 A 
ATOM     53  N   UNL A   1      40.941  29.439  31.700  1.00  0.00    -0.248 NA
ATOM     54  C   UNL A   1      39.129  30.909  31.729  1.00  0.00     0.031 C 
ATOM     55  C   UNL A   1      39.296  27.576  27.968  1.00  0.00     0.029 A 
ATOM     56  N   UNL A   1      40.923  27.470  29.497  1.00  0.00    -0.354 N 
ATOM     57  C   UNL A   1      41.090  30.332  32.757  1.00  0.00     0.074 A 
ATOM     58  C   UNL A   1      39.985  31.263  32.675  1.00  0.00     0.031 C 
ATOM     59  C   UNL A   1      40.117  26.574  27.614  1.00  0.00     0.029 A 
ATOM     60  C   UNL A   1      41.205  26.483  28.582  1.00  0.00     0.049 A 
ATOM     61  H   UNL A   1      41.485  27.651  30.285  1.00  0.00     0.167 HD
ATOM     62  C   UNL A   1      42.045  30.359  33.720  1.00  0.00     0.034 A 
ATOM     63  C   UNL A   1      42.227  25.607  28.531  1.00  0.00     0.034 A 
ATOM     64  C   UNL A   1      43.123  29.402  33.800  1.00  0.00     0.049 A 
ATOM     65  C   UNL A   1      43.257  25.630  29.629  1.00  0.00     0.074 A 
ATOM     66  C   UNL A   1      44.109  29.289  34.765  1.00  0.00     0.029 A 
ATOM     67  N   UNL A   1      43.355  28.390  32.876  1.00  0.00    -0.354 N 
ATOM     68  N   UNL A   1      43.354  26.445  30.654  1.00  0.00    -0.248 NA
ATOM     69  C   UNL A   1      44.305  24.603  29.573  1.00  0.00     0.031 C 
ATOM     70  C   UNL A   1      44.966  28.245  34.396  1.00  0.00     0.029 A 
ATOM     71  C   UNL A   1      44.479  27.663  33.237  1.00  0.00     0.049 A 
ATOM     72  H   UNL A   1      42.802  28.216  32.080  1.00  0.00     0.167 HD
ATOM     73  C   UNL A   1      44.460  26.011  31.380  1.00  0.00     0.074 A 
ATOM     74  C   UNL A   1      44.985  24.854  30.683  1.00  0.00     0.031 C 
ATOM     75  C   UNL A   1      44.993  26.520  32.520  1.00  0.00     0.034 A 
BRANCH  62  76
ATOM     76  C   UNL A   1      41.969  31.472  34.739  1.00  0.00     0.023 A 
ATOM     77  C   UNL A   1      42.700  32.665  34.588  1.00  0.00     0.031 A 
ATOM     78  C   UNL A   1      41.197  31.320  35.904  1.00  0.00     0.131 A 
ATOM     79  C   UNL A   1      42.716  33.614  35.622  1.00  0.00     0.055 A 
ATOM     80  C   UNL A   1      41.148  32.308  36.891  1.00  0.00     0.041 A 
ATOM     81  F   UNL A   1      40.492  30.197  36.116  1.00  0.00    -0.206 F 
ATOM     82  C   UNL A   1      41.926  33.456  36.761  1.00  0.00     0.022 A 
BRANCH  79  83
ATOM     83  S   UNL A   1      43.906  34.979  35.523  1.00  0.00     0.124 S 
ATOM     84  O   UNL A   1      43.422  35.707  34.353  1.00  0.00    -0.237 OA
ATOM     85  O   UNL A   1      43.731  35.645  36.808  1.00  0.00    -0.237 OA
ATOM     86  O   UNL A   1      45.189  34.303  35.340  1.00  0.00    -0.744 OA
ENDBRANCH  79  83
ENDBRANCH  62  76
BRANCH  63  87
ATOM     87  C   UNL A   1      42.324  24.631  27.410  1.00  0.00     0.023 A 
ATOM     88  C   UNL A   1      41.563  23.451  27.410  1.00  0.00     0.031 A 
ATOM     89  C   UNL A   1      43.198  24.855  26.332  1.00  0.00     0.131 A 
ATOM     90  C   UNL A   1      41.721  22.518  26.374  1.00  0.00     0.055 A 
ATOM     91  C   UNL A   1      43.317  23.945  25.281  1.00  0.00     0.041 A 
ATOM     92  F   UNL A   1      43.939  25.973  26.280  1.00  0.00    -0.206 F 
ATOM     93  C   UNL A   1      42.584  22.763  25.303  1.00  0.00     0.022 A 
BRANCH  90  94
ATOM     94  S   UNL A   1      40.823  20.945  26.478  1.00  0.00     0.124 S 
ATOM     95  O   UNL A   1      39.533  21.299  25.897  1.00  0.00    -0.237 OA
ATOM     96  O   UNL A   1      41.666  20.062  25.680  1.00  0.00    -0.237 OA
ATOM     97  O   UNL A   1      40.805  20.659  27.911  1.00  0.00    -0.744 OA
ENDBRANCH  90  94
ENDBRANCH  63  87
BRANCH  75  98
ATOM     98  C   UNL A   1      46.182  25.792  33.097  1.00  0.00     0.023 A 
ATOM     99  C   UNL A   1      46.026  24.725  33.999  1.00  0.00     0.031 A 
ATOM    100  C   UNL A   1      47.486  26.189  32.755  1.00  0.00     0.131 A 
ATOM    101  C   UNL A   1      47.158  24.127  34.574  1.00  0.00     0.055 A 
ATOM    102  C   UNL A   1      48.609  25.554  33.287  1.00  0.00     0.041 A 
ATOM    103  F   UNL A   1      47.689  27.202  31.899  1.00  0.00    -0.206 F 
ATOM    104  C   UNL A   1      48.449  24.526  34.213  1.00  0.00     0.022 A 
BRANCH 101 105
ATOM    105  S   UNL A   1      46.921  22.884  35.873  1.00  0.00     0.124 S 
ATOM    106  O   UNL A   1      47.981  21.927  35.575  1.00  0.00    -0.237 OA
ATOM    107  O   UNL A   1      47.093  23.669  37.090  1.00  0.00    -0.237 OA
ATOM    108  O   UNL A   1      45.563  22.397  35.637  1.00  0.00    -0.744 OA
ENDBRANCH 101 105
ENDBRANCH  75  98
ENDBRANCH  49  50
ENDBRANCH  41  44
ENDBRANCH  39  40
ENDBRANCH   1  39
TORSDOF 18
ENDMDL
MODEL 2
REMARK VINA RESULT:     -12.3      4.375     10.272
REMARK SMILES Cc1cc(C)c(S(=O)(=O)Nc2ccc(N3CCN(c4ccccn4)CC3)c(C(=O)NCCCNC(=O)c3ccc(-c4c5nc(c(-c6cc(S(=O)(=O)[O-])ccc6F)c6ccc([nH]6)c(-c6cc(S(=O)(=O)[O-])ccc6F)c6nc(c(-c7cc(S(=O)(=O)[O-])ccc7F)c7ccc4[nH]7)C=C6)C=C5)cc3)c2)c(C)c1
REMARK SMILES IDX 32 1 31 2 30 3 28 4 29 5 27 7 11 8 12 9 100 10 13 11 14 12
REMARK SMILES IDX 10 13 7 15 8 16 9 17 6 18 1 19 2 20 3 21 103 22 4 23 101 24
REMARK SMILES IDX 5 25 102 26 15 27 16 28 26 29 17 30 25 31 18 32 19 33 20 34
REMARK SMILES IDX 24 35 21 36 23 37 22 38 33 39 34 40 35 41 36 43 37 44 38 45
REMARK SMILES IDX 99 46 39 47 98 48 40 49 41 50 42 51 92 52 43 53 97 54 91 55
REMARK SMILES IDX 93 56 44 57 96 58 90 59 89 60 45 62 77 63 57 64 76 65 58 66
REMARK SMILES IDX 61 67 75 68 94 69 59 70 60 71 74 73 95 74 62 75 46 76 47 77
REMARK SMILES IDX 55 78 48 79 54 80 56 81 53 82 49 83 50 84 51 85 52 86 78 87
REMARK SMILES IDX 79 88 87 89 80 90 86 91 88 92 85 93 81 94 82 95 83 96 84 97
REMARK SMILES IDX 63 98 64 99 72 100 65 101 71 102 73 103 70 104 66 105 67 106
REMARK SMILES IDX 68 107 69 108
REMARK H PARENT 30 6 10 14 34 42 93 61 61 72
REMARK Flexibility Score: inf
ROOT
ATOM      1  C   UNL A   1      35.762  23.037  25.857  1.00  0.00     0.042 C 
ENDROOT
BRANCH   1   2
ATOM      2  C   UNL A   1      34.700  24.085  25.542  1.00  0.00     0.118 C 
BRANCH   2   3
ATOM      3  N   UNL A   1      33.607  24.005  26.486  1.00  0.00    -0.352 N 
ATOM      4  C   UNL A   1      32.278  24.337  26.407  1.00  0.00     0.253 C 
ATOM      5  O   UNL A   1      31.684  24.365  27.485  1.00  0.00    -0.269 OA
ATOM      6  H   UNL A   1      33.870  23.639  27.361  1.00  0.00     0.163 HD
BRANCH   4   7
ATOM      7  C   UNL A   1      31.573  24.637  25.115  1.00  0.00     0.065 A 
ATOM      8  C   UNL A   1      30.905  26.240  23.421  1.00  0.00     0.050 A 
ATOM      9  C   UNL A   1      30.325  25.225  22.670  1.00  0.00     0.029 A 
ATOM     10  C   UNL A   1      31.355  25.965  24.707  1.00  0.00     0.042 A 
ATOM     11  C   UNL A   1      30.465  23.906  23.083  1.00  0.00     0.029 A 
ATOM     12  C   UNL A   1      31.194  23.583  24.241  1.00  0.00     0.050 A 
BRANCH   8  13
ATOM     13  N   UNL A   1      31.130  27.466  22.744  1.00  0.00    -0.280 N 
ATOM     14  H   UNL A   1      31.432  27.401  21.810  1.00  0.00     0.180 HD
BRANCH  13  15
ATOM     15  S   UNL A   1      30.936  29.008  23.359  1.00  0.00     0.262 S 
ATOM     16  O   UNL A   1      29.676  28.996  24.084  1.00  0.00    -0.201 OA
ATOM     17  O   UNL A   1      31.142  29.882  22.227  1.00  0.00    -0.201 OA
BRANCH  15  18
ATOM     18  C   UNL A   1      32.209  29.452  24.565  1.00  0.00     0.093 A 
ATOM     19  C   UNL A   1      34.531  29.804  28.211  1.00  0.00     0.044 C 
ATOM     20  C   UNL A   1      33.758  29.732  26.927  1.00  0.00    -0.051 A 
ATOM     21  C   UNL A   1      32.598  30.479  26.755  1.00  0.00     0.008 A 
ATOM     22  C   UNL A   1      34.218  28.974  25.850  1.00  0.00     0.008 A 
ATOM     23  C   UNL A   1      31.815  30.356  25.590  1.00  0.00    -0.030 A 
ATOM     24  C   UNL A   1      33.487  28.862  24.644  1.00  0.00    -0.030 A 
ATOM     25  C   UNL A   1      30.642  31.302  25.493  1.00  0.00     0.046 C 
ATOM     26  C   UNL A   1      34.199  28.143  23.540  1.00  0.00     0.046 C 
ENDBRANCH  15  18
ENDBRANCH  13  15
ENDBRANCH   8  13
BRANCH  12  27
ATOM     27  N   UNL A   1      31.635  22.277  24.391  1.00  0.00    -0.367 N 
ATOM     28  C   UNL A   1      31.841  21.434  23.197  1.00  0.00     0.138 C 
ATOM     29  C   UNL A   1      31.317  21.535  25.621  1.00  0.00     0.138 C 
ATOM     30  C   UNL A   1      32.890  20.328  23.464  1.00  0.00     0.139 C 
ATOM     31  C   UNL A   1      32.430  20.497  25.887  1.00  0.00     0.139 C 
ATOM     32  N   UNL A   1      32.565  19.614  24.707  1.00  0.00    -0.353 N 
BRANCH  32  33
ATOM     33  C   UNL A   1      33.096  18.350  24.889  1.00  0.00     0.128 A 
ATOM     34  C   UNL A   1      34.385  18.070  24.433  1.00  0.00     0.047 A 
ATOM     35  N   UNL A   1      32.385  17.419  25.564  1.00  0.00    -0.239 NA
ATOM     36  C   UNL A   1      34.948  16.816  24.645  1.00  0.00     0.005 A 
ATOM     37  C   UNL A   1      32.939  16.197  25.739  1.00  0.00     0.113 A 
ATOM     38  C   UNL A   1      34.206  15.851  25.305  1.00  0.00     0.020 A 
ENDBRANCH  32  33
ENDBRANCH  12  27
ENDBRANCH   4   7
ENDBRANCH   2   3
ENDBRANCH   1   2
BRANCH   1  39
ATOM     39  C   UNL A   1      37.163  23.493  25.476  1.00  0.00     0.118 C 
BRANCH  39  40
ATOM     40  N   UNL A   1      38.165  22.503  25.837  1.00  0.00    -0.352 N 
ATOM     41  C   UNL A   1      39.428  22.692  26.334  1.00  0.00     0.251 C 
ATOM     42  H   UNL A   1      37.899  21.564  25.705  1.00  0.00     0.163 HD
ATOM     43  O   UNL A   1      40.215  21.749  26.349  1.00  0.00    -0.269 OA
BRANCH  41  44
ATOM     44  C   UNL A   1      39.839  24.024  26.832  1.00  0.00     0.039 A 
ATOM     45  C   UNL A   1      39.717  24.299  28.197  1.00  0.00     0.014 A 
ATOM     46  C   UNL A   1      40.311  25.009  25.959  1.00  0.00     0.014 A 
ATOM     47  C   UNL A   1      40.095  25.551  28.687  1.00  0.00     0.010 A 
ATOM     48  C   UNL A   1      40.763  26.225  26.460  1.00  0.00     0.010 A 
ATOM     49  C   UNL A   1      40.636  26.518  27.826  1.00  0.00    -0.014 A 
BRANCH  49  50
ATOM     50  C   UNL A   1      41.022  27.861  28.328  1.00  0.00     0.031 A 
ATOM     51  C   UNL A   1      42.477  28.236  28.420  1.00  0.00     0.074 A 
ATOM     52  C   UNL A   1      40.070  28.719  28.745  1.00  0.00     0.049 A 
ATOM     53  N   UNL A   1      43.026  29.329  28.881  1.00  0.00    -0.248 NA
ATOM     54  C   UNL A   1      43.445  27.224  27.966  1.00  0.00     0.031 C 
ATOM     55  C   UNL A   1      38.631  28.445  28.755  1.00  0.00     0.029 A 
ATOM     56  N   UNL A   1      40.169  29.991  29.246  1.00  0.00    -0.354 N 
ATOM     57  C   UNL A   1      44.401  29.129  28.799  1.00  0.00     0.074 A 
ATOM     58  C   UNL A   1      44.596  27.783  28.302  1.00  0.00     0.031 C 
ATOM     59  C   UNL A   1      37.983  29.526  29.217  1.00  0.00     0.029 A 
ATOM     60  C   UNL A   1      38.957  30.556  29.565  1.00  0.00     0.049 A 
ATOM     61  H   UNL A   1      41.029  30.457  29.366  1.00  0.00     0.167 HD
ATOM     62  C   UNL A   1      45.405  29.993  29.087  1.00  0.00     0.034 A 
ATOM     63  C   UNL A   1      38.667  31.766  30.081  1.00  0.00     0.034 A 
ATOM     64  C   UNL A   1      45.187  31.341  29.553  1.00  0.00     0.049 A 
ATOM     65  C   UNL A   1      39.794  32.724  30.361  1.00  0.00     0.074 A 
ATOM     66  C   UNL A   1      46.121  32.329  29.814  1.00  0.00     0.029 A 
ATOM     67  N   UNL A   1      43.940  31.893  29.828  1.00  0.00    -0.354 N 
ATOM     68  N   UNL A   1      41.087  32.541  30.224  1.00  0.00    -0.248 NA
ATOM     69  C   UNL A   1      39.421  34.059  30.845  1.00  0.00     0.031 C 
ATOM     70  C   UNL A   1      45.445  33.456  30.297  1.00  0.00     0.029 A 
ATOM     71  C   UNL A   1      44.084  33.198  30.275  1.00  0.00     0.049 A 
ATOM     72  H   UNL A   1      43.081  31.424  29.722  1.00  0.00     0.167 HD
ATOM     73  C   UNL A   1      41.681  33.749  30.583  1.00  0.00     0.074 A 
ATOM     74  C   UNL A   1      40.602  34.655  30.924  1.00  0.00     0.031 C 
ATOM     75  C   UNL A   1      42.996  34.080  30.623  1.00  0.00     0.034 A 
BRANCH  62  76
ATOM     76  C   UNL A   1      46.820  29.489  28.925  1.00  0.00     0.023 A 
ATOM     77  C   UNL A   1      47.394  29.290  27.656  1.00  0.00     0.031 A 
ATOM     78  C   UNL A   1      47.590  29.152  30.052  1.00  0.00     0.131 A 
ATOM     79  C   UNL A   1      48.656  28.686  27.544  1.00  0.00     0.055 A 
ATOM     80  C   UNL A   1      48.882  28.633  29.935  1.00  0.00     0.041 A 
ATOM     81  F   UNL A   1      47.092  29.301  31.290  1.00  0.00    -0.206 F 
ATOM     82  C   UNL A   1      49.415  28.379  28.674  1.00  0.00     0.022 A 
BRANCH  79  83
ATOM     83  S   UNL A   1      49.222  28.166  25.901  1.00  0.00     0.124 S 
ATOM     84  O   UNL A   1      49.554  26.763  26.135  1.00  0.00    -0.237 OA
ATOM     85  O   UNL A   1      48.051  28.415  25.069  1.00  0.00    -0.237 OA
ATOM     86  O   UNL A   1      50.369  29.034  25.641  1.00  0.00    -0.744 OA
ENDBRANCH  79  83
ENDBRANCH  62  76
BRANCH  63  87
ATOM     87  C   UNL A   1      37.253  32.143  30.360  1.00  0.00     0.023 A 
ATOM     88  C   UNL A   1      36.480  32.812  29.398  1.00  0.00     0.031 A 
ATOM     89  C   UNL A   1      36.662  31.860  31.604  1.00  0.00     0.131 A 
ATOM     90  C   UNL A   1      35.172  33.214  29.710  1.00  0.00     0.055 A 
ATOM     91  C   UNL A   1      35.346  32.221  31.892  1.00  0.00     0.041 A 
ATOM     92  F   UNL A   1      37.357  31.212  32.553  1.00  0.00    -0.206 F 
ATOM     93  C   UNL A   1      34.595  32.912  30.946  1.00  0.00     0.022 A 
BRANCH  90  94
ATOM     94  S   UNL A   1      34.252  34.195  28.492  1.00  0.00     0.124 S 
ATOM     95  O   UNL A   1      34.976  35.461  28.521  1.00  0.00    -0.237 OA
ATOM     96  O   UNL A   1      34.404  33.396  27.282  1.00  0.00    -0.237 OA
ATOM     97  O   UNL A   1      32.899  34.237  29.043  1.00  0.00    -0.744 OA
ENDBRANCH  90  94
ENDBRANCH  63  87
BRANCH  75  98
ATOM     98  C   UNL A   1      43.326  35.499  31.014  1.00  0.00     0.023 A 
ATOM     99  C   UNL A   1      43.466  36.516  30.053  1.00  0.00     0.031 A 
ATOM    100  C   UNL A   1      43.524  35.831  32.366  1.00  0.00     0.131 A 
ATOM    101  C   UNL A   1      43.852  37.804  30.451  1.00  0.00     0.055 A 
ATOM    102  C   UNL A   1      43.854  37.128  32.762  1.00  0.00     0.041 A 
ATOM    103  F   UNL A   1      43.403  34.898  33.323  1.00  0.00    -0.206 F 
ATOM    104  C   UNL A   1      44.033  38.120  31.801  1.00  0.00     0.022 A 
BRANCH 101 105
ATOM    105  S   UNL A   1      44.207  39.041  29.173  1.00  0.00     0.124 S 
ATOM    106  O   UNL A   1      44.594  38.206  28.041  1.00  0.00    -0.237 OA
ATOM    107  O   UNL A   1      42.930  39.735  29.048  1.00  0.00    -0.237 OA
ATOM    108  O   UNL A   1      45.288  39.834  29.755  1.00  0.00    -0.744 OA
ENDBRANCH 101 105
ENDBRANCH  75  98
ENDBRANCH  49  50
ENDBRANCH  41  44
ENDBRANCH  39  40
ENDBRANCH   1  39
TORSDOF 18
ENDMDL
MODEL 3
REMARK VINA RESULT:     -12.2      1.923      2.247
REMARK SMILES Cc1cc(C)c(S(=O)(=O)Nc2ccc(N3CCN(c4ccccn4)CC3)c(C(=O)NCCCNC(=O)c3ccc(-c4c5nc(c(-c6cc(S(=O)(=O)[O-])ccc6F)c6ccc([nH]6)c(-c6cc(S(=O)(=O)[O-])ccc6F)c6nc(c(-c7cc(S(=O)(=O)[O-])ccc7F)c7ccc4[nH]7)C=C6)C=C5)cc3)c2)c(C)c1
REMARK SMILES IDX 32 1 31 2 30 3 28 4 29 5 27 7 11 8 12 9 100 10 13 11 14 12
REMARK SMILES IDX 10 13 7 15 8 16 9 17 6 18 1 19 2 20 3 21 103 22 4 23 101 24
REMARK SMILES IDX 5 25 102 26 15 27 16 28 26 29 17 30 25 31 18 32 19 33 20 34
REMARK SMILES IDX 24 35 21 36 23 37 22 38 33 39 34 40 35 41 36 43 37 44 38 45
REMARK SMILES IDX 99 46 39 47 98 48 40 49 41 50 42 51 92 52 43 53 97 54 91 55
REMARK SMILES IDX 93 56 44 57 96 58 90 59 89 60 45 62 77 63 57 64 76 65 58 66
REMARK SMILES IDX 61 67 75 68 94 69 59 70 60 71 74 73 95 74 62 75 46 76 47 77
REMARK SMILES IDX 55 78 48 79 54 80 56 81 53 82 49 83 50 84 51 85 52 86 78 87
REMARK SMILES IDX 79 88 87 89 80 90 86 91 88 92 85 93 81 94 82 95 83 96 84 97
REMARK SMILES IDX 63 98 64 99 72 100 65 101 71 102 73 103 70 104 66 105 67 106
REMARK SMILES IDX 68 107 69 108
REMARK H PARENT 30 6 10 14 34 42 93 61 61 72
REMARK Flexibility Score: inf
ROOT
ATOM      1  C   UNL A   1      33.287  29.904  27.714  1.00  0.00     0.042 C 
ENDROOT
BRANCH   1   2
ATOM      2  C   UNL A   1      33.500  28.584  26.981  1.00  0.00     0.118 C 
BRANCH   2   3
ATOM      3  N   UNL A   1      32.322  27.751  27.075  1.00  0.00    -0.352 N 
ATOM      4  C   UNL A   1      31.838  26.726  26.303  1.00  0.00     0.253 C 
ATOM      5  O   UNL A   1      30.675  26.401  26.540  1.00  0.00    -0.269 OA
ATOM      6  H   UNL A   1      31.751  27.963  27.850  1.00  0.00     0.163 HD
BRANCH   4   7
ATOM      7  C   UNL A   1      32.649  26.026  25.250  1.00  0.00     0.065 A 
ATOM      8  C   UNL A   1      33.824  24.045  24.489  1.00  0.00     0.050 A 
ATOM      9  C   UNL A   1      34.107  24.662  23.276  1.00  0.00     0.029 A 
ATOM     10  C   UNL A   1      33.263  24.791  25.519  1.00  0.00     0.042 A 
ATOM     11  C   UNL A   1      33.570  25.914  23.006  1.00  0.00     0.029 A 
ATOM     12  C   UNL A   1      32.734  26.559  23.935  1.00  0.00     0.050 A 
BRANCH   8  13
ATOM     13  N   UNL A   1      33.996  22.637  24.527  1.00  0.00    -0.280 N 
ATOM     14  H   UNL A   1      33.218  22.094  24.270  1.00  0.00     0.180 HD
BRANCH  13  15
ATOM     15  S   UNL A   1      35.378  21.802  24.959  1.00  0.00     0.262 S 
ATOM     16  O   UNL A   1      35.693  22.222  26.315  1.00  0.00    -0.201 OA
ATOM     17  O   UNL A   1      36.298  22.031  23.870  1.00  0.00    -0.201 OA
BRANCH  15  18
ATOM     18  C   UNL A   1      35.128  20.012  25.030  1.00  0.00     0.093 A 
ATOM     19  C   UNL A   1      34.037  15.931  24.052  1.00  0.00     0.044 C 
ATOM     20  C   UNL A   1      34.419  17.326  24.450  1.00  0.00    -0.051 A 
ATOM     21  C   UNL A   1      33.452  18.232  24.870  1.00  0.00     0.008 A 
ATOM     22  C   UNL A   1      35.755  17.727  24.481  1.00  0.00     0.008 A 
ATOM     23  C   UNL A   1      33.783  19.571  25.164  1.00  0.00    -0.030 A 
ATOM     24  C   UNL A   1      36.134  19.048  24.817  1.00  0.00    -0.030 A 
ATOM     25  C   UNL A   1      32.654  20.414  25.707  1.00  0.00     0.046 C 
ATOM     26  C   UNL A   1      37.610  19.264  24.955  1.00  0.00     0.046 C 
ENDBRANCH  15  18
ENDBRANCH  13  15
ENDBRANCH   8  13
BRANCH  12  27
ATOM     27  N   UNL A   1      31.922  27.587  23.479  1.00  0.00    -0.367 N 
ATOM     28  C   UNL A   1      30.907  27.311  22.444  1.00  0.00     0.138 C 
ATOM     29  C   UNL A   1      32.414  28.973  23.503  1.00  0.00     0.138 C 
ATOM     30  C   UNL A   1      29.732  28.314  22.527  1.00  0.00     0.139 C 
ATOM     31  C   UNL A   1      31.215  29.932  23.665  1.00  0.00     0.139 C 
ATOM     32  N   UNL A   1      30.246  29.690  22.572  1.00  0.00    -0.353 N 
BRANCH  32  33
ATOM     33  C   UNL A   1      29.392  30.716  22.210  1.00  0.00     0.128 A 
ATOM     34  C   UNL A   1      29.144  31.757  23.107  1.00  0.00     0.047 A 
ATOM     35  N   UNL A   1      28.859  30.734  20.968  1.00  0.00    -0.239 NA
ATOM     36  C   UNL A   1      28.320  32.817  22.741  1.00  0.00     0.005 A 
ATOM     37  C   UNL A   1      28.041  31.759  20.640  1.00  0.00     0.113 A 
ATOM     38  C   UNL A   1      27.745  32.816  21.481  1.00  0.00     0.020 A 
ENDBRANCH  32  33
ENDBRANCH  12  27
ENDBRANCH   4   7
ENDBRANCH   2   3
ENDBRANCH   1   2
BRANCH   1  39
ATOM     39  C   UNL A   1      34.184  31.016  27.188  1.00  0.00     0.118 C 
BRANCH  39  40
ATOM     40  N   UNL A   1      34.020  32.242  27.952  1.00  0.00    -0.352 N 
ATOM     41  C   UNL A   1      34.708  32.669  29.059  1.00  0.00     0.251 C 
ATOM     42  H   UNL A   1      33.317  32.851  27.631  1.00  0.00     0.163 HD
ATOM     43  O   UNL A   1      34.269  33.612  29.711  1.00  0.00    -0.269 OA
BRANCH  41  44
ATOM     44  C   UNL A   1      35.956  31.987  29.468  1.00  0.00     0.039 A 
ATOM     45  C   UNL A   1      37.166  32.408  28.909  1.00  0.00     0.014 A 
ATOM     46  C   UNL A   1      35.935  30.918  30.369  1.00  0.00     0.014 A 
ATOM     47  C   UNL A   1      38.355  31.775  29.278  1.00  0.00     0.010 A 
ATOM     48  C   UNL A   1      37.128  30.344  30.796  1.00  0.00     0.010 A 
ATOM     49  C   UNL A   1      38.348  30.749  30.236  1.00  0.00    -0.014 A 
BRANCH  49  50
ATOM     50  C   UNL A   1      39.601  30.052  30.622  1.00  0.00     0.031 A 
ATOM     51  C   UNL A   1      40.390  30.535  31.810  1.00  0.00     0.074 A 
ATOM     52  C   UNL A   1      40.050  29.023  29.879  1.00  0.00     0.049 A 
ATOM     53  N   UNL A   1      41.533  30.106  32.278  1.00  0.00    -0.248 NA
ATOM     54  C   UNL A   1      39.834  31.682  32.545  1.00  0.00     0.031 C 
ATOM     55  C   UNL A   1      39.399  28.502  28.674  1.00  0.00     0.029 A 
ATOM     56  N   UNL A   1      41.162  28.234  30.021  1.00  0.00    -0.354 N 
ATOM     57  C   UNL A   1      41.847  30.944  33.344  1.00  0.00     0.074 A 
ATOM     58  C   UNL A   1      40.802  31.944  33.408  1.00  0.00     0.031 C 
ATOM     59  C   UNL A   1      40.113  27.467  28.203  1.00  0.00     0.029 A 
ATOM     60  C   UNL A   1      41.285  27.269  29.049  1.00  0.00     0.049 A 
ATOM     61  H   UNL A   1      41.812  28.347  30.753  1.00  0.00     0.167 HD
ATOM     62  C   UNL A   1      42.894  30.872  34.202  1.00  0.00     0.034 A 
ATOM     63  C   UNL A   1      42.236  26.334  28.863  1.00  0.00     0.034 A 
ATOM     64  C   UNL A   1      43.908  29.848  34.138  1.00  0.00     0.049 A 
ATOM     65  C   UNL A   1      43.372  26.249  29.848  1.00  0.00     0.074 A 
ATOM     66  C   UNL A   1      44.978  29.634  34.991  1.00  0.00     0.029 A 
ATOM     67  N   UNL A   1      43.979  28.862  33.160  1.00  0.00    -0.354 N 
ATOM     68  N   UNL A   1      43.626  27.013  30.885  1.00  0.00    -0.248 NA
ATOM     69  C   UNL A   1      44.338  25.162  29.648  1.00  0.00     0.031 C 
ATOM     70  C   UNL A   1      45.722  28.556  34.499  1.00  0.00     0.029 A 
ATOM     71  C   UNL A   1      45.083  28.053  33.377  1.00  0.00     0.049 A 
ATOM     72  H   UNL A   1      43.338  28.756  32.420  1.00  0.00     0.167 HD
ATOM     73  C   UNL A   1      44.769  26.482  31.477  1.00  0.00     0.074 A 
ATOM     74  C   UNL A   1      45.142  25.324  30.690  1.00  0.00     0.031 C 
ATOM     75  C   UNL A   1      45.446  26.910  32.572  1.00  0.00     0.034 A 
BRANCH  62  76
ATOM     76  C   UNL A   1      42.995  31.945  35.261  1.00  0.00     0.023 A 
ATOM     77  C   UNL A   1      42.374  31.807  36.516  1.00  0.00     0.031 A 
ATOM     78  C   UNL A   1      43.678  33.145  34.996  1.00  0.00     0.131 A 
ATOM     79  C   UNL A   1      42.369  32.883  37.418  1.00  0.00     0.055 A 
ATOM     80  C   UNL A   1      43.744  34.179  35.934  1.00  0.00     0.041 A 
ATOM     81  F   UNL A   1      44.275  33.345  33.811  1.00  0.00    -0.206 F 
ATOM     82  C   UNL A   1      43.071  34.058  37.147  1.00  0.00     0.022 A 
BRANCH  79  83
ATOM     83  S   UNL A   1      41.301  32.778  38.881  1.00  0.00     0.124 S 
ATOM     84  O   UNL A   1      40.040  32.335  38.293  1.00  0.00    -0.237 OA
ATOM     85  O   UNL A   1      41.997  31.804  39.713  1.00  0.00    -0.237 OA
ATOM     86  O   UNL A   1      41.292  34.146  39.397  1.00  0.00    -0.744 OA
ENDBRANCH  79  83
ENDBRANCH  62  76
BRANCH  63  87
ATOM     87  C   UNL A   1      42.155  25.402  27.704  1.00  0.00     0.023 A 
ATOM     88  C   UNL A   1      41.419  24.209  27.786  1.00  0.00     0.031 A 
ATOM     89  C   UNL A   1      42.833  25.679  26.505  1.00  0.00     0.131 A 
ATOM     90  C   UNL A   1      41.411  23.316  26.704  1.00  0.00     0.055 A 
ATOM     91  C   UNL A   1      42.785  24.809  25.414  1.00  0.00     0.041 A 
ATOM     92  F   UNL A   1      43.542  26.811  26.373  1.00  0.00    -0.206 F 
ATOM     93  C   UNL A   1      42.079  23.614  25.514  1.00  0.00     0.022 A 
BRANCH  90  94
ATOM     94  S   UNL A   1      40.562  21.725  26.896  1.00  0.00     0.124 S 
ATOM     95  O   UNL A   1      41.329  20.868  25.999  1.00  0.00    -0.237 OA
ATOM     96  O   UNL A   1      40.722  21.467  28.323  1.00  0.00    -0.237 OA
ATOM     97  O   UNL A   1      39.196  22.015  26.467  1.00  0.00    -0.744 OA
ENDBRANCH  90  94
ENDBRANCH  63  87
BRANCH  75  98
ATOM     98  C   UNL A   1      46.636  26.087  32.998  1.00  0.00     0.023 A 
ATOM     99  C   UNL A   1      47.903  26.266  32.416  1.00  0.00     0.031 A 
ATOM    100  C   UNL A   1      46.492  25.097  33.985  1.00  0.00     0.131 A 
ATOM    101  C   UNL A   1      48.965  25.426  32.784  1.00  0.00     0.055 A 
ATOM    102  C   UNL A   1      47.565  24.301  34.387  1.00  0.00     0.041 A 
ATOM    103  F   UNL A   1      45.304  24.886  34.572  1.00  0.00    -0.206 F 
ATOM    104  C   UNL A   1      48.807  24.454  33.777  1.00  0.00     0.022 A 
BRANCH 101 105
ATOM    105  S   UNL A   1      50.532  25.557  31.881  1.00  0.00     0.124 S 
ATOM    106  O   UNL A   1      51.508  25.571  32.965  1.00  0.00    -0.237 OA
ATOM    107  O   UNL A   1      50.516  24.356  31.053  1.00  0.00    -0.237 OA
ATOM    108  O   UNL A   1      50.402  26.815  31.149  1.00  0.00    -0.744 OA
ENDBRANCH 101 105
ENDBRANCH  75  98
ENDBRANCH  49  50
ENDBRANCH  41  44
ENDBRANCH  39  40
ENDBRANCH   1  39
TORSDOF 18
ENDMDL
