MODEL 1
REMARK VINA RESULT:     -11.4      0.000      0.000
REMARK SMILES O=C(NCCCNC(=O)C1CCN(S(=O)(=O)C2CC2)CC1)c1ccc(-c2c3nc(c(-c4cc(S(=O)(=O)[O-])ccc4F)c4ccc([nH]4)c(-c4cc(S(=O)(=O)[O-])ccc4F)c4nc(c(-c5cc(S(=O)(=O)[O-])ccc5F)c5ccc2[nH]5)C=C4)C=C3)cc1
REMARK SMILES IDX 4 1 3 2 1 3 2 4 22 6 23 7 84 8 24 9 83 10 25 11 26 12 27 13
REMARK SMILES IDX 77 14 28 15 82 16 76 17 78 18 29 19 81 20 75 21 74 22 30 24
REMARK SMILES IDX 62 25 42 26 61 27 43 28 46 29 60 30 79 31 44 32 45 33 59 35
REMARK SMILES IDX 80 36 47 37 31 38 32 39 40 40 33 41 39 42 41 43 38 44 34 45
REMARK SMILES IDX 35 46 36 47 37 48 63 49 64 50 72 51 65 52 71 53 73 54 70 55
REMARK SMILES IDX 66 56 67 57 68 58 69 59 48 60 49 61 57 62 50 63 56 64 58 65
REMARK SMILES IDX 55 66 51 67 52 68 53 69 54 70 5 71 6 72 7 73 8 74 9 76 10 77
REMARK SMILES IDX 11 78 21 79 12 80 20 81 13 82 14 83 15 84 16 85 17 86 18 87
REMARK SMILES IDX 19 88
REMARK H PARENT 3 5 78 23 46 34 7 75
REMARK Flexibility Score: inf
ROOT
ATOM      1  C   UNL A   1      33.080  29.649  26.422  1.00  0.00     0.118 C 
ENDROOT
BRANCH   1   2
ATOM      2  N   UNL A   1      32.960  31.061  26.764  1.00  0.00    -0.352 N 
ATOM      3  O   UNL A   1      33.369  32.981  27.861  1.00  0.00    -0.269 OA
ATOM      4  C   UNL A   1      33.747  31.848  27.571  1.00  0.00     0.251 C 
ATOM      5  H   UNL A   1      32.196  31.525  26.351  1.00  0.00     0.163 HD
BRANCH   4   6
ATOM      6  C   UNL A   1      35.027  31.333  28.104  1.00  0.00     0.039 A 
ATOM      7  C   UNL A   1      35.116  30.043  28.628  1.00  0.00     0.014 A 
ATOM      8  C   UNL A   1      36.161  32.148  28.060  1.00  0.00     0.014 A 
ATOM      9  C   UNL A   1      36.290  29.627  29.250  1.00  0.00     0.010 A 
ATOM     10  C   UNL A   1      37.367  31.694  28.604  1.00  0.00     0.010 A 
ATOM     11  C   UNL A   1      37.431  30.444  29.241  1.00  0.00    -0.014 A 
BRANCH  11  12
ATOM     12  C   UNL A   1      38.684  29.959  29.880  1.00  0.00     0.031 A 
ATOM     13  C   UNL A   1      39.087  30.431  31.250  1.00  0.00     0.074 A 
ATOM     14  C   UNL A   1      39.443  29.057  29.227  1.00  0.00     0.049 A 
ATOM     15  N   UNL A   1      40.130  30.097  31.968  1.00  0.00    -0.248 NA
ATOM     16  C   UNL A   1      38.210  31.420  31.893  1.00  0.00     0.031 C 
ATOM     17  C   UNL A   1      39.154  28.524  27.894  1.00  0.00     0.029 A 
ATOM     18  N   UNL A   1      40.596  28.414  29.597  1.00  0.00    -0.354 N 
ATOM     19  C   UNL A   1      40.048  30.845  33.137  1.00  0.00     0.074 A 
ATOM     20  C   UNL A   1      38.873  31.683  33.009  1.00  0.00     0.031 C 
ATOM     21  C   UNL A   1      40.071  27.598  27.582  1.00  0.00     0.029 A 
ATOM     22  C   UNL A   1      41.053  27.521  28.658  1.00  0.00     0.049 A 
ATOM     23  H   UNL A   1      41.053  28.577  30.454  1.00  0.00     0.167 HD
ATOM     24  C   UNL A   1      40.869  30.826  34.219  1.00  0.00     0.034 A 
ATOM     25  C   UNL A   1      42.149  26.737  28.652  1.00  0.00     0.034 A 
ATOM     26  C   UNL A   1      42.039  29.984  34.324  1.00  0.00     0.049 A 
ATOM     27  C   UNL A   1      43.073  26.772  29.838  1.00  0.00     0.074 A 
ATOM     28  C   UNL A   1      42.921  29.859  35.386  1.00  0.00     0.029 A 
ATOM     29  N   UNL A   1      42.503  29.131  33.328  1.00  0.00    -0.354 N 
ATOM     30  N   UNL A   1      42.970  27.470  30.946  1.00  0.00    -0.248 NA
ATOM     31  C   UNL A   1      44.259  25.910  29.773  1.00  0.00     0.031 C 
ATOM     32  C   UNL A   1      43.955  28.998  35.002  1.00  0.00     0.029 A 
ATOM     33  C   UNL A   1      43.676  28.509  33.735  1.00  0.00     0.049 A 
ATOM     34  H   UNL A   1      42.063  28.989  32.459  1.00  0.00     0.167 HD
ATOM     35  C   UNL A   1      44.064  27.104  31.725  1.00  0.00     0.074 A 
ATOM     36  C   UNL A   1      44.803  26.117  30.963  1.00  0.00     0.031 C 
ATOM     37  C   UNL A   1      44.417  27.539  32.962  1.00  0.00     0.034 A 
BRANCH  24  38
ATOM     38  C   UNL A   1      40.556  31.788  35.346  1.00  0.00     0.023 A 
ATOM     39  C   UNL A   1      39.512  31.551  36.258  1.00  0.00     0.031 A 
ATOM     40  C   UNL A   1      41.280  32.986  35.480  1.00  0.00     0.131 A 
ATOM     41  C   UNL A   1      39.163  32.533  37.199  1.00  0.00     0.055 A 
ATOM     42  C   UNL A   1      40.988  33.919  36.478  1.00  0.00     0.041 A 
ATOM     43  F   UNL A   1      42.275  33.283  34.628  1.00  0.00    -0.206 F 
ATOM     44  C   UNL A   1      39.911  33.705  37.332  1.00  0.00     0.022 A 
BRANCH  41  45
ATOM     45  S   UNL A   1      37.611  32.338  38.118  1.00  0.00     0.124 S 
ATOM     46  O   UNL A   1      37.372  30.901  38.000  1.00  0.00    -0.237 OA
ATOM     47  O   UNL A   1      37.967  32.818  39.447  1.00  0.00    -0.237 OA
ATOM     48  O   UNL A   1      36.667  33.178  37.382  1.00  0.00    -0.744 OA
ENDBRANCH  41  45
ENDBRANCH  24  38
BRANCH  25  49
ATOM     49  C   UNL A   1      42.436  25.865  27.478  1.00  0.00     0.023 A 
ATOM     50  C   UNL A   1      41.996  24.534  27.443  1.00  0.00     0.031 A 
ATOM     51  C   UNL A   1      43.166  26.351  26.378  1.00  0.00     0.131 A 
ATOM     52  C   UNL A   1      42.320  23.722  26.345  1.00  0.00     0.055 A 
ATOM     53  C   UNL A   1      43.439  25.555  25.265  1.00  0.00     0.041 A 
ATOM     54  F   UNL A   1      43.605  27.620  26.360  1.00  0.00    -0.206 F 
ATOM     55  C   UNL A   1      43.023  24.228  25.249  1.00  0.00     0.022 A 
BRANCH  52  56
ATOM     56  S   UNL A   1      41.862  21.967  26.399  1.00  0.00     0.124 S 
ATOM     57  O   UNL A   1      42.273  21.595  27.748  1.00  0.00    -0.237 OA
ATOM     58  O   UNL A   1      40.424  22.022  26.157  1.00  0.00    -0.237 OA
ATOM     59  O   UNL A   1      42.651  21.377  25.319  1.00  0.00    -0.744 OA
ENDBRANCH  52  56
ENDBRANCH  25  49
BRANCH  37  60
ATOM     60  C   UNL A   1      45.637  26.902  33.586  1.00  0.00     0.023 A 
ATOM     61  C   UNL A   1      45.561  25.702  34.317  1.00  0.00     0.031 A 
ATOM     62  C   UNL A   1      46.893  27.525  33.471  1.00  0.00     0.131 A 
ATOM     63  C   UNL A   1      46.704  25.200  34.958  1.00  0.00     0.055 A 
ATOM     64  C   UNL A   1      48.040  26.985  34.055  1.00  0.00     0.041 A 
ATOM     65  F   UNL A   1      47.026  28.675  32.791  1.00  0.00    -0.206 F 
ATOM     66  C   UNL A   1      47.947  25.823  34.816  1.00  0.00     0.022 A 
BRANCH  63  67
ATOM     67  S   UNL A   1      46.527  23.779  36.073  1.00  0.00     0.124 S 
ATOM     68  O   UNL A   1      45.077  23.612  36.121  1.00  0.00    -0.237 OA
ATOM     69  O   UNL A   1      47.266  22.736  35.369  1.00  0.00    -0.237 OA
ATOM     70  O   UNL A   1      47.139  24.241  37.318  1.00  0.00    -0.744 OA
ENDBRANCH  63  67
ENDBRANCH  37  60
ENDBRANCH  11  12
ENDBRANCH   4   6
ENDBRANCH   1   2
BRANCH   1  71
ATOM     71  C   UNL A   1      31.946  28.798  26.993  1.00  0.00     0.042 C 
BRANCH  71  72
ATOM     72  C   UNL A   1      31.519  27.645  26.089  1.00  0.00     0.117 C 
BRANCH  72  73
ATOM     73  N   UNL A   1      31.431  26.400  26.831  1.00  0.00    -0.356 N 
ATOM     74  C   UNL A   1      31.364  25.118  26.382  1.00  0.00     0.223 C 
ATOM     75  H   UNL A   1      31.417  26.498  27.811  1.00  0.00     0.163 HD
ATOM     76  O   UNL A   1      31.050  24.249  27.194  1.00  0.00    -0.275 OA
BRANCH  74  77
ATOM     77  C   UNL A   1      31.783  24.790  24.952  1.00  0.00     0.081 C 
ATOM     78  C   UNL A   1      31.456  23.349  24.563  1.00  0.00     0.030 C 
ATOM     79  C   UNL A   1      33.284  25.042  24.794  1.00  0.00     0.030 C 
ATOM     80  C   UNL A   1      32.347  22.309  25.237  1.00  0.00     0.103 C 
ATOM     81  C   UNL A   1      34.118  23.999  25.541  1.00  0.00     0.103 C 
ATOM     82  N   UNL A   1      33.804  22.623  25.048  1.00  0.00    -0.202 NA
BRANCH  82  83
ATOM     83  S   UNL A   1      34.778  21.376  25.758  1.00  0.00     0.216 S 
ATOM     84  O   UNL A   1      34.499  21.348  27.179  1.00  0.00    -0.212 OA
ATOM     85  O   UNL A   1      34.604  20.185  24.951  1.00  0.00    -0.212 OA
BRANCH  83  86
ATOM     86  C   UNL A   1      36.553  21.720  25.605  1.00  0.00     0.124 C 
ATOM     87  C   UNL A   1      37.396  20.709  24.889  1.00  0.00     0.022 C 
ATOM     88  C   UNL A   1      37.047  22.012  24.215  1.00  0.00     0.022 C 
ENDBRANCH  83  86
ENDBRANCH  82  83
ENDBRANCH  74  77
ENDBRANCH  72  73
ENDBRANCH  71  72
ENDBRANCH   1  71
TORSDOF 15
ENDMDL
MODEL 2
REMARK VINA RESULT:     -11.3      1.478      1.760
REMARK SMILES O=C(NCCCNC(=O)C1CCN(S(=O)(=O)C2CC2)CC1)c1ccc(-c2c3nc(c(-c4cc(S(=O)(=O)[O-])ccc4F)c4ccc([nH]4)c(-c4cc(S(=O)(=O)[O-])ccc4F)c4nc(c(-c5cc(S(=O)(=O)[O-])ccc5F)c5ccc2[nH]5)C=C4)C=C3)cc1
REMARK SMILES IDX 4 1 3 2 1 3 2 4 22 6 23 7 84 8 24 9 83 10 25 11 26 12 27 13
REMARK SMILES IDX 77 14 28 15 82 16 76 17 78 18 29 19 81 20 75 21 74 22 30 24
REMARK SMILES IDX 62 25 42 26 61 27 43 28 46 29 60 30 79 31 44 32 45 33 59 35
REMARK SMILES IDX 80 36 47 37 31 38 32 39 40 40 33 41 39 42 41 43 38 44 34 45
REMARK SMILES IDX 35 46 36 47 37 48 63 49 64 50 72 51 65 52 71 53 73 54 70 55
REMARK SMILES IDX 66 56 67 57 68 58 69 59 48 60 49 61 57 62 50 63 56 64 58 65
REMARK SMILES IDX 55 66 51 67 52 68 53 69 54 70 5 71 6 72 7 73 8 74 9 76 10 77
REMARK SMILES IDX 11 78 21 79 12 80 20 81 13 82 14 83 15 84 16 85 17 86 18 87
REMARK SMILES IDX 19 88
REMARK H PARENT 3 5 78 23 46 34 7 75
REMARK Flexibility Score: inf
ROOT
ATOM      1  C   UNL A   1      32.702  29.444  26.058  1.00  0.00     0.118 C 
ENDROOT
BRANCH   1   2
ATOM      2  N   UNL A   1      32.491  30.864  26.309  1.00  0.00    -0.352 N 
ATOM      3  O   UNL A   1      32.720  32.856  27.327  1.00  0.00    -0.269 OA
ATOM      4  C   UNL A   1      33.171  31.730  27.133  1.00  0.00     0.251 C 
ATOM      5  H   UNL A   1      31.745  31.267  25.810  1.00  0.00     0.163 HD
BRANCH   4   6
ATOM      6  C   UNL A   1      34.423  31.307  27.797  1.00  0.00     0.039 A 
ATOM      7  C   UNL A   1      34.606  29.984  28.202  1.00  0.00     0.014 A 
ATOM      8  C   UNL A   1      35.437  32.246  28.001  1.00  0.00     0.014 A 
ATOM      9  C   UNL A   1      35.729  29.637  28.948  1.00  0.00     0.010 A 
ATOM     10  C   UNL A   1      36.607  31.873  28.672  1.00  0.00     0.010 A 
ATOM     11  C   UNL A   1      36.745  30.574  29.187  1.00  0.00    -0.014 A 
BRANCH  11  12
ATOM     12  C   UNL A   1      37.952  30.165  29.955  1.00  0.00     0.031 A 
ATOM     13  C   UNL A   1      38.175  30.649  31.362  1.00  0.00     0.074 A 
ATOM     14  C   UNL A   1      38.835  29.322  29.384  1.00  0.00     0.049 A 
ATOM     15  N   UNL A   1      39.155  30.376  32.186  1.00  0.00    -0.248 NA
ATOM     16  C   UNL A   1      37.170  31.571  31.911  1.00  0.00     0.031 C 
ATOM     17  C   UNL A   1      38.726  28.786  28.025  1.00  0.00     0.029 A 
ATOM     18  N   UNL A   1      39.982  28.752  29.873  1.00  0.00    -0.354 N 
ATOM     19  C   UNL A   1      38.900  31.105  33.343  1.00  0.00     0.074 A 
ATOM     20  C   UNL A   1      37.692  31.865  33.093  1.00  0.00     0.031 C 
ATOM     21  C   UNL A   1      39.730  27.925  27.811  1.00  0.00     0.029 A 
ATOM     22  C   UNL A   1      40.595  27.901  28.985  1.00  0.00     0.049 A 
ATOM     23  H   UNL A   1      40.333  28.936  30.774  1.00  0.00     0.167 HD
ATOM     24  C   UNL A   1      39.600  31.128  34.506  1.00  0.00     0.034 A 
ATOM     25  C   UNL A   1      41.735  27.191  29.093  1.00  0.00     0.034 A 
ATOM     26  C   UNL A   1      40.806  30.363  34.733  1.00  0.00     0.049 A 
ATOM     27  C   UNL A   1      42.522  27.274  30.371  1.00  0.00     0.074 A 
ATOM     28  C   UNL A   1      41.575  30.285  35.882  1.00  0.00     0.029 A 
ATOM     29  N   UNL A   1      41.428  29.553  33.789  1.00  0.00    -0.354 N 
ATOM     30  N   UNL A   1      42.256  27.951  31.465  1.00  0.00    -0.248 NA
ATOM     31  C   UNL A   1      43.763  26.492  30.431  1.00  0.00     0.031 C 
ATOM     32  C   UNL A   1      42.699  29.498  35.608  1.00  0.00     0.029 A 
ATOM     33  C   UNL A   1      42.590  29.005  34.317  1.00  0.00     0.049 A 
ATOM     34  H   UNL A   1      41.094  29.391  32.878  1.00  0.00     0.167 HD
ATOM     35  C   UNL A   1      43.282  27.649  32.355  1.00  0.00     0.074 A 
ATOM     36  C   UNL A   1      44.163  26.722  31.673  1.00  0.00     0.031 C 
ATOM     37  C   UNL A   1      43.473  28.093  33.625  1.00  0.00     0.034 A 
BRANCH  24  38
ATOM     38  C   UNL A   1      39.105  32.055  35.596  1.00  0.00     0.023 A 
ATOM     39  C   UNL A   1      39.544  33.388  35.695  1.00  0.00     0.031 A 
ATOM     40  C   UNL A   1      38.218  31.585  36.581  1.00  0.00     0.131 A 
ATOM     41  C   UNL A   1      39.172  34.169  36.801  1.00  0.00     0.055 A 
ATOM     42  C   UNL A   1      37.778  32.397  37.628  1.00  0.00     0.041 A 
ATOM     43  F   UNL A   1      37.778  30.317  36.556  1.00  0.00    -0.206 F 
ATOM     44  C   UNL A   1      38.271  33.692  37.755  1.00  0.00     0.022 A 
BRANCH  41  45
ATOM     45  S   UNL A   1      40.025  35.749  37.069  1.00  0.00     0.124 S 
ATOM     46  O   UNL A   1      39.656  36.495  35.868  1.00  0.00    -0.237 OA
ATOM     47  O   UNL A   1      39.437  36.219  38.317  1.00  0.00    -0.237 OA
ATOM     48  O   UNL A   1      41.435  35.370  37.146  1.00  0.00    -0.744 OA
ENDBRANCH  41  45
ENDBRANCH  24  38
BRANCH  25  49
ATOM     49  C   UNL A   1      42.202  26.352  27.954  1.00  0.00     0.023 A 
ATOM     50  C   UNL A   1      41.778  25.022  27.814  1.00  0.00     0.031 A 
ATOM     51  C   UNL A   1      43.091  26.868  26.994  1.00  0.00     0.131 A 
ATOM     52  C   UNL A   1      42.270  24.241  26.757  1.00  0.00     0.055 A 
ATOM     53  C   UNL A   1      43.535  26.104  25.914  1.00  0.00     0.041 A 
ATOM     54  F   UNL A   1      43.523  28.137  27.079  1.00  0.00    -0.206 F 
ATOM     55  C   UNL A   1      43.132  24.777  25.798  1.00  0.00     0.022 A 
BRANCH  52  56
ATOM     56  S   UNL A   1      41.816  22.486  26.691  1.00  0.00     0.124 S 
ATOM     57  O   UNL A   1      42.302  22.103  25.371  1.00  0.00    -0.237 OA
ATOM     58  O   UNL A   1      42.548  21.941  27.830  1.00  0.00    -0.237 OA
ATOM     59  O   UNL A   1      40.362  22.506  26.842  1.00  0.00    -0.744 OA
ENDBRANCH  52  56
ENDBRANCH  25  49
BRANCH  37  60
ATOM     60  C   UNL A   1      44.658  27.531  34.374  1.00  0.00     0.023 A 
ATOM     61  C   UNL A   1      44.573  26.344  35.123  1.00  0.00     0.031 A 
ATOM     62  C   UNL A   1      45.888  28.215  34.359  1.00  0.00     0.131 A 
ATOM     63  C   UNL A   1      45.674  25.913  35.878  1.00  0.00     0.055 A 
ATOM     64  C   UNL A   1      47.000  27.745  35.059  1.00  0.00     0.041 A 
ATOM     65  F   UNL A   1      46.028  29.357  33.667  1.00  0.00    -0.206 F 
ATOM     66  C   UNL A   1      46.893  26.595  35.837  1.00  0.00     0.022 A 
BRANCH  63  67
ATOM     67  S   UNL A   1      45.463  24.507  37.006  1.00  0.00     0.124 S 
ATOM     68  O   UNL A   1      44.011  24.456  37.157  1.00  0.00    -0.237 OA
ATOM     69  O   UNL A   1      46.064  23.410  36.254  1.00  0.00    -0.237 OA
ATOM     70  O   UNL A   1      46.196  24.914  38.204  1.00  0.00    -0.744 OA
ENDBRANCH  63  67
ENDBRANCH  37  60
ENDBRANCH  11  12
ENDBRANCH   4   6
ENDBRANCH   1   2
BRANCH   1  71
ATOM     71  C   UNL A   1      31.759  28.549  26.862  1.00  0.00     0.042 C 
BRANCH  71  72
ATOM     72  C   UNL A   1      31.137  27.415  26.051  1.00  0.00     0.117 C 
BRANCH  72  73
ATOM     73  N   UNL A   1      31.113  26.177  26.809  1.00  0.00    -0.356 N 
ATOM     74  C   UNL A   1      31.093  24.888  26.377  1.00  0.00     0.223 C 
ATOM     75  H   UNL A   1      31.109  26.288  27.788  1.00  0.00     0.163 HD
ATOM     76  O   UNL A   1      30.828  24.018  27.204  1.00  0.00    -0.275 OA
BRANCH  74  77
ATOM     77  C   UNL A   1      31.504  24.560  24.945  1.00  0.00     0.081 C 
ATOM     78  C   UNL A   1      31.296  23.086  24.600  1.00  0.00     0.030 C 
ATOM     79  C   UNL A   1      32.973  24.937  24.741  1.00  0.00     0.030 C 
ATOM     80  C   UNL A   1      32.291  22.146  25.276  1.00  0.00     0.103 C 
ATOM     81  C   UNL A   1      33.914  23.991  25.491  1.00  0.00     0.103 C 
ATOM     82  N   UNL A   1      33.710  22.581  25.040  1.00  0.00    -0.202 NA
BRANCH  82  83
ATOM     83  S   UNL A   1      34.806  21.443  25.755  1.00  0.00     0.216 S 
ATOM     84  O   UNL A   1      34.589  21.454  27.187  1.00  0.00    -0.212 OA
ATOM     85  O   UNL A   1      34.692  20.209  25.005  1.00  0.00    -0.212 OA
BRANCH  83  86
ATOM     86  C   UNL A   1      36.541  21.914  25.509  1.00  0.00     0.124 C 
ATOM     87  C   UNL A   1      37.408  20.980  24.718  1.00  0.00     0.022 C 
ATOM     88  C   UNL A   1      36.931  22.270  24.101  1.00  0.00     0.022 C 
ENDBRANCH  83  86
ENDBRANCH  82  83
ENDBRANCH  74  77
ENDBRANCH  72  73
ENDBRANCH  71  72
ENDBRANCH   1  71
TORSDOF 15
ENDMDL
MODEL 3
REMARK VINA RESULT:     -11.2      2.819      8.516
REMARK SMILES O=C(NCCCNC(=O)C1CCN(S(=O)(=O)C2CC2)CC1)c1ccc(-c2c3nc(c(-c4cc(S(=O)(=O)[O-])ccc4F)c4ccc([nH]4)c(-c4cc(S(=O)(=O)[O-])ccc4F)c4nc(c(-c5cc(S(=O)(=O)[O-])ccc5F)c5ccc2[nH]5)C=C4)C=C3)cc1
REMARK SMILES IDX 4 1 3 2 1 3 2 4 22 6 23 7 84 8 24 9 83 10 25 11 26 12 27 13
REMARK SMILES IDX 77 14 28 15 82 16 76 17 78 18 29 19 81 20 75 21 74 22 30 24
REMARK SMILES IDX 62 25 42 26 61 27 43 28 46 29 60 30 79 31 44 32 45 33 59 35
REMARK SMILES IDX 80 36 47 37 31 38 32 39 40 40 33 41 39 42 41 43 38 44 34 45
REMARK SMILES IDX 35 46 36 47 37 48 63 49 64 50 72 51 65 52 71 53 73 54 70 55
REMARK SMILES IDX 66 56 67 57 68 58 69 59 48 60 49 61 57 62 50 63 56 64 58 65
REMARK SMILES IDX 55 66 51 67 52 68 53 69 54 70 5 71 6 72 7 73 8 74 9 76 10 77
REMARK SMILES IDX 11 78 21 79 12 80 20 81 13 82 14 83 15 84 16 85 17 86 18 87
REMARK SMILES IDX 19 88
REMARK H PARENT 3 5 78 23 46 34 7 75
REMARK Flexibility Score: inf
ROOT
ATOM      1  C   UNL A   1      32.787  32.611  27.237  1.00  0.00     0.118 C 
ENDROOT
BRANCH   1   2
ATOM      2  N   UNL A   1      32.592  34.002  27.629  1.00  0.00    -0.352 N 
ATOM      3  O   UNL A   1      32.735  35.845  28.908  1.00  0.00    -0.269 OA
ATOM      4  C   UNL A   1      33.169  34.726  28.644  1.00  0.00     0.251 C 
ATOM      5  H   UNL A   1      31.945  34.501  27.080  1.00  0.00     0.163 HD
BRANCH   4   6
ATOM      6  C   UNL A   1      34.290  34.161  29.426  1.00  0.00     0.039 A 
ATOM      7  C   UNL A   1      35.614  34.437  29.083  1.00  0.00     0.014 A 
ATOM      8  C   UNL A   1      34.010  33.357  30.535  1.00  0.00     0.014 A 
ATOM      9  C   UNL A   1      36.652  33.785  29.743  1.00  0.00     0.010 A 
ATOM     10  C   UNL A   1      35.058  32.774  31.255  1.00  0.00     0.010 A 
ATOM     11  C   UNL A   1      36.388  32.951  30.840  1.00  0.00    -0.014 A 
BRANCH  11  12
ATOM     12  C   UNL A   1      37.519  32.297  31.552  1.00  0.00     0.031 A 
ATOM     13  C   UNL A   1      38.306  31.192  30.902  1.00  0.00     0.074 A 
ATOM     14  C   UNL A   1      37.857  32.733  32.781  1.00  0.00     0.049 A 
ATOM     15  N   UNL A   1      39.336  30.526  31.364  1.00  0.00    -0.248 NA
ATOM     16  C   UNL A   1      37.872  30.769  29.564  1.00  0.00     0.031 C 
ATOM     17  C   UNL A   1      37.168  33.798  33.513  1.00  0.00     0.029 A 
ATOM     18  N   UNL A   1      38.869  32.354  33.625  1.00  0.00    -0.354 N 
ATOM     19  C   UNL A   1      39.662  29.594  30.385  1.00  0.00     0.074 A 
ATOM     20  C   UNL A   1      38.689  29.755  29.322  1.00  0.00     0.031 C 
ATOM     21  C   UNL A   1      37.810  34.025  34.668  1.00  0.00     0.029 A 
ATOM     22  C   UNL A   1      38.909  33.075  34.794  1.00  0.00     0.049 A 
ATOM     23  H   UNL A   1      39.506  31.634  33.413  1.00  0.00     0.167 HD
ATOM     24  C   UNL A   1      40.681  28.698  30.369  1.00  0.00     0.034 A 
ATOM     25  C   UNL A   1      39.729  32.976  35.859  1.00  0.00     0.034 A 
ATOM     26  C   UNL A   1      41.639  28.552  31.443  1.00  0.00     0.049 A 
ATOM     27  C   UNL A   1      40.818  31.940  35.843  1.00  0.00     0.074 A 
ATOM     28  C   UNL A   1      42.730  27.701  31.516  1.00  0.00     0.029 A 
ATOM     29  N   UNL A   1      41.615  29.263  32.638  1.00  0.00    -0.354 N 
ATOM     30  N   UNL A   1      41.127  31.079  34.899  1.00  0.00    -0.248 NA
ATOM     31  C   UNL A   1      41.672  31.864  37.033  1.00  0.00     0.031 C 
ATOM     32  C   UNL A   1      43.313  27.840  32.782  1.00  0.00     0.029 A 
ATOM     33  C   UNL A   1      42.646  28.843  33.467  1.00  0.00     0.049 A 
ATOM     34  H   UNL A   1      40.961  29.963  32.863  1.00  0.00     0.167 HD
ATOM     35  C   UNL A   1      42.235  30.382  35.372  1.00  0.00     0.074 A 
ATOM     36  C   UNL A   1      42.543  30.932  36.678  1.00  0.00     0.031 C 
ATOM     37  C   UNL A   1      42.937  29.384  34.776  1.00  0.00     0.034 A 
BRANCH  24  38
ATOM     38  C   UNL A   1      40.772  27.770  29.176  1.00  0.00     0.023 A 
ATOM     39  C   UNL A   1      41.712  27.968  28.149  1.00  0.00     0.031 A 
ATOM     40  C   UNL A   1      39.872  26.698  29.038  1.00  0.00     0.131 A 
ATOM     41  C   UNL A   1      41.670  27.171  26.993  1.00  0.00     0.055 A 
ATOM     42  C   UNL A   1      39.895  25.850  27.929  1.00  0.00     0.041 A 
ATOM     43  F   UNL A   1      38.937  26.467  29.973  1.00  0.00    -0.206 F 
ATOM     44  C   UNL A   1      40.785  26.097  26.887  1.00  0.00     0.022 A 
BRANCH  41  45
ATOM     45  S   UNL A   1      42.662  27.674  25.559  1.00  0.00     0.124 S 
ATOM     46  O   UNL A   1      42.603  26.478  24.721  1.00  0.00    -0.237 OA
ATOM     47  O   UNL A   1      41.935  28.836  25.063  1.00  0.00    -0.237 OA
ATOM     48  O   UNL A   1      43.977  27.956  26.132  1.00  0.00    -0.744 OA
ENDBRANCH  41  45
ENDBRANCH  24  38
BRANCH  25  49
ATOM     49  C   UNL A   1      39.539  33.875  37.032  1.00  0.00     0.023 A 
ATOM     50  C   UNL A   1      38.922  33.413  38.204  1.00  0.00     0.031 A 
ATOM     51  C   UNL A   1      39.965  35.215  36.992  1.00  0.00     0.131 A 
ATOM     52  C   UNL A   1      38.716  34.294  39.277  1.00  0.00     0.055 A 
ATOM     53  C   UNL A   1      39.806  36.072  38.082  1.00  0.00     0.041 A 
ATOM     54  F   UNL A   1      40.566  35.705  35.896  1.00  0.00    -0.206 F 
ATOM     55  C   UNL A   1      39.168  35.615  39.230  1.00  0.00     0.022 A 
BRANCH  52  56
ATOM     56  S   UNL A   1      37.785  33.703  40.717  1.00  0.00     0.124 S 
ATOM     57  O   UNL A   1      36.637  33.061  40.086  1.00  0.00    -0.237 OA
ATOM     58  O   UNL A   1      38.748  32.813  41.357  1.00  0.00    -0.237 OA
ATOM     59  O   UNL A   1      37.488  34.929  41.455  1.00  0.00    -0.744 OA
ENDBRANCH  52  56
ENDBRANCH  25  49
BRANCH  37  60
ATOM     60  C   UNL A   1      44.145  28.863  35.518  1.00  0.00     0.023 A 
ATOM     61  C   UNL A   1      44.058  27.796  36.431  1.00  0.00     0.031 A 
ATOM     62  C   UNL A   1      45.402  29.466  35.327  1.00  0.00     0.131 A 
ATOM     63  C   UNL A   1      45.190  27.410  37.165  1.00  0.00     0.055 A 
ATOM     64  C   UNL A   1      46.539  29.033  36.012  1.00  0.00     0.041 A 
ATOM     65  F   UNL A   1      45.546  30.492  34.473  1.00  0.00    -0.206 F 
ATOM     66  C   UNL A   1      46.433  28.009  36.949  1.00  0.00     0.022 A 
BRANCH  63  67
ATOM     67  S   UNL A   1      44.994  26.187  38.491  1.00  0.00     0.124 S 
ATOM     68  O   UNL A   1      44.201  25.152  37.834  1.00  0.00    -0.237 OA
ATOM     69  O   UNL A   1      46.377  25.833  38.795  1.00  0.00    -0.237 OA
ATOM     70  O   UNL A   1      44.298  26.927  39.542  1.00  0.00    -0.744 OA
ENDBRANCH  63  67
ENDBRANCH  37  60
ENDBRANCH  11  12
ENDBRANCH   4   6
ENDBRANCH   1   2
BRANCH   1  71
ATOM     71  C   UNL A   1      31.536  31.981  26.627  1.00  0.00     0.042 C 
BRANCH  71  72
ATOM     72  C   UNL A   1      31.640  30.474  26.412  1.00  0.00     0.117 C 
BRANCH  72  73
ATOM     73  N   UNL A   1      31.872  30.156  25.015  1.00  0.00    -0.356 N 
ATOM     74  C   UNL A   1      31.820  28.960  24.370  1.00  0.00     0.223 C 
ATOM     75  H   UNL A   1      32.105  30.926  24.446  1.00  0.00     0.163 HD
ATOM     76  O   UNL A   1      32.295  28.907  23.236  1.00  0.00    -0.275 OA
BRANCH  74  77
ATOM     77  C   UNL A   1      31.091  27.783  25.009  1.00  0.00     0.081 C 
ATOM     78  C   UNL A   1      32.028  26.878  25.809  1.00  0.00     0.030 C 
ATOM     79  C   UNL A   1      30.392  26.968  23.919  1.00  0.00     0.030 C 
ATOM     80  C   UNL A   1      32.966  26.041  24.944  1.00  0.00     0.103 C 
ATOM     81  C   UNL A   1      31.392  26.199  23.053  1.00  0.00     0.103 C 
ATOM     82  N   UNL A   1      32.214  25.276  23.893  1.00  0.00    -0.202 NA
BRANCH  82  83
ATOM     83  S   UNL A   1      33.306  24.277  22.988  1.00  0.00     0.216 S 
ATOM     84  O   UNL A   1      32.732  22.950  22.906  1.00  0.00    -0.212 OA
ATOM     85  O   UNL A   1      33.654  25.004  21.784  1.00  0.00    -0.212 OA
BRANCH  83  86
ATOM     86  C   UNL A   1      34.905  24.078  23.824  1.00  0.00     0.124 C 
ATOM     87  C   UNL A   1      35.098  22.857  24.671  1.00  0.00     0.022 C 
ATOM     88  C   UNL A   1      35.771  22.954  23.325  1.00  0.00     0.022 C 
ENDBRANCH  83  86
ENDBRANCH  82  83
ENDBRANCH  74  77
ENDBRANCH  72  73
ENDBRANCH  71  72
ENDBRANCH   1  71
TORSDOF 15
ENDMDL
