MODEL 1
REMARK VINA RESULT:     -11.3      0.000      0.000
REMARK SMILES C[C@]([NH2+]Cc1nc(-c2ccsc2)no1)(C(=O)NCCCNC(=O)c1ccc(-c2c3nc(c(-c4cc(S(=O)(=O)[O-])ccc4F)c4ccc([nH]4)c(-c4cc(S(=O)(=O)[O-])ccc4F)c4nc(c(-c5cc(S(=O)(=O)[O-])ccc5F)c5ccc2[nH]5)C=C4)C=C3)cc1)C(F)(F)F
REMARK SMILES IDX 18 1 17 2 15 3 16 4 2 6 1 7 87 8 88 9 89 10 90 11 3 12 4 15
REMARK SMILES IDX 5 16 6 17 14 18 7 19 13 20 8 21 9 22 12 23 10 24 11 25 19 26
REMARK SMILES IDX 20 27 21 28 22 29 23 31 24 32 25 33 86 34 26 35 85 36 27 37
REMARK SMILES IDX 28 38 29 39 79 40 30 41 84 42 78 43 80 44 31 45 83 46 77 47
REMARK SMILES IDX 76 48 32 50 64 51 44 52 63 53 45 54 48 55 62 56 81 57 46 58
REMARK SMILES IDX 47 59 61 61 82 62 49 63 33 64 34 65 42 66 35 67 41 68 43 69
REMARK SMILES IDX 40 70 36 71 37 72 38 73 39 74 65 75 66 76 74 77 67 78 73 79
REMARK SMILES IDX 75 80 72 81 68 82 69 83 70 84 71 85 50 86 51 87 59 88 52 89
REMARK SMILES IDX 58 90 60 91 57 92 53 93 54 94 55 95 56 96
REMARK H PARENT 17 5 3 13 3 14 21 30 80 49 48 60
REMARK Flexibility Score: inf
ROOT
ATOM      1  C   UNL A   1      32.779  28.625  24.775  1.00  0.00     0.118 C 
ENDROOT
BRANCH   1   2
ATOM      2  N   UNL A   1      33.298  28.018  23.560  1.00  0.00    -0.350 N 
ATOM      3  C   UNL A   1      33.211  26.747  23.053  1.00  0.00     0.290 C 
ATOM      4  O   UNL A   1      33.716  26.576  21.941  1.00  0.00    -0.267 OA
ATOM      5  H   UNL A   1      33.812  28.638  22.992  1.00  0.00     0.163 HD
BRANCH   3   6
ATOM      6  C   UNL A   1      32.497  25.622  23.838  1.00  0.00     0.268 C 
ATOM      7  C   UNL A   1      32.236  24.438  22.882  1.00  0.00     0.101 C 
BRANCH   6   8
ATOM      8  C   UNL A   1      33.517  25.111  24.901  1.00  0.00     0.453 C 
ATOM      9  F   UNL A   1      33.270  25.569  26.148  1.00  0.00    -0.164 F 
ATOM     10  F   UNL A   1      33.458  23.750  24.972  1.00  0.00    -0.164 F 
ATOM     11  F   UNL A   1      34.800  25.407  24.584  1.00  0.00    -0.164 F 
ENDBRANCH   6   8
BRANCH   6  12
ATOM     12  N   UNL A   1      31.290  26.212  24.499  1.00  0.00    -0.318 N 
ATOM     13  H   UNL A   1      31.358  27.226  24.409  1.00  0.00     0.347 HD
ATOM     14  H   UNL A   1      31.318  25.852  25.454  1.00  0.00     0.347 HD
BRANCH  12  15
ATOM     15  C   UNL A   1      29.977  25.819  23.999  1.00  0.00     0.363 C 
BRANCH  15  16
ATOM     16  C   UNL A   1      29.194  27.004  23.534  1.00  0.00     0.282 A 
ATOM     17  N   UNL A   1      29.600  28.137  22.997  1.00  0.00    -0.186 NA
ATOM     18  O   UNL A   1      27.843  26.938  23.712  1.00  0.00    -0.333 OA
ATOM     19  C   UNL A   1      28.425  28.846  22.928  1.00  0.00     0.203 A 
ATOM     20  N   UNL A   1      27.334  28.174  23.322  1.00  0.00    -0.057 NA
BRANCH  19  21
ATOM     21  C   UNL A   1      28.411  30.260  22.555  1.00  0.00     0.033 A 
ATOM     22  C   UNL A   1      28.675  31.324  23.467  1.00  0.00     0.024 A 
ATOM     23  C   UNL A   1      28.129  30.728  21.287  1.00  0.00     0.077 A 
ATOM     24  C   UNL A   1      28.593  32.559  22.857  1.00  0.00     0.065 A 
ATOM     25  S   UNL A   1      28.173  32.436  21.202  1.00  0.00    -0.152 S 
ENDBRANCH  19  21
ENDBRANCH  15  16
ENDBRANCH  12  15
ENDBRANCH   6  12
ENDBRANCH   3   6
ENDBRANCH   1   2
BRANCH   1  26
ATOM     26  C   UNL A   1      33.870  28.930  25.794  1.00  0.00     0.042 C 
BRANCH  26  27
ATOM     27  C   UNL A   1      33.347  29.339  27.166  1.00  0.00     0.118 C 
BRANCH  27  28
ATOM     28  N   UNL A   1      33.436  30.774  27.387  1.00  0.00    -0.352 N 
ATOM     29  C   UNL A   1      34.372  31.515  28.061  1.00  0.00     0.251 C 
ATOM     30  H   UNL A   1      32.706  31.298  26.986  1.00  0.00     0.163 HD
ATOM     31  O   UNL A   1      34.110  32.697  28.310  1.00  0.00    -0.269 OA
BRANCH  29  32
ATOM     32  C   UNL A   1      35.660  30.932  28.498  1.00  0.00     0.039 A 
ATOM     33  C   UNL A   1      35.641  29.816  29.340  1.00  0.00     0.014 A 
ATOM     34  C   UNL A   1      36.884  31.508  28.146  1.00  0.00     0.014 A 
ATOM     35  C   UNL A   1      36.840  29.262  29.796  1.00  0.00     0.010 A 
ATOM     36  C   UNL A   1      38.080  30.900  28.523  1.00  0.00     0.010 A 
ATOM     37  C   UNL A   1      38.072  29.787  29.377  1.00  0.00    -0.014 A 
BRANCH  37  38
ATOM     38  C   UNL A   1      39.354  29.220  29.873  1.00  0.00     0.031 A 
ATOM     39  C   UNL A   1      39.995  29.779  31.118  1.00  0.00     0.074 A 
ATOM     40  C   UNL A   1      39.958  28.228  29.189  1.00  0.00     0.049 A 
ATOM     41  N   UNL A   1      41.119  29.441  31.697  1.00  0.00    -0.248 NA
ATOM     42  C   UNL A   1      39.292  30.889  31.780  1.00  0.00     0.031 C 
ATOM     43  C   UNL A   1      39.463  27.637  27.944  1.00  0.00     0.029 A 
ATOM     44  N   UNL A   1      41.115  27.539  29.444  1.00  0.00    -0.354 N 
ATOM     45  C   UNL A   1      41.265  30.306  32.779  1.00  0.00     0.074 A 
ATOM     46  C   UNL A   1      40.150  31.227  32.728  1.00  0.00     0.031 C 
ATOM     47  C   UNL A   1      40.294  26.654  27.563  1.00  0.00     0.029 A 
ATOM     48  C   UNL A   1      41.397  26.565  28.514  1.00  0.00     0.049 A 
ATOM     49  H   UNL A   1      41.693  27.724  30.221  1.00  0.00     0.167 HD
ATOM     50  C   UNL A   1      42.221  30.312  33.742  1.00  0.00     0.034 A 
ATOM     51  C   UNL A   1      42.425  25.696  28.440  1.00  0.00     0.034 A 
ATOM     52  C   UNL A   1      43.314  29.372  33.787  1.00  0.00     0.049 A 
ATOM     53  C   UNL A   1      43.465  25.708  29.530  1.00  0.00     0.074 A 
ATOM     54  C   UNL A   1      44.318  29.258  34.734  1.00  0.00     0.029 A 
ATOM     55  N   UNL A   1      43.550  28.379  32.844  1.00  0.00    -0.354 N 
ATOM     56  N   UNL A   1      43.562  26.499  30.575  1.00  0.00    -0.248 NA
ATOM     57  C   UNL A   1      44.521  24.691  29.445  1.00  0.00     0.031 C 
ATOM     58  C   UNL A   1      45.188  28.238  34.334  1.00  0.00     0.029 A 
ATOM     59  C   UNL A   1      44.688  27.662  33.178  1.00  0.00     0.049 A 
ATOM     60  H   UNL A   1      42.988  28.211  32.053  1.00  0.00     0.167 HD
ATOM     61  C   UNL A   1      44.668  26.048  31.290  1.00  0.00     0.074 A 
ATOM     62  C   UNL A   1      45.192  24.908  30.566  1.00  0.00     0.031 C 
ATOM     63  C   UNL A   1      45.200  26.528  32.443  1.00  0.00     0.034 A 
BRANCH  50  64
ATOM     64  C   UNL A   1      42.127  31.385  34.804  1.00  0.00     0.023 A 
ATOM     65  C   UNL A   1      41.097  31.386  35.762  1.00  0.00     0.031 A 
ATOM     66  C   UNL A   1      43.052  32.442  34.835  1.00  0.00     0.131 A 
ATOM     67  C   UNL A   1      40.966  32.465  36.650  1.00  0.00     0.055 A 
ATOM     68  C   UNL A   1      42.967  33.468  35.780  1.00  0.00     0.041 A 
ATOM     69  F   UNL A   1      44.045  32.510  33.935  1.00  0.00    -0.206 F 
ATOM     70  C   UNL A   1      41.909  33.493  36.683  1.00  0.00     0.022 A 
BRANCH  67  71
ATOM     71  S   UNL A   1      39.457  32.583  37.649  1.00  0.00     0.124 S 
ATOM     72  O   UNL A   1      38.732  31.384  37.231  1.00  0.00    -0.237 OA
ATOM     73  O   UNL A   1      39.977  32.571  39.011  1.00  0.00    -0.237 OA
ATOM     74  O   UNL A   1      38.858  33.845  37.220  1.00  0.00    -0.744 OA
ENDBRANCH  67  71
ENDBRANCH  50  64
BRANCH  51  75
ATOM     75  C   UNL A   1      42.517  24.730  27.308  1.00  0.00     0.023 A 
ATOM     76  C   UNL A   1      41.898  23.472  27.378  1.00  0.00     0.031 A 
ATOM     77  C   UNL A   1      43.261  25.036  26.155  1.00  0.00     0.131 A 
ATOM     78  C   UNL A   1      42.077  22.546  26.339  1.00  0.00     0.055 A 
ATOM     79  C   UNL A   1      43.393  24.130  25.101  1.00  0.00     0.041 A 
ATOM     80  F   UNL A   1      43.864  26.230  26.032  1.00  0.00    -0.206 F 
ATOM     81  C   UNL A   1      42.811  22.870  25.196  1.00  0.00     0.022 A 
BRANCH  78  82
ATOM     82  S   UNL A   1      41.402  20.874  26.543  1.00  0.00     0.124 S 
ATOM     83  O   UNL A   1      42.213  20.109  25.602  1.00  0.00    -0.237 OA
ATOM     84  O   UNL A   1      41.649  20.620  27.958  1.00  0.00    -0.237 OA
ATOM     85  O   UNL A   1      39.997  21.028  26.176  1.00  0.00    -0.744 OA
ENDBRANCH  78  82
ENDBRANCH  51  75
BRANCH  63  86
ATOM     86  C   UNL A   1      46.377  25.776  33.018  1.00  0.00     0.023 A 
ATOM     87  C   UNL A   1      47.695  26.022  32.595  1.00  0.00     0.031 A 
ATOM     88  C   UNL A   1      46.169  24.774  33.982  1.00  0.00     0.131 A 
ATOM     89  C   UNL A   1      48.744  25.227  33.078  1.00  0.00     0.055 A 
ATOM     90  C   UNL A   1      47.225  24.029  34.509  1.00  0.00     0.041 A 
ATOM     91  F   UNL A   1      44.932  24.495  34.423  1.00  0.00    -0.206 F 
ATOM     92  C   UNL A   1      48.520  24.242  34.044  1.00  0.00     0.022 A 
BRANCH  89  93
ATOM     93  S   UNL A   1      50.390  25.414  32.338  1.00  0.00     0.124 S 
ATOM     94  O   UNL A   1      50.270  26.693  31.647  1.00  0.00    -0.237 OA
ATOM     95  O   UNL A   1      51.261  25.400  33.509  1.00  0.00    -0.237 OA
ATOM     96  O   UNL A   1      50.508  24.247  31.465  1.00  0.00    -0.744 OA
ENDBRANCH  89  93
ENDBRANCH  63  86
ENDBRANCH  37  38
ENDBRANCH  29  32
ENDBRANCH  27  28
ENDBRANCH  26  27
ENDBRANCH   1  26
TORSDOF 18
ENDMDL
MODEL 2
REMARK VINA RESULT:     -11.3      1.733      2.099
REMARK SMILES C[C@]([NH2+]Cc1nc(-c2ccsc2)no1)(C(=O)NCCCNC(=O)c1ccc(-c2c3nc(c(-c4cc(S(=O)(=O)[O-])ccc4F)c4ccc([nH]4)c(-c4cc(S(=O)(=O)[O-])ccc4F)c4nc(c(-c5cc(S(=O)(=O)[O-])ccc5F)c5ccc2[nH]5)C=C4)C=C3)cc1)C(F)(F)F
REMARK SMILES IDX 18 1 17 2 15 3 16 4 2 6 1 7 87 8 88 9 89 10 90 11 3 12 4 15
REMARK SMILES IDX 5 16 6 17 14 18 7 19 13 20 8 21 9 22 12 23 10 24 11 25 19 26
REMARK SMILES IDX 20 27 21 28 22 29 23 31 24 32 25 33 86 34 26 35 85 36 27 37
REMARK SMILES IDX 28 38 29 39 79 40 30 41 84 42 78 43 80 44 31 45 83 46 77 47
REMARK SMILES IDX 76 48 32 50 64 51 44 52 63 53 45 54 48 55 62 56 81 57 46 58
REMARK SMILES IDX 47 59 61 61 82 62 49 63 33 64 34 65 42 66 35 67 41 68 43 69
REMARK SMILES IDX 40 70 36 71 37 72 38 73 39 74 65 75 66 76 74 77 67 78 73 79
REMARK SMILES IDX 75 80 72 81 68 82 69 83 70 84 71 85 50 86 51 87 59 88 52 89
REMARK SMILES IDX 58 90 60 91 57 92 53 93 54 94 55 95 56 96
REMARK H PARENT 17 5 3 13 3 14 21 30 80 49 48 60
REMARK Flexibility Score: inf
ROOT
ATOM      1  C   UNL A   1      31.655  26.979  26.830  1.00  0.00     0.118 C 
ENDROOT
BRANCH   1   2
ATOM      2  N   UNL A   1      32.601  26.256  25.994  1.00  0.00    -0.350 N 
ATOM      3  C   UNL A   1      32.459  25.175  25.164  1.00  0.00     0.290 C 
ATOM      4  O   UNL A   1      33.467  24.845  24.534  1.00  0.00    -0.267 OA
ATOM      5  H   UNL A   1      33.519  26.611  26.033  1.00  0.00     0.163 HD
BRANCH   3   6
ATOM      6  C   UNL A   1      31.102  24.447  25.026  1.00  0.00     0.268 C 
ATOM      7  C   UNL A   1      31.145  23.551  23.769  1.00  0.00     0.101 C 
BRANCH   6   8
ATOM      8  C   UNL A   1      30.992  23.485  26.248  1.00  0.00     0.453 C 
ATOM      9  F   UNL A   1      32.066  23.529  27.066  1.00  0.00    -0.164 F 
ATOM     10  F   UNL A   1      29.915  23.835  27.008  1.00  0.00    -0.164 F 
ATOM     11  F   UNL A   1      30.783  22.196  25.887  1.00  0.00    -0.164 F 
ENDBRANCH   6   8
BRANCH   6  12
ATOM     12  N   UNL A   1      30.016  25.478  25.061  1.00  0.00    -0.318 N 
ATOM     13  H   UNL A   1      30.409  26.318  25.487  1.00  0.00     0.347 HD
ATOM     14  H   UNL A   1      29.257  25.034  25.579  1.00  0.00     0.347 HD
BRANCH  12  15
ATOM     15  C   UNL A   1      29.411  25.876  23.795  1.00  0.00     0.363 C 
BRANCH  15  16
ATOM     16  C   UNL A   1      29.596  27.337  23.537  1.00  0.00     0.282 A 
ATOM     17  N   UNL A   1      28.716  28.267  23.230  1.00  0.00    -0.186 NA
ATOM     18  O   UNL A   1      30.879  27.797  23.596  1.00  0.00    -0.333 OA
ATOM     19  C   UNL A   1      29.528  29.349  22.994  1.00  0.00     0.203 A 
ATOM     20  N   UNL A   1      30.833  29.136  23.218  1.00  0.00    -0.057 NA
BRANCH  19  21
ATOM     21  C   UNL A   1      28.997  30.592  22.435  1.00  0.00     0.033 A 
ATOM     22  C   UNL A   1      28.840  31.796  23.184  1.00  0.00     0.024 A 
ATOM     23  C   UNL A   1      28.575  30.740  21.129  1.00  0.00     0.077 A 
ATOM     24  C   UNL A   1      28.314  32.815  22.417  1.00  0.00     0.065 A 
ATOM     25  S   UNL A   1      27.986  32.314  20.813  1.00  0.00    -0.152 S 
ENDBRANCH  19  21
ENDBRANCH  15  16
ENDBRANCH  12  15
ENDBRANCH   6  12
ENDBRANCH   3   6
ENDBRANCH   1   2
BRANCH   1  26
ATOM     26  C   UNL A   1      32.281  28.183  27.523  1.00  0.00     0.042 C 
BRANCH  26  27
ATOM     27  C   UNL A   1      33.382  28.864  26.720  1.00  0.00     0.118 C 
BRANCH  27  28
ATOM     28  N   UNL A   1      33.404  30.304  26.923  1.00  0.00    -0.352 N 
ATOM     29  C   UNL A   1      34.248  31.087  27.667  1.00  0.00     0.251 C 
ATOM     30  H   UNL A   1      32.698  30.798  26.447  1.00  0.00     0.163 HD
ATOM     31  O   UNL A   1      33.926  32.263  27.870  1.00  0.00    -0.269 OA
BRANCH  29  32
ATOM     32  C   UNL A   1      35.508  30.555  28.232  1.00  0.00     0.039 A 
ATOM     33  C   UNL A   1      36.716  30.893  27.614  1.00  0.00     0.014 A 
ATOM     34  C   UNL A   1      35.514  29.675  29.318  1.00  0.00     0.014 A 
ATOM     35  C   UNL A   1      37.921  30.381  28.103  1.00  0.00     0.010 A 
ATOM     36  C   UNL A   1      36.721  29.241  29.863  1.00  0.00     0.010 A 
ATOM     37  C   UNL A   1      37.937  29.565  29.245  1.00  0.00    -0.014 A 
BRANCH  37  38
ATOM     38  C   UNL A   1      39.210  28.996  29.762  1.00  0.00     0.031 A 
ATOM     39  C   UNL A   1      39.862  29.594  30.983  1.00  0.00     0.074 A 
ATOM     40  C   UNL A   1      39.795  27.967  29.119  1.00  0.00     0.049 A 
ATOM     41  N   UNL A   1      40.981  29.261  31.574  1.00  0.00    -0.248 NA
ATOM     42  C   UNL A   1      39.180  30.741  31.600  1.00  0.00     0.031 C 
ATOM     43  C   UNL A   1      39.288  27.335  27.898  1.00  0.00     0.029 A 
ATOM     44  N   UNL A   1      40.941  27.269  29.400  1.00  0.00    -0.354 N 
ATOM     45  C   UNL A   1      41.144  30.165  32.620  1.00  0.00     0.074 A 
ATOM     46  C   UNL A   1      40.045  31.103  32.533  1.00  0.00     0.031 C 
ATOM     47  C   UNL A   1      40.101  26.323  27.557  1.00  0.00     0.029 A 
ATOM     48  C   UNL A   1      41.204  26.254  28.509  1.00  0.00     0.049 A 
ATOM     49  H   UNL A   1      41.523  27.476  30.168  1.00  0.00     0.167 HD
ATOM     50  C   UNL A   1      42.102  30.195  33.580  1.00  0.00     0.034 A 
ATOM     51  C   UNL A   1      42.217  25.365  28.470  1.00  0.00     0.034 A 
ATOM     52  C   UNL A   1      43.179  29.238  33.663  1.00  0.00     0.049 A 
ATOM     53  C   UNL A   1      43.260  25.403  29.557  1.00  0.00     0.074 A 
ATOM     54  C   UNL A   1      44.182  29.146  34.613  1.00  0.00     0.029 A 
ATOM     55  N   UNL A   1      43.396  28.205  32.760  1.00  0.00    -0.354 N 
ATOM     56  N   UNL A   1      43.372  26.234  30.569  1.00  0.00    -0.248 NA
ATOM     57  C   UNL A   1      44.297  24.366  29.512  1.00  0.00     0.031 C 
ATOM     58  C   UNL A   1      45.034  28.096  34.253  1.00  0.00     0.029 A 
ATOM     59  C   UNL A   1      44.522  27.482  33.121  1.00  0.00     0.049 A 
ATOM     60  H   UNL A   1      42.830  28.014  31.977  1.00  0.00     0.167 HD
ATOM     61  C   UNL A   1      44.471  25.793  31.301  1.00  0.00     0.074 A 
ATOM     62  C   UNL A   1      44.975  24.616  30.623  1.00  0.00     0.031 C 
ATOM     63  C   UNL A   1      45.014  26.311  32.433  1.00  0.00     0.034 A 
BRANCH  50  64
ATOM     64  C   UNL A   1      42.028  31.310  34.598  1.00  0.00     0.023 A 
ATOM     65  C   UNL A   1      41.025  31.345  35.584  1.00  0.00     0.031 A 
ATOM     66  C   UNL A   1      42.945  32.375  34.559  1.00  0.00     0.131 A 
ATOM     67  C   UNL A   1      40.909  32.460  36.429  1.00  0.00     0.055 A 
ATOM     68  C   UNL A   1      42.877  33.440  35.462  1.00  0.00     0.041 A 
ATOM     69  F   UNL A   1      43.912  32.412  33.630  1.00  0.00    -0.206 F 
ATOM     70  C   UNL A   1      41.844  33.496  36.392  1.00  0.00     0.022 A 
BRANCH  67  71
ATOM     71  S   UNL A   1      39.427  32.609  37.464  1.00  0.00     0.124 S 
ATOM     72  O   UNL A   1      38.871  33.879  37.000  1.00  0.00    -0.237 OA
ATOM     73  O   UNL A   1      38.671  31.414  37.109  1.00  0.00    -0.237 OA
ATOM     74  O   UNL A   1      39.960  32.632  38.825  1.00  0.00    -0.744 OA
ENDBRANCH  67  71
ENDBRANCH  50  64
BRANCH  51  75
ATOM     75  C   UNL A   1      42.291  24.353  27.377  1.00  0.00     0.023 A 
ATOM     76  C   UNL A   1      41.633  23.118  27.490  1.00  0.00     0.031 A 
ATOM     77  C   UNL A   1      43.055  24.590  26.221  1.00  0.00     0.131 A 
ATOM     78  C   UNL A   1      41.794  22.146  26.490  1.00  0.00     0.055 A 
ATOM     79  C   UNL A   1      43.170  23.640  25.205  1.00  0.00     0.041 A 
ATOM     80  F   UNL A   1      43.696  25.760  26.058  1.00  0.00    -0.206 F 
ATOM     81  C   UNL A   1      42.548  22.403  25.344  1.00  0.00     0.022 A 
BRANCH  78  82
ATOM     82  S   UNL A   1      41.066  20.505  26.752  1.00  0.00     0.124 S 
ATOM     83  O   UNL A   1      42.133  19.628  26.284  1.00  0.00    -0.237 OA
ATOM     84  O   UNL A   1      40.822  20.509  28.190  1.00  0.00    -0.237 OA
ATOM     85  O   UNL A   1      39.866  20.529  25.919  1.00  0.00    -0.744 OA
ENDBRANCH  78  82
ENDBRANCH  51  75
BRANCH  63  86
ATOM     86  C   UNL A   1      46.179  25.562  33.036  1.00  0.00     0.023 A 
ATOM     87  C   UNL A   1      45.993  24.515  33.954  1.00  0.00     0.031 A 
ATOM     88  C   UNL A   1      47.496  25.928  32.707  1.00  0.00     0.131 A 
ATOM     89  C   UNL A   1      47.105  23.919  34.569  1.00  0.00     0.055 A 
ATOM     90  C   UNL A   1      48.600  25.287  33.271  1.00  0.00     0.041 A 
ATOM     91  F   UNL A   1      47.734  26.921  31.835  1.00  0.00    -0.206 F 
ATOM     92  C   UNL A   1      48.408  24.288  34.222  1.00  0.00     0.022 A 
BRANCH  89  93
ATOM     93  S   UNL A   1      46.825  22.740  35.918  1.00  0.00     0.124 S 
ATOM     94  O   UNL A   1      47.396  23.443  37.062  1.00  0.00    -0.237 OA
ATOM     95  O   UNL A   1      45.371  22.603  35.914  1.00  0.00    -0.237 OA
ATOM     96  O   UNL A   1      47.559  21.550  35.492  1.00  0.00    -0.744 OA
ENDBRANCH  89  93
ENDBRANCH  63  86
ENDBRANCH  37  38
ENDBRANCH  29  32
ENDBRANCH  27  28
ENDBRANCH  26  27
ENDBRANCH   1  26
TORSDOF 18
ENDMDL
MODEL 3
REMARK VINA RESULT:     -11.2      3.426      5.311
REMARK SMILES C[C@]([NH2+]Cc1nc(-c2ccsc2)no1)(C(=O)NCCCNC(=O)c1ccc(-c2c3nc(c(-c4cc(S(=O)(=O)[O-])ccc4F)c4ccc([nH]4)c(-c4cc(S(=O)(=O)[O-])ccc4F)c4nc(c(-c5cc(S(=O)(=O)[O-])ccc5F)c5ccc2[nH]5)C=C4)C=C3)cc1)C(F)(F)F
REMARK SMILES IDX 18 1 17 2 15 3 16 4 2 6 1 7 87 8 88 9 89 10 90 11 3 12 4 15
REMARK SMILES IDX 5 16 6 17 14 18 7 19 13 20 8 21 9 22 12 23 10 24 11 25 19 26
REMARK SMILES IDX 20 27 21 28 22 29 23 31 24 32 25 33 86 34 26 35 85 36 27 37
REMARK SMILES IDX 28 38 29 39 79 40 30 41 84 42 78 43 80 44 31 45 83 46 77 47
REMARK SMILES IDX 76 48 32 50 64 51 44 52 63 53 45 54 48 55 62 56 81 57 46 58
REMARK SMILES IDX 47 59 61 61 82 62 49 63 33 64 34 65 42 66 35 67 41 68 43 69
REMARK SMILES IDX 40 70 36 71 37 72 38 73 39 74 65 75 66 76 74 77 67 78 73 79
REMARK SMILES IDX 75 80 72 81 68 82 69 83 70 84 71 85 50 86 51 87 59 88 52 89
REMARK SMILES IDX 58 90 60 91 57 92 53 93 54 94 55 95 56 96
REMARK H PARENT 17 5 3 13 3 14 21 30 80 49 48 60
REMARK Flexibility Score: inf
ROOT
ATOM      1  C   UNL A   1      31.461  27.651  25.702  1.00  0.00     0.118 C 
ENDROOT
BRANCH   1   2
ATOM      2  N   UNL A   1      31.111  26.478  26.487  1.00  0.00    -0.350 N 
ATOM      3  C   UNL A   1      31.431  25.151  26.357  1.00  0.00     0.290 C 
ATOM      4  O   UNL A   1      31.019  24.409  27.250  1.00  0.00    -0.267 OA
ATOM      5  H   UNL A   1      30.533  26.674  27.260  1.00  0.00     0.163 HD
BRANCH   3   6
ATOM      6  C   UNL A   1      32.279  24.648  25.165  1.00  0.00     0.268 C 
ATOM      7  C   UNL A   1      32.062  25.596  23.966  1.00  0.00     0.101 C 
BRANCH   6   8
ATOM      8  C   UNL A   1      33.772  24.809  25.588  1.00  0.00     0.453 C 
ATOM      9  F   UNL A   1      34.044  26.003  26.158  1.00  0.00    -0.164 F 
ATOM     10  F   UNL A   1      34.087  23.859  26.516  1.00  0.00    -0.164 F 
ATOM     11  F   UNL A   1      34.633  24.619  24.561  1.00  0.00    -0.164 F 
ENDBRANCH   6   8
BRANCH   6  12
ATOM     12  N   UNL A   1      31.944  23.207  24.933  1.00  0.00    -0.318 N 
ATOM     13  H   UNL A   1      30.929  23.137  24.869  1.00  0.00     0.347 HD
ATOM     14  H   UNL A   1      32.372  22.714  25.718  1.00  0.00     0.347 HD
BRANCH  12  15
ATOM     15  C   UNL A   1      32.500  22.559  23.750  1.00  0.00     0.363 C 
BRANCH  15  16
ATOM     16  C   UNL A   1      33.163  21.265  24.098  1.00  0.00     0.282 A 
ATOM     17  N   UNL A   1      32.727  20.027  23.987  1.00  0.00    -0.186 NA
ATOM     18  O   UNL A   1      34.408  21.359  24.648  1.00  0.00    -0.333 OA
ATOM     19  C   UNL A   1      33.738  19.323  24.596  1.00  0.00     0.203 A 
ATOM     20  N   UNL A   1      34.782  20.063  24.994  1.00  0.00    -0.057 NA
BRANCH  19  21
ATOM     21  C   UNL A   1      33.608  17.894  24.877  1.00  0.00     0.033 A 
ATOM     22  C   UNL A   1      34.581  16.920  24.504  1.00  0.00     0.024 A 
ATOM     23  C   UNL A   1      32.528  17.322  25.519  1.00  0.00     0.077 A 
ATOM     24  C   UNL A   1      34.209  15.647  24.885  1.00  0.00     0.065 A 
ATOM     25  S   UNL A   1      32.683  15.625  25.662  1.00  0.00    -0.152 S 
ENDBRANCH  19  21
ENDBRANCH  15  16
ENDBRANCH  12  15
ENDBRANCH   6  12
ENDBRANCH   3   6
ENDBRANCH   1   2
BRANCH   1  26
ATOM     26  C   UNL A   1      32.135  28.736  26.532  1.00  0.00     0.042 C 
BRANCH  26  27
ATOM     27  C   UNL A   1      32.914  29.757  25.711  1.00  0.00     0.118 C 
BRANCH  27  28
ATOM     28  N   UNL A   1      32.665  31.123  26.148  1.00  0.00    -0.352 N 
ATOM     29  C   UNL A   1      33.258  31.865  27.136  1.00  0.00     0.251 C 
ATOM     30  H   UNL A   1      31.956  31.591  25.652  1.00  0.00     0.163 HD
ATOM     31  O   UNL A   1      32.719  32.924  27.474  1.00  0.00    -0.269 OA
BRANCH  29  32
ATOM     32  C   UNL A   1      34.504  31.422  27.801  1.00  0.00     0.039 A 
ATOM     33  C   UNL A   1      34.582  30.108  28.273  1.00  0.00     0.014 A 
ATOM     34  C   UNL A   1      35.569  32.298  28.027  1.00  0.00     0.014 A 
ATOM     35  C   UNL A   1      35.733  29.668  28.934  1.00  0.00     0.010 A 
ATOM     36  C   UNL A   1      36.751  31.834  28.601  1.00  0.00     0.010 A 
ATOM     37  C   UNL A   1      36.836  30.522  29.088  1.00  0.00    -0.014 A 
BRANCH  37  38
ATOM     38  C   UNL A   1      38.056  30.073  29.809  1.00  0.00     0.031 A 
ATOM     39  C   UNL A   1      38.319  30.548  31.216  1.00  0.00     0.074 A 
ATOM     40  C   UNL A   1      38.942  29.267  29.191  1.00  0.00     0.049 A 
ATOM     41  N   UNL A   1      39.333  30.292  32.003  1.00  0.00    -0.248 NA
ATOM     42  C   UNL A   1      37.323  31.458  31.802  1.00  0.00     0.031 C 
ATOM     43  C   UNL A   1      38.825  28.781  27.815  1.00  0.00     0.029 A 
ATOM     44  N   UNL A   1      40.113  28.712  29.639  1.00  0.00    -0.354 N 
ATOM     45  C   UNL A   1      39.105  31.021  33.167  1.00  0.00     0.074 A 
ATOM     46  C   UNL A   1      37.894  31.784  32.950  1.00  0.00     0.031 C 
ATOM     47  C   UNL A   1      39.864  27.975  27.543  1.00  0.00     0.029 A 
ATOM     48  C   UNL A   1      40.739  27.913  28.709  1.00  0.00     0.049 A 
ATOM     49  H   UNL A   1      40.475  28.872  30.542  1.00  0.00     0.167 HD
ATOM     50  C   UNL A   1      39.821  31.032  34.320  1.00  0.00     0.034 A 
ATOM     51  C   UNL A   1      41.884  27.207  28.791  1.00  0.00     0.034 A 
ATOM     52  C   UNL A   1      41.014  30.249  34.526  1.00  0.00     0.049 A 
ATOM     53  C   UNL A   1      42.652  27.218  30.087  1.00  0.00     0.074 A 
ATOM     54  C   UNL A   1      41.798  30.150  35.663  1.00  0.00     0.029 A 
ATOM     55  N   UNL A   1      41.601  29.427  33.571  1.00  0.00    -0.354 N 
ATOM     56  N   UNL A   1      42.397  27.874  31.197  1.00  0.00    -0.248 NA
ATOM     57  C   UNL A   1      43.850  26.371  30.150  1.00  0.00     0.031 C 
ATOM     58  C   UNL A   1      42.885  29.316  35.378  1.00  0.00     0.029 A 
ATOM     59  C   UNL A   1      42.742  28.832  34.088  1.00  0.00     0.049 A 
ATOM     60  H   UNL A   1      41.255  29.288  32.660  1.00  0.00     0.167 HD
ATOM     61  C   UNL A   1      43.382  27.486  32.101  1.00  0.00     0.074 A 
ATOM     62  C   UNL A   1      44.224  26.530  31.412  1.00  0.00     0.031 C 
ATOM     63  C   UNL A   1      43.573  27.881  33.386  1.00  0.00     0.034 A 
BRANCH  50  64
ATOM     64  C   UNL A   1      39.333  31.937  35.429  1.00  0.00     0.023 A 
ATOM     65  C   UNL A   1      39.781  33.265  35.549  1.00  0.00     0.031 A 
ATOM     66  C   UNL A   1      38.442  31.455  36.404  1.00  0.00     0.131 A 
ATOM     67  C   UNL A   1      39.409  34.034  36.663  1.00  0.00     0.055 A 
ATOM     68  C   UNL A   1      38.005  32.256  37.463  1.00  0.00     0.041 A 
ATOM     69  F   UNL A   1      37.994  30.192  36.357  1.00  0.00    -0.206 F 
ATOM     70  C   UNL A   1      38.503  33.548  37.607  1.00  0.00     0.022 A 
BRANCH  67  71
ATOM     71  S   UNL A   1      40.251  35.616  36.942  1.00  0.00     0.124 S 
ATOM     72  O   UNL A   1      39.654  36.454  35.904  1.00  0.00    -0.237 OA
ATOM     73  O   UNL A   1      39.877  35.936  38.315  1.00  0.00    -0.237 OA
ATOM     74  O   UNL A   1      41.662  35.294  36.738  1.00  0.00    -0.744 OA
ENDBRANCH  67  71
ENDBRANCH  50  64
BRANCH  51  75
ATOM     75  C   UNL A   1      42.368  26.416  27.624  1.00  0.00     0.023 A 
ATOM     76  C   UNL A   1      42.004  25.070  27.460  1.00  0.00     0.031 A 
ATOM     77  C   UNL A   1      43.237  26.984  26.675  1.00  0.00     0.131 A 
ATOM     78  C   UNL A   1      42.547  24.322  26.405  1.00  0.00     0.055 A 
ATOM     79  C   UNL A   1      43.733  26.250  25.597  1.00  0.00     0.041 A 
ATOM     80  F   UNL A   1      43.607  28.271  26.778  1.00  0.00    -0.206 F 
ATOM     81  C   UNL A   1      43.400  24.905  25.466  1.00  0.00     0.022 A 
BRANCH  78  82
ATOM     82  S   UNL A   1      42.185  22.546  26.325  1.00  0.00     0.124 S 
ATOM     83  O   UNL A   1      42.963  22.033  27.447  1.00  0.00    -0.237 OA
ATOM     84  O   UNL A   1      40.735  22.526  26.486  1.00  0.00    -0.237 OA
ATOM     85  O   UNL A   1      42.667  22.160  25.001  1.00  0.00    -0.744 OA
ENDBRANCH  78  82
ENDBRANCH  51  75
BRANCH  63  86
ATOM     86  C   UNL A   1      44.705  27.226  34.141  1.00  0.00     0.023 A 
ATOM     87  C   UNL A   1      44.544  25.995  34.800  1.00  0.00     0.031 A 
ATOM     88  C   UNL A   1      45.956  27.863  34.227  1.00  0.00     0.131 A 
ATOM     89  C   UNL A   1      45.591  25.476  35.577  1.00  0.00     0.055 A 
ATOM     90  C   UNL A   1      47.015  27.310  34.947  1.00  0.00     0.041 A 
ATOM     91  F   UNL A   1      46.167  29.041  33.618  1.00  0.00    -0.206 F 
ATOM     92  C   UNL A   1      46.831  26.118  35.642  1.00  0.00     0.022 A 
BRANCH  89  93
ATOM     93  S   UNL A   1      45.271  24.013  36.600  1.00  0.00     0.124 S 
ATOM     94  O   UNL A   1      44.727  24.605  37.818  1.00  0.00    -0.237 OA
ATOM     95  O   UNL A   1      44.327  23.260  35.780  1.00  0.00    -0.237 OA
ATOM     96  O   UNL A   1      46.591  23.400  36.745  1.00  0.00    -0.744 OA
ENDBRANCH  89  93
ENDBRANCH  63  86
ENDBRANCH  37  38
ENDBRANCH  29  32
ENDBRANCH  27  28
ENDBRANCH  26  27
ENDBRANCH   1  26
TORSDOF 18
ENDMDL
