MODEL 1
REMARK VINA RESULT:     -12.9      0.000      0.000
REMARK SMILES NS(=O)(=O)c1ccc(-n2nc(C(F)(F)F)cc2-c2ccc(C(=O)NCCCNC(=O)c3ccc(-c4c5nc(c(-c6cc(S(=O)(=O)[O-])ccc6F)c6ccc([nH]6)c(-c6cc(S(=O)(=O)[O-])ccc6F)c6nc(c(-c7cc(S(=O)(=O)[O-])ccc7F)c7ccc4[nH]7)C=C6)C=C5)cc3)cc2)cc1
REMARK SMILES IDX 25 1 24 2 22 3 23 4 21 6 18 7 19 8 95 9 20 10 94 11 17 12
REMARK SMILES IDX 9 13 10 14 11 15 16 16 8 17 5 18 6 19 97 20 7 21 96 22 2 23
REMARK SMILES IDX 3 24 4 25 1 26 12 29 13 30 14 31 15 32 26 33 27 34 28 35
REMARK SMILES IDX 29 36 30 38 31 39 32 40 93 41 33 42 92 43 34 44 35 45 36 46
REMARK SMILES IDX 86 47 37 48 91 49 85 50 87 51 38 52 90 53 84 54 83 55 39 57
REMARK SMILES IDX 71 58 51 59 70 60 52 61 55 62 69 63 88 64 53 65 54 66 68 68
REMARK SMILES IDX 89 69 56 70 40 71 41 72 49 73 42 74 48 75 50 76 47 77 43 78
REMARK SMILES IDX 44 79 45 80 46 81 72 82 73 83 81 84 74 85 80 86 82 87 79 88
REMARK SMILES IDX 75 89 76 90 77 91 78 92 57 93 58 94 66 95 59 96 65 97 67 98
REMARK SMILES IDX 64 99 60 100 61 101 62 102 63 103
REMARK H PARENT 24 5 1 27 1 28 28 37 87 56 55 67
REMARK Flexibility Score: inf
ROOT
ATOM      1  C   UNL A   1      32.087  31.419  26.746  1.00  0.00     0.118 C 
ENDROOT
BRANCH   1   2
ATOM      2  N   UNL A   1      33.202  31.044  27.602  1.00  0.00    -0.352 N 
ATOM      3  C   UNL A   1      33.864  29.849  27.752  1.00  0.00     0.251 C 
ATOM      4  O   UNL A   1      34.865  29.812  28.464  1.00  0.00    -0.269 OA
ATOM      5  H   UNL A   1      33.541  31.771  28.172  1.00  0.00     0.163 HD
BRANCH   3   6
ATOM      6  C   UNL A   1      33.442  28.615  27.037  1.00  0.00     0.039 A 
ATOM      7  C   UNL A   1      32.685  26.350  25.568  1.00  0.00     0.000 A 
ATOM      8  C   UNL A   1      33.878  27.018  25.265  1.00  0.00     0.011 A 
ATOM      9  C   UNL A   1      31.890  26.795  26.618  1.00  0.00     0.011 A 
ATOM     10  C   UNL A   1      34.254  28.147  25.997  1.00  0.00     0.014 A 
ATOM     11  C   UNL A   1      32.297  27.890  27.370  1.00  0.00     0.014 A 
BRANCH   7  12
ATOM     12  C   UNL A   1      32.296  25.136  24.874  1.00  0.00     0.075 A 
ATOM     13  N   UNL A   1      31.247  25.053  23.973  1.00  0.00    -0.233 N 
ATOM     14  N   UNL A   1      30.995  23.770  23.609  1.00  0.00    -0.163 NA
ATOM     15  C   UNL A   1      32.031  23.063  24.111  1.00  0.00     0.167 A 
ATOM     16  C   UNL A   1      32.839  23.874  24.943  1.00  0.00     0.064 A 
BRANCH  13  17
ATOM     17  C   UNL A   1      30.469  26.132  23.487  1.00  0.00     0.065 A 
ATOM     18  C   UNL A   1      29.058  28.436  22.834  1.00  0.00     0.082 A 
ATOM     19  C   UNL A   1      30.347  28.257  22.329  1.00  0.00     0.024 A 
ATOM     20  C   UNL A   1      28.458  27.455  23.634  1.00  0.00     0.024 A 
ATOM     21  C   UNL A   1      31.057  27.106  22.663  1.00  0.00     0.030 A 
ATOM     22  C   UNL A   1      29.156  26.283  23.940  1.00  0.00     0.030 A 
BRANCH  18  23
ATOM     23  S   UNL A   1      28.227  29.940  22.421  1.00  0.00     0.238 S 
ATOM     24  O   UNL A   1      27.144  30.125  23.346  1.00  0.00    -0.207 OA
ATOM     25  O   UNL A   1      28.057  29.982  20.982  1.00  0.00    -0.207 OA
BRANCH  23  26
ATOM     26  N   UNL A   1      29.334  31.156  22.768  1.00  0.00    -0.225 NA
ATOM     27  H   UNL A   1      29.293  31.381  23.762  1.00  0.00     0.137 HD
ATOM     28  H   UNL A   1      29.110  31.987  22.222  1.00  0.00     0.137 HD
ENDBRANCH  23  26
ENDBRANCH  18  23
ENDBRANCH  13  17
BRANCH  15  29
ATOM     29  C   UNL A   1      32.274  21.609  23.814  1.00  0.00     0.435 C 
ATOM     30  F   UNL A   1      31.708  20.774  24.723  1.00  0.00    -0.164 F 
ATOM     31  F   UNL A   1      31.799  21.252  22.590  1.00  0.00    -0.164 F 
ATOM     32  F   UNL A   1      33.606  21.316  23.801  1.00  0.00    -0.164 F 
ENDBRANCH  15  29
ENDBRANCH   7  12
ENDBRANCH   3   6
ENDBRANCH   1   2
BRANCH   1  33
ATOM     33  C   UNL A   1      31.505  32.790  27.122  1.00  0.00     0.042 C 
BRANCH  33  34
ATOM     34  C   UNL A   1      32.552  33.884  27.110  1.00  0.00     0.118 C 
BRANCH  34  35
ATOM     35  N   UNL A   1      32.478  34.724  28.308  1.00  0.00    -0.352 N 
ATOM     36  C   UNL A   1      33.221  34.639  29.471  1.00  0.00     0.251 C 
ATOM     37  H   UNL A   1      31.809  35.445  28.282  1.00  0.00     0.163 HD
ATOM     38  O   UNL A   1      32.806  35.151  30.504  1.00  0.00    -0.269 OA
BRANCH  36  39
ATOM     39  C   UNL A   1      34.507  33.922  29.439  1.00  0.00     0.039 A 
ATOM     40  C   UNL A   1      35.498  34.197  28.491  1.00  0.00     0.014 A 
ATOM     41  C   UNL A   1      34.720  32.967  30.425  1.00  0.00     0.014 A 
ATOM     42  C   UNL A   1      36.725  33.543  28.595  1.00  0.00     0.010 A 
ATOM     43  C   UNL A   1      35.984  32.517  30.666  1.00  0.00     0.010 A 
ATOM     44  C   UNL A   1      36.957  32.709  29.698  1.00  0.00    -0.014 A 
BRANCH  44  45
ATOM     45  C   UNL A   1      38.240  32.071  29.960  1.00  0.00     0.031 A 
ATOM     46  C   UNL A   1      38.311  30.665  29.493  1.00  0.00     0.074 A 
ATOM     47  C   UNL A   1      39.336  32.805  30.267  1.00  0.00     0.049 A 
ATOM     48  N   UNL A   1      38.339  29.590  30.209  1.00  0.00    -0.248 NA
ATOM     49  C   UNL A   1      38.114  30.407  28.055  1.00  0.00     0.031 C 
ATOM     50  C   UNL A   1      39.433  34.267  30.392  1.00  0.00     0.029 A 
ATOM     51  N   UNL A   1      40.632  32.419  30.383  1.00  0.00    -0.354 N 
ATOM     52  C   UNL A   1      38.466  28.545  29.298  1.00  0.00     0.074 A 
ATOM     53  C   UNL A   1      38.017  29.077  28.044  1.00  0.00     0.031 C 
ATOM     54  C   UNL A   1      40.727  34.646  30.311  1.00  0.00     0.029 A 
ATOM     55  C   UNL A   1      41.561  33.458  30.295  1.00  0.00     0.049 A 
ATOM     56  H   UNL A   1      40.897  31.482  30.518  1.00  0.00     0.167 HD
ATOM     57  C   UNL A   1      39.235  27.455  29.583  1.00  0.00     0.034 A 
ATOM     58  C   UNL A   1      42.914  33.348  30.173  1.00  0.00     0.034 A 
ATOM     59  C   UNL A   1      39.574  27.435  30.996  1.00  0.00     0.049 A 
ATOM     60  C   UNL A   1      43.262  31.976  30.627  1.00  0.00     0.074 A 
ATOM     61  C   UNL A   1      38.840  27.450  32.168  1.00  0.00     0.029 A 
ATOM     62  N   UNL A   1      40.849  27.821  31.358  1.00  0.00    -0.354 N 
ATOM     63  N   UNL A   1      43.080  31.563  31.852  1.00  0.00    -0.248 NA
ATOM     64  C   UNL A   1      43.312  30.921  29.625  1.00  0.00     0.031 C 
ATOM     65  C   UNL A   1      39.560  28.320  33.040  1.00  0.00     0.029 A 
ATOM     66  C   UNL A   1      40.744  28.705  32.403  1.00  0.00     0.049 A 
ATOM     67  H   UNL A   1      41.687  27.515  30.940  1.00  0.00     0.167 HD
ATOM     68  C   UNL A   1      42.551  30.286  31.727  1.00  0.00     0.074 A 
ATOM     69  C   UNL A   1      42.816  29.904  30.339  1.00  0.00     0.031 C 
ATOM     70  C   UNL A   1      41.681  29.786  32.657  1.00  0.00     0.034 A 
BRANCH  57  71
ATOM     71  C   UNL A   1      40.036  26.655  28.566  1.00  0.00     0.023 A 
ATOM     72  C   UNL A   1      41.120  27.322  27.965  1.00  0.00     0.031 A 
ATOM     73  C   UNL A   1      39.664  25.438  27.951  1.00  0.00     0.131 A 
ATOM     74  C   UNL A   1      41.657  26.888  26.743  1.00  0.00     0.055 A 
ATOM     75  C   UNL A   1      40.247  24.972  26.766  1.00  0.00     0.041 A 
ATOM     76  F   UNL A   1      38.678  24.656  28.398  1.00  0.00    -0.206 F 
ATOM     77  C   UNL A   1      41.218  25.719  26.130  1.00  0.00     0.022 A 
BRANCH  74  78
ATOM     78  S   UNL A   1      42.794  27.995  25.876  1.00  0.00     0.124 S 
ATOM     79  O   UNL A   1      42.393  29.292  26.411  1.00  0.00    -0.237 OA
ATOM     80  O   UNL A   1      44.091  27.489  26.310  1.00  0.00    -0.237 OA
ATOM     81  O   UNL A   1      42.474  27.772  24.469  1.00  0.00    -0.744 OA
ENDBRANCH  74  78
ENDBRANCH  57  71
BRANCH  58  82
ATOM     82  C   UNL A   1      43.836  34.230  29.395  1.00  0.00     0.023 A 
ATOM     83  C   UNL A   1      44.359  33.889  28.127  1.00  0.00     0.031 A 
ATOM     84  C   UNL A   1      44.035  35.565  29.816  1.00  0.00     0.131 A 
ATOM     85  C   UNL A   1      45.044  34.860  27.349  1.00  0.00     0.055 A 
ATOM     86  C   UNL A   1      44.711  36.516  29.047  1.00  0.00     0.041 A 
ATOM     87  F   UNL A   1      43.501  36.017  30.962  1.00  0.00    -0.206 F 
ATOM     88  C   UNL A   1      45.211  36.169  27.803  1.00  0.00     0.022 A 
BRANCH  85  89
ATOM     89  S   UNL A   1      45.664  34.456  25.678  1.00  0.00     0.124 S 
ATOM     90  O   UNL A   1      46.652  35.504  25.450  1.00  0.00    -0.237 OA
ATOM     91  O   UNL A   1      46.179  33.104  25.852  1.00  0.00    -0.237 OA
ATOM     92  O   UNL A   1      44.470  34.550  24.836  1.00  0.00    -0.744 OA
ENDBRANCH  85  89
ENDBRANCH  58  82
BRANCH  70  93
ATOM     93  C   UNL A   1      41.531  30.519  33.978  1.00  0.00     0.023 A 
ATOM     94  C   UNL A   1      40.573  31.525  34.250  1.00  0.00     0.031 A 
ATOM     95  C   UNL A   1      42.323  30.069  35.050  1.00  0.00     0.131 A 
ATOM     96  C   UNL A   1      40.445  32.043  35.556  1.00  0.00     0.055 A 
ATOM     97  C   UNL A   1      42.178  30.568  36.343  1.00  0.00     0.041 A 
ATOM     98  F   UNL A   1      43.230  29.097  34.864  1.00  0.00    -0.206 F 
ATOM     99  C   UNL A   1      41.241  31.562  36.600  1.00  0.00     0.022 A 
BRANCH  96 100
ATOM    100  S   UNL A   1      39.248  33.369  35.925  1.00  0.00     0.124 S 
ATOM    101  O   UNL A   1      40.002  34.592  35.670  1.00  0.00    -0.237 OA
ATOM    102  O   UNL A   1      38.160  33.082  34.994  1.00  0.00    -0.237 OA
ATOM    103  O   UNL A   1      38.915  33.144  37.333  1.00  0.00    -0.744 OA
ENDBRANCH  96 100
ENDBRANCH  70  93
ENDBRANCH  44  45
ENDBRANCH  36  39
ENDBRANCH  34  35
ENDBRANCH  33  34
ENDBRANCH   1  33
TORSDOF 18
ENDMDL
MODEL 2
REMARK VINA RESULT:     -12.8      4.925      9.756
REMARK SMILES NS(=O)(=O)c1ccc(-n2nc(C(F)(F)F)cc2-c2ccc(C(=O)NCCCNC(=O)c3ccc(-c4c5nc(c(-c6cc(S(=O)(=O)[O-])ccc6F)c6ccc([nH]6)c(-c6cc(S(=O)(=O)[O-])ccc6F)c6nc(c(-c7cc(S(=O)(=O)[O-])ccc7F)c7ccc4[nH]7)C=C6)C=C5)cc3)cc2)cc1
REMARK SMILES IDX 25 1 24 2 22 3 23 4 21 6 18 7 19 8 95 9 20 10 94 11 17 12
REMARK SMILES IDX 9 13 10 14 11 15 16 16 8 17 5 18 6 19 97 20 7 21 96 22 2 23
REMARK SMILES IDX 3 24 4 25 1 26 12 29 13 30 14 31 15 32 26 33 27 34 28 35
REMARK SMILES IDX 29 36 30 38 31 39 32 40 93 41 33 42 92 43 34 44 35 45 36 46
REMARK SMILES IDX 86 47 37 48 91 49 85 50 87 51 38 52 90 53 84 54 83 55 39 57
REMARK SMILES IDX 71 58 51 59 70 60 52 61 55 62 69 63 88 64 53 65 54 66 68 68
REMARK SMILES IDX 89 69 56 70 40 71 41 72 49 73 42 74 48 75 50 76 47 77 43 78
REMARK SMILES IDX 44 79 45 80 46 81 72 82 73 83 81 84 74 85 80 86 82 87 79 88
REMARK SMILES IDX 75 89 76 90 77 91 78 92 57 93 58 94 66 95 59 96 65 97 67 98
REMARK SMILES IDX 64 99 60 100 61 101 62 102 63 103
REMARK H PARENT 24 5 1 27 1 28 28 37 87 56 55 67
REMARK Flexibility Score: inf
ROOT
ATOM      1  C   UNL A   1      37.904  20.713  25.254  1.00  0.00     0.118 C 
ENDROOT
BRANCH   1   2
ATOM      2  N   UNL A   1      38.613  21.953  25.532  1.00  0.00    -0.352 N 
ATOM      3  C   UNL A   1      38.181  23.258  25.542  1.00  0.00     0.251 C 
ATOM      4  O   UNL A   1      38.952  24.134  25.928  1.00  0.00    -0.269 OA
ATOM      5  H   UNL A   1      39.566  21.838  25.752  1.00  0.00     0.163 HD
BRANCH   3   6
ATOM      6  C   UNL A   1      36.796  23.637  25.155  1.00  0.00     0.039 A 
ATOM      7  C   UNL A   1      34.138  24.287  24.544  1.00  0.00     0.000 A 
ATOM      8  C   UNL A   1      34.612  24.424  25.854  1.00  0.00     0.011 A 
ATOM      9  C   UNL A   1      34.997  23.855  23.540  1.00  0.00     0.011 A 
ATOM     10  C   UNL A   1      35.936  24.099  26.158  1.00  0.00     0.014 A 
ATOM     11  C   UNL A   1      36.324  23.580  23.843  1.00  0.00     0.014 A 
BRANCH   7  12
ATOM     12  C   UNL A   1      32.789  24.679  24.178  1.00  0.00     0.075 A 
ATOM     13  N   UNL A   1      31.808  23.798  23.754  1.00  0.00    -0.233 N 
ATOM     14  N   UNL A   1      30.702  24.450  23.312  1.00  0.00    -0.163 NA
ATOM     15  C   UNL A   1      30.901  25.738  23.665  1.00  0.00     0.167 A 
ATOM     16  C   UNL A   1      32.211  25.927  24.167  1.00  0.00     0.064 A 
BRANCH  13  17
ATOM     17  C   UNL A   1      31.903  22.385  23.722  1.00  0.00     0.065 A 
ATOM     18  C   UNL A   1      32.458  19.663  23.637  1.00  0.00     0.082 A 
ATOM     19  C   UNL A   1      32.353  20.302  24.874  1.00  0.00     0.024 A 
ATOM     20  C   UNL A   1      32.252  20.370  22.445  1.00  0.00     0.024 A 
ATOM     21  C   UNL A   1      32.083  21.668  24.917  1.00  0.00     0.030 A 
ATOM     22  C   UNL A   1      31.945  21.733  22.487  1.00  0.00     0.030 A 
BRANCH  18  23
ATOM     23  S   UNL A   1      32.856  17.942  23.644  1.00  0.00     0.238 S 
ATOM     24  O   UNL A   1      34.156  17.782  24.232  1.00  0.00    -0.207 OA
ATOM     25  O   UNL A   1      32.496  17.389  22.353  1.00  0.00    -0.207 OA
BRANCH  23  26
ATOM     26  N   UNL A   1      31.777  17.252  24.733  1.00  0.00    -0.225 NA
ATOM     27  H   UNL A   1      31.549  17.929  25.462  1.00  0.00     0.137 HD
ATOM     28  H   UNL A   1      32.201  16.427  25.157  1.00  0.00     0.137 HD
ENDBRANCH  23  26
ENDBRANCH  18  23
ENDBRANCH  13  17
BRANCH  15  29
ATOM     29  C   UNL A   1      29.858  26.812  23.532  1.00  0.00     0.435 C 
ATOM     30  F   UNL A   1      29.917  27.473  22.346  1.00  0.00    -0.164 F 
ATOM     31  F   UNL A   1      28.596  26.318  23.655  1.00  0.00    -0.164 F 
ATOM     32  F   UNL A   1      29.988  27.760  24.505  1.00  0.00    -0.164 F 
ENDBRANCH  15  29
ENDBRANCH   7  12
ENDBRANCH   3   6
ENDBRANCH   1   2
BRANCH   1  33
ATOM     33  C   UNL A   1      38.866  19.541  25.005  1.00  0.00     0.042 C 
BRANCH  33  34
ATOM     34  C   UNL A   1      39.731  19.240  26.211  1.00  0.00     0.118 C 
BRANCH  34  35
ATOM     35  N   UNL A   1      41.117  18.955  25.832  1.00  0.00    -0.352 N 
ATOM     36  C   UNL A   1      42.194  19.820  25.780  1.00  0.00     0.251 C 
ATOM     37  H   UNL A   1      41.307  18.023  25.580  1.00  0.00     0.163 HD
ATOM     38  O   UNL A   1      43.176  19.537  25.104  1.00  0.00    -0.269 OA
BRANCH  36  39
ATOM     39  C   UNL A   1      42.131  21.077  26.544  1.00  0.00     0.039 A 
ATOM     40  C   UNL A   1      42.057  21.105  27.940  1.00  0.00     0.014 A 
ATOM     41  C   UNL A   1      42.182  22.260  25.816  1.00  0.00     0.014 A 
ATOM     42  C   UNL A   1      42.103  22.339  28.589  1.00  0.00     0.010 A 
ATOM     43  C   UNL A   1      42.468  23.430  26.452  1.00  0.00     0.010 A 
ATOM     44  C   UNL A   1      42.319  23.497  27.829  1.00  0.00    -0.014 A 
BRANCH  44  45
ATOM     45  C   UNL A   1      42.497  24.817  28.417  1.00  0.00     0.031 A 
ATOM     46  C   UNL A   1      41.336  25.718  28.219  1.00  0.00     0.074 A 
ATOM     47  C   UNL A   1      43.463  25.047  29.338  1.00  0.00     0.049 A 
ATOM     48  N   UNL A   1      41.257  26.757  27.456  1.00  0.00    -0.248 NA
ATOM     49  C   UNL A   1      40.035  25.295  28.770  1.00  0.00     0.031 C 
ATOM     50  C   UNL A   1      44.443  24.089  29.872  1.00  0.00     0.029 A 
ATOM     51  N   UNL A   1      43.681  26.143  30.110  1.00  0.00    -0.354 N 
ATOM     52  C   UNL A   1      39.984  27.279  27.675  1.00  0.00     0.074 A 
ATOM     53  C   UNL A   1      39.219  26.196  28.221  1.00  0.00     0.031 C 
ATOM     54  C   UNL A   1      44.959  24.563  31.027  1.00  0.00     0.029 A 
ATOM     55  C   UNL A   1      44.479  25.917  31.233  1.00  0.00     0.049 A 
ATOM     56  H   UNL A   1      43.306  27.026  29.896  1.00  0.00     0.167 HD
ATOM     57  C   UNL A   1      39.774  28.626  27.702  1.00  0.00     0.034 A 
ATOM     58  C   UNL A   1      44.693  26.765  32.278  1.00  0.00     0.034 A 
ATOM     59  C   UNL A   1      40.930  29.326  27.171  1.00  0.00     0.049 A 
ATOM     60  C   UNL A   1      44.330  28.122  31.793  1.00  0.00     0.074 A 
ATOM     61  C   UNL A   1      41.630  29.277  25.980  1.00  0.00     0.029 A 
ATOM     62  N   UNL A   1      41.783  29.935  28.071  1.00  0.00    -0.354 N 
ATOM     63  N   UNL A   1      44.970  28.732  30.832  1.00  0.00    -0.248 NA
ATOM     64  C   UNL A   1      42.960  28.574  32.000  1.00  0.00     0.031 C 
ATOM     65  C   UNL A   1      43.003  29.376  26.356  1.00  0.00     0.029 A 
ATOM     66  C   UNL A   1      43.069  29.589  27.736  1.00  0.00     0.049 A 
ATOM     67  H   UNL A   1      41.516  30.516  28.820  1.00  0.00     0.167 HD
ATOM     68  C   UNL A   1      43.979  29.296  30.040  1.00  0.00     0.074 A 
ATOM     69  C   UNL A   1      42.771  29.257  30.865  1.00  0.00     0.031 C 
ATOM     70  C   UNL A   1      44.155  29.455  28.693  1.00  0.00     0.034 A 
BRANCH  57  71
ATOM     71  C   UNL A   1      38.749  29.338  28.574  1.00  0.00     0.023 A 
ATOM     72  C   UNL A   1      39.017  29.358  29.957  1.00  0.00     0.031 A 
ATOM     73  C   UNL A   1      37.441  29.730  28.210  1.00  0.00     0.131 A 
ATOM     74  C   UNL A   1      37.996  29.578  30.894  1.00  0.00     0.055 A 
ATOM     75  C   UNL A   1      36.441  30.015  29.148  1.00  0.00     0.041 A 
ATOM     76  F   UNL A   1      37.016  29.799  26.947  1.00  0.00    -0.206 F 
ATOM     77  C   UNL A   1      36.702  29.896  30.499  1.00  0.00     0.022 A 
BRANCH  74  78
ATOM     78  S   UNL A   1      38.356  29.236  32.633  1.00  0.00     0.124 S 
ATOM     79  O   UNL A   1      38.567  30.583  33.152  1.00  0.00    -0.237 OA
ATOM     80  O   UNL A   1      37.135  28.562  33.062  1.00  0.00    -0.237 OA
ATOM     81  O   UNL A   1      39.547  28.393  32.572  1.00  0.00    -0.744 OA
ENDBRANCH  74  78
ENDBRANCH  57  71
BRANCH  58  82
ATOM     82  C   UNL A   1      44.872  26.414  33.719  1.00  0.00     0.023 A 
ATOM     83  C   UNL A   1      43.866  26.585  34.697  1.00  0.00     0.031 A 
ATOM     84  C   UNL A   1      46.007  25.666  34.113  1.00  0.00     0.131 A 
ATOM     85  C   UNL A   1      44.022  26.026  35.993  1.00  0.00     0.055 A 
ATOM     86  C   UNL A   1      46.155  25.119  35.391  1.00  0.00     0.041 A 
ATOM     87  F   UNL A   1      46.978  25.367  33.236  1.00  0.00    -0.206 F 
ATOM     88  C   UNL A   1      45.157  25.291  36.335  1.00  0.00     0.022 A 
BRANCH  85  89
ATOM     89  S   UNL A   1      42.700  26.178  37.246  1.00  0.00     0.124 S 
ATOM     90  O   UNL A   1      43.455  26.222  38.492  1.00  0.00    -0.237 OA
ATOM     91  O   UNL A   1      42.030  27.411  36.848  1.00  0.00    -0.237 OA
ATOM     92  O   UNL A   1      41.905  24.964  37.056  1.00  0.00    -0.744 OA
ENDBRANCH  85  89
ENDBRANCH  58  82
BRANCH  70  93
ATOM     93  C   UNL A   1      45.550  29.286  28.118  1.00  0.00     0.023 A 
ATOM     94  C   UNL A   1      46.090  28.072  27.629  1.00  0.00     0.031 A 
ATOM     95  C   UNL A   1      46.312  30.454  27.941  1.00  0.00     0.131 A 
ATOM     96  C   UNL A   1      47.353  28.066  26.999  1.00  0.00     0.055 A 
ATOM     97  C   UNL A   1      47.548  30.447  27.299  1.00  0.00     0.041 A 
ATOM     98  F   UNL A   1      45.843  31.642  28.357  1.00  0.00    -0.206 F 
ATOM     99  C   UNL A   1      48.077  29.250  26.829  1.00  0.00     0.022 A 
BRANCH  96 100
ATOM    100  S   UNL A   1      48.092  26.510  26.398  1.00  0.00     0.124 S 
ATOM    101  O   UNL A   1      47.245  26.142  25.269  1.00  0.00    -0.237 OA
ATOM    102  O   UNL A   1      49.456  26.914  26.069  1.00  0.00    -0.237 OA
ATOM    103  O   UNL A   1      47.988  25.616  27.552  1.00  0.00    -0.744 OA
ENDBRANCH  96 100
ENDBRANCH  70  93
ENDBRANCH  44  45
ENDBRANCH  36  39
ENDBRANCH  34  35
ENDBRANCH  33  34
ENDBRANCH   1  33
TORSDOF 18
ENDMDL
MODEL 3
REMARK VINA RESULT:     -12.7      1.708      1.993
REMARK SMILES NS(=O)(=O)c1ccc(-n2nc(C(F)(F)F)cc2-c2ccc(C(=O)NCCCNC(=O)c3ccc(-c4c5nc(c(-c6cc(S(=O)(=O)[O-])ccc6F)c6ccc([nH]6)c(-c6cc(S(=O)(=O)[O-])ccc6F)c6nc(c(-c7cc(S(=O)(=O)[O-])ccc7F)c7ccc4[nH]7)C=C6)C=C5)cc3)cc2)cc1
REMARK SMILES IDX 25 1 24 2 22 3 23 4 21 6 18 7 19 8 95 9 20 10 94 11 17 12
REMARK SMILES IDX 9 13 10 14 11 15 16 16 8 17 5 18 6 19 97 20 7 21 96 22 2 23
REMARK SMILES IDX 3 24 4 25 1 26 12 29 13 30 14 31 15 32 26 33 27 34 28 35
REMARK SMILES IDX 29 36 30 38 31 39 32 40 93 41 33 42 92 43 34 44 35 45 36 46
REMARK SMILES IDX 86 47 37 48 91 49 85 50 87 51 38 52 90 53 84 54 83 55 39 57
REMARK SMILES IDX 71 58 51 59 70 60 52 61 55 62 69 63 88 64 53 65 54 66 68 68
REMARK SMILES IDX 89 69 56 70 40 71 41 72 49 73 42 74 48 75 50 76 47 77 43 78
REMARK SMILES IDX 44 79 45 80 46 81 72 82 73 83 81 84 74 85 80 86 82 87 79 88
REMARK SMILES IDX 75 89 76 90 77 91 78 92 57 93 58 94 66 95 59 96 65 97 67 98
REMARK SMILES IDX 64 99 60 100 61 101 62 102 63 103
REMARK H PARENT 24 5 1 27 1 28 28 37 87 56 55 67
REMARK Flexibility Score: inf
ROOT
ATOM      1  C   UNL A   1      31.949  31.324  26.845  1.00  0.00     0.118 C 
ENDROOT
BRANCH   1   2
ATOM      2  N   UNL A   1      33.087  30.949  27.671  1.00  0.00    -0.352 N 
ATOM      3  C   UNL A   1      33.774  29.763  27.777  1.00  0.00     0.251 C 
ATOM      4  O   UNL A   1      34.789  29.727  28.468  1.00  0.00    -0.269 OA
ATOM      5  H   UNL A   1      33.423  31.668  28.253  1.00  0.00     0.163 HD
BRANCH   3   6
ATOM      6  C   UNL A   1      33.362  28.540  27.038  1.00  0.00     0.039 A 
ATOM      7  C   UNL A   1      32.625  26.298  25.524  1.00  0.00     0.000 A 
ATOM      8  C   UNL A   1      33.819  26.974  25.244  1.00  0.00     0.011 A 
ATOM      9  C   UNL A   1      31.819  26.724  26.574  1.00  0.00     0.011 A 
ATOM     10  C   UNL A   1      34.185  28.092  25.998  1.00  0.00     0.014 A 
ATOM     11  C   UNL A   1      32.216  27.807  27.348  1.00  0.00     0.014 A 
BRANCH   7  12
ATOM     12  C   UNL A   1      32.245  25.094  24.807  1.00  0.00     0.075 A 
ATOM     13  N   UNL A   1      31.203  25.023  23.897  1.00  0.00    -0.233 N 
ATOM     14  N   UNL A   1      30.959  23.745  23.509  1.00  0.00    -0.163 NA
ATOM     15  C   UNL A   1      31.994  23.034  24.007  1.00  0.00     0.167 A 
ATOM     16  C   UNL A   1      32.793  23.834  24.859  1.00  0.00     0.064 A 
BRANCH  13  17
ATOM     17  C   UNL A   1      30.424  26.108  23.424  1.00  0.00     0.065 A 
ATOM     18  C   UNL A   1      29.015  28.420  22.797  1.00  0.00     0.082 A 
ATOM     19  C   UNL A   1      30.300  28.240  22.281  1.00  0.00     0.024 A 
ATOM     20  C   UNL A   1      28.418  27.435  23.595  1.00  0.00     0.024 A 
ATOM     21  C   UNL A   1      31.009  27.084  22.601  1.00  0.00     0.030 A 
ATOM     22  C   UNL A   1      29.115  26.259  23.889  1.00  0.00     0.030 A 
BRANCH  18  23
ATOM     23  S   UNL A   1      28.185  29.928  22.400  1.00  0.00     0.238 S 
ATOM     24  O   UNL A   1      27.018  30.032  23.230  1.00  0.00    -0.207 OA
ATOM     25  O   UNL A   1      28.146  30.056  20.956  1.00  0.00    -0.207 OA
BRANCH  23  26
ATOM     26  N   UNL A   1      29.223  31.143  22.921  1.00  0.00    -0.225 NA
ATOM     27  H   UNL A   1      28.869  31.545  23.789  1.00  0.00     0.137 HD
ATOM     28  H   UNL A   1      29.280  31.871  22.208  1.00  0.00     0.137 HD
ENDBRANCH  23  26
ENDBRANCH  18  23
ENDBRANCH  13  17
BRANCH  15  29
ATOM     29  C   UNL A   1      32.244  21.587  23.686  1.00  0.00     0.435 C 
ATOM     30  F   UNL A   1      33.564  21.277  23.603  1.00  0.00    -0.164 F 
ATOM     31  F   UNL A   1      31.694  20.755  24.611  1.00  0.00    -0.164 F 
ATOM     32  F   UNL A   1      31.692  21.236  22.489  1.00  0.00    -0.164 F 
ENDBRANCH  15  29
ENDBRANCH   7  12
ENDBRANCH   3   6
ENDBRANCH   1   2
BRANCH   1  33
ATOM     33  C   UNL A   1      31.721  32.844  26.831  1.00  0.00     0.042 C 
BRANCH  33  34
ATOM     34  C   UNL A   1      32.952  33.615  27.257  1.00  0.00     0.118 C 
BRANCH  34  35
ATOM     35  N   UNL A   1      32.639  34.633  28.263  1.00  0.00    -0.352 N 
ATOM     36  C   UNL A   1      33.149  34.770  29.541  1.00  0.00     0.251 C 
ATOM     37  H   UNL A   1      31.977  35.308  27.993  1.00  0.00     0.163 HD
ATOM     38  O   UNL A   1      32.537  35.422  30.378  1.00  0.00    -0.269 OA
BRANCH  36  39
ATOM     39  C   UNL A   1      34.428  34.118  29.868  1.00  0.00     0.039 A 
ATOM     40  C   UNL A   1      34.522  33.060  30.777  1.00  0.00     0.014 A 
ATOM     41  C   UNL A   1      35.557  34.578  29.202  1.00  0.00     0.014 A 
ATOM     42  C   UNL A   1      35.756  32.434  30.952  1.00  0.00     0.010 A 
ATOM     43  C   UNL A   1      36.689  33.820  29.192  1.00  0.00     0.010 A 
ATOM     44  C   UNL A   1      36.833  32.821  30.142  1.00  0.00    -0.014 A 
BRANCH  44  45
ATOM     45  C   UNL A   1      38.128  32.156  30.165  1.00  0.00     0.031 A 
ATOM     46  C   UNL A   1      38.150  30.870  29.425  1.00  0.00     0.074 A 
ATOM     47  C   UNL A   1      39.251  32.825  30.517  1.00  0.00     0.049 A 
ATOM     48  N   UNL A   1      38.230  29.676  29.909  1.00  0.00    -0.248 NA
ATOM     49  C   UNL A   1      37.831  30.900  27.985  1.00  0.00     0.031 C 
ATOM     50  C   UNL A   1      39.369  34.235  30.920  1.00  0.00     0.029 A 
ATOM     51  N   UNL A   1      40.550  32.437  30.445  1.00  0.00    -0.354 N 
ATOM     52  C   UNL A   1      38.273  28.832  28.801  1.00  0.00     0.074 A 
ATOM     53  C   UNL A   1      37.723  29.597  27.720  1.00  0.00     0.031 C 
ATOM     54  C   UNL A   1      40.654  34.635  30.807  1.00  0.00     0.029 A 
ATOM     55  C   UNL A   1      41.475  33.481  30.486  1.00  0.00     0.049 A 
ATOM     56  H   UNL A   1      40.819  31.494  30.369  1.00  0.00     0.167 HD
ATOM     57  C   UNL A   1      39.055  27.715  28.800  1.00  0.00     0.034 A 
ATOM     58  C   UNL A   1      42.813  33.411  30.231  1.00  0.00     0.034 A 
ATOM     59  C   UNL A   1      39.511  27.420  30.147  1.00  0.00     0.049 A 
ATOM     60  C   UNL A   1      43.188  31.980  30.374  1.00  0.00     0.074 A 
ATOM     61  C   UNL A   1      38.880  27.196  31.357  1.00  0.00     0.029 A 
ATOM     62  N   UNL A   1      40.816  27.739  30.470  1.00  0.00    -0.354 N 
ATOM     63  N   UNL A   1      43.107  31.331  31.505  1.00  0.00    -0.248 NA
ATOM     64  C   UNL A   1      43.145  31.144  29.183  1.00  0.00     0.031 C 
ATOM     65  C   UNL A   1      39.677  27.884  32.320  1.00  0.00     0.029 A 
ATOM     66  C   UNL A   1      40.805  28.398  31.674  1.00  0.00     0.049 A 
ATOM     67  H   UNL A   1      41.613  27.530  29.931  1.00  0.00     0.167 HD
ATOM     68  C   UNL A   1      42.560  30.099  31.174  1.00  0.00     0.074 A 
ATOM     69  C   UNL A   1      42.704  30.001  29.721  1.00  0.00     0.031 C 
ATOM     70  C   UNL A   1      41.769  29.416  32.057  1.00  0.00     0.034 A 
BRANCH  57  71
ATOM     71  C   UNL A   1      39.761  27.139  27.581  1.00  0.00     0.023 A 
ATOM     72  C   UNL A   1      39.747  25.736  27.460  1.00  0.00     0.031 A 
ATOM     73  C   UNL A   1      40.658  27.808  26.718  1.00  0.00     0.131 A 
ATOM     74  C   UNL A   1      40.688  25.064  26.665  1.00  0.00     0.055 A 
ATOM     75  C   UNL A   1      41.552  27.135  25.876  1.00  0.00     0.041 A 
ATOM     76  F   UNL A   1      40.789  29.136  26.673  1.00  0.00    -0.206 F 
ATOM     77  C   UNL A   1      41.603  25.754  25.879  1.00  0.00     0.022 A 
BRANCH  74  78
ATOM     78  S   UNL A   1      40.821  23.269  26.847  1.00  0.00     0.124 S 
ATOM     79  O   UNL A   1      41.330  23.156  28.209  1.00  0.00    -0.237 OA
ATOM     80  O   UNL A   1      39.441  22.846  26.636  1.00  0.00    -0.237 OA
ATOM     81  O   UNL A   1      41.758  22.892  25.793  1.00  0.00    -0.744 OA
ENDBRANCH  74  78
ENDBRANCH  57  71
BRANCH  58  82
ATOM     82  C   UNL A   1      43.672  34.438  29.568  1.00  0.00     0.023 A 
ATOM     83  C   UNL A   1      43.163  35.486  28.769  1.00  0.00     0.031 A 
ATOM     84  C   UNL A   1      45.040  34.526  29.919  1.00  0.00     0.131 A 
ATOM     85  C   UNL A   1      44.008  36.550  28.357  1.00  0.00     0.055 A 
ATOM     86  C   UNL A   1      45.868  35.574  29.509  1.00  0.00     0.041 A 
ATOM     87  F   UNL A   1      45.602  33.632  30.749  1.00  0.00    -0.206 F 
ATOM     88  C   UNL A   1      45.352  36.598  28.732  1.00  0.00     0.022 A 
BRANCH  85  89
ATOM     89  S   UNL A   1      43.350  37.949  27.383  1.00  0.00     0.124 S 
ATOM     90  O   UNL A   1      44.555  38.506  26.781  1.00  0.00    -0.237 OA
ATOM     91  O   UNL A   1      42.417  37.289  26.477  1.00  0.00    -0.237 OA
ATOM     92  O   UNL A   1      42.719  38.803  28.391  1.00  0.00    -0.744 OA
ENDBRANCH  85  89
ENDBRANCH  58  82
BRANCH  70  93
ATOM     93  C   UNL A   1      41.736  29.873  33.505  1.00  0.00     0.023 A 
ATOM     94  C   UNL A   1      40.772  30.746  34.065  1.00  0.00     0.031 A 
ATOM     95  C   UNL A   1      42.660  29.277  34.382  1.00  0.00     0.131 A 
ATOM     96  C   UNL A   1      40.769  30.996  35.453  1.00  0.00     0.055 A 
ATOM     97  C   UNL A   1      42.639  29.509  35.755  1.00  0.00     0.041 A 
ATOM     98  F   UNL A   1      43.581  28.417  33.917  1.00  0.00    -0.206 F 
ATOM     99  C   UNL A   1      41.696  30.375  36.297  1.00  0.00     0.022 A 
BRANCH  96 100
ATOM    100  S   UNL A   1      39.566  32.150  36.195  1.00  0.00     0.124 S 
ATOM    101  O   UNL A   1      39.663  33.335  35.352  1.00  0.00    -0.237 OA
ATOM    102  O   UNL A   1      38.315  31.402  36.106  1.00  0.00    -0.237 OA
ATOM    103  O   UNL A   1      40.066  32.331  37.559  1.00  0.00    -0.744 OA
ENDBRANCH  96 100
ENDBRANCH  70  93
ENDBRANCH  44  45
ENDBRANCH  36  39
ENDBRANCH  34  35
ENDBRANCH  33  34
ENDBRANCH   1  33
TORSDOF 18
ENDMDL
