MODEL 1
REMARK VINA RESULT:      -9.5      0.000      0.000
REMARK SMILES Cc1ccc(F)c(NC(=O)[C@@H]2CCCC[C@@H]2C(=O)NCCCNC(=O)c2ccc(-c3c4nc(c(-c5cc(S(=O)(=O)[O-])ccc5F)c5ccc([nH]5)c(-c5cc(S(=O)(=O)[O-])ccc5F)c5nc(c(-c6cc(S(=O)(=O)[O-])ccc6F)c6ccc3[nH]6)C=C5)C=C4)cc2)c1
REMARK SMILES IDX 21 1 20 2 19 3 17 4 18 5 16 7 11 8 12 9 13 10 15 11 14 12
REMARK SMILES IDX 9 13 8 14 10 16 7 17 1 18 2 19 3 20 89 21 4 22 5 23 6 24
REMARK SMILES IDX 22 25 23 26 24 27 25 29 26 30 27 31 88 32 28 33 87 34 29 35
REMARK SMILES IDX 30 36 31 37 81 38 32 39 86 40 80 41 82 42 33 43 85 44 79 45
REMARK SMILES IDX 78 46 34 48 66 49 46 50 65 51 47 52 50 53 64 54 83 55 48 56
REMARK SMILES IDX 49 57 63 59 84 60 51 61 35 62 36 63 44 64 37 65 43 66 45 67
REMARK SMILES IDX 42 68 38 69 39 70 40 71 41 72 67 73 68 74 76 75 69 76 75 77
REMARK SMILES IDX 77 78 74 79 70 80 71 81 72 82 73 83 52 84 53 85 61 86 54 87
REMARK SMILES IDX 60 88 62 89 59 90 55 91 56 92 57 93 58 94
REMARK H PARENT 19 6 8 15 23 28 82 47 50 58
REMARK Flexibility Score: inf
ROOT
ATOM      1  C   UNL A   1      34.378  33.689  29.413  1.00  0.00     0.042 C 
ENDROOT
BRANCH   1   2
ATOM      2  C   UNL A   1      34.711  33.092  30.784  1.00  0.00     0.117 C 
BRANCH   2   3
ATOM      3  N   UNL A   1      35.372  34.087  31.611  1.00  0.00    -0.356 N 
ATOM      4  C   UNL A   1      36.609  34.197  32.163  1.00  0.00     0.223 C 
ATOM      5  O   UNL A   1      36.725  35.161  32.931  1.00  0.00    -0.275 OA
ATOM      6  H   UNL A   1      34.794  34.856  31.819  1.00  0.00     0.163 HD
BRANCH   4   7
ATOM      7  C   UNL A   1      37.836  33.337  31.765  1.00  0.00     0.091 C 
ATOM      8  C   UNL A   1      39.179  33.303  32.548  1.00  0.00     0.091 C 
ATOM      9  C   UNL A   1      40.316  34.298  32.226  1.00  0.00     0.014 C 
ATOM     10  C   UNL A   1      40.377  34.761  30.776  1.00  0.00     0.001 C 
ATOM     11  C   UNL A   1      38.176  33.657  30.284  1.00  0.00     0.014 C 
ATOM     12  C   UNL A   1      39.004  34.937  30.149  1.00  0.00     0.001 C 
BRANCH   8  13
ATOM     13  C   UNL A   1      39.090  32.853  33.991  1.00  0.00     0.228 C 
ATOM     14  N   UNL A   1      38.994  31.583  34.445  1.00  0.00    -0.323 N 
ATOM     15  H   UNL A   1      38.767  31.553  35.403  1.00  0.00     0.170 HD
ATOM     16  O   UNL A   1      39.088  33.731  34.871  1.00  0.00    -0.274 OA
BRANCH  14  17
ATOM     17  C   UNL A   1      39.135  30.288  33.904  1.00  0.00     0.077 A 
ATOM     18  C   UNL A   1      42.060  27.901  33.455  1.00  0.00     0.044 C 
ATOM     19  C   UNL A   1      40.670  28.442  33.482  1.00  0.00    -0.049 A 
ATOM     20  C   UNL A   1      39.648  27.706  32.886  1.00  0.00     0.006 A 
ATOM     21  C   UNL A   1      40.396  29.698  34.047  1.00  0.00     0.032 A 
ATOM     22  C   UNL A   1      38.415  28.297  32.689  1.00  0.00     0.042 A 
ATOM     23  C   UNL A   1      38.203  29.599  33.127  1.00  0.00     0.146 A 
ATOM     24  F   UNL A   1      37.096  30.194  32.680  1.00  0.00    -0.205 F 
ENDBRANCH  14  17
ENDBRANCH   8  13
ENDBRANCH   4   7
ENDBRANCH   2   3
ENDBRANCH   1   2
BRANCH   1  25
ATOM     25  C   UNL A   1      35.005  33.014  28.196  1.00  0.00     0.118 C 
BRANCH  25  26
ATOM     26  N   UNL A   1      34.295  31.809  27.811  1.00  0.00    -0.352 N 
ATOM     27  C   UNL A   1      34.716  30.515  27.606  1.00  0.00     0.251 C 
ATOM     28  H   UNL A   1      33.329  31.942  27.672  1.00  0.00     0.163 HD
ATOM     29  O   UNL A   1      33.934  29.753  27.034  1.00  0.00    -0.269 OA
BRANCH  27  30
ATOM     30  C   UNL A   1      36.057  30.000  28.011  1.00  0.00     0.039 A 
ATOM     31  C   UNL A   1      37.093  30.056  27.067  1.00  0.00     0.014 A 
ATOM     32  C   UNL A   1      36.308  29.362  29.225  1.00  0.00     0.014 A 
ATOM     33  C   UNL A   1      38.368  29.536  27.353  1.00  0.00     0.010 A 
ATOM     34  C   UNL A   1      37.603  28.909  29.537  1.00  0.00     0.010 A 
ATOM     35  C   UNL A   1      38.662  28.998  28.613  1.00  0.00    -0.014 A 
BRANCH  35  36
ATOM     36  C   UNL A   1      40.053  28.561  28.989  1.00  0.00     0.031 A 
ATOM     37  C   UNL A   1      40.944  29.451  29.826  1.00  0.00     0.074 A 
ATOM     38  C   UNL A   1      40.566  27.401  28.514  1.00  0.00     0.049 A 
ATOM     39  N   UNL A   1      42.215  29.313  30.124  1.00  0.00    -0.248 NA
ATOM     40  C   UNL A   1      40.330  30.662  30.386  1.00  0.00     0.031 C 
ATOM     41  C   UNL A   1      39.847  26.420  27.696  1.00  0.00     0.029 A 
ATOM     42  N   UNL A   1      41.834  26.867  28.607  1.00  0.00    -0.354 N 
ATOM     43  C   UNL A   1      42.551  30.419  30.902  1.00  0.00     0.074 A 
ATOM     44  C   UNL A   1      41.368  31.255  30.960  1.00  0.00     0.031 C 
ATOM     45  C   UNL A   1      40.684  25.439  27.330  1.00  0.00     0.029 A 
ATOM     46  C   UNL A   1      42.008  25.710  27.878  1.00  0.00     0.049 A 
ATOM     47  H   UNL A   1      42.550  27.275  29.145  1.00  0.00     0.167 HD
ATOM     48  C   UNL A   1      43.717  30.701  31.540  1.00  0.00     0.034 A 
ATOM     49  C   UNL A   1      43.100  24.951  27.651  1.00  0.00     0.034 A 
ATOM     50  C   UNL A   1      44.888  29.857  31.504  1.00  0.00     0.049 A 
ATOM     51  C   UNL A   1      44.408  25.319  28.304  1.00  0.00     0.074 A 
ATOM     52  C   UNL A   1      46.087  30.021  32.178  1.00  0.00     0.029 A 
ATOM     53  N   UNL A   1      45.018  28.700  30.749  1.00  0.00    -0.354 N 
ATOM     54  N   UNL A   1      44.680  26.338  29.083  1.00  0.00    -0.248 NA
ATOM     55  C   UNL A   1      45.548  24.423  28.065  1.00  0.00     0.031 C 
ATOM     56  C   UNL A   1      46.966  29.012  31.770  1.00  0.00     0.029 A 
ATOM     57  C   UNL A   1      46.291  28.170  30.905  1.00  0.00     0.049 A 
ATOM     58  H   UNL A   1      44.311  28.314  30.184  1.00  0.00     0.167 HD
ATOM     59  C   UNL A   1      46.012  26.180  29.460  1.00  0.00     0.074 A 
ATOM     60  C   UNL A   1      46.485  24.967  28.829  1.00  0.00     0.031 C 
ATOM     61  C   UNL A   1      46.769  26.966  30.266  1.00  0.00     0.034 A 
BRANCH  48  62
ATOM     62  C   UNL A   1      43.787  31.989  32.331  1.00  0.00     0.023 A 
ATOM     63  C   UNL A   1      43.474  32.029  33.701  1.00  0.00     0.031 A 
ATOM     64  C   UNL A   1      44.161  33.193  31.710  1.00  0.00     0.131 A 
ATOM     65  C   UNL A   1      43.454  33.255  34.381  1.00  0.00     0.055 A 
ATOM     66  C   UNL A   1      44.228  34.398  32.414  1.00  0.00     0.041 A 
ATOM     67  F   UNL A   1      44.459  33.224  30.401  1.00  0.00    -0.206 F 
ATOM     68  C   UNL A   1      43.855  34.436  33.755  1.00  0.00     0.022 A 
BRANCH  65  69
ATOM     69  S   UNL A   1      42.742  33.304  36.049  1.00  0.00     0.124 S 
ATOM     70  O   UNL A   1      42.180  34.652  36.088  1.00  0.00    -0.237 OA
ATOM     71  O   UNL A   1      41.777  32.210  36.012  1.00  0.00    -0.237 OA
ATOM     72  O   UNL A   1      43.895  33.091  36.920  1.00  0.00    -0.744 OA
ENDBRANCH  65  69
ENDBRANCH  48  62
BRANCH  49  73
ATOM     73  C   UNL A   1      43.019  23.753  26.763  1.00  0.00     0.023 A 
ATOM     74  C   UNL A   1      42.323  22.603  27.165  1.00  0.00     0.031 A 
ATOM     75  C   UNL A   1      43.684  23.722  25.523  1.00  0.00     0.131 A 
ATOM     76  C   UNL A   1      42.350  21.451  26.364  1.00  0.00     0.055 A 
ATOM     77  C   UNL A   1      43.661  22.591  24.703  1.00  0.00     0.041 A 
ATOM     78  F   UNL A   1      44.360  24.797  25.087  1.00  0.00    -0.206 F 
ATOM     79  C   UNL A   1      43.003  21.441  25.130  1.00  0.00     0.022 A 
BRANCH  76  80
ATOM     80  S   UNL A   1      41.595  19.932  27.006  1.00  0.00     0.124 S 
ATOM     81  O   UNL A   1      40.938  19.404  25.816  1.00  0.00    -0.237 OA
ATOM     82  O   UNL A   1      42.760  19.192  27.479  1.00  0.00    -0.237 OA
ATOM     83  O   UNL A   1      40.698  20.415  28.054  1.00  0.00    -0.744 OA
ENDBRANCH  76  80
ENDBRANCH  49  73
BRANCH  61  84
ATOM     84  C   UNL A   1      48.183  26.518  30.546  1.00  0.00     0.023 A 
ATOM     85  C   UNL A   1      48.481  25.609  31.575  1.00  0.00     0.031 A 
ATOM     86  C   UNL A   1      49.247  27.003  29.764  1.00  0.00     0.131 A 
ATOM     87  C   UNL A   1      49.814  25.244  31.823  1.00  0.00     0.055 A 
ATOM     88  C   UNL A   1      50.564  26.591  29.976  1.00  0.00     0.041 A 
ATOM     89  F   UNL A   1      49.022  27.878  28.771  1.00  0.00    -0.206 F 
ATOM     90  C   UNL A   1      50.854  25.714  31.017  1.00  0.00     0.022 A 
BRANCH  87  91
ATOM     91  S   UNL A   1      50.181  24.200  33.260  1.00  0.00     0.124 S 
ATOM     92  O   UNL A   1      51.192  24.989  33.957  1.00  0.00    -0.237 OA
ATOM     93  O   UNL A   1      48.881  24.106  33.918  1.00  0.00    -0.237 OA
ATOM     94  O   UNL A   1      50.664  22.956  32.666  1.00  0.00    -0.744 OA
ENDBRANCH  87  91
ENDBRANCH  61  84
ENDBRANCH  35  36
ENDBRANCH  27  30
ENDBRANCH  25  26
ENDBRANCH   1  25
TORSDOF 15
ENDMDL
MODEL 2
REMARK VINA RESULT:      -9.3      5.460      9.859
REMARK SMILES Cc1ccc(F)c(NC(=O)[C@@H]2CCCC[C@@H]2C(=O)NCCCNC(=O)c2ccc(-c3c4nc(c(-c5cc(S(=O)(=O)[O-])ccc5F)c5ccc([nH]5)c(-c5cc(S(=O)(=O)[O-])ccc5F)c5nc(c(-c6cc(S(=O)(=O)[O-])ccc6F)c6ccc3[nH]6)C=C5)C=C4)cc2)c1
REMARK SMILES IDX 21 1 20 2 19 3 17 4 18 5 16 7 11 8 12 9 13 10 15 11 14 12
REMARK SMILES IDX 9 13 8 14 10 16 7 17 1 18 2 19 3 20 89 21 4 22 5 23 6 24
REMARK SMILES IDX 22 25 23 26 24 27 25 29 26 30 27 31 88 32 28 33 87 34 29 35
REMARK SMILES IDX 30 36 31 37 81 38 32 39 86 40 80 41 82 42 33 43 85 44 79 45
REMARK SMILES IDX 78 46 34 48 66 49 46 50 65 51 47 52 50 53 64 54 83 55 48 56
REMARK SMILES IDX 49 57 63 59 84 60 51 61 35 62 36 63 44 64 37 65 43 66 45 67
REMARK SMILES IDX 42 68 38 69 39 70 40 71 41 72 67 73 68 74 76 75 69 76 75 77
REMARK SMILES IDX 77 78 74 79 70 80 71 81 72 82 73 83 52 84 53 85 61 86 54 87
REMARK SMILES IDX 60 88 62 89 59 90 55 91 56 92 57 93 58 94
REMARK H PARENT 19 6 8 15 23 28 82 47 50 58
REMARK Flexibility Score: inf
ROOT
ATOM      1  C   UNL A   1      36.560  21.742  23.994  1.00  0.00     0.042 C 
ENDROOT
BRANCH   1   2
ATOM      2  C   UNL A   1      36.706  23.160  23.432  1.00  0.00     0.117 C 
BRANCH   2   3
ATOM      3  N   UNL A   1      35.856  24.077  24.174  1.00  0.00    -0.356 N 
ATOM      4  C   UNL A   1      34.586  24.535  24.019  1.00  0.00     0.223 C 
ATOM      5  O   UNL A   1      34.283  25.434  24.814  1.00  0.00    -0.275 OA
ATOM      6  H   UNL A   1      36.301  24.452  24.967  1.00  0.00     0.163 HD
BRANCH   4   7
ATOM      7  C   UNL A   1      33.527  23.906  23.079  1.00  0.00     0.091 C 
ATOM      8  C   UNL A   1      32.357  24.690  22.419  1.00  0.00     0.091 C 
ATOM      9  C   UNL A   1      30.998  24.850  23.136  1.00  0.00     0.014 C 
ATOM     10  C   UNL A   1      30.619  23.703  24.063  1.00  0.00     0.001 C 
ATOM     11  C   UNL A   1      32.904  22.690  23.818  1.00  0.00     0.014 C 
ATOM     12  C   UNL A   1      31.810  23.114  24.801  1.00  0.00     0.001 C 
BRANCH   8  13
ATOM     13  C   UNL A   1      32.761  25.835  21.513  1.00  0.00     0.228 C 
ATOM     14  N   UNL A   1      32.608  27.158  21.753  1.00  0.00    -0.323 N 
ATOM     15  H   UNL A   1      32.778  27.697  20.947  1.00  0.00     0.170 HD
ATOM     16  O   UNL A   1      33.277  25.552  20.418  1.00  0.00    -0.274 OA
BRANCH  14  17
ATOM     17  C   UNL A   1      32.271  27.966  22.859  1.00  0.00     0.077 A 
ATOM     18  C   UNL A   1      34.020  28.892  26.105  1.00  0.00     0.044 C 
ATOM     19  C   UNL A   1      33.024  28.869  24.993  1.00  0.00    -0.049 A 
ATOM     20  C   UNL A   1      31.812  29.535  25.160  1.00  0.00     0.006 A 
ATOM     21  C   UNL A   1      33.275  28.144  23.816  1.00  0.00     0.032 A 
ATOM     22  C   UNL A   1      30.794  29.323  24.250  1.00  0.00     0.042 A 
ATOM     23  C   UNL A   1      31.011  28.484  23.163  1.00  0.00     0.146 A 
ATOM     24  F   UNL A   1      29.926  28.119  22.479  1.00  0.00    -0.205 F 
ENDBRANCH  14  17
ENDBRANCH   8  13
ENDBRANCH   4   7
ENDBRANCH   2   3
ENDBRANCH   1   2
BRANCH   1  25
ATOM     25  C   UNL A   1      36.786  21.568  25.493  1.00  0.00     0.118 C 
BRANCH  25  26
ATOM     26  N   UNL A   1      37.860  20.636  25.780  1.00  0.00    -0.352 N 
ATOM     27  C   UNL A   1      39.184  20.824  26.105  1.00  0.00     0.251 C 
ATOM     28  H   UNL A   1      37.590  19.689  25.734  1.00  0.00     0.163 HD
ATOM     29  O   UNL A   1      39.925  19.841  26.041  1.00  0.00    -0.269 OA
BRANCH  27  30
ATOM     30  C   UNL A   1      39.767  22.139  26.502  1.00  0.00     0.039 A 
ATOM     31  C   UNL A   1      40.806  22.139  27.444  1.00  0.00     0.014 A 
ATOM     32  C   UNL A   1      39.263  23.369  26.081  1.00  0.00     0.014 A 
ATOM     33  C   UNL A   1      41.366  23.340  27.912  1.00  0.00     0.010 A 
ATOM     34  C   UNL A   1      39.873  24.568  26.493  1.00  0.00     0.010 A 
ATOM     35  C   UNL A   1      40.944  24.578  27.408  1.00  0.00    -0.014 A 
BRANCH  35  36
ATOM     36  C   UNL A   1      41.620  25.867  27.791  1.00  0.00     0.031 A 
ATOM     37  C   UNL A   1      40.849  26.968  28.487  1.00  0.00     0.074 A 
ATOM     38  C   UNL A   1      42.907  26.105  27.444  1.00  0.00     0.049 A 
ATOM     39  N   UNL A   1      41.217  28.197  28.761  1.00  0.00    -0.248 NA
ATOM     40  C   UNL A   1      39.481  26.647  28.916  1.00  0.00     0.031 C 
ATOM     41  C   UNL A   1      43.800  25.155  26.773  1.00  0.00     0.029 A 
ATOM     42  N   UNL A   1      43.682  27.239  27.562  1.00  0.00    -0.354 N 
ATOM     43  C   UNL A   1      40.127  28.795  29.389  1.00  0.00     0.074 A 
ATOM     44  C   UNL A   1      39.060  27.815  29.382  1.00  0.00     0.031 C 
ATOM     45  C   UNL A   1      44.970  25.752  26.502  1.00  0.00     0.029 A 
ATOM     46  C   UNL A   1      44.924  27.131  26.973  1.00  0.00     0.049 A 
ATOM     47  H   UNL A   1      43.376  28.052  28.025  1.00  0.00     0.167 HD
ATOM     48  C   UNL A   1      40.027  30.028  29.952  1.00  0.00     0.034 A 
ATOM     49  C   UNL A   1      45.916  28.030  26.806  1.00  0.00     0.034 A 
ATOM     50  C   UNL A   1      41.098  30.997  29.983  1.00  0.00     0.049 A 
ATOM     51  C   UNL A   1      45.760  29.419  27.369  1.00  0.00     0.074 A 
ATOM     52  C   UNL A   1      41.115  32.240  30.595  1.00  0.00     0.029 A 
ATOM     53  N   UNL A   1      42.333  30.845  29.368  1.00  0.00    -0.354 N 
ATOM     54  N   UNL A   1      44.741  29.937  28.011  1.00  0.00    -0.248 NA
ATOM     55  C   UNL A   1      46.898  30.336  27.205  1.00  0.00     0.031 C 
ATOM     56  C   UNL A   1      42.326  32.869  30.284  1.00  0.00     0.029 A 
ATOM     57  C   UNL A   1      43.099  31.988  29.548  1.00  0.00     0.049 A 
ATOM     58  H   UNL A   1      42.623  30.043  28.876  1.00  0.00     0.167 HD
ATOM     59  C   UNL A   1      45.133  31.227  28.363  1.00  0.00     0.074 A 
ATOM     60  C   UNL A   1      46.482  31.405  27.869  1.00  0.00     0.031 C 
ATOM     61  C   UNL A   1      44.439  32.173  29.045  1.00  0.00     0.034 A 
BRANCH  48  62
ATOM     62  C   UNL A   1      38.704  30.404  30.580  1.00  0.00     0.023 A 
ATOM     63  C   UNL A   1      37.707  31.075  29.850  1.00  0.00     0.031 A 
ATOM     64  C   UNL A   1      38.435  30.099  31.926  1.00  0.00     0.131 A 
ATOM     65  C   UNL A   1      36.532  31.496  30.489  1.00  0.00     0.055 A 
ATOM     66  C   UNL A   1      37.224  30.441  32.533  1.00  0.00     0.041 A 
ATOM     67  F   UNL A   1      39.351  29.471  32.681  1.00  0.00    -0.206 F 
ATOM     68  C   UNL A   1      36.271  31.160  31.818  1.00  0.00     0.022 A 
BRANCH  65  69
ATOM     69  S   UNL A   1      35.426  32.627  29.601  1.00  0.00     0.124 S 
ATOM     70  O   UNL A   1      35.191  31.893  28.360  1.00  0.00    -0.237 OA
ATOM     71  O   UNL A   1      34.286  32.730  30.508  1.00  0.00    -0.237 OA
ATOM     72  O   UNL A   1      36.222  33.842  29.458  1.00  0.00    -0.744 OA
ENDBRANCH  65  69
ENDBRANCH  48  62
BRANCH  49  73
ATOM     73  C   UNL A   1      47.161  27.655  26.071  1.00  0.00     0.023 A 
ATOM     74  C   UNL A   1      47.292  27.907  24.697  1.00  0.00     0.031 A 
ATOM     75  C   UNL A   1      48.216  26.989  26.723  1.00  0.00     0.131 A 
ATOM     76  C   UNL A   1      48.423  27.449  24.004  1.00  0.00     0.055 A 
ATOM     77  C   UNL A   1      49.365  26.585  26.040  1.00  0.00     0.041 A 
ATOM     78  F   UNL A   1      48.146  26.728  28.038  1.00  0.00    -0.206 F 
ATOM     79  C   UNL A   1      49.467  26.802  24.668  1.00  0.00     0.022 A 
BRANCH  76  80
ATOM     80  S   UNL A   1      48.466  27.631  22.200  1.00  0.00     0.124 S 
ATOM     81  O   UNL A   1      47.154  28.208  21.931  1.00  0.00    -0.237 OA
ATOM     82  O   UNL A   1      49.609  28.519  22.014  1.00  0.00    -0.237 OA
ATOM     83  O   UNL A   1      48.657  26.263  21.725  1.00  0.00    -0.744 OA
ENDBRANCH  76  80
ENDBRANCH  49  73
BRANCH  61  84
ATOM     84  C   UNL A   1      45.141  33.478  29.333  1.00  0.00     0.023 A 
ATOM     85  C   UNL A   1      44.976  34.605  28.511  1.00  0.00     0.031 A 
ATOM     86  C   UNL A   1      45.983  33.596  30.454  1.00  0.00     0.131 A 
ATOM     87  C   UNL A   1      45.674  35.789  28.798  1.00  0.00     0.055 A 
ATOM     88  C   UNL A   1      46.629  34.793  30.768  1.00  0.00     0.041 A 
ATOM     89  F   UNL A   1      46.184  32.549  31.272  1.00  0.00    -0.206 F 
ATOM     90  C   UNL A   1      46.483  35.896  29.932  1.00  0.00     0.022 A 
BRANCH  87  91
ATOM     91  S   UNL A   1      45.567  37.170  27.627  1.00  0.00     0.124 S 
ATOM     92  O   UNL A   1      45.500  38.321  28.521  1.00  0.00    -0.237 OA
ATOM     93  O   UNL A   1      46.802  37.028  26.861  1.00  0.00    -0.237 OA
ATOM     94  O   UNL A   1      44.342  36.893  26.879  1.00  0.00    -0.744 OA
ENDBRANCH  87  91
ENDBRANCH  61  84
ENDBRANCH  35  36
ENDBRANCH  27  30
ENDBRANCH  25  26
ENDBRANCH   1  25
TORSDOF 15
ENDMDL
MODEL 3
REMARK VINA RESULT:      -9.1      5.158      9.585
REMARK SMILES Cc1ccc(F)c(NC(=O)[C@@H]2CCCC[C@@H]2C(=O)NCCCNC(=O)c2ccc(-c3c4nc(c(-c5cc(S(=O)(=O)[O-])ccc5F)c5ccc([nH]5)c(-c5cc(S(=O)(=O)[O-])ccc5F)c5nc(c(-c6cc(S(=O)(=O)[O-])ccc6F)c6ccc3[nH]6)C=C5)C=C4)cc2)c1
REMARK SMILES IDX 21 1 20 2 19 3 17 4 18 5 16 7 11 8 12 9 13 10 15 11 14 12
REMARK SMILES IDX 9 13 8 14 10 16 7 17 1 18 2 19 3 20 89 21 4 22 5 23 6 24
REMARK SMILES IDX 22 25 23 26 24 27 25 29 26 30 27 31 88 32 28 33 87 34 29 35
REMARK SMILES IDX 30 36 31 37 81 38 32 39 86 40 80 41 82 42 33 43 85 44 79 45
REMARK SMILES IDX 78 46 34 48 66 49 46 50 65 51 47 52 50 53 64 54 83 55 48 56
REMARK SMILES IDX 49 57 63 59 84 60 51 61 35 62 36 63 44 64 37 65 43 66 45 67
REMARK SMILES IDX 42 68 38 69 39 70 40 71 41 72 67 73 68 74 76 75 69 76 75 77
REMARK SMILES IDX 77 78 74 79 70 80 71 81 72 82 73 83 52 84 53 85 61 86 54 87
REMARK SMILES IDX 60 88 62 89 59 90 55 91 56 92 57 93 58 94
REMARK H PARENT 19 6 8 15 23 28 82 47 50 58
REMARK Flexibility Score: inf
ROOT
ATOM      1  C   UNL A   1      35.841  22.719  26.599  1.00  0.00     0.042 C 
ENDROOT
BRANCH   1   2
ATOM      2  C   UNL A   1      34.399  23.229  26.513  1.00  0.00     0.117 C 
BRANCH   2   3
ATOM      3  N   UNL A   1      34.349  24.444  25.717  1.00  0.00    -0.356 N 
ATOM      4  C   UNL A   1      33.604  24.859  24.660  1.00  0.00     0.223 C 
ATOM      5  O   UNL A   1      33.982  25.937  24.180  1.00  0.00    -0.275 OA
ATOM      6  H   UNL A   1      35.004  25.119  26.009  1.00  0.00     0.163 HD
BRANCH   4   7
ATOM      7  C   UNL A   1      32.295  24.183  24.178  1.00  0.00     0.091 C 
ATOM      8  C   UNL A   1      31.332  23.374  25.093  1.00  0.00     0.091 C 
ATOM      9  C   UNL A   1      31.527  21.858  25.314  1.00  0.00     0.014 C 
ATOM     10  C   UNL A   1      32.151  21.110  24.143  1.00  0.00     0.001 C 
ATOM     11  C   UNL A   1      32.652  23.274  22.970  1.00  0.00     0.014 C 
ATOM     12  C   UNL A   1      33.211  21.921  23.416  1.00  0.00     0.001 C 
BRANCH   8  13
ATOM     13  C   UNL A   1      30.736  24.136  26.259  1.00  0.00     0.228 C 
ATOM     14  N   UNL A   1      30.564  25.474  26.355  1.00  0.00    -0.323 N 
ATOM     15  H   UNL A   1      30.328  25.747  27.272  1.00  0.00     0.170 HD
ATOM     16  O   UNL A   1      30.372  23.483  27.251  1.00  0.00    -0.274 OA
BRANCH  14  17
ATOM     17  C   UNL A   1      30.633  26.582  25.485  1.00  0.00     0.077 A 
ATOM     18  C   UNL A   1      32.149  30.061  25.725  1.00  0.00     0.044 C 
ATOM     19  C   UNL A   1      31.491  28.842  25.170  1.00  0.00    -0.049 A 
ATOM     20  C   UNL A   1      30.903  28.908  23.909  1.00  0.00     0.006 A 
ATOM     21  C   UNL A   1      31.411  27.658  25.923  1.00  0.00     0.032 A 
ATOM     22  C   UNL A   1      30.088  27.875  23.488  1.00  0.00     0.042 A 
ATOM     23  C   UNL A   1      29.902  26.770  24.311  1.00  0.00     0.146 A 
ATOM     24  F   UNL A   1      28.914  25.944  23.968  1.00  0.00    -0.205 F 
ENDBRANCH  14  17
ENDBRANCH   8  13
ENDBRANCH   4   7
ENDBRANCH   2   3
ENDBRANCH   1   2
BRANCH   1  25
ATOM     25  C   UNL A   1      36.447  22.145  25.320  1.00  0.00     0.118 C 
BRANCH  25  26
ATOM     26  N   UNL A   1      37.503  21.190  25.596  1.00  0.00    -0.352 N 
ATOM     27  C   UNL A   1      38.819  21.350  25.968  1.00  0.00     0.251 C 
ATOM     28  H   UNL A   1      37.228  20.250  25.499  1.00  0.00     0.163 HD
ATOM     29  O   UNL A   1      39.553  20.364  25.881  1.00  0.00    -0.269 OA
BRANCH  27  30
ATOM     30  C   UNL A   1      39.401  22.641  26.442  1.00  0.00     0.039 A 
ATOM     31  C   UNL A   1      40.356  22.592  27.469  1.00  0.00     0.014 A 
ATOM     32  C   UNL A   1      38.967  23.893  26.008  1.00  0.00     0.014 A 
ATOM     33  C   UNL A   1      40.906  23.767  28.008  1.00  0.00     0.010 A 
ATOM     34  C   UNL A   1      39.572  25.065  26.496  1.00  0.00     0.010 A 
ATOM     35  C   UNL A   1      40.562  25.026  27.498  1.00  0.00    -0.014 A 
BRANCH  35  36
ATOM     36  C   UNL A   1      41.236  26.288  27.965  1.00  0.00     0.031 A 
ATOM     37  C   UNL A   1      40.441  27.391  28.629  1.00  0.00     0.074 A 
ATOM     38  C   UNL A   1      42.551  26.501  27.723  1.00  0.00     0.049 A 
ATOM     39  N   UNL A   1      40.816  28.604  28.962  1.00  0.00    -0.248 NA
ATOM     40  C   UNL A   1      39.036  27.095  28.944  1.00  0.00     0.031 C 
ATOM     41  C   UNL A   1      43.470  25.545  27.098  1.00  0.00     0.029 A 
ATOM     42  N   UNL A   1      43.341  27.611  27.930  1.00  0.00    -0.354 N 
ATOM     43  C   UNL A   1      39.695  29.214  29.521  1.00  0.00     0.074 A 
ATOM     44  C   UNL A   1      38.609  28.262  29.407  1.00  0.00     0.031 C 
ATOM     45  C   UNL A   1      44.671  26.118  26.933  1.00  0.00     0.029 A 
ATOM     46  C   UNL A   1      44.623  27.486  27.435  1.00  0.00     0.049 A 
ATOM     47  H   UNL A   1      43.021  28.421  28.389  1.00  0.00     0.167 HD
ATOM     48  C   UNL A   1      39.582  30.435  30.107  1.00  0.00     0.034 A 
ATOM     49  C   UNL A   1      45.646  28.363  27.367  1.00  0.00     0.034 A 
ATOM     50  C   UNL A   1      40.669  31.375  30.244  1.00  0.00     0.049 A 
ATOM     51  C   UNL A   1      45.480  29.741  27.954  1.00  0.00     0.074 A 
ATOM     52  C   UNL A   1      40.670  32.602  30.888  1.00  0.00     0.029 A 
ATOM     53  N   UNL A   1      41.944  31.206  29.722  1.00  0.00    -0.354 N 
ATOM     54  N   UNL A   1      44.428  30.270  28.529  1.00  0.00    -0.248 NA
ATOM     55  C   UNL A   1      46.648  30.633  27.901  1.00  0.00     0.031 C 
ATOM     56  C   UNL A   1      41.915  33.207  30.688  1.00  0.00     0.029 A 
ATOM     57  C   UNL A   1      42.721  32.325  29.990  1.00  0.00     0.049 A 
ATOM     58  H   UNL A   1      42.252  30.409  29.233  1.00  0.00     0.167 HD
ATOM     59  C   UNL A   1      44.822  31.541  28.944  1.00  0.00     0.074 A 
ATOM     60  C   UNL A   1      46.208  31.696  28.559  1.00  0.00     0.031 C 
ATOM     61  C   UNL A   1      44.100  32.487  29.595  1.00  0.00     0.034 A 
BRANCH  48  62
ATOM     62  C   UNL A   1      38.223  30.830  30.642  1.00  0.00     0.023 A 
ATOM     63  C   UNL A   1      37.250  31.420  29.816  1.00  0.00     0.031 A 
ATOM     64  C   UNL A   1      37.896  30.624  31.994  1.00  0.00     0.131 A 
ATOM     65  C   UNL A   1      36.039  31.864  30.366  1.00  0.00     0.055 A 
ATOM     66  C   UNL A   1      36.652  30.985  32.516  1.00  0.00     0.041 A 
ATOM     67  F   UNL A   1      38.787  30.076  32.837  1.00  0.00    -0.206 F 
ATOM     68  C   UNL A   1      35.721  31.626  31.704  1.00  0.00     0.022 A 
BRANCH  65  69
ATOM     69  S   UNL A   1      34.956  32.898  29.342  1.00  0.00     0.124 S 
ATOM     70  O   UNL A   1      34.030  33.429  30.338  1.00  0.00    -0.237 OA
ATOM     71  O   UNL A   1      35.891  33.858  28.763  1.00  0.00    -0.237 OA
ATOM     72  O   UNL A   1      34.370  31.950  28.398  1.00  0.00    -0.744 OA
ENDBRANCH  65  69
ENDBRANCH  48  62
BRANCH  49  73
ATOM     73  C   UNL A   1      46.934  27.974  26.721  1.00  0.00     0.023 A 
ATOM     74  C   UNL A   1      47.092  28.042  25.327  1.00  0.00     0.031 A 
ATOM     75  C   UNL A   1      48.008  27.476  27.482  1.00  0.00     0.131 A 
ATOM     76  C   UNL A   1      48.271  27.570  24.731  1.00  0.00     0.055 A 
ATOM     77  C   UNL A   1      49.201  27.059  26.888  1.00  0.00     0.041 A 
ATOM     78  F   UNL A   1      47.913  27.395  28.819  1.00  0.00    -0.206 F 
ATOM     79  C   UNL A   1      49.332  27.091  25.502  1.00  0.00     0.022 A 
BRANCH  76  80
ATOM     80  S   UNL A   1      48.359  27.504  22.921  1.00  0.00     0.124 S 
ATOM     81  O   UNL A   1      49.619  28.191  22.662  1.00  0.00    -0.237 OA
ATOM     82  O   UNL A   1      48.348  26.066  22.670  1.00  0.00    -0.237 OA
ATOM     83  O   UNL A   1      47.158  28.219  22.496  1.00  0.00    -0.744 OA
ENDBRANCH  76  80
ENDBRANCH  49  73
BRANCH  61  84
ATOM     84  C   UNL A   1      44.809  33.766  29.971  1.00  0.00     0.023 A 
ATOM     85  C   UNL A   1      45.450  33.921  31.212  1.00  0.00     0.031 A 
ATOM     86  C   UNL A   1      44.849  34.844  29.068  1.00  0.00     0.131 A 
ATOM     87  C   UNL A   1      46.068  35.139  31.533  1.00  0.00     0.055 A 
ATOM     88  C   UNL A   1      45.517  36.032  29.369  1.00  0.00     0.041 A 
ATOM     89  F   UNL A   1      44.249  34.755  27.869  1.00  0.00    -0.206 F 
ATOM     90  C   UNL A   1      46.123  36.188  30.612  1.00  0.00     0.022 A 
BRANCH  87  91
ATOM     91  S   UNL A   1      46.741  35.362  33.203  1.00  0.00     0.124 S 
ATOM     92  O   UNL A   1      46.976  36.801  33.244  1.00  0.00    -0.237 OA
ATOM     93  O   UNL A   1      45.657  34.868  34.046  1.00  0.00    -0.237 OA
ATOM     94  O   UNL A   1      47.947  34.536  33.200  1.00  0.00    -0.744 OA
ENDBRANCH  87  91
ENDBRANCH  61  84
ENDBRANCH  35  36
ENDBRANCH  27  30
ENDBRANCH  25  26
ENDBRANCH   1  25
TORSDOF 15
ENDMDL
