MODEL 1
REMARK VINA RESULT:     -11.9      0.000      0.000
REMARK SMILES CCC(CC)(NC(=O)NC[C@H](C)[NH+]1CCCCC1)C(=O)NCCCNC(=O)c1ccc(-c2c3nc(c(-c4cc(S(=O)(=O)[O-])ccc4F)c4ccc([nH]4)c(-c4cc(S(=O)(=O)[O-])ccc4F)c4nc(c(-c5cc(S(=O)(=O)[O-])ccc5F)c5ccc2[nH]5)C=C4)C=C3)cc1
REMARK SMILES IDX 22 1 21 2 19 3 20 4 3 6 2 7 1 8 4 9 5 10 6 11 7 12 8 14 9 15
REMARK SMILES IDX 10 17 11 18 12 19 13 20 14 21 18 22 15 24 17 25 16 26 23 27
REMARK SMILES IDX 24 28 25 29 26 30 27 32 28 33 29 34 90 35 30 36 89 37 31 38
REMARK SMILES IDX 32 39 33 40 83 41 34 42 88 43 82 44 84 45 35 46 87 47 81 48
REMARK SMILES IDX 80 49 36 51 68 52 48 53 67 54 49 55 52 56 66 57 85 58 50 59
REMARK SMILES IDX 51 60 65 62 86 63 53 64 37 65 38 66 46 67 39 68 45 69 47 70
REMARK SMILES IDX 44 71 40 72 41 73 42 74 43 75 69 76 70 77 78 78 71 79 77 80
REMARK SMILES IDX 79 81 76 82 72 83 73 84 74 85 75 86 54 87 55 88 63 89 56 90
REMARK SMILES IDX 62 91 64 92 61 93 57 94 58 95 59 96 60 97
REMARK H PARENT 21 5 6 13 9 16 13 23 25 31 84 50 52 61
REMARK Flexibility Score: inf
ROOT
ATOM      1  C   UNL A   1      31.445  26.693  26.568  1.00  0.00     0.117 C 
ENDROOT
BRANCH   1   2
ATOM      2  N   UNL A   1      30.761  26.142  25.224  1.00  0.00    -0.354 N 
ATOM      3  C   UNL A   1      30.690  26.252  23.882  1.00  0.00     0.245 C 
ATOM      4  O   UNL A   1      29.862  25.448  23.416  1.00  0.00    -0.272 OA
ATOM      5  H   UNL A   1      30.132  25.431  25.489  1.00  0.00     0.163 HD
BRANCH   3   6
ATOM      6  C   UNL A   1      31.619  27.052  22.911  1.00  0.00     0.120 C 
BRANCH   6   7
ATOM      7  C   UNL A   1      33.028  27.345  23.525  1.00  0.00     0.035 C 
ATOM      8  C   UNL A   1      33.951  28.344  22.841  1.00  0.00     0.007 C 
ENDBRANCH   6   7
BRANCH   6   9
ATOM      9  C   UNL A   1      30.784  28.370  22.741  1.00  0.00     0.035 C 
ATOM     10  C   UNL A   1      30.755  29.359  23.895  1.00  0.00     0.007 C 
ENDBRANCH   6   9
BRANCH   6  11
ATOM     11  N   UNL A   1      31.918  26.483  21.577  1.00  0.00    -0.324 N 
ATOM     12  C   UNL A   1      32.598  25.424  21.107  1.00  0.00     0.315 C 
ATOM     13  H   UNL A   1      31.518  27.015  20.851  1.00  0.00     0.166 HD
ATOM     14  O   UNL A   1      32.965  25.478  19.931  1.00  0.00    -0.249 OA
ATOM     15  N   UNL A   1      32.777  24.273  21.765  1.00  0.00    -0.332 N 
ATOM     16  H   UNL A   1      33.116  23.556  21.181  1.00  0.00     0.165 HD
BRANCH  15  17
ATOM     17  C   UNL A   1      32.593  23.829  23.133  1.00  0.00     0.182 C 
BRANCH  17  18
ATOM     18  C   UNL A   1      33.615  22.839  23.794  1.00  0.00     0.200 C 
ATOM     19  C   UNL A   1      35.013  23.054  23.189  1.00  0.00     0.077 C 
BRANCH  18  20
ATOM     20  N   UNL A   1      33.386  21.388  23.923  1.00  0.00    -0.331 N 
ATOM     21  C   UNL A   1      34.571  20.335  24.820  1.00  0.00     0.262 C 
ATOM     22  C   UNL A   1      32.317  20.684  22.600  1.00  0.00     0.262 C 
ATOM     23  H   UNL A   1      32.793  21.329  24.750  1.00  0.00     0.348 HD
ATOM     24  C   UNL A   1      34.570  18.382  24.635  1.00  0.00     0.062 C 
ATOM     25  C   UNL A   1      32.155  18.770  22.360  1.00  0.00     0.062 C 
ATOM     26  C   UNL A   1      33.448  17.622  23.264  1.00  0.00     0.012 C 
ENDBRANCH  18  20
ENDBRANCH  17  18
ENDBRANCH  15  17
ENDBRANCH   6  11
ENDBRANCH   3   6
ENDBRANCH   1   2
BRANCH   1  27
ATOM     27  C   UNL A   1      32.473  28.472  27.108  1.00  0.00     0.042 C 
BRANCH  27  28
ATOM     28  C   UNL A   1      33.896  29.282  26.740  1.00  0.00     0.118 C 
BRANCH  28  29
ATOM     29  N   UNL A   1      33.965  30.734  26.913  1.00  0.00    -0.352 N 
ATOM     30  C   UNL A   1      34.669  31.463  27.830  1.00  0.00     0.251 C 
ATOM     31  H   UNL A   1      33.426  31.261  26.278  1.00  0.00     0.163 HD
ATOM     32  O   UNL A   1      34.400  32.627  28.057  1.00  0.00    -0.269 OA
BRANCH  30  33
ATOM     33  C   UNL A   1      35.837  30.809  28.423  1.00  0.00     0.039 A 
ATOM     34  C   UNL A   1      35.686  29.944  29.500  1.00  0.00     0.014 A 
ATOM     35  C   UNL A   1      37.084  31.068  27.841  1.00  0.00     0.014 A 
ATOM     36  C   UNL A   1      36.816  29.304  29.995  1.00  0.00     0.010 A 
ATOM     37  C   UNL A   1      38.189  30.374  28.283  1.00  0.00     0.010 A 
ATOM     38  C   UNL A   1      38.062  29.513  29.381  1.00  0.00    -0.014 A 
BRANCH  38  39
ATOM     39  C   UNL A   1      39.292  28.902  29.910  1.00  0.00     0.031 A 
ATOM     40  C   UNL A   1      39.945  29.538  31.102  1.00  0.00     0.074 A 
ATOM     41  C   UNL A   1      39.845  27.873  29.248  1.00  0.00     0.049 A 
ATOM     42  N   UNL A   1      41.095  29.269  31.658  1.00  0.00    -0.248 NA
ATOM     43  C   UNL A   1      39.227  30.669  31.716  1.00  0.00     0.031 C 
ATOM     44  C   UNL A   1      39.295  27.253  28.039  1.00  0.00     0.029 A 
ATOM     45  N   UNL A   1      40.998  27.180  29.485  1.00  0.00    -0.354 N 
ATOM     46  C   UNL A   1      41.249  30.214  32.668  1.00  0.00     0.074 A 
ATOM     47  C   UNL A   1      40.113  31.105  32.595  1.00  0.00     0.031 C 
ATOM     48  C   UNL A   1      40.105  26.253  27.653  1.00  0.00     0.029 A 
ATOM     49  C   UNL A   1      41.243  26.190  28.563  1.00  0.00     0.049 A 
ATOM     50  H   UNL A   1      41.597  27.370  30.243  1.00  0.00     0.167 HD
ATOM     51  C   UNL A   1      42.241  30.303  33.586  1.00  0.00     0.034 A 
ATOM     52  C   UNL A   1      42.281  25.338  28.473  1.00  0.00     0.034 A 
ATOM     53  C   UNL A   1      43.340  29.371  33.630  1.00  0.00     0.049 A 
ATOM     54  C   UNL A   1      43.355  25.433  29.526  1.00  0.00     0.074 A 
ATOM     55  C   UNL A   1      44.379  29.297  34.537  1.00  0.00     0.029 A 
ATOM     56  N   UNL A   1      43.537  28.343  32.711  1.00  0.00    -0.354 N 
ATOM     57  N   UNL A   1      43.464  26.287  30.520  1.00  0.00    -0.248 NA
ATOM     58  C   UNL A   1      44.434  24.443  29.456  1.00  0.00     0.031 C 
ATOM     59  C   UNL A   1      45.230  28.259  34.139  1.00  0.00     0.029 A 
ATOM     60  C   UNL A   1      44.689  27.643  33.019  1.00  0.00     0.049 A 
ATOM     61  H   UNL A   1      42.942  28.145  31.952  1.00  0.00     0.167 HD
ATOM     62  C   UNL A   1      44.616  25.924  31.208  1.00  0.00     0.074 A 
ATOM     63  C   UNL A   1      45.150  24.758  30.526  1.00  0.00     0.031 C 
ATOM     64  C   UNL A   1      45.189  26.494  32.299  1.00  0.00     0.034 A 
BRANCH  51  65
ATOM     65  C   UNL A   1      42.172  31.442  34.576  1.00  0.00     0.023 A 
ATOM     66  C   UNL A   1      42.654  32.725  34.259  1.00  0.00     0.031 A 
ATOM     67  C   UNL A   1      41.676  31.232  35.874  1.00  0.00     0.131 A 
ATOM     68  C   UNL A   1      42.722  33.716  35.250  1.00  0.00     0.055 A 
ATOM     69  C   UNL A   1      41.664  32.251  36.831  1.00  0.00     0.041 A 
ATOM     70  F   UNL A   1      41.222  30.025  36.247  1.00  0.00    -0.206 F 
ATOM     71  C   UNL A   1      42.206  33.496  36.528  1.00  0.00     0.022 A 
BRANCH  68  72
ATOM     72  S   UNL A   1      43.639  35.239  34.889  1.00  0.00     0.124 S 
ATOM     73  O   UNL A   1      42.655  36.002  34.124  1.00  0.00    -0.237 OA
ATOM     74  O   UNL A   1      43.945  35.748  36.221  1.00  0.00    -0.237 OA
ATOM     75  O   UNL A   1      44.791  34.773  34.120  1.00  0.00    -0.744 OA
ENDBRANCH  68  72
ENDBRANCH  51  65
BRANCH  52  76
ATOM     76  C   UNL A   1      42.340  24.330  27.380  1.00  0.00     0.023 A 
ATOM     77  C   UNL A   1      41.684  23.096  27.502  1.00  0.00     0.031 A 
ATOM     78  C   UNL A   1      43.058  24.580  26.197  1.00  0.00     0.131 A 
ATOM     79  C   UNL A   1      41.791  22.140  26.481  1.00  0.00     0.055 A 
ATOM     80  C   UNL A   1      43.124  23.643  25.163  1.00  0.00     0.041 A 
ATOM     81  F   UNL A   1      43.691  25.750  26.019  1.00  0.00    -0.206 F 
ATOM     82  C   UNL A   1      42.498  22.409  25.308  1.00  0.00     0.022 A 
BRANCH  79  83
ATOM     83  S   UNL A   1      41.048  20.506  26.741  1.00  0.00     0.124 S 
ATOM     84  O   UNL A   1      40.745  20.538  28.167  1.00  0.00    -0.237 OA
ATOM     85  O   UNL A   1      39.900  20.551  25.840  1.00  0.00    -0.237 OA
ATOM     86  O   UNL A   1      42.110  19.582  26.349  1.00  0.00    -0.744 OA
ENDBRANCH  79  83
ENDBRANCH  52  76
BRANCH  64  87
ATOM     87  C   UNL A   1      46.440  25.835  32.818  1.00  0.00     0.023 A 
ATOM     88  C   UNL A   1      46.379  24.799  33.764  1.00  0.00     0.031 A 
ATOM     89  C   UNL A   1      47.702  26.258  32.369  1.00  0.00     0.131 A 
ATOM     90  C   UNL A   1      47.565  24.255  34.275  1.00  0.00     0.055 A 
ATOM     91  C   UNL A   1      48.877  25.670  32.834  1.00  0.00     0.041 A 
ATOM     92  F   UNL A   1      47.811  27.245  31.465  1.00  0.00    -0.206 F 
ATOM     93  C   UNL A   1      48.813  24.672  33.804  1.00  0.00     0.022 A 
BRANCH  90  94
ATOM     94  S   UNL A   1      47.455  23.059  35.632  1.00  0.00     0.124 S 
ATOM     95  O   UNL A   1      46.789  23.839  36.670  1.00  0.00    -0.237 OA
ATOM     96  O   UNL A   1      46.667  21.984  35.037  1.00  0.00    -0.237 OA
ATOM     97  O   UNL A   1      48.851  22.724  35.907  1.00  0.00    -0.744 OA
ENDBRANCH  90  94
ENDBRANCH  64  87
ENDBRANCH  38  39
ENDBRANCH  30  33
ENDBRANCH  28  29
ENDBRANCH  27  28
ENDBRANCH   1  27
TORSDOF 19
ENDMDL
MODEL 2
REMARK VINA RESULT:     -11.9      2.031      2.792
REMARK SMILES CCC(CC)(NC(=O)NC[C@H](C)[NH+]1CCCCC1)C(=O)NCCCNC(=O)c1ccc(-c2c3nc(c(-c4cc(S(=O)(=O)[O-])ccc4F)c4ccc([nH]4)c(-c4cc(S(=O)(=O)[O-])ccc4F)c4nc(c(-c5cc(S(=O)(=O)[O-])ccc5F)c5ccc2[nH]5)C=C4)C=C3)cc1
REMARK SMILES IDX 22 1 21 2 19 3 20 4 3 6 2 7 1 8 4 9 5 10 6 11 7 12 8 14 9 15
REMARK SMILES IDX 10 17 11 18 12 19 13 20 14 21 18 22 15 24 17 25 16 26 23 27
REMARK SMILES IDX 24 28 25 29 26 30 27 32 28 33 29 34 90 35 30 36 89 37 31 38
REMARK SMILES IDX 32 39 33 40 83 41 34 42 88 43 82 44 84 45 35 46 87 47 81 48
REMARK SMILES IDX 80 49 36 51 68 52 48 53 67 54 49 55 52 56 66 57 85 58 50 59
REMARK SMILES IDX 51 60 65 62 86 63 53 64 37 65 38 66 46 67 39 68 45 69 47 70
REMARK SMILES IDX 44 71 40 72 41 73 42 74 43 75 69 76 70 77 78 78 71 79 77 80
REMARK SMILES IDX 79 81 76 82 72 83 73 84 74 85 75 86 54 87 55 88 63 89 56 90
REMARK SMILES IDX 62 91 64 92 61 93 57 94 58 95 59 96 60 97
REMARK H PARENT 21 5 6 13 9 16 13 23 25 31 84 50 52 61
REMARK Flexibility Score: inf
ROOT
ATOM      1  C   UNL A   1      33.885  28.352  23.441  1.00  0.00     0.117 C 
ENDROOT
BRANCH   1   2
ATOM      2  N   UNL A   1      32.677  27.707  22.603  1.00  0.00    -0.354 N 
ATOM      3  C   UNL A   1      31.406  27.255  22.644  1.00  0.00     0.245 C 
ATOM      4  O   UNL A   1      31.051  26.834  21.528  1.00  0.00    -0.272 OA
ATOM      5  H   UNL A   1      32.994  27.592  21.678  1.00  0.00     0.163 HD
BRANCH   3   6
ATOM      6  C   UNL A   1      30.348  27.401  23.786  1.00  0.00     0.120 C 
BRANCH   6   7
ATOM      7  C   UNL A   1      29.239  26.299  23.729  1.00  0.00     0.035 C 
ATOM      8  C   UNL A   1      27.780  26.693  23.915  1.00  0.00     0.007 C 
ENDBRANCH   6   7
BRANCH   6   9
ATOM      9  C   UNL A   1      29.763  28.819  23.452  1.00  0.00     0.035 C 
ATOM     10  C   UNL A   1      30.347  30.026  24.167  1.00  0.00     0.007 C 
ENDBRANCH   6   9
BRANCH   6  11
ATOM     11  N   UNL A   1      30.808  27.377  25.193  1.00  0.00    -0.324 N 
ATOM     12  C   UNL A   1      31.239  26.441  26.055  1.00  0.00     0.315 C 
ATOM     13  H   UNL A   1      30.794  28.274  25.601  1.00  0.00     0.166 HD
ATOM     14  O   UNL A   1      31.164  26.714  27.255  1.00  0.00    -0.249 OA
ATOM     15  N   UNL A   1      31.868  25.311  25.709  1.00  0.00    -0.332 N 
ATOM     16  H   UNL A   1      32.284  24.863  26.481  1.00  0.00     0.165 HD
BRANCH  15  17
ATOM     17  C   UNL A   1      32.083  24.590  24.471  1.00  0.00     0.182 C 
BRANCH  17  18
ATOM     18  C   UNL A   1      33.465  23.907  24.176  1.00  0.00     0.200 C 
ATOM     19  C   UNL A   1      34.222  24.707  23.103  1.00  0.00     0.077 C 
BRANCH  18  20
ATOM     20  N   UNL A   1      33.624  22.471  23.879  1.00  0.00    -0.331 N 
ATOM     21  C   UNL A   1      32.268  21.523  23.116  1.00  0.00     0.262 C 
ATOM     22  C   UNL A   1      34.885  21.631  24.925  1.00  0.00     0.262 C 
ATOM     23  H   UNL A   1      34.060  22.480  22.958  1.00  0.00     0.348 HD
ATOM     24  C   UNL A   1      32.242  19.561  23.123  1.00  0.00     0.062 C 
ATOM     25  C   UNL A   1      35.028  19.701  24.960  1.00  0.00     0.062 C 
ATOM     26  C   UNL A   1      33.563  18.661  24.200  1.00  0.00     0.012 C 
ENDBRANCH  18  20
ENDBRANCH  17  18
ENDBRANCH  15  17
ENDBRANCH   6  11
ENDBRANCH   3   6
ENDBRANCH   1   2
BRANCH   1  27
ATOM     27  C   UNL A   1      34.348  28.537  25.506  1.00  0.00     0.042 C 
BRANCH  27  28
ATOM     28  C   UNL A   1      33.774  29.324  26.874  1.00  0.00     0.118 C 
BRANCH  28  29
ATOM     29  N   UNL A   1      33.889  30.780  26.969  1.00  0.00    -0.352 N 
ATOM     30  C   UNL A   1      34.641  31.534  27.827  1.00  0.00     0.251 C 
ATOM     31  H   UNL A   1      33.345  31.290  26.325  1.00  0.00     0.163 HD
ATOM     32  O   UNL A   1      34.412  32.715  28.001  1.00  0.00    -0.269 OA
BRANCH  30  33
ATOM     33  C   UNL A   1      35.809  30.876  28.417  1.00  0.00     0.039 A 
ATOM     34  C   UNL A   1      35.650  29.947  29.438  1.00  0.00     0.014 A 
ATOM     35  C   UNL A   1      37.065  31.201  27.890  1.00  0.00     0.014 A 
ATOM     36  C   UNL A   1      36.781  29.308  29.930  1.00  0.00     0.010 A 
ATOM     37  C   UNL A   1      38.175  30.511  28.326  1.00  0.00     0.010 A 
ATOM     38  C   UNL A   1      38.040  29.585  29.369  1.00  0.00    -0.014 A 
BRANCH  38  39
ATOM     39  C   UNL A   1      39.270  28.976  29.900  1.00  0.00     0.031 A 
ATOM     40  C   UNL A   1      39.911  29.605  31.102  1.00  0.00     0.074 A 
ATOM     41  C   UNL A   1      39.832  27.955  29.233  1.00  0.00     0.049 A 
ATOM     42  N   UNL A   1      41.059  29.338  31.663  1.00  0.00    -0.248 NA
ATOM     43  C   UNL A   1      39.183  30.727  31.721  1.00  0.00     0.031 C 
ATOM     44  C   UNL A   1      39.293  27.343  28.015  1.00  0.00     0.029 A 
ATOM     45  N   UNL A   1      40.987  27.267  29.471  1.00  0.00    -0.354 N 
ATOM     46  C   UNL A   1      41.201  30.274  32.681  1.00  0.00     0.074 A 
ATOM     47  C   UNL A   1      40.062  31.160  32.609  1.00  0.00     0.031 C 
ATOM     48  C   UNL A   1      40.111  26.352  27.625  1.00  0.00     0.029 A 
ATOM     49  C   UNL A   1      41.243  26.286  28.542  1.00  0.00     0.049 A 
ATOM     50  H   UNL A   1      41.580  27.454  30.234  1.00  0.00     0.167 HD
ATOM     51  C   UNL A   1      42.187  30.360  33.607  1.00  0.00     0.034 A 
ATOM     52  C   UNL A   1      42.286  25.441  28.451  1.00  0.00     0.034 A 
ATOM     53  C   UNL A   1      43.291  29.435  33.649  1.00  0.00     0.049 A 
ATOM     54  C   UNL A   1      43.354  25.533  29.511  1.00  0.00     0.074 A 
ATOM     55  C   UNL A   1      44.325  29.358  34.562  1.00  0.00     0.029 A 
ATOM     56  N   UNL A   1      43.499  28.416  32.722  1.00  0.00    -0.354 N 
ATOM     57  N   UNL A   1      43.452  26.379  30.513  1.00  0.00    -0.248 NA
ATOM     58  C   UNL A   1      44.439  24.549  29.439  1.00  0.00     0.031 C 
ATOM     59  C   UNL A   1      45.184  28.329  34.160  1.00  0.00     0.029 A 
ATOM     60  C   UNL A   1      44.654  27.719  33.032  1.00  0.00     0.049 A 
ATOM     61  H   UNL A   1      42.911  28.221  31.958  1.00  0.00     0.167 HD
ATOM     62  C   UNL A   1      44.601  26.016  31.205  1.00  0.00     0.074 A 
ATOM     63  C   UNL A   1      45.146  24.859  30.517  1.00  0.00     0.031 C 
ATOM     64  C   UNL A   1      45.165  26.580  32.305  1.00  0.00     0.034 A 
BRANCH  51  65
ATOM     65  C   UNL A   1      42.106  31.491  34.605  1.00  0.00     0.023 A 
ATOM     66  C   UNL A   1      41.161  31.488  35.648  1.00  0.00     0.031 A 
ATOM     67  C   UNL A   1      42.938  32.616  34.481  1.00  0.00     0.131 A 
ATOM     68  C   UNL A   1      41.004  32.622  36.459  1.00  0.00     0.055 A 
ATOM     69  C   UNL A   1      42.837  33.707  35.350  1.00  0.00     0.041 A 
ATOM     70  F   UNL A   1      43.845  32.692  33.495  1.00  0.00    -0.206 F 
ATOM     71  C   UNL A   1      41.854  33.722  36.335  1.00  0.00     0.022 A 
BRANCH  68  72
ATOM     72  S   UNL A   1      39.572  32.700  37.571  1.00  0.00     0.124 S 
ATOM     73  O   UNL A   1      40.210  32.599  38.881  1.00  0.00    -0.237 OA
ATOM     74  O   UNL A   1      38.989  33.995  37.244  1.00  0.00    -0.237 OA
ATOM     75  O   UNL A   1      38.773  31.540  37.183  1.00  0.00    -0.744 OA
ENDBRANCH  68  72
ENDBRANCH  51  65
BRANCH  52  76
ATOM     76  C   UNL A   1      42.358  24.443  27.350  1.00  0.00     0.023 A 
ATOM     77  C   UNL A   1      41.591  23.269  27.391  1.00  0.00     0.031 A 
ATOM     78  C   UNL A   1      43.198  24.642  26.239  1.00  0.00     0.131 A 
ATOM     79  C   UNL A   1      41.708  22.318  26.367  1.00  0.00     0.055 A 
ATOM     80  C   UNL A   1      43.278  23.714  25.199  1.00  0.00     0.041 A 
ATOM     81  F   UNL A   1      43.942  25.756  26.140  1.00  0.00    -0.206 F 
ATOM     82  C   UNL A   1      42.539  22.536  25.265  1.00  0.00     0.022 A 
BRANCH  79  83
ATOM     83  S   UNL A   1      40.809  20.752  26.530  1.00  0.00     0.124 S 
ATOM     84  O   UNL A   1      39.511  21.090  25.959  1.00  0.00    -0.237 OA
ATOM     85  O   UNL A   1      41.640  19.844  25.744  1.00  0.00    -0.237 OA
ATOM     86  O   UNL A   1      40.812  20.505  27.970  1.00  0.00    -0.744 OA
ENDBRANCH  79  83
ENDBRANCH  52  76
BRANCH  64  87
ATOM     87  C   UNL A   1      46.415  25.923  32.826  1.00  0.00     0.023 A 
ATOM     88  C   UNL A   1      47.674  26.210  32.275  1.00  0.00     0.031 A 
ATOM     89  C   UNL A   1      46.343  24.995  33.879  1.00  0.00     0.131 A 
ATOM     90  C   UNL A   1      48.808  25.532  32.740  1.00  0.00     0.055 A 
ATOM     91  C   UNL A   1      47.482  24.368  34.380  1.00  0.00     0.041 A 
ATOM     92  F   UNL A   1      45.161  24.688  34.439  1.00  0.00    -0.206 F 
ATOM     93  C   UNL A   1      48.723  24.625  33.800  1.00  0.00     0.022 A 
BRANCH  90  94
ATOM     94  S   UNL A   1      50.382  25.781  31.877  1.00  0.00     0.124 S 
ATOM     95  O   UNL A   1      50.109  25.190  30.572  1.00  0.00    -0.237 OA
ATOM     96  O   UNL A   1      50.524  27.234  31.902  1.00  0.00    -0.237 OA
ATOM     97  O   UNL A   1      51.343  25.051  32.701  1.00  0.00    -0.744 OA
ENDBRANCH  90  94
ENDBRANCH  64  87
ENDBRANCH  38  39
ENDBRANCH  30  33
ENDBRANCH  28  29
ENDBRANCH  27  28
ENDBRANCH   1  27
TORSDOF 19
ENDMDL
MODEL 3
REMARK VINA RESULT:     -11.5      2.764      8.060
REMARK SMILES CCC(CC)(NC(=O)NC[C@H](C)[NH+]1CCCCC1)C(=O)NCCCNC(=O)c1ccc(-c2c3nc(c(-c4cc(S(=O)(=O)[O-])ccc4F)c4ccc([nH]4)c(-c4cc(S(=O)(=O)[O-])ccc4F)c4nc(c(-c5cc(S(=O)(=O)[O-])ccc5F)c5ccc2[nH]5)C=C4)C=C3)cc1
REMARK SMILES IDX 22 1 21 2 19 3 20 4 3 6 2 7 1 8 4 9 5 10 6 11 7 12 8 14 9 15
REMARK SMILES IDX 10 17 11 18 12 19 13 20 14 21 18 22 15 24 17 25 16 26 23 27
REMARK SMILES IDX 24 28 25 29 26 30 27 32 28 33 29 34 90 35 30 36 89 37 31 38
REMARK SMILES IDX 32 39 33 40 83 41 34 42 88 43 82 44 84 45 35 46 87 47 81 48
REMARK SMILES IDX 80 49 36 51 68 52 48 53 67 54 49 55 52 56 66 57 85 58 50 59
REMARK SMILES IDX 51 60 65 62 86 63 53 64 37 65 38 66 46 67 39 68 45 69 47 70
REMARK SMILES IDX 44 71 40 72 41 73 42 74 43 75 69 76 70 77 78 78 71 79 77 80
REMARK SMILES IDX 79 81 76 82 72 83 73 84 74 85 75 86 54 87 55 88 63 89 56 90
REMARK SMILES IDX 62 91 64 92 61 93 57 94 58 95 59 96 60 97
REMARK H PARENT 21 5 6 13 9 16 13 23 25 31 84 50 52 61
REMARK Flexibility Score: inf
ROOT
ATOM      1  C   UNL A   1      33.985  28.614  23.737  1.00  0.00     0.117 C 
ENDROOT
BRANCH   1   2
ATOM      2  N   UNL A   1      32.948  27.754  22.863  1.00  0.00    -0.354 N 
ATOM      3  C   UNL A   1      31.718  27.202  22.815  1.00  0.00     0.245 C 
ATOM      4  O   UNL A   1      31.546  26.600  21.739  1.00  0.00    -0.272 OA
ATOM      5  H   UNL A   1      33.393  27.541  22.012  1.00  0.00     0.163 HD
BRANCH   3   6
ATOM      6  C   UNL A   1      30.509  27.410  23.785  1.00  0.00     0.120 C 
BRANCH   6   7
ATOM      7  C   UNL A   1      29.489  26.224  23.746  1.00  0.00     0.035 C 
ATOM      8  C   UNL A   1      28.011  26.497  23.993  1.00  0.00     0.007 C 
ENDBRANCH   6   7
BRANCH   6   9
ATOM      9  C   UNL A   1      29.885  28.720  23.186  1.00  0.00     0.035 C 
ATOM     10  C   UNL A   1      30.028  30.012  23.974  1.00  0.00     0.007 C 
ENDBRANCH   6   9
BRANCH   6  11
ATOM     11  N   UNL A   1      30.776  27.608  25.228  1.00  0.00    -0.324 N 
ATOM     12  C   UNL A   1      31.194  26.841  26.249  1.00  0.00     0.315 C 
ATOM     13  H   UNL A   1      30.604  28.535  25.511  1.00  0.00     0.166 HD
ATOM     14  O   UNL A   1      30.928  27.237  27.386  1.00  0.00    -0.249 OA
ATOM     15  N   UNL A   1      31.991  25.772  26.129  1.00  0.00    -0.332 N 
ATOM     16  H   UNL A   1      32.350  25.474  26.997  1.00  0.00     0.165 HD
BRANCH  15  17
ATOM     17  C   UNL A   1      32.452  24.949  25.029  1.00  0.00     0.182 C 
BRANCH  17  18
ATOM     18  C   UNL A   1      33.477  23.787  25.279  1.00  0.00     0.200 C 
ATOM     19  C   UNL A   1      34.912  24.337  25.217  1.00  0.00     0.077 C 
BRANCH  18  20
ATOM     20  N   UNL A   1      33.446  22.498  24.564  1.00  0.00    -0.331 N 
ATOM     21  C   UNL A   1      32.515  22.318  23.008  1.00  0.00     0.262 C 
ATOM     22  C   UNL A   1      33.758  21.040  25.644  1.00  0.00     0.262 C 
ATOM     23  H   UNL A   1      34.287  22.540  23.990  1.00  0.00     0.348 HD
ATOM     24  C   UNL A   1      32.057  20.560  22.269  1.00  0.00     0.062 C 
ATOM     25  C   UNL A   1      33.432  19.240  25.013  1.00  0.00     0.062 C 
ATOM     26  C   UNL A   1      32.388  19.018  23.379  1.00  0.00     0.012 C 
ENDBRANCH  18  20
ENDBRANCH  17  18
ENDBRANCH  15  17
ENDBRANCH   6  11
ENDBRANCH   3   6
ENDBRANCH   1   2
BRANCH   1  27
ATOM     27  C   UNL A   1      33.969  29.449  25.691  1.00  0.00     0.042 C 
BRANCH  27  28
ATOM     28  C   UNL A   1      32.898  30.188  26.751  1.00  0.00     0.118 C 
BRANCH  28  29
ATOM     29  N   UNL A   1      32.729  31.642  26.708  1.00  0.00    -0.352 N 
ATOM     30  C   UNL A   1      33.302  32.602  27.495  1.00  0.00     0.251 C 
ATOM     31  H   UNL A   1      32.114  31.975  26.015  1.00  0.00     0.163 HD
ATOM     32  O   UNL A   1      32.846  33.728  27.555  1.00  0.00    -0.269 OA
BRANCH  30  33
ATOM     33  C   UNL A   1      34.558  32.239  28.153  1.00  0.00     0.039 A 
ATOM     34  C   UNL A   1      35.698  33.013  27.966  1.00  0.00     0.014 A 
ATOM     35  C   UNL A   1      34.546  31.115  28.989  1.00  0.00     0.014 A 
ATOM     36  C   UNL A   1      36.853  32.661  28.653  1.00  0.00     0.010 A 
ATOM     37  C   UNL A   1      35.669  30.816  29.728  1.00  0.00     0.010 A 
ATOM     38  C   UNL A   1      36.835  31.570  29.538  1.00  0.00    -0.014 A 
BRANCH  38  39
ATOM     39  C   UNL A   1      38.051  31.128  30.240  1.00  0.00     0.031 A 
ATOM     40  C   UNL A   1      38.941  30.131  29.557  1.00  0.00     0.074 A 
ATOM     41  C   UNL A   1      38.264  31.543  31.499  1.00  0.00     0.049 A 
ATOM     42  N   UNL A   1      39.981  29.494  30.024  1.00  0.00    -0.248 NA
ATOM     43  C   UNL A   1      38.573  29.759  28.180  1.00  0.00     0.031 C 
ATOM     44  C   UNL A   1      37.396  32.459  32.245  1.00  0.00     0.029 A 
ATOM     45  N   UNL A   1      39.261  31.235  32.380  1.00  0.00    -0.354 N 
ATOM     46  C   UNL A   1      40.373  28.630  29.008  1.00  0.00     0.074 A 
ATOM     47  C   UNL A   1      39.415  28.770  27.935  1.00  0.00     0.031 C 
ATOM     48  C   UNL A   1      37.915  32.656  33.467  1.00  0.00     0.029 A 
ATOM     49  C   UNL A   1      39.125  31.852  33.601  1.00  0.00     0.049 A 
ATOM     50  H   UNL A   1      40.006  30.630  32.162  1.00  0.00     0.167 HD
ATOM     51  C   UNL A   1      41.456  27.816  28.973  1.00  0.00     0.034 A 
ATOM     52  C   UNL A   1      39.898  31.763  34.699  1.00  0.00     0.034 A 
ATOM     53  C   UNL A   1      42.395  27.732  30.063  1.00  0.00     0.049 A 
ATOM     54  C   UNL A   1      41.116  30.878  34.626  1.00  0.00     0.074 A 
ATOM     55  C   UNL A   1      43.567  27.004  30.145  1.00  0.00     0.029 A 
ATOM     56  N   UNL A   1      42.260  28.409  31.272  1.00  0.00    -0.354 N 
ATOM     57  N   UNL A   1      41.520  30.111  33.637  1.00  0.00    -0.248 NA
ATOM     58  C   UNL A   1      41.987  30.859  35.804  1.00  0.00     0.031 C 
ATOM     59  C   UNL A   1      44.112  27.201  31.419  1.00  0.00     0.029 A 
ATOM     60  C   UNL A   1      43.316  28.102  32.111  1.00  0.00     0.049 A 
ATOM     61  H   UNL A   1      41.519  29.017  31.496  1.00  0.00     0.167 HD
ATOM     62  C   UNL A   1      42.708  29.532  34.068  1.00  0.00     0.074 A 
ATOM     63  C   UNL A   1      42.963  30.059  35.397  1.00  0.00     0.031 C 
ATOM     64  C   UNL A   1      43.518  28.644  33.436  1.00  0.00     0.034 A 
BRANCH  51  65
ATOM     65  C   UNL A   1      41.646  26.965  27.740  1.00  0.00     0.023 A 
ATOM     66  C   UNL A   1      41.225  25.624  27.696  1.00  0.00     0.031 A 
ATOM     67  C   UNL A   1      42.313  27.477  26.614  1.00  0.00     0.131 A 
ATOM     68  C   UNL A   1      41.558  24.816  26.598  1.00  0.00     0.055 A 
ATOM     69  C   UNL A   1      42.564  26.691  25.485  1.00  0.00     0.041 A 
ATOM     70  F   UNL A   1      42.761  28.743  26.599  1.00  0.00    -0.206 F 
ATOM     71  C   UNL A   1      42.202  25.348  25.480  1.00  0.00     0.022 A 
BRANCH  68  72
ATOM     72  S   UNL A   1      41.280  23.027  26.723  1.00  0.00     0.124 S 
ATOM     73  O   UNL A   1      42.139  22.521  25.655  1.00  0.00    -0.237 OA
ATOM     74  O   UNL A   1      41.714  22.734  28.084  1.00  0.00    -0.237 OA
ATOM     75  O   UNL A   1      39.846  22.885  26.481  1.00  0.00    -0.744 OA
ENDBRANCH  68  72
ENDBRANCH  51  65
BRANCH  52  76
ATOM     76  C   UNL A   1      39.560  32.533  35.926  1.00  0.00     0.023 A 
ATOM     77  C   UNL A   1      38.716  31.992  36.907  1.00  0.00     0.031 A 
ATOM     78  C   UNL A   1      40.070  33.827  36.138  1.00  0.00     0.131 A 
ATOM     79  C   UNL A   1      38.372  32.752  38.034  1.00  0.00     0.055 A 
ATOM     80  C   UNL A   1      39.761  34.563  37.284  1.00  0.00     0.041 A 
ATOM     81  F   UNL A   1      40.895  34.388  35.240  1.00  0.00    -0.206 F 
ATOM     82  C   UNL A   1      38.896  34.031  38.235  1.00  0.00     0.022 A 
BRANCH  79  83
ATOM     83  S   UNL A   1      37.166  32.070  39.205  1.00  0.00     0.124 S 
ATOM     84  O   UNL A   1      37.692  32.537  40.483  1.00  0.00    -0.237 OA
ATOM     85  O   UNL A   1      35.925  32.692  38.756  1.00  0.00    -0.237 OA
ATOM     86  O   UNL A   1      37.253  30.628  38.984  1.00  0.00    -0.744 OA
ENDBRANCH  79  83
ENDBRANCH  52  76
BRANCH  64  87
ATOM     87  C   UNL A   1      44.758  28.223  34.179  1.00  0.00     0.023 A 
ATOM     88  C   UNL A   1      44.758  27.099  35.021  1.00  0.00     0.031 A 
ATOM     89  C   UNL A   1      45.947  28.961  34.049  1.00  0.00     0.131 A 
ATOM     90  C   UNL A   1      45.911  26.776  35.749  1.00  0.00     0.055 A 
ATOM     91  C   UNL A   1      47.109  28.599  34.728  1.00  0.00     0.041 A 
ATOM     92  F   UNL A   1      45.996  30.044  33.256  1.00  0.00    -0.206 F 
ATOM     93  C   UNL A   1      47.091  27.509  35.595  1.00  0.00     0.022 A 
BRANCH  90  94
ATOM     94  S   UNL A   1      45.818  25.441  36.970  1.00  0.00     0.124 S 
ATOM     95  O   UNL A   1      45.355  24.320  36.158  1.00  0.00    -0.237 OA
ATOM     96  O   UNL A   1      47.196  25.358  37.446  1.00  0.00    -0.237 OA
ATOM     97  O   UNL A   1      44.854  25.939  37.949  1.00  0.00    -0.744 OA
ENDBRANCH  90  94
ENDBRANCH  64  87
ENDBRANCH  38  39
ENDBRANCH  30  33
ENDBRANCH  28  29
ENDBRANCH  27  28
ENDBRANCH   1  27
TORSDOF 19
ENDMDL
