MODEL 1
REMARK VINA RESULT:     -11.1      0.000      0.000
REMARK SMILES CCCCCCNC(=O)Nc1cccc(-c2ccc([C@@H](C)C(=O)NCCCNC(=O)c3ccc(-c4c5nc(c(-c6cc(S(=O)(=O)[O-])ccc6F)c6ccc([nH]6)c(-c6cc(S(=O)(=O)[O-])ccc6F)c6nc(c(-c7cc(S(=O)(=O)[O-])ccc7F)c7ccc4[nH]7)C=C6)C=C5)cc3)cc2F)c1
REMARK SMILES IDX 20 1 21 2 19 3 16 4 17 5 95 6 18 7 94 8 96 9 15 10 11 11
REMARK SMILES IDX 12 12 97 13 13 14 14 15 10 16 7 17 8 18 9 20 6 22 5 23 4 24
REMARK SMILES IDX 3 25 2 26 1 27 22 28 23 29 24 30 25 32 26 33 27 34 28 35
REMARK SMILES IDX 29 36 30 38 31 39 32 40 93 41 33 42 92 43 34 44 35 45 36 46
REMARK SMILES IDX 86 47 37 48 91 49 85 50 87 51 38 52 90 53 84 54 83 55 39 57
REMARK SMILES IDX 71 58 51 59 70 60 52 61 55 62 69 63 88 64 53 65 54 66 68 68
REMARK SMILES IDX 89 69 56 70 40 71 41 72 49 73 42 74 48 75 50 76 47 77 43 78
REMARK SMILES IDX 44 79 45 80 46 81 72 82 73 83 81 84 74 85 80 86 82 87 79 88
REMARK SMILES IDX 75 89 76 90 77 91 78 92 57 93 58 94 66 95 59 96 65 97 67 98
REMARK SMILES IDX 64 99 60 100 61 101 62 102 63 103
REMARK H PARENT 7 19 10 21 24 31 28 37 87 56 55 67
REMARK Flexibility Score: inf
ROOT
ATOM      1  C   UNL A   1      31.478  28.013  26.397  1.00  0.00     0.105 C 
ATOM      2  C   UNL A   1      31.324  28.428  27.860  1.00  0.00     0.023 C 
ENDROOT
BRANCH   1   3
ATOM      3  C   UNL A   1      32.297  26.751  26.178  1.00  0.00    -0.033 A 
ATOM      4  C   UNL A   1      33.772  24.330  25.761  1.00  0.00     0.018 A 
ATOM      5  C   UNL A   1      34.398  25.588  25.754  1.00  0.00     0.012 A 
ATOM      6  C   UNL A   1      32.391  24.319  25.994  1.00  0.00     0.131 A 
ATOM      7  C   UNL A   1      33.680  26.771  25.976  1.00  0.00     0.005 A 
ATOM      8  C   UNL A   1      31.662  25.498  26.186  1.00  0.00     0.044 A 
ATOM      9  F   UNL A   1      31.720  23.157  26.046  1.00  0.00    -0.206 F 
BRANCH   4  10
ATOM     10  C   UNL A   1      34.546  23.102  25.481  1.00  0.00    -0.013 A 
ATOM     11  C   UNL A   1      34.676  20.659  25.413  1.00  0.00     0.043 A 
ATOM     12  C   UNL A   1      35.905  20.723  24.762  1.00  0.00     0.026 A 
ATOM     13  C   UNL A   1      34.042  21.838  25.828  1.00  0.00     0.035 A 
ATOM     14  C   UNL A   1      36.436  21.965  24.420  1.00  0.00     0.003 A 
ATOM     15  C   UNL A   1      35.757  23.140  24.765  1.00  0.00     0.009 A 
BRANCH  11  16
ATOM     16  N   UNL A   1      34.060  19.403  25.544  1.00  0.00    -0.308 N 
ATOM     17  N   UNL A   1      32.217  19.555  24.072  1.00  0.00    -0.338 N 
ATOM     18  C   UNL A   1      32.818  19.005  25.158  1.00  0.00     0.319 C 
ATOM     19  H   UNL A   1      31.267  19.326  23.953  1.00  0.00     0.165 HD
ATOM     20  O   UNL A   1      32.270  18.062  25.729  1.00  0.00    -0.249 OA
ATOM     21  H   UNL A   1      34.608  18.710  25.980  1.00  0.00     0.171 HD
BRANCH  17  22
ATOM     22  C   UNL A   1      32.777  20.432  23.062  1.00  0.00     0.117 C 
BRANCH  22  23
ATOM     23  C   UNL A   1      32.135  21.807  22.988  1.00  0.00     0.021 C 
BRANCH  23  24
ATOM     24  C   UNL A   1      32.879  22.852  22.162  1.00  0.00     0.002 C 
BRANCH  24  25
ATOM     25  C   UNL A   1      32.456  24.313  22.342  1.00  0.00    -0.000 C 
BRANCH  25  26
ATOM     26  C   UNL A   1      33.555  25.376  22.267  1.00  0.00    -0.003 C 
ATOM     27  C   UNL A   1      33.035  26.794  22.338  1.00  0.00     0.004 C 
ENDBRANCH  25  26
ENDBRANCH  24  25
ENDBRANCH  23  24
ENDBRANCH  22  23
ENDBRANCH  17  22
ENDBRANCH  11  16
ENDBRANCH   4  10
ENDBRANCH   1   3
BRANCH   1  28
ATOM     28  C   UNL A   1      31.787  29.157  25.422  1.00  0.00     0.227 C 
ATOM     29  O   UNL A   1      31.301  29.132  24.283  1.00  0.00    -0.274 OA
ATOM     30  N   UNL A   1      32.556  30.239  25.712  1.00  0.00    -0.356 N 
ATOM     31  H   UNL A   1      32.560  30.918  25.001  1.00  0.00     0.163 HD
BRANCH  30  32
ATOM     32  C   UNL A   1      33.374  30.600  26.859  1.00  0.00     0.117 C 
BRANCH  32  33
ATOM     33  C   UNL A   1      32.787  31.788  27.625  1.00  0.00     0.042 C 
BRANCH  33  34
ATOM     34  C   UNL A   1      32.817  33.102  26.838  1.00  0.00     0.118 C 
BRANCH  34  35
ATOM     35  N   UNL A   1      32.674  34.261  27.706  1.00  0.00    -0.352 N 
ATOM     36  C   UNL A   1      33.260  34.572  28.913  1.00  0.00     0.251 C 
ATOM     37  H   UNL A   1      32.047  34.943  27.372  1.00  0.00     0.163 HD
ATOM     38  O   UNL A   1      32.778  35.493  29.569  1.00  0.00    -0.269 OA
BRANCH  36  39
ATOM     39  C   UNL A   1      34.428  33.826  29.451  1.00  0.00     0.039 A 
ATOM     40  C   UNL A   1      35.714  34.204  29.049  1.00  0.00     0.014 A 
ATOM     41  C   UNL A   1      34.287  32.710  30.274  1.00  0.00     0.014 A 
ATOM     42  C   UNL A   1      36.846  33.525  29.533  1.00  0.00     0.010 A 
ATOM     43  C   UNL A   1      35.421  32.078  30.809  1.00  0.00     0.010 A 
ATOM     44  C   UNL A   1      36.723  32.483  30.466  1.00  0.00    -0.014 A 
BRANCH  44  45
ATOM     45  C   UNL A   1      37.928  31.823  31.075  1.00  0.00     0.031 A 
ATOM     46  C   UNL A   1      38.713  30.781  30.307  1.00  0.00     0.074 A 
ATOM     47  C   UNL A   1      38.305  32.103  32.343  1.00  0.00     0.049 A 
ATOM     48  N   UNL A   1      39.733  30.054  30.694  1.00  0.00    -0.248 NA
ATOM     49  C   UNL A   1      38.266  30.491  28.937  1.00  0.00     0.031 C 
ATOM     50  C   UNL A   1      37.624  33.036  33.246  1.00  0.00     0.029 A 
ATOM     51  N   UNL A   1      39.357  31.634  33.099  1.00  0.00    -0.354 N 
ATOM     52  C   UNL A   1      40.025  29.203  29.632  1.00  0.00     0.074 A 
ATOM     53  C   UNL A   1      39.026  29.456  28.616  1.00  0.00     0.031 C 
ATOM     54  C   UNL A   1      38.299  33.105  34.405  1.00  0.00     0.029 A 
ATOM     55  C   UNL A   1      39.432  32.186  34.361  1.00  0.00     0.049 A 
ATOM     56  H   UNL A   1      39.998  30.965  32.769  1.00  0.00     0.167 HD
ATOM     57  C   UNL A   1      41.046  28.318  29.490  1.00  0.00     0.034 A 
ATOM     58  C   UNL A   1      40.302  31.979  35.374  1.00  0.00     0.034 A 
ATOM     59  C   UNL A   1      42.075  28.098  30.477  1.00  0.00     0.049 A 
ATOM     60  C   UNL A   1      41.429  30.989  35.199  1.00  0.00     0.074 A 
ATOM     61  C   UNL A   1      43.196  27.290  30.385  1.00  0.00     0.029 A 
ATOM     62  N   UNL A   1      42.111  28.680  31.736  1.00  0.00    -0.354 N 
ATOM     63  N   UNL A   1      41.721  30.246  34.157  1.00  0.00    -0.248 NA
ATOM     64  C   UNL A   1      42.347  30.815  36.335  1.00  0.00     0.031 C 
ATOM     65  C   UNL A   1      43.874  27.332  31.608  1.00  0.00     0.029 A 
ATOM     66  C   UNL A   1      43.217  28.223  32.440  1.00  0.00     0.049 A 
ATOM     67  H   UNL A   1      41.450  29.323  32.079  1.00  0.00     0.167 HD
ATOM     68  C   UNL A   1      42.871  29.540  34.506  1.00  0.00     0.074 A 
ATOM     69  C   UNL A   1      43.228  29.955  35.844  1.00  0.00     0.031 C 
ATOM     70  C   UNL A   1      43.570  28.633  33.777  1.00  0.00     0.034 A 
BRANCH  57  71
ATOM     71  C   UNL A   1      41.096  27.513  28.211  1.00  0.00     0.023 A 
ATOM     72  C   UNL A   1      40.749  26.151  28.184  1.00  0.00     0.031 A 
ATOM     73  C   UNL A   1      41.520  28.106  27.008  1.00  0.00     0.131 A 
ATOM     74  C   UNL A   1      40.922  25.406  27.009  1.00  0.00     0.055 A 
ATOM     75  C   UNL A   1      41.601  27.379  25.817  1.00  0.00     0.041 A 
ATOM     76  F   UNL A   1      41.876  29.399  26.972  1.00  0.00    -0.206 F 
ATOM     77  C   UNL A   1      41.319  26.016  25.818  1.00  0.00     0.022 A 
BRANCH  74  78
ATOM     78  S   UNL A   1      40.776  23.601  27.106  1.00  0.00     0.124 S 
ATOM     79  O   UNL A   1      39.332  23.416  26.974  1.00  0.00    -0.237 OA
ATOM     80  O   UNL A   1      41.584  23.157  25.977  1.00  0.00    -0.237 OA
ATOM     81  O   UNL A   1      41.318  23.285  28.427  1.00  0.00    -0.744 OA
ENDBRANCH  74  78
ENDBRANCH  57  71
BRANCH  58  82
ATOM     82  C   UNL A   1      40.150  32.710  36.668  1.00  0.00     0.023 A 
ATOM     83  C   UNL A   1      39.203  32.303  37.623  1.00  0.00     0.031 A 
ATOM     84  C   UNL A   1      40.906  33.864  36.942  1.00  0.00     0.131 A 
ATOM     85  C   UNL A   1      39.001  33.070  38.781  1.00  0.00     0.055 A 
ATOM     86  C   UNL A   1      40.738  34.594  38.121  1.00  0.00     0.041 A 
ATOM     87  F   UNL A   1      41.827  34.297  36.067  1.00  0.00    -0.206 F 
ATOM     88  C   UNL A   1      39.771  34.205  39.043  1.00  0.00     0.022 A 
BRANCH  85  89
ATOM     89  S   UNL A   1      37.651  32.613  39.905  1.00  0.00     0.124 S 
ATOM     90  O   UNL A   1      38.205  31.442  40.574  1.00  0.00    -0.237 OA
ATOM     91  O   UNL A   1      37.515  33.815  40.720  1.00  0.00    -0.237 OA
ATOM     92  O   UNL A   1      36.533  32.345  39.002  1.00  0.00    -0.744 OA
ENDBRANCH  85  89
ENDBRANCH  58  82
BRANCH  70  93
ATOM     93  C   UNL A   1      44.823  28.059  34.393  1.00  0.00     0.023 A 
ATOM     94  C   UNL A   1      44.808  26.861  35.129  1.00  0.00     0.031 A 
ATOM     95  C   UNL A   1      46.056  28.716  34.226  1.00  0.00     0.131 A 
ATOM     96  C   UNL A   1      45.995  26.375  35.702  1.00  0.00     0.055 A 
ATOM     97  C   UNL A   1      47.242  28.201  34.753  1.00  0.00     0.041 A 
ATOM     98  F   UNL A   1      46.129  29.865  33.535  1.00  0.00    -0.206 F 
ATOM     99  C   UNL A   1      47.214  27.029  35.503  1.00  0.00     0.022 A 
BRANCH  96 100
ATOM    100  S   UNL A   1      45.918  24.909  36.765  1.00  0.00     0.124 S 
ATOM    101  O   UNL A   1      44.518  24.904  37.176  1.00  0.00    -0.237 OA
ATOM    102  O   UNL A   1      46.319  23.840  35.856  1.00  0.00    -0.237 OA
ATOM    103  O   UNL A   1      46.874  25.206  37.830  1.00  0.00    -0.744 OA
ENDBRANCH  96 100
ENDBRANCH  70  93
ENDBRANCH  44  45
ENDBRANCH  36  39
ENDBRANCH  34  35
ENDBRANCH  33  34
ENDBRANCH  32  33
ENDBRANCH  30  32
ENDBRANCH   1  28
TORSDOF 21
ENDMDL
MODEL 2
REMARK VINA RESULT:     -10.9      2.916      9.295
REMARK SMILES CCCCCCNC(=O)Nc1cccc(-c2ccc([C@@H](C)C(=O)NCCCNC(=O)c3ccc(-c4c5nc(c(-c6cc(S(=O)(=O)[O-])ccc6F)c6ccc([nH]6)c(-c6cc(S(=O)(=O)[O-])ccc6F)c6nc(c(-c7cc(S(=O)(=O)[O-])ccc7F)c7ccc4[nH]7)C=C6)C=C5)cc3)cc2F)c1
REMARK SMILES IDX 20 1 21 2 19 3 16 4 17 5 95 6 18 7 94 8 96 9 15 10 11 11
REMARK SMILES IDX 12 12 97 13 13 14 14 15 10 16 7 17 8 18 9 20 6 22 5 23 4 24
REMARK SMILES IDX 3 25 2 26 1 27 22 28 23 29 24 30 25 32 26 33 27 34 28 35
REMARK SMILES IDX 29 36 30 38 31 39 32 40 93 41 33 42 92 43 34 44 35 45 36 46
REMARK SMILES IDX 86 47 37 48 91 49 85 50 87 51 38 52 90 53 84 54 83 55 39 57
REMARK SMILES IDX 71 58 51 59 70 60 52 61 55 62 69 63 88 64 53 65 54 66 68 68
REMARK SMILES IDX 89 69 56 70 40 71 41 72 49 73 42 74 48 75 50 76 47 77 43 78
REMARK SMILES IDX 44 79 45 80 46 81 72 82 73 83 81 84 74 85 80 86 82 87 79 88
REMARK SMILES IDX 75 89 76 90 77 91 78 92 57 93 58 94 66 95 59 96 65 97 67 98
REMARK SMILES IDX 64 99 60 100 61 101 62 102 63 103
REMARK H PARENT 7 19 10 21 24 31 28 37 87 56 55 67
REMARK Flexibility Score: inf
ROOT
ATOM      1  C   UNL A   1      41.261  22.114  27.261  1.00  0.00     0.105 C 
ATOM      2  C   UNL A   1      41.580  22.771  28.604  1.00  0.00     0.023 C 
ENDROOT
BRANCH   1   3
ATOM      3  C   UNL A   1      39.933  22.531  26.650  1.00  0.00    -0.033 A 
ATOM      4  C   UNL A   1      37.414  23.239  25.481  1.00  0.00     0.018 A 
ATOM      5  C   UNL A   1      38.185  24.170  26.196  1.00  0.00     0.012 A 
ATOM      6  C   UNL A   1      37.946  21.948  25.359  1.00  0.00     0.131 A 
ATOM      7  C   UNL A   1      39.426  23.829  26.753  1.00  0.00     0.005 A 
ATOM      8  C   UNL A   1      39.169  21.593  25.938  1.00  0.00     0.044 A 
ATOM      9  F   UNL A   1      37.288  21.005  24.666  1.00  0.00    -0.206 F 
BRANCH   4  10
ATOM     10  C   UNL A   1      36.090  23.613  24.942  1.00  0.00    -0.013 A 
ATOM     11  C   UNL A   1      33.965  24.800  25.200  1.00  0.00     0.043 A 
ATOM     12  C   UNL A   1      33.634  24.534  23.874  1.00  0.00     0.026 A 
ATOM     13  C   UNL A   1      35.149  24.282  25.742  1.00  0.00     0.035 A 
ATOM     14  C   UNL A   1      34.542  23.857  23.063  1.00  0.00     0.003 A 
ATOM     15  C   UNL A   1      35.761  23.413  23.589  1.00  0.00     0.009 A 
BRANCH  11  16
ATOM     16  N   UNL A   1      33.138  25.671  25.928  1.00  0.00    -0.308 N 
ATOM     17  N   UNL A   1      31.558  24.214  26.910  1.00  0.00    -0.338 N 
ATOM     18  C   UNL A   1      31.910  25.448  26.468  1.00  0.00     0.319 C 
ATOM     19  H   UNL A   1      30.607  24.102  27.141  1.00  0.00     0.165 HD
ATOM     20  O   UNL A   1      31.143  26.391  26.660  1.00  0.00    -0.249 OA
ATOM     21  H   UNL A   1      33.501  26.576  26.067  1.00  0.00     0.171 HD
BRANCH  17  22
ATOM     22  C   UNL A   1      32.385  23.036  27.090  1.00  0.00     0.117 C 
BRANCH  22  23
ATOM     23  C   UNL A   1      31.878  21.790  26.385  1.00  0.00     0.021 C 
BRANCH  23  24
ATOM     24  C   UNL A   1      32.368  21.581  24.955  1.00  0.00     0.002 C 
BRANCH  24  25
ATOM     25  C   UNL A   1      33.506  20.578  24.746  1.00  0.00    -0.000 C 
BRANCH  25  26
ATOM     26  C   UNL A   1      33.126  19.174  24.270  1.00  0.00    -0.003 C 
ATOM     27  C   UNL A   1      32.236  19.168  23.047  1.00  0.00     0.004 C 
ENDBRANCH  25  26
ENDBRANCH  24  25
ENDBRANCH  23  24
ENDBRANCH  22  23
ENDBRANCH  17  22
ENDBRANCH  11  16
ENDBRANCH   4  10
ENDBRANCH   1   3
BRANCH   1  28
ATOM     28  C   UNL A   1      41.562  20.611  27.182  1.00  0.00     0.227 C 
ATOM     29  O   UNL A   1      41.034  19.842  27.998  1.00  0.00    -0.274 OA
ATOM     30  N   UNL A   1      42.367  20.026  26.257  1.00  0.00    -0.356 N 
ATOM     31  H   UNL A   1      42.361  19.044  26.298  1.00  0.00     0.163 HD
BRANCH  30  32
ATOM     32  C   UNL A   1      43.235  20.555  25.217  1.00  0.00     0.117 C 
BRANCH  32  33
ATOM     33  C   UNL A   1      44.009  21.786  25.693  1.00  0.00     0.042 C 
BRANCH  33  34
ATOM     34  C   UNL A   1      43.778  23.030  24.828  1.00  0.00     0.118 C 
BRANCH  34  35
ATOM     35  N   UNL A   1      45.004  23.788  24.626  1.00  0.00    -0.352 N 
ATOM     36  C   UNL A   1      45.382  25.040  25.060  1.00  0.00     0.251 C 
ATOM     37  H   UNL A   1      45.682  23.326  24.082  1.00  0.00     0.163 HD
ATOM     38  O   UNL A   1      46.367  25.559  24.538  1.00  0.00    -0.269 OA
BRANCH  36  39
ATOM     39  C   UNL A   1      44.636  25.782  26.109  1.00  0.00     0.039 A 
ATOM     40  C   UNL A   1      43.937  25.058  27.081  1.00  0.00     0.014 A 
ATOM     41  C   UNL A   1      44.536  27.172  26.112  1.00  0.00     0.014 A 
ATOM     42  C   UNL A   1      43.217  25.720  28.091  1.00  0.00     0.010 A 
ATOM     43  C   UNL A   1      43.874  27.831  27.161  1.00  0.00     0.010 A 
ATOM     44  C   UNL A   1      43.217  27.121  28.181  1.00  0.00    -0.014 A 
BRANCH  44  45
ATOM     45  C   UNL A   1      42.545  27.839  29.318  1.00  0.00     0.031 A 
ATOM     46  C   UNL A   1      43.186  27.892  30.689  1.00  0.00     0.074 A 
ATOM     47  C   UNL A   1      41.327  28.405  29.157  1.00  0.00     0.049 A 
ATOM     48  N   UNL A   1      42.723  28.401  31.805  1.00  0.00    -0.248 NA
ATOM     49  C   UNL A   1      44.502  27.255  30.829  1.00  0.00     0.031 C 
ATOM     50  C   UNL A   1      40.541  28.392  27.921  1.00  0.00     0.029 A 
ATOM     51  N   UNL A   1      40.532  29.106  30.038  1.00  0.00    -0.354 N 
ATOM     52  C   UNL A   1      43.674  28.115  32.781  1.00  0.00     0.074 A 
ATOM     53  C   UNL A   1      44.700  27.325  32.137  1.00  0.00     0.031 C 
ATOM     54  C   UNL A   1      39.408  29.090  28.107  1.00  0.00     0.029 A 
ATOM     55  C   UNL A   1      39.351  29.559  29.489  1.00  0.00     0.049 A 
ATOM     56  H   UNL A   1      40.784  29.268  30.975  1.00  0.00     0.167 HD
ATOM     57  C   UNL A   1      43.717  28.500  34.084  1.00  0.00     0.034 A 
ATOM     58  C   UNL A   1      38.331  30.264  30.026  1.00  0.00     0.034 A 
ATOM     59  C   UNL A   1      42.723  29.330  34.720  1.00  0.00     0.049 A 
ATOM     60  C   UNL A   1      38.395  30.680  31.477  1.00  0.00     0.074 A 
ATOM     61  C   UNL A   1      42.727  29.844  36.005  1.00  0.00     0.029 A 
ATOM     62  N   UNL A   1      41.548  29.766  34.124  1.00  0.00    -0.354 N 
ATOM     63  N   UNL A   1      39.338  30.453  32.360  1.00  0.00    -0.248 NA
ATOM     64  C   UNL A   1      37.258  31.452  32.000  1.00  0.00     0.031 C 
ATOM     65  C   UNL A   1      41.527  30.534  36.210  1.00  0.00     0.029 A 
ATOM     66  C   UNL A   1      40.807  30.514  35.028  1.00  0.00     0.049 A 
ATOM     67  H   UNL A   1      41.280  29.574  33.197  1.00  0.00     0.167 HD
ATOM     68  C   UNL A   1      38.918  31.080  33.532  1.00  0.00     0.074 A 
ATOM     69  C   UNL A   1      37.647  31.704  33.242  1.00  0.00     0.031 C 
ATOM     70  C   UNL A   1      39.536  31.135  34.740  1.00  0.00     0.034 A 
BRANCH  57  71
ATOM     71  C   UNL A   1      44.885  28.017  34.914  1.00  0.00     0.023 A 
ATOM     72  C   UNL A   1      44.830  26.807  35.628  1.00  0.00     0.031 A 
ATOM     73  C   UNL A   1      46.058  28.785  35.013  1.00  0.00     0.131 A 
ATOM     74  C   UNL A   1      45.883  26.449  36.483  1.00  0.00     0.055 A 
ATOM     75  C   UNL A   1      47.142  28.376  35.794  1.00  0.00     0.041 A 
ATOM     76  F   UNL A   1      46.167  29.955  34.365  1.00  0.00    -0.206 F 
ATOM     77  C   UNL A   1      47.050  27.210  36.550  1.00  0.00     0.022 A 
BRANCH  74  78
ATOM     78  S   UNL A   1      45.630  25.062  37.623  1.00  0.00     0.124 S 
ATOM     79  O   UNL A   1      45.942  25.680  38.910  1.00  0.00    -0.237 OA
ATOM     80  O   UNL A   1      44.230  24.721  37.401  1.00  0.00    -0.237 OA
ATOM     81  O   UNL A   1      46.597  24.065  37.168  1.00  0.00    -0.744 OA
ENDBRANCH  74  78
ENDBRANCH  57  71
BRANCH  58  82
ATOM     82  C   UNL A   1      37.137  30.623  29.202  1.00  0.00     0.023 A 
ATOM     83  C   UNL A   1      36.664  31.944  29.150  1.00  0.00     0.031 A 
ATOM     84  C   UNL A   1      36.415  29.637  28.505  1.00  0.00     0.131 A 
ATOM     85  C   UNL A   1      35.476  32.237  28.460  1.00  0.00     0.055 A 
ATOM     86  C   UNL A   1      35.264  29.943  27.776  1.00  0.00     0.041 A 
ATOM     87  F   UNL A   1      36.824  28.358  28.517  1.00  0.00    -0.206 F 
ATOM     88  C   UNL A   1      34.780  31.248  27.763  1.00  0.00     0.022 A 
BRANCH  85  89
ATOM     89  S   UNL A   1      34.802  33.918  28.562  1.00  0.00     0.124 S 
ATOM     90  O   UNL A   1      34.782  34.315  27.159  1.00  0.00    -0.237 OA
ATOM     91  O   UNL A   1      33.502  33.687  29.183  1.00  0.00    -0.237 OA
ATOM     92  O   UNL A   1      35.772  34.624  29.397  1.00  0.00    -0.744 OA
ENDBRANCH  85  89
ENDBRANCH  58  82
BRANCH  70  93
ATOM     93  C   UNL A   1      38.868  31.938  35.830  1.00  0.00     0.023 A 
ATOM     94  C   UNL A   1      38.205  31.323  36.906  1.00  0.00     0.031 A 
ATOM     95  C   UNL A   1      38.913  33.343  35.797  1.00  0.00     0.131 A 
ATOM     96  C   UNL A   1      37.580  32.112  37.886  1.00  0.00     0.055 A 
ATOM     97  C   UNL A   1      38.336  34.123  36.802  1.00  0.00     0.041 A 
ATOM     98  F   UNL A   1      39.531  33.984  34.791  1.00  0.00    -0.206 F 
ATOM     99  C   UNL A   1      37.657  33.507  37.849  1.00  0.00     0.022 A 
BRANCH  96 100
ATOM    100  S   UNL A   1      36.609  31.293  39.180  1.00  0.00     0.124 S 
ATOM    101  O   UNL A   1      35.515  32.237  39.382  1.00  0.00    -0.237 OA
ATOM    102  O   UNL A   1      36.250  30.027  38.550  1.00  0.00    -0.237 OA
ATOM    103  O   UNL A   1      37.547  31.184  40.296  1.00  0.00    -0.744 OA
ENDBRANCH  96 100
ENDBRANCH  70  93
ENDBRANCH  44  45
ENDBRANCH  36  39
ENDBRANCH  34  35
ENDBRANCH  33  34
ENDBRANCH  32  33
ENDBRANCH  30  32
ENDBRANCH   1  28
TORSDOF 21
ENDMDL
MODEL 3
REMARK VINA RESULT:     -10.8      1.760      2.015
REMARK SMILES CCCCCCNC(=O)Nc1cccc(-c2ccc([C@@H](C)C(=O)NCCCNC(=O)c3ccc(-c4c5nc(c(-c6cc(S(=O)(=O)[O-])ccc6F)c6ccc([nH]6)c(-c6cc(S(=O)(=O)[O-])ccc6F)c6nc(c(-c7cc(S(=O)(=O)[O-])ccc7F)c7ccc4[nH]7)C=C6)C=C5)cc3)cc2F)c1
REMARK SMILES IDX 20 1 21 2 19 3 16 4 17 5 95 6 18 7 94 8 96 9 15 10 11 11
REMARK SMILES IDX 12 12 97 13 13 14 14 15 10 16 7 17 8 18 9 20 6 22 5 23 4 24
REMARK SMILES IDX 3 25 2 26 1 27 22 28 23 29 24 30 25 32 26 33 27 34 28 35
REMARK SMILES IDX 29 36 30 38 31 39 32 40 93 41 33 42 92 43 34 44 35 45 36 46
REMARK SMILES IDX 86 47 37 48 91 49 85 50 87 51 38 52 90 53 84 54 83 55 39 57
REMARK SMILES IDX 71 58 51 59 70 60 52 61 55 62 69 63 88 64 53 65 54 66 68 68
REMARK SMILES IDX 89 69 56 70 40 71 41 72 49 73 42 74 48 75 50 76 47 77 43 78
REMARK SMILES IDX 44 79 45 80 46 81 72 82 73 83 81 84 74 85 80 86 82 87 79 88
REMARK SMILES IDX 75 89 76 90 77 91 78 92 57 93 58 94 66 95 59 96 65 97 67 98
REMARK SMILES IDX 64 99 60 100 61 101 62 102 63 103
REMARK H PARENT 7 19 10 21 24 31 28 37 87 56 55 67
REMARK Flexibility Score: inf
ROOT
ATOM      1  C   UNL A   1      31.507  28.125  26.418  1.00  0.00     0.105 C 
ATOM      2  C   UNL A   1      31.315  28.509  27.884  1.00  0.00     0.023 C 
ENDROOT
BRANCH   1   3
ATOM      3  C   UNL A   1      32.358  26.885  26.193  1.00  0.00    -0.033 A 
ATOM      4  C   UNL A   1      33.896  24.503  25.779  1.00  0.00     0.018 A 
ATOM      5  C   UNL A   1      34.438  25.780  25.560  1.00  0.00     0.012 A 
ATOM      6  C   UNL A   1      32.568  24.454  26.222  1.00  0.00     0.131 A 
ATOM      7  C   UNL A   1      33.691  26.947  25.780  1.00  0.00     0.005 A 
ATOM      8  C   UNL A   1      31.807  25.613  26.414  1.00  0.00     0.044 A 
ATOM      9  F   UNL A   1      31.982  23.274  26.483  1.00  0.00    -0.206 F 
BRANCH   4  10
ATOM     10  C   UNL A   1      34.691  23.289  25.497  1.00  0.00    -0.013 A 
ATOM     11  C   UNL A   1      34.854  20.849  25.403  1.00  0.00     0.043 A 
ATOM     12  C   UNL A   1      36.094  20.938  24.774  1.00  0.00     0.026 A 
ATOM     13  C   UNL A   1      34.198  22.015  25.821  1.00  0.00     0.035 A 
ATOM     14  C   UNL A   1      36.613  22.190  24.457  1.00  0.00     0.003 A 
ATOM     15  C   UNL A   1      35.913  23.352  24.804  1.00  0.00     0.009 A 
BRANCH  11  16
ATOM     16  N   UNL A   1      34.253  19.584  25.508  1.00  0.00    -0.308 N 
ATOM     17  N   UNL A   1      32.217  19.860  24.341  1.00  0.00    -0.338 N 
ATOM     18  C   UNL A   1      32.965  19.216  25.273  1.00  0.00     0.319 C 
ATOM     19  H   UNL A   1      31.257  19.638  24.342  1.00  0.00     0.165 HD
ATOM     20  O   UNL A   1      32.498  18.223  25.830  1.00  0.00    -0.249 OA
ATOM     21  H   UNL A   1      34.853  18.857  25.794  1.00  0.00     0.171 HD
BRANCH  17  22
ATOM     22  C   UNL A   1      32.631  20.828  23.344  1.00  0.00     0.117 C 
BRANCH  22  23
ATOM     23  C   UNL A   1      31.864  22.139  23.375  1.00  0.00     0.021 C 
BRANCH  23  24
ATOM     24  C   UNL A   1      32.457  23.284  22.558  1.00  0.00     0.002 C 
BRANCH  24  25
ATOM     25  C   UNL A   1      31.758  24.643  22.653  1.00  0.00    -0.000 C 
BRANCH  25  26
ATOM     26  C   UNL A   1      32.235  25.745  21.704  1.00  0.00    -0.003 C 
ATOM     27  C   UNL A   1      33.532  26.395  22.132  1.00  0.00     0.004 C 
ENDBRANCH  25  26
ENDBRANCH  24  25
ENDBRANCH  23  24
ENDBRANCH  22  23
ENDBRANCH  17  22
ENDBRANCH  11  16
ENDBRANCH   4  10
ENDBRANCH   1   3
BRANCH   1  28
ATOM     28  C   UNL A   1      31.810  29.293  25.470  1.00  0.00     0.227 C 
ATOM     29  O   UNL A   1      31.416  29.242  24.297  1.00  0.00    -0.274 OA
ATOM     30  N   UNL A   1      32.478  30.424  25.819  1.00  0.00    -0.356 N 
ATOM     31  H   UNL A   1      32.489  31.106  25.110  1.00  0.00     0.163 HD
BRANCH  30  32
ATOM     32  C   UNL A   1      33.177  30.835  27.026  1.00  0.00     0.117 C 
BRANCH  32  33
ATOM     33  C   UNL A   1      32.525  32.057  27.674  1.00  0.00     0.042 C 
BRANCH  33  34
ATOM     34  C   UNL A   1      33.078  33.392  27.165  1.00  0.00     0.118 C 
BRANCH  34  35
ATOM     35  N   UNL A   1      32.821  34.480  28.097  1.00  0.00    -0.352 N 
ATOM     36  C   UNL A   1      33.304  34.727  29.363  1.00  0.00     0.251 C 
ATOM     37  H   UNL A   1      32.191  35.159  27.764  1.00  0.00     0.163 HD
ATOM     38  O   UNL A   1      32.735  35.580  30.042  1.00  0.00    -0.269 OA
BRANCH  36  39
ATOM     39  C   UNL A   1      34.461  33.991  29.936  1.00  0.00     0.039 A 
ATOM     40  C   UNL A   1      35.752  34.326  29.512  1.00  0.00     0.014 A 
ATOM     41  C   UNL A   1      34.304  32.922  30.816  1.00  0.00     0.014 A 
ATOM     42  C   UNL A   1      36.874  33.655  30.027  1.00  0.00     0.010 A 
ATOM     43  C   UNL A   1      35.430  32.300  31.380  1.00  0.00     0.010 A 
ATOM     44  C   UNL A   1      36.737  32.665  31.013  1.00  0.00    -0.014 A 
BRANCH  44  45
ATOM     45  C   UNL A   1      37.933  32.018  31.653  1.00  0.00     0.031 A 
ATOM     46  C   UNL A   1      38.690  30.913  30.944  1.00  0.00     0.074 A 
ATOM     47  C   UNL A   1      38.327  32.367  32.899  1.00  0.00     0.049 A 
ATOM     48  N   UNL A   1      39.697  30.190  31.368  1.00  0.00    -0.248 NA
ATOM     49  C   UNL A   1      38.225  30.550  29.599  1.00  0.00     0.031 C 
ATOM     50  C   UNL A   1      37.674  33.367  33.747  1.00  0.00     0.029 A 
ATOM     51  N   UNL A   1      39.376  31.923  33.674  1.00  0.00    -0.354 N 
ATOM     52  C   UNL A   1      39.962  29.270  30.358  1.00  0.00     0.074 A 
ATOM     53  C   UNL A   1      38.960  29.481  29.336  1.00  0.00     0.031 C 
ATOM     54  C   UNL A   1      38.360  33.494  34.895  1.00  0.00     0.029 A 
ATOM     55  C   UNL A   1      39.474  32.549  34.899  1.00  0.00     0.049 A 
ATOM     56  H   UNL A   1      40.000  31.221  33.381  1.00  0.00     0.167 HD
ATOM     57  C   UNL A   1      40.963  28.356  30.263  1.00  0.00     0.034 A 
ATOM     58  C   UNL A   1      40.348  32.386  35.916  1.00  0.00     0.034 A 
ATOM     59  C   UNL A   1      41.996  28.175  31.254  1.00  0.00     0.049 A 
ATOM     60  C   UNL A   1      41.453  31.363  35.794  1.00  0.00     0.074 A 
ATOM     61  C   UNL A   1      43.099  27.339  31.203  1.00  0.00     0.029 A 
ATOM     62  N   UNL A   1      42.055  28.832  32.475  1.00  0.00    -0.354 N 
ATOM     63  N   UNL A   1      41.719  30.552  34.798  1.00  0.00    -0.248 NA
ATOM     64  C   UNL A   1      42.376  31.239  36.931  1.00  0.00     0.031 C 
ATOM     65  C   UNL A   1      43.788  27.441  32.417  1.00  0.00     0.029 A 
ATOM     66  C   UNL A   1      43.157  28.395  33.197  1.00  0.00     0.049 A 
ATOM     67  H   UNL A   1      41.411  29.509  32.783  1.00  0.00     0.167 HD
ATOM     68  C   UNL A   1      42.858  29.844  35.180  1.00  0.00     0.074 A 
ATOM     69  C   UNL A   1      43.235  30.332  36.488  1.00  0.00     0.031 C 
ATOM     70  C   UNL A   1      43.531  28.879  34.504  1.00  0.00     0.034 A 
BRANCH  57  71
ATOM     71  C   UNL A   1      40.985  27.473  29.036  1.00  0.00     0.023 A 
ATOM     72  C   UNL A   1      41.944  27.644  28.022  1.00  0.00     0.031 A 
ATOM     73  C   UNL A   1      40.021  26.464  28.863  1.00  0.00     0.131 A 
ATOM     74  C   UNL A   1      41.861  26.889  26.843  1.00  0.00     0.055 A 
ATOM     75  C   UNL A   1      40.001  25.651  27.727  1.00  0.00     0.041 A 
ATOM     76  F   UNL A   1      39.072  26.259  29.790  1.00  0.00    -0.206 F 
ATOM     77  C   UNL A   1      40.914  25.874  26.700  1.00  0.00     0.022 A 
BRANCH  74  78
ATOM     78  S   UNL A   1      42.908  27.367  25.442  1.00  0.00     0.124 S 
ATOM     79  O   UNL A   1      43.074  26.090  24.751  1.00  0.00    -0.237 OA
ATOM     80  O   UNL A   1      42.088  28.361  24.759  1.00  0.00    -0.237 OA
ATOM     81  O   UNL A   1      44.117  27.885  26.079  1.00  0.00    -0.744 OA
ENDBRANCH  74  78
ENDBRANCH  57  71
BRANCH  58  82
ATOM     82  C   UNL A   1      40.223  33.198  37.164  1.00  0.00     0.023 A 
ATOM     83  C   UNL A   1      39.545  32.698  38.289  1.00  0.00     0.031 A 
ATOM     84  C   UNL A   1      40.724  34.511  37.228  1.00  0.00     0.131 A 
ATOM     85  C   UNL A   1      39.344  33.520  39.409  1.00  0.00     0.055 A 
ATOM     86  C   UNL A   1      40.568  35.306  38.366  1.00  0.00     0.041 A 
ATOM     87  F   UNL A   1      41.383  35.039  36.185  1.00  0.00    -0.206 F 
ATOM     88  C   UNL A   1      39.861  34.817  39.460  1.00  0.00     0.022 A 
BRANCH  85  89
ATOM     89  S   UNL A   1      38.315  32.902  40.770  1.00  0.00     0.124 S 
ATOM     90  O   UNL A   1      38.260  31.475  40.476  1.00  0.00    -0.237 OA
ATOM     91  O   UNL A   1      39.096  33.288  41.940  1.00  0.00    -0.237 OA
ATOM     92  O   UNL A   1      37.055  33.624  40.598  1.00  0.00    -0.744 OA
ENDBRANCH  85  89
ENDBRANCH  58  82
BRANCH  70  93
ATOM     93  C   UNL A   1      44.777  28.316  35.145  1.00  0.00     0.023 A 
ATOM     94  C   UNL A   1      46.036  28.919  34.977  1.00  0.00     0.031 A 
ATOM     95  C   UNL A   1      44.697  27.165  35.949  1.00  0.00     0.131 A 
ATOM     96  C   UNL A   1      47.171  28.347  35.575  1.00  0.00     0.055 A 
ATOM     97  C   UNL A   1      45.820  26.632  36.585  1.00  0.00     0.041 A 
ATOM     98  F   UNL A   1      43.520  26.547  36.142  1.00  0.00    -0.206 F 
ATOM     99  C   UNL A   1      47.067  27.218  36.392  1.00  0.00     0.022 A 
BRANCH  96 100
ATOM    100  S   UNL A   1      48.800  29.061  35.222  1.00  0.00     0.124 S 
ATOM    101  O   UNL A   1      49.038  28.614  33.854  1.00  0.00    -0.237 OA
ATOM    102  O   UNL A   1      48.559  30.491  35.393  1.00  0.00    -0.237 OA
ATOM    103  O   UNL A   1      49.667  28.456  36.232  1.00  0.00    -0.744 OA
ENDBRANCH  96 100
ENDBRANCH  70  93
ENDBRANCH  44  45
ENDBRANCH  36  39
ENDBRANCH  34  35
ENDBRANCH  33  34
ENDBRANCH  32  33
ENDBRANCH  30  32
ENDBRANCH   1  28
TORSDOF 21
ENDMDL
