MODEL 1
REMARK VINA RESULT:     -12.5      0.000      0.000
REMARK SMILES Cc1ccc(-c2nnc(S[C@@H](C)C(=O)NCCCNC(=O)c3ccc(-c4c5nc(c(-c6cc(S(=O)(=O)[O-])ccc6F)c6ccc([nH]6)c(-c6cc(S(=O)(=O)[O-])ccc6F)c6nc(c(-c7cc(S(=O)(=O)[O-])ccc7F)c7ccc4[nH]7)C=C6)C=C5)cc3)n2C)cc1
REMARK SMILES IDX 17 1 16 2 15 3 13 4 14 5 11 7 12 8 10 9 9 10 6 11 7 12 85 13
REMARK SMILES IDX 8 14 86 15 5 16 1 17 2 18 3 19 88 20 4 21 87 22 18 23 19 24
REMARK SMILES IDX 20 25 21 27 22 28 23 29 84 30 24 31 83 32 25 33 26 34 27 35
REMARK SMILES IDX 77 36 28 37 82 38 76 39 78 40 29 41 81 42 75 43 74 44 30 46
REMARK SMILES IDX 62 47 42 48 61 49 43 50 46 51 60 52 79 53 44 54 45 55 59 57
REMARK SMILES IDX 80 58 47 59 31 60 32 61 40 62 33 63 39 64 41 65 38 66 34 67
REMARK SMILES IDX 35 68 36 69 37 70 63 71 64 72 72 73 65 74 71 75 73 76 70 77
REMARK SMILES IDX 66 78 67 79 68 80 69 81 48 82 49 83 57 84 50 85 56 86 58 87
REMARK SMILES IDX 55 88 51 89 52 90 53 91 54 92
REMARK H PARENT 15 6 19 26 78 45 46 56
REMARK Flexibility Score: inf
ROOT
ATOM      1  C   UNL A   1      39.999  21.157  25.815  1.00  0.00     0.042 C 
ENDROOT
BRANCH   1   2
ATOM      2  C   UNL A   1      38.496  20.951  25.754  1.00  0.00     0.117 C 
BRANCH   2   3
ATOM      3  N   UNL A   1      37.778  22.209  25.811  1.00  0.00    -0.355 N 
ATOM      4  C   UNL A   1      36.486  22.568  25.956  1.00  0.00     0.233 C 
ATOM      5  O   UNL A   1      36.293  23.793  26.038  1.00  0.00    -0.274 OA
ATOM      6  H   UNL A   1      38.374  22.986  25.721  1.00  0.00     0.163 HD
BRANCH   4   7
ATOM      7  C   UNL A   1      35.285  21.635  26.106  1.00  0.00     0.141 C 
ATOM      8  C   UNL A   1      34.972  20.736  24.918  1.00  0.00     0.030 C 
BRANCH   7   9
ATOM      9  S   UNL A   1      33.980  22.050  27.248  1.00  0.00    -0.073 SA
BRANCH   9  10
ATOM     10  C   UNL A   1      32.767  23.177  26.788  1.00  0.00     0.191 A 
ATOM     11  C   UNL A   1      31.427  24.733  25.971  1.00  0.00     0.164 A 
ATOM     12  N   UNL A   1      30.939  24.319  27.126  1.00  0.00    -0.129 NA
ATOM     13  N   UNL A   1      32.554  23.961  25.679  1.00  0.00    -0.305 N 
ATOM     14  N   UNL A   1      31.760  23.354  27.622  1.00  0.00    -0.123 NA
ATOM     15  C   UNL A   1      33.297  24.049  24.454  1.00  0.00     0.154 C 
BRANCH  11  16
ATOM     16  C   UNL A   1      30.909  25.905  25.248  1.00  0.00     0.019 A 
ATOM     17  C   UNL A   1      30.146  29.267  22.660  1.00  0.00     0.044 C 
ATOM     18  C   UNL A   1      30.266  28.173  23.682  1.00  0.00    -0.051 A 
ATOM     19  C   UNL A   1      31.189  28.275  24.727  1.00  0.00     0.004 A 
ATOM     20  C   UNL A   1      29.609  26.956  23.482  1.00  0.00     0.004 A 
ATOM     21  C   UNL A   1      31.510  27.151  25.495  1.00  0.00     0.012 A 
ATOM     22  C   UNL A   1      29.904  25.843  24.279  1.00  0.00     0.012 A 
ENDBRANCH  11  16
ENDBRANCH   9  10
ENDBRANCH   7   9
ENDBRANCH   4   7
ENDBRANCH   2   3
ENDBRANCH   1   2
BRANCH   1  23
ATOM     23  C   UNL A   1      40.487  21.664  27.163  1.00  0.00     0.118 C 
BRANCH  23  24
ATOM     24  N   UNL A   1      41.702  22.475  27.175  1.00  0.00    -0.352 N 
ATOM     25  C   UNL A   1      41.847  23.845  26.996  1.00  0.00     0.251 C 
ATOM     26  H   UNL A   1      42.537  21.979  27.334  1.00  0.00     0.163 HD
ATOM     27  O   UNL A   1      42.892  24.408  27.273  1.00  0.00    -0.269 OA
BRANCH  25  28
ATOM     28  C   UNL A   1      40.694  24.725  26.674  1.00  0.00     0.039 A 
ATOM     29  C   UNL A   1      41.116  25.950  26.139  1.00  0.00     0.014 A 
ATOM     30  C   UNL A   1      39.547  24.652  27.441  1.00  0.00     0.014 A 
ATOM     31  C   UNL A   1      40.763  27.102  26.811  1.00  0.00     0.010 A 
ATOM     32  C   UNL A   1      39.263  25.776  28.185  1.00  0.00     0.010 A 
ATOM     33  C   UNL A   1      39.969  26.963  27.943  1.00  0.00    -0.014 A 
BRANCH  33  34
ATOM     34  C   UNL A   1      39.938  27.973  28.985  1.00  0.00     0.031 A 
ATOM     35  C   UNL A   1      39.052  29.130  28.811  1.00  0.00     0.074 A 
ATOM     36  C   UNL A   1      40.744  27.921  30.071  1.00  0.00     0.049 A 
ATOM     37  N   UNL A   1      39.333  30.313  29.232  1.00  0.00    -0.248 NA
ATOM     38  C   UNL A   1      37.799  29.056  28.073  1.00  0.00     0.031 C 
ATOM     39  C   UNL A   1      40.673  28.782  31.249  1.00  0.00     0.029 A 
ATOM     40  N   UNL A   1      41.926  27.223  30.247  1.00  0.00    -0.354 N 
ATOM     41  C   UNL A   1      38.194  31.067  29.112  1.00  0.00     0.074 A 
ATOM     42  C   UNL A   1      37.303  30.273  28.300  1.00  0.00     0.031 C 
ATOM     43  C   UNL A   1      41.854  28.751  31.886  1.00  0.00     0.029 A 
ATOM     44  C   UNL A   1      42.767  27.958  31.089  1.00  0.00     0.049 A 
ATOM     45  H   UNL A   1      42.139  26.350  29.845  1.00  0.00     0.167 HD
ATOM     46  C   UNL A   1      38.073  32.207  29.845  1.00  0.00     0.034 A 
ATOM     47  C   UNL A   1      44.025  28.332  30.714  1.00  0.00     0.034 A 
ATOM     48  C   UNL A   1      39.263  32.457  30.665  1.00  0.00     0.049 A 
ATOM     49  C   UNL A   1      44.217  29.837  30.651  1.00  0.00     0.074 A 
ATOM     50  C   UNL A   1      39.537  32.301  32.015  1.00  0.00     0.029 A 
ATOM     51  N   UNL A   1      40.487  32.688  30.050  1.00  0.00    -0.354 N 
ATOM     52  N   UNL A   1      43.255  30.707  30.799  1.00  0.00    -0.248 NA
ATOM     53  C   UNL A   1      45.492  30.481  30.363  1.00  0.00     0.031 C 
ATOM     54  C   UNL A   1      40.934  32.472  32.208  1.00  0.00     0.029 A 
ATOM     55  C   UNL A   1      41.509  32.744  30.980  1.00  0.00     0.049 A 
ATOM     56  H   UNL A   1      40.612  32.797  29.080  1.00  0.00     0.167 HD
ATOM     57  C   UNL A   1      43.723  31.980  30.560  1.00  0.00     0.074 A 
ATOM     58  C   UNL A   1      45.141  31.779  30.316  1.00  0.00     0.031 C 
ATOM     59  C   UNL A   1      42.871  33.058  30.551  1.00  0.00     0.034 A 
BRANCH  46  60
ATOM     60  C   UNL A   1      36.755  32.915  30.060  1.00  0.00     0.023 A 
ATOM     61  C   UNL A   1      36.245  33.022  31.369  1.00  0.00     0.031 A 
ATOM     62  C   UNL A   1      35.937  33.462  29.053  1.00  0.00     0.131 A 
ATOM     63  C   UNL A   1      34.952  33.511  31.615  1.00  0.00     0.055 A 
ATOM     64  C   UNL A   1      34.622  33.884  29.284  1.00  0.00     0.041 A 
ATOM     65  F   UNL A   1      36.393  33.678  27.811  1.00  0.00    -0.206 F 
ATOM     66  C   UNL A   1      34.115  33.895  30.573  1.00  0.00     0.022 A 
BRANCH  63  67
ATOM     67  S   UNL A   1      34.390  33.659  33.330  1.00  0.00     0.124 S 
ATOM     68  O   UNL A   1      35.383  32.870  34.049  1.00  0.00    -0.237 OA
ATOM     69  O   UNL A   1      34.430  35.102  33.544  1.00  0.00    -0.237 OA
ATOM     70  O   UNL A   1      33.047  33.080  33.295  1.00  0.00    -0.744 OA
ENDBRANCH  63  67
ENDBRANCH  46  60
BRANCH  47  71
ATOM     71  C   UNL A   1      44.690  27.314  29.851  1.00  0.00     0.023 A 
ATOM     72  C   UNL A   1      44.511  27.464  28.458  1.00  0.00     0.031 A 
ATOM     73  C   UNL A   1      45.783  26.560  30.296  1.00  0.00     0.131 A 
ATOM     74  C   UNL A   1      45.512  27.054  27.563  1.00  0.00     0.055 A 
ATOM     75  C   UNL A   1      46.742  26.081  29.392  1.00  0.00     0.041 A 
ATOM     76  F   UNL A   1      46.015  26.399  31.606  1.00  0.00    -0.206 F 
ATOM     77  C   UNL A   1      46.639  26.375  28.027  1.00  0.00     0.022 A 
BRANCH  74  78
ATOM     78  S   UNL A   1      45.439  27.671  25.850  1.00  0.00     0.124 S 
ATOM     79  O   UNL A   1      46.822  27.535  25.411  1.00  0.00    -0.237 OA
ATOM     80  O   UNL A   1      44.479  26.772  25.213  1.00  0.00    -0.237 OA
ATOM     81  O   UNL A   1      44.946  29.041  25.968  1.00  0.00    -0.744 OA
ENDBRANCH  74  78
ENDBRANCH  47  71
BRANCH  59  82
ATOM     82  C   UNL A   1      43.184  34.504  30.162  1.00  0.00     0.023 A 
ATOM     83  C   UNL A   1      43.040  35.029  28.870  1.00  0.00     0.031 A 
ATOM     84  C   UNL A   1      43.656  35.438  31.127  1.00  0.00     0.131 A 
ATOM     85  C   UNL A   1      43.313  36.385  28.584  1.00  0.00     0.055 A 
ATOM     86  C   UNL A   1      43.917  36.785  30.847  1.00  0.00     0.041 A 
ATOM     87  F   UNL A   1      43.886  35.100  32.402  1.00  0.00    -0.206 F 
ATOM     88  C   UNL A   1      43.740  37.271  29.567  1.00  0.00     0.022 A 
BRANCH  85  89
ATOM     89  S   UNL A   1      43.118  36.961  26.876  1.00  0.00     0.124 S 
ATOM     90  O   UNL A   1      44.437  37.509  26.583  1.00  0.00    -0.237 OA
ATOM     91  O   UNL A   1      42.774  35.727  26.175  1.00  0.00    -0.237 OA
ATOM     92  O   UNL A   1      42.041  37.946  26.963  1.00  0.00    -0.744 OA
ENDBRANCH  85  89
ENDBRANCH  59  82
ENDBRANCH  33  34
ENDBRANCH  25  28
ENDBRANCH  23  24
ENDBRANCH   1  23
TORSDOF 16
ENDMDL
MODEL 2
REMARK VINA RESULT:     -12.2      1.778      2.187
REMARK SMILES Cc1ccc(-c2nnc(S[C@@H](C)C(=O)NCCCNC(=O)c3ccc(-c4c5nc(c(-c6cc(S(=O)(=O)[O-])ccc6F)c6ccc([nH]6)c(-c6cc(S(=O)(=O)[O-])ccc6F)c6nc(c(-c7cc(S(=O)(=O)[O-])ccc7F)c7ccc4[nH]7)C=C6)C=C5)cc3)n2C)cc1
REMARK SMILES IDX 17 1 16 2 15 3 13 4 14 5 11 7 12 8 10 9 9 10 6 11 7 12 85 13
REMARK SMILES IDX 8 14 86 15 5 16 1 17 2 18 3 19 88 20 4 21 87 22 18 23 19 24
REMARK SMILES IDX 20 25 21 27 22 28 23 29 84 30 24 31 83 32 25 33 26 34 27 35
REMARK SMILES IDX 77 36 28 37 82 38 76 39 78 40 29 41 81 42 75 43 74 44 30 46
REMARK SMILES IDX 62 47 42 48 61 49 43 50 46 51 60 52 79 53 44 54 45 55 59 57
REMARK SMILES IDX 80 58 47 59 31 60 32 61 40 62 33 63 39 64 41 65 38 66 34 67
REMARK SMILES IDX 35 68 36 69 37 70 63 71 64 72 72 73 65 74 71 75 73 76 70 77
REMARK SMILES IDX 66 78 67 79 68 80 69 81 48 82 49 83 57 84 50 85 56 86 58 87
REMARK SMILES IDX 55 88 51 89 52 90 53 91 54 92
REMARK H PARENT 15 6 19 26 78 45 46 56
REMARK Flexibility Score: inf
ROOT
ATOM      1  C   UNL A   1      39.611  21.454  25.762  1.00  0.00     0.042 C 
ENDROOT
BRANCH   1   2
ATOM      2  C   UNL A   1      38.162  21.907  25.774  1.00  0.00     0.117 C 
BRANCH   2   3
ATOM      3  N   UNL A   1      37.741  22.398  24.477  1.00  0.00    -0.355 N 
ATOM      4  C   UNL A   1      36.555  22.582  23.863  1.00  0.00     0.233 C 
ATOM      5  O   UNL A   1      36.626  23.120  22.744  1.00  0.00    -0.274 OA
ATOM      6  H   UNL A   1      38.501  22.658  23.909  1.00  0.00     0.163 HD
BRANCH   4   7
ATOM      7  C   UNL A   1      35.169  22.275  24.429  1.00  0.00     0.141 C 
ATOM      8  C   UNL A   1      34.938  20.854  24.925  1.00  0.00     0.030 C 
BRANCH   7   9
ATOM      9  S   UNL A   1      33.769  23.256  23.922  1.00  0.00    -0.073 SA
BRANCH   9  10
ATOM     10  C   UNL A   1      33.231  24.555  24.910  1.00  0.00     0.191 A 
ATOM     11  C   UNL A   1      32.745  26.415  26.000  1.00  0.00     0.164 A 
ATOM     12  N   UNL A   1      32.302  25.387  26.700  1.00  0.00    -0.129 NA
ATOM     13  N   UNL A   1      33.271  25.925  24.802  1.00  0.00    -0.305 N 
ATOM     14  N   UNL A   1      32.593  24.244  26.022  1.00  0.00    -0.123 NA
ATOM     15  C   UNL A   1      33.757  26.754  23.736  1.00  0.00     0.154 C 
BRANCH  11  16
ATOM     16  C   UNL A   1      32.780  27.791  26.519  1.00  0.00     0.019 A 
ATOM     17  C   UNL A   1      33.381  31.985  27.318  1.00  0.00     0.044 C 
ATOM     18  C   UNL A   1      33.114  30.509  27.235  1.00  0.00    -0.051 A 
ATOM     19  C   UNL A   1      34.140  29.588  27.463  1.00  0.00     0.004 A 
ATOM     20  C   UNL A   1      31.897  30.047  26.726  1.00  0.00     0.004 A 
ATOM     21  C   UNL A   1      33.975  28.246  27.103  1.00  0.00     0.012 A 
ATOM     22  C   UNL A   1      31.722  28.696  26.404  1.00  0.00     0.012 A 
ENDBRANCH  11  16
ENDBRANCH   9  10
ENDBRANCH   7   9
ENDBRANCH   4   7
ENDBRANCH   2   3
ENDBRANCH   1   2
BRANCH   1  23
ATOM     23  C   UNL A   1      40.327  21.677  27.085  1.00  0.00     0.118 C 
BRANCH  23  24
ATOM     24  N   UNL A   1      41.535  22.497  27.065  1.00  0.00    -0.352 N 
ATOM     25  C   UNL A   1      41.659  23.878  26.975  1.00  0.00     0.251 C 
ATOM     26  H   UNL A   1      42.382  22.000  27.124  1.00  0.00     0.163 HD
ATOM     27  O   UNL A   1      42.719  24.431  27.214  1.00  0.00    -0.269 OA
BRANCH  25  28
ATOM     28  C   UNL A   1      40.480  24.767  26.806  1.00  0.00     0.039 A 
ATOM     29  C   UNL A   1      40.828  25.965  26.166  1.00  0.00     0.014 A 
ATOM     30  C   UNL A   1      39.467  24.740  27.745  1.00  0.00     0.014 A 
ATOM     31  C   UNL A   1      40.599  27.145  26.842  1.00  0.00     0.010 A 
ATOM     32  C   UNL A   1      39.318  25.894  28.482  1.00  0.00     0.010 A 
ATOM     33  C   UNL A   1      39.990  27.060  28.089  1.00  0.00    -0.014 A 
BRANCH  33  34
ATOM     34  C   UNL A   1      40.136  28.105  29.085  1.00  0.00     0.031 A 
ATOM     35  C   UNL A   1      39.274  29.289  28.986  1.00  0.00     0.074 A 
ATOM     36  C   UNL A   1      41.079  28.060  30.054  1.00  0.00     0.049 A 
ATOM     37  N   UNL A   1      39.649  30.475  29.318  1.00  0.00    -0.248 NA
ATOM     38  C   UNL A   1      37.931  29.239  28.427  1.00  0.00     0.031 C 
ATOM     39  C   UNL A   1      41.199  28.963  31.196  1.00  0.00     0.029 A 
ATOM     40  N   UNL A   1      42.250  27.323  30.097  1.00  0.00    -0.354 N 
ATOM     41  C   UNL A   1      38.531  31.268  29.323  1.00  0.00     0.074 A 
ATOM     42  C   UNL A   1      37.511  30.481  28.671  1.00  0.00     0.031 C 
ATOM     43  C   UNL A   1      42.453  28.909  31.668  1.00  0.00     0.029 A 
ATOM     44  C   UNL A   1      43.223  28.053  30.788  1.00  0.00     0.049 A 
ATOM     45  H   UNL A   1      42.377  26.429  29.704  1.00  0.00     0.167 HD
ATOM     46  C   UNL A   1      38.550  32.436  30.020  1.00  0.00     0.034 A 
ATOM     47  C   UNL A   1      44.429  28.365  30.232  1.00  0.00     0.034 A 
ATOM     48  C   UNL A   1      39.848  32.667  30.662  1.00  0.00     0.049 A 
ATOM     49  C   UNL A   1      44.662  29.858  30.085  1.00  0.00     0.074 A 
ATOM     50  C   UNL A   1      40.297  32.548  31.967  1.00  0.00     0.029 A 
ATOM     51  N   UNL A   1      40.984  32.829  29.880  1.00  0.00    -0.354 N 
ATOM     52  N   UNL A   1      43.759  30.769  30.326  1.00  0.00    -0.248 NA
ATOM     53  C   UNL A   1      45.908  30.442  29.602  1.00  0.00     0.031 C 
ATOM     54  C   UNL A   1      41.713  32.671  31.964  1.00  0.00     0.029 A 
ATOM     55  C   UNL A   1      42.124  32.878  30.660  1.00  0.00     0.049 A 
ATOM     56  H   UNL A   1      40.979  32.900  28.898  1.00  0.00     0.167 HD
ATOM     57  C   UNL A   1      44.233  32.015  29.977  1.00  0.00     0.074 A 
ATOM     58  C   UNL A   1      45.597  31.750  29.552  1.00  0.00     0.031 C 
ATOM     59  C   UNL A   1      43.425  33.124  30.040  1.00  0.00     0.034 A 
BRANCH  46  60
ATOM     60  C   UNL A   1      37.298  33.202  30.382  1.00  0.00     0.023 A 
ATOM     61  C   UNL A   1      37.087  33.564  31.727  1.00  0.00     0.031 A 
ATOM     62  C   UNL A   1      36.267  33.568  29.495  1.00  0.00     0.131 A 
ATOM     63  C   UNL A   1      35.870  34.121  32.155  1.00  0.00     0.055 A 
ATOM     64  C   UNL A   1      35.028  34.056  29.926  1.00  0.00     0.041 A 
ATOM     65  F   UNL A   1      36.434  33.536  28.166  1.00  0.00    -0.206 F 
ATOM     66  C   UNL A   1      34.817  34.321  31.270  1.00  0.00     0.022 A 
BRANCH  63  67
ATOM     67  S   UNL A   1      35.697  34.601  33.893  1.00  0.00     0.124 S 
ATOM     68  O   UNL A   1      37.081  34.842  34.285  1.00  0.00    -0.237 OA
ATOM     69  O   UNL A   1      34.835  35.775  33.802  1.00  0.00    -0.237 OA
ATOM     70  O   UNL A   1      35.075  33.428  34.506  1.00  0.00    -0.744 OA
ENDBRANCH  63  67
ENDBRANCH  46  60
BRANCH  47  71
ATOM     71  C   UNL A   1      44.936  27.293  29.328  1.00  0.00     0.023 A 
ATOM     72  C   UNL A   1      44.718  27.486  27.946  1.00  0.00     0.031 A 
ATOM     73  C   UNL A   1      45.953  26.411  29.716  1.00  0.00     0.131 A 
ATOM     74  C   UNL A   1      45.626  26.980  27.004  1.00  0.00     0.055 A 
ATOM     75  C   UNL A   1      46.812  25.840  28.766  1.00  0.00     0.041 A 
ATOM     76  F   UNL A   1      46.219  26.200  31.013  1.00  0.00    -0.206 F 
ATOM     77  C   UNL A   1      46.687  26.169  27.410  1.00  0.00     0.022 A 
BRANCH  74  78
ATOM     78  S   UNL A   1      45.554  27.632  25.303  1.00  0.00     0.124 S 
ATOM     79  O   UNL A   1      46.250  26.599  24.545  1.00  0.00    -0.237 OA
ATOM     80  O   UNL A   1      44.119  27.746  25.052  1.00  0.00    -0.237 OA
ATOM     81  O   UNL A   1      46.227  28.926  25.372  1.00  0.00    -0.744 OA
ENDBRANCH  74  78
ENDBRANCH  47  71
BRANCH  59  82
ATOM     82  C   UNL A   1      43.731  34.542  29.555  1.00  0.00     0.023 A 
ATOM     83  C   UNL A   1      44.143  35.595  30.383  1.00  0.00     0.031 A 
ATOM     84  C   UNL A   1      43.614  34.888  28.179  1.00  0.00     0.131 A 
ATOM     85  C   UNL A   1      44.445  36.874  29.866  1.00  0.00     0.055 A 
ATOM     86  C   UNL A   1      43.923  36.152  27.663  1.00  0.00     0.041 A 
ATOM     87  F   UNL A   1      43.197  34.016  27.252  1.00  0.00    -0.206 F 
ATOM     88  C   UNL A   1      44.348  37.157  28.508  1.00  0.00     0.022 A 
BRANCH  85  89
ATOM     89  S   UNL A   1      44.948  38.175  31.023  1.00  0.00     0.124 S 
ATOM     90  O   UNL A   1      45.742  39.054  30.172  1.00  0.00    -0.237 OA
ATOM     91  O   UNL A   1      43.661  38.710  31.459  1.00  0.00    -0.237 OA
ATOM     92  O   UNL A   1      45.701  37.456  32.049  1.00  0.00    -0.744 OA
ENDBRANCH  85  89
ENDBRANCH  59  82
ENDBRANCH  33  34
ENDBRANCH  25  28
ENDBRANCH  23  24
ENDBRANCH   1  23
TORSDOF 16
ENDMDL
MODEL 3
REMARK VINA RESULT:     -12.2      2.450      2.988
REMARK SMILES Cc1ccc(-c2nnc(S[C@@H](C)C(=O)NCCCNC(=O)c3ccc(-c4c5nc(c(-c6cc(S(=O)(=O)[O-])ccc6F)c6ccc([nH]6)c(-c6cc(S(=O)(=O)[O-])ccc6F)c6nc(c(-c7cc(S(=O)(=O)[O-])ccc7F)c7ccc4[nH]7)C=C6)C=C5)cc3)n2C)cc1
REMARK SMILES IDX 17 1 16 2 15 3 13 4 14 5 11 7 12 8 10 9 9 10 6 11 7 12 85 13
REMARK SMILES IDX 8 14 86 15 5 16 1 17 2 18 3 19 88 20 4 21 87 22 18 23 19 24
REMARK SMILES IDX 20 25 21 27 22 28 23 29 84 30 24 31 83 32 25 33 26 34 27 35
REMARK SMILES IDX 77 36 28 37 82 38 76 39 78 40 29 41 81 42 75 43 74 44 30 46
REMARK SMILES IDX 62 47 42 48 61 49 43 50 46 51 60 52 79 53 44 54 45 55 59 57
REMARK SMILES IDX 80 58 47 59 31 60 32 61 40 62 33 63 39 64 41 65 38 66 34 67
REMARK SMILES IDX 35 68 36 69 37 70 63 71 64 72 72 73 65 74 71 75 73 76 70 77
REMARK SMILES IDX 66 78 67 79 68 80 69 81 48 82 49 83 57 84 50 85 56 86 58 87
REMARK SMILES IDX 55 88 51 89 52 90 53 91 54 92
REMARK H PARENT 15 6 19 26 78 45 46 56
REMARK Flexibility Score: inf
ROOT
ATOM      1  C   UNL A   1      39.928  21.471  26.357  1.00  0.00     0.042 C 
ENDROOT
BRANCH   1   2
ATOM      2  C   UNL A   1      38.552  21.346  25.729  1.00  0.00     0.117 C 
BRANCH   2   3
ATOM      3  N   UNL A   1      37.646  22.370  26.209  1.00  0.00    -0.355 N 
ATOM      4  C   UNL A   1      36.513  22.938  25.748  1.00  0.00     0.233 C 
ATOM      5  O   UNL A   1      35.983  23.749  26.528  1.00  0.00    -0.274 OA
ATOM      6  H   UNL A   1      37.923  22.740  27.078  1.00  0.00     0.163 HD
BRANCH   4   7
ATOM      7  C   UNL A   1      35.800  22.629  24.433  1.00  0.00     0.141 C 
ATOM      8  C   UNL A   1      36.647  22.694  23.170  1.00  0.00     0.030 C 
BRANCH   7   9
ATOM      9  S   UNL A   1      34.036  22.860  24.307  1.00  0.00    -0.073 SA
BRANCH   9  10
ATOM     10  C   UNL A   1      33.312  24.281  24.948  1.00  0.00     0.191 A 
ATOM     11  C   UNL A   1      32.583  26.273  25.567  1.00  0.00     0.164 A 
ATOM     12  N   UNL A   1      32.172  25.380  26.448  1.00  0.00    -0.129 NA
ATOM     13  N   UNL A   1      33.245  25.592  24.543  1.00  0.00    -0.305 N 
ATOM     14  N   UNL A   1      32.613  24.153  26.060  1.00  0.00    -0.123 NA
ATOM     15  C   UNL A   1      33.746  26.217  23.352  1.00  0.00     0.154 C 
BRANCH  11  16
ATOM     16  C   UNL A   1      32.459  27.725  25.771  1.00  0.00     0.019 A 
ATOM     17  C   UNL A   1      31.259  31.779  26.610  1.00  0.00     0.044 C 
ATOM     18  C   UNL A   1      31.834  30.449  26.217  1.00  0.00    -0.051 A 
ATOM     19  C   UNL A   1      31.411  29.810  25.048  1.00  0.00     0.004 A 
ATOM     20  C   UNL A   1      32.638  29.743  27.116  1.00  0.00     0.004 A 
ATOM     21  C   UNL A   1      31.716  28.461  24.833  1.00  0.00     0.012 A 
ATOM     22  C   UNL A   1      32.974  28.405  26.877  1.00  0.00     0.012 A 
ENDBRANCH  11  16
ENDBRANCH   9  10
ENDBRANCH   7   9
ENDBRANCH   4   7
ENDBRANCH   2   3
ENDBRANCH   1   2
BRANCH   1  23
ATOM     23  C   UNL A   1      40.741  22.633  25.807  1.00  0.00     0.118 C 
BRANCH  23  24
ATOM     24  N   UNL A   1      41.657  23.305  26.725  1.00  0.00    -0.352 N 
ATOM     25  C   UNL A   1      41.571  24.576  27.280  1.00  0.00     0.251 C 
ATOM     26  H   UNL A   1      42.449  22.783  26.988  1.00  0.00     0.163 HD
ATOM     27  O   UNL A   1      42.283  24.905  28.214  1.00  0.00    -0.269 OA
BRANCH  25  28
ATOM     28  C   UNL A   1      40.478  25.519  26.927  1.00  0.00     0.039 A 
ATOM     29  C   UNL A   1      40.970  26.656  26.273  1.00  0.00     0.014 A 
ATOM     30  C   UNL A   1      39.363  25.604  27.740  1.00  0.00     0.014 A 
ATOM     31  C   UNL A   1      40.740  27.885  26.857  1.00  0.00     0.010 A 
ATOM     32  C   UNL A   1      39.203  26.805  28.395  1.00  0.00     0.010 A 
ATOM     33  C   UNL A   1      39.988  27.906  28.025  1.00  0.00    -0.014 A 
BRANCH  33  34
ATOM     34  C   UNL A   1      40.083  28.997  28.977  1.00  0.00     0.031 A 
ATOM     35  C   UNL A   1      39.012  30.001  28.999  1.00  0.00     0.074 A 
ATOM     36  C   UNL A   1      41.151  29.160  29.792  1.00  0.00     0.049 A 
ATOM     37  N   UNL A   1      39.207  31.247  29.258  1.00  0.00    -0.248 NA
ATOM     38  C   UNL A   1      37.634  29.687  28.651  1.00  0.00     0.031 C 
ATOM     39  C   UNL A   1      41.269  30.113  30.894  1.00  0.00     0.029 A 
ATOM     40  N   UNL A   1      42.431  28.650  29.664  1.00  0.00    -0.354 N 
ATOM     41  C   UNL A   1      37.975  31.824  29.425  1.00  0.00     0.074 A 
ATOM     42  C   UNL A   1      37.033  30.841  28.943  1.00  0.00     0.031 C 
ATOM     43  C   UNL A   1      42.568  30.304  31.171  1.00  0.00     0.029 A 
ATOM     44  C   UNL A   1      43.343  29.569  30.192  1.00  0.00     0.049 A 
ATOM     45  H   UNL A   1      42.662  27.779  29.265  1.00  0.00     0.167 HD
ATOM     46  C   UNL A   1      37.880  33.002  30.099  1.00  0.00     0.034 A 
ATOM     47  C   UNL A   1      44.376  30.073  29.457  1.00  0.00     0.034 A 
ATOM     48  C   UNL A   1      39.193  33.488  30.534  1.00  0.00     0.049 A 
ATOM     49  C   UNL A   1      44.305  31.577  29.261  1.00  0.00     0.074 A 
ATOM     50  C   UNL A   1      39.844  33.502  31.758  1.00  0.00     0.029 A 
ATOM     51  N   UNL A   1      40.152  33.823  29.587  1.00  0.00    -0.354 N 
ATOM     52  N   UNL A   1      43.295  32.318  29.627  1.00  0.00    -0.248 NA
ATOM     53  C   UNL A   1      45.336  32.358  28.589  1.00  0.00     0.031 C 
ATOM     54  C   UNL A   1      41.196  33.879  31.538  1.00  0.00     0.029 A 
ATOM     55  C   UNL A   1      41.366  34.107  30.185  1.00  0.00     0.049 A 
ATOM     56  H   UNL A   1      39.989  33.855  28.617  1.00  0.00     0.167 HD
ATOM     57  C   UNL A   1      43.474  33.615  29.197  1.00  0.00     0.074 A 
ATOM     58  C   UNL A   1      44.785  33.585  28.573  1.00  0.00     0.031 C 
ATOM     59  C   UNL A   1      42.493  34.561  29.372  1.00  0.00     0.034 A 
BRANCH  46  60
ATOM     60  C   UNL A   1      36.576  33.541  30.640  1.00  0.00     0.023 A 
ATOM     61  C   UNL A   1      35.678  34.167  29.753  1.00  0.00     0.031 A 
ATOM     62  C   UNL A   1      36.169  33.521  31.988  1.00  0.00     0.131 A 
ATOM     63  C   UNL A   1      34.535  34.838  30.218  1.00  0.00     0.055 A 
ATOM     64  C   UNL A   1      35.071  34.248  32.464  1.00  0.00     0.041 A 
ATOM     65  F   UNL A   1      36.772  32.742  32.896  1.00  0.00    -0.206 F 
ATOM     66  C   UNL A   1      34.253  34.928  31.577  1.00  0.00     0.022 A 
BRANCH  63  67
ATOM     67  S   UNL A   1      33.407  35.576  29.009  1.00  0.00     0.124 S 
ATOM     68  O   UNL A   1      32.749  34.402  28.445  1.00  0.00    -0.237 OA
ATOM     69  O   UNL A   1      32.582  36.442  29.845  1.00  0.00    -0.237 OA
ATOM     70  O   UNL A   1      34.306  36.280  28.095  1.00  0.00    -0.744 OA
ENDBRANCH  63  67
ENDBRANCH  46  60
BRANCH  47  71
ATOM     71  C   UNL A   1      44.933  29.077  28.497  1.00  0.00     0.023 A 
ATOM     72  C   UNL A   1      45.653  28.001  29.061  1.00  0.00     0.031 A 
ATOM     73  C   UNL A   1      44.415  28.915  27.206  1.00  0.00     0.131 A 
ATOM     74  C   UNL A   1      45.660  26.744  28.438  1.00  0.00     0.055 A 
ATOM     75  C   UNL A   1      44.493  27.680  26.548  1.00  0.00     0.041 A 
ATOM     76  F   UNL A   1      43.708  29.895  26.625  1.00  0.00    -0.206 F 
ATOM     77  C   UNL A   1      45.067  26.573  27.187  1.00  0.00     0.022 A 
BRANCH  74  78
ATOM     78  S   UNL A   1      46.203  25.303  29.413  1.00  0.00     0.124 S 
ATOM     79  O   UNL A   1      45.325  25.365  30.575  1.00  0.00    -0.237 OA
ATOM     80  O   UNL A   1      45.974  24.181  28.504  1.00  0.00    -0.237 OA
ATOM     81  O   UNL A   1      47.618  25.544  29.678  1.00  0.00    -0.744 OA
ENDBRANCH  74  78
ENDBRANCH  47  71
BRANCH  59  82
ATOM     82  C   UNL A   1      42.457  35.992  28.832  1.00  0.00     0.023 A 
ATOM     83  C   UNL A   1      42.918  37.117  29.529  1.00  0.00     0.031 A 
ATOM     84  C   UNL A   1      41.936  36.275  27.537  1.00  0.00     0.131 A 
ATOM     85  C   UNL A   1      42.889  38.409  28.957  1.00  0.00     0.055 A 
ATOM     86  C   UNL A   1      41.916  37.552  26.966  1.00  0.00     0.041 A 
ATOM     87  F   UNL A   1      41.419  35.324  26.748  1.00  0.00    -0.206 F 
ATOM     88  C   UNL A   1      42.401  38.633  27.674  1.00  0.00     0.022 A 
BRANCH  85  89
ATOM     89  S   UNL A   1      43.488  39.803  29.949  1.00  0.00     0.124 S 
ATOM     90  O   UNL A   1      44.640  40.256  29.178  1.00  0.00    -0.237 OA
ATOM     91  O   UNL A   1      42.333  40.697  29.947  1.00  0.00    -0.237 OA
ATOM     92  O   UNL A   1      43.803  39.200  31.243  1.00  0.00    -0.744 OA
ENDBRANCH  85  89
ENDBRANCH  59  82
ENDBRANCH  33  34
ENDBRANCH  25  28
ENDBRANCH  23  24
ENDBRANCH   1  23
TORSDOF 16
ENDMDL
