MODEL 1
REMARK VINA RESULT:     -11.4      0.000      0.000
REMARK SMILES COc1cccc(OC)c1[C@@H](C(=O)NCCCNC(=O)c1ccc(-c2c3nc(c(-c4cc(S(=O)(=O)[O-])ccc4F)c4ccc([nH]4)c(-c4cc(S(=O)(=O)[O-])ccc4F)c4nc(c(-c5cc(S(=O)(=O)[O-])ccc5F)c5ccc2[nH]5)C=C4)C=C3)cc1)[N@@H+](C)Cc1c(C)n[nH]c1C
REMARK SMILES IDX 16 1 15 2 14 3 12 4 13 5 11 7 10 8 3 9 4 10 5 11 7 12 6 13
REMARK SMILES IDX 2 14 1 15 8 16 9 17 84 18 85 19 86 21 87 22 88 23 92 24
REMARK SMILES IDX 89 25 90 26 91 27 93 28 17 30 18 31 19 32 20 34 21 35 22 36
REMARK SMILES IDX 83 37 23 38 82 39 24 40 25 41 26 42 76 43 27 44 81 45 75 46
REMARK SMILES IDX 77 47 28 48 80 49 74 50 73 51 29 53 61 54 41 55 60 56 42 57
REMARK SMILES IDX 45 58 59 59 78 60 43 61 44 62 58 64 79 65 46 66 30 67 31 68
REMARK SMILES IDX 39 69 32 70 38 71 40 72 37 73 33 74 34 75 35 76 36 77 62 78
REMARK SMILES IDX 63 79 71 80 64 81 70 82 72 83 69 84 65 85 66 86 67 87 68 88
REMARK SMILES IDX 47 89 48 90 56 91 49 92 55 93 57 94 54 95 50 96 51 97 52 98
REMARK SMILES IDX 53 99
REMARK H PARENT 14 6 84 20 91 29 18 33 77 52 45 63
REMARK Flexibility Score: inf
ROOT
ATOM      1  C   UNL A   1      33.141  27.546  26.440  1.00  0.00     0.042 C 
ENDROOT
BRANCH   1   2
ATOM      2  C   UNL A   1      33.488  26.132  26.004  1.00  0.00     0.118 C 
BRANCH   2   3
ATOM      3  N   UNL A   1      32.569  25.132  26.489  1.00  0.00    -0.351 N 
ATOM      4  C   UNL A   1      32.293  23.850  26.148  1.00  0.00     0.283 C 
ATOM      5  O   UNL A   1      31.721  23.252  27.076  1.00  0.00    -0.268 OA
ATOM      6  H   UNL A   1      32.016  25.453  27.237  1.00  0.00     0.163 HD
BRANCH   4   7
ATOM      7  C   UNL A   1      32.726  23.097  24.848  1.00  0.00     0.313 C 
BRANCH   7   8
ATOM      8  C   UNL A   1      33.875  22.043  24.852  1.00  0.00     0.103 A 
ATOM      9  C   UNL A   1      33.583  20.651  24.762  1.00  0.00     0.132 A 
ATOM     10  C   UNL A   1      34.582  19.669  24.887  1.00  0.00     0.047 A 
ATOM     11  C   UNL A   1      35.915  20.025  24.990  1.00  0.00     0.008 A 
ATOM     12  C   UNL A   1      35.257  22.364  24.973  1.00  0.00     0.132 A 
ATOM     13  C   UNL A   1      36.251  21.369  24.998  1.00  0.00     0.047 A 
BRANCH   9  14
ATOM     14  O   UNL A   1      32.319  20.111  24.762  1.00  0.00    -0.496 OA
ATOM     15  C   UNL A   1      32.233  18.712  24.539  1.00  0.00     0.278 C 
ENDBRANCH   9  14
BRANCH  12  16
ATOM     16  O   UNL A   1      35.599  23.675  25.076  1.00  0.00    -0.496 OA
ATOM     17  C   UNL A   1      36.776  24.075  25.764  1.00  0.00     0.278 C 
ENDBRANCH  12  16
ENDBRANCH   7   8
BRANCH   7  18
ATOM     18  N   UNL A   1      32.570  23.951  23.612  1.00  0.00    -0.319 N 
ATOM     19  C   UNL A   1      33.126  23.332  22.405  1.00  0.00     0.333 C 
ATOM     20  H   UNL A   1      33.138  24.721  23.965  1.00  0.00     0.349 HD
BRANCH  18  21
ATOM     21  C   UNL A   1      31.342  24.702  23.298  1.00  0.00     0.303 C 
BRANCH  21  22
ATOM     22  C   UNL A   1      31.304  26.218  23.226  1.00  0.00     0.050 A 
ATOM     23  C   UNL A   1      32.196  27.211  22.679  1.00  0.00     0.068 A 
ATOM     24  C   UNL A   1      30.163  26.975  23.503  1.00  0.00     0.041 A 
ATOM     25  C   UNL A   1      33.522  27.135  22.018  1.00  0.00     0.069 C 
ATOM     26  N   UNL A   1      31.684  28.449  22.752  1.00  0.00    -0.180 NA
ATOM     27  N   UNL A   1      30.487  28.281  23.292  1.00  0.00    -0.282 N 
ATOM     28  C   UNL A   1      28.782  26.593  23.882  1.00  0.00     0.066 C 
ATOM     29  H   UNL A   1      29.888  29.028  23.520  1.00  0.00     0.190 HD
ENDBRANCH  21  22
ENDBRANCH  18  21
ENDBRANCH   7  18
ENDBRANCH   4   7
ENDBRANCH   2   3
ENDBRANCH   1   2
BRANCH   1  30
ATOM     30  C   UNL A   1      33.908  28.628  25.685  1.00  0.00     0.118 C 
BRANCH  30  31
ATOM     31  N   UNL A   1      33.718  29.956  26.251  1.00  0.00    -0.352 N 
ATOM     32  C   UNL A   1      34.373  30.619  27.255  1.00  0.00     0.251 C 
ATOM     33  H   UNL A   1      32.987  30.470  25.837  1.00  0.00     0.163 HD
ATOM     34  O   UNL A   1      33.876  31.652  27.695  1.00  0.00    -0.269 OA
BRANCH  32  35
ATOM     35  C   UNL A   1      35.645  30.113  27.815  1.00  0.00     0.039 A 
ATOM     36  C   UNL A   1      35.625  29.536  29.089  1.00  0.00     0.014 A 
ATOM     37  C   UNL A   1      36.861  30.261  27.143  1.00  0.00     0.014 A 
ATOM     38  C   UNL A   1      36.810  29.073  29.663  1.00  0.00     0.010 A 
ATOM     39  C   UNL A   1      38.030  29.722  27.680  1.00  0.00     0.010 A 
ATOM     40  C   UNL A   1      38.020  29.135  28.952  1.00  0.00    -0.014 A 
BRANCH  40  41
ATOM     41  C   UNL A   1      39.273  28.599  29.547  1.00  0.00     0.031 A 
ATOM     42  C   UNL A   1      39.824  29.183  30.821  1.00  0.00     0.074 A 
ATOM     43  C   UNL A   1      39.924  27.598  28.925  1.00  0.00     0.049 A 
ATOM     44  N   UNL A   1      40.896  28.843  31.491  1.00  0.00    -0.248 NA
ATOM     45  C   UNL A   1      39.089  30.316  31.403  1.00  0.00     0.031 C 
ATOM     46  C   UNL A   1      39.513  26.984  27.659  1.00  0.00     0.029 A 
ATOM     47  N   UNL A   1      41.062  26.914  29.269  1.00  0.00    -0.354 N 
ATOM     48  C   UNL A   1      40.967  29.720  32.568  1.00  0.00     0.074 A 
ATOM     49  C   UNL A   1      39.868  30.650  32.421  1.00  0.00     0.031 C 
ATOM     50  C   UNL A   1      40.364  25.990  27.356  1.00  0.00     0.029 A 
ATOM     51  C   UNL A   1      41.402  25.921  28.379  1.00  0.00     0.049 A 
ATOM     52  H   UNL A   1      41.587  27.116  30.076  1.00  0.00     0.167 HD
ATOM     53  C   UNL A   1      41.851  29.733  33.598  1.00  0.00     0.034 A 
ATOM     54  C   UNL A   1      42.430  25.051  28.387  1.00  0.00     0.034 A 
ATOM     55  C   UNL A   1      42.941  28.794  33.732  1.00  0.00     0.049 A 
ATOM     56  C   UNL A   1      43.399  25.085  29.540  1.00  0.00     0.074 A 
ATOM     57  C   UNL A   1      43.872  28.690  34.751  1.00  0.00     0.029 A 
ATOM     58  N   UNL A   1      43.251  27.798  32.814  1.00  0.00    -0.354 N 
ATOM     59  N   UNL A   1      43.422  25.888  30.580  1.00  0.00    -0.248 NA
ATOM     60  C   UNL A   1      44.468  24.080  29.531  1.00  0.00     0.031 C 
ATOM     61  C   UNL A   1      44.780  27.678  34.419  1.00  0.00     0.029 A 
ATOM     62  C   UNL A   1      44.371  27.093  33.231  1.00  0.00     0.049 A 
ATOM     63  H   UNL A   1      42.748  27.618  31.987  1.00  0.00     0.167 HD
ATOM     64  C   UNL A   1      44.489  25.460  31.365  1.00  0.00     0.074 A 
ATOM     65  C   UNL A   1      45.066  24.315  30.688  1.00  0.00     0.031 C 
ATOM     66  C   UNL A   1      44.948  25.962  32.541  1.00  0.00     0.034 A 
BRANCH  53  67
ATOM     67  C   UNL A   1      41.686  30.815  34.641  1.00  0.00     0.023 A 
ATOM     68  C   UNL A   1      40.563  30.862  35.486  1.00  0.00     0.031 A 
ATOM     69  C   UNL A   1      42.650  31.830  34.778  1.00  0.00     0.131 A 
ATOM     70  C   UNL A   1      40.392  31.940  36.370  1.00  0.00     0.055 A 
ATOM     71  C   UNL A   1      42.516  32.853  35.719  1.00  0.00     0.041 A 
ATOM     72  F   UNL A   1      43.735  31.853  33.987  1.00  0.00    -0.206 F 
ATOM     73  C   UNL A   1      41.374  32.922  36.510  1.00  0.00     0.022 A 
BRANCH  70  74
ATOM     74  S   UNL A   1      38.802  32.118  37.225  1.00  0.00     0.124 S 
ATOM     75  O   UNL A   1      39.232  32.422  38.588  1.00  0.00    -0.237 OA
ATOM     76  O   UNL A   1      38.171  33.210  36.494  1.00  0.00    -0.237 OA
ATOM     77  O   UNL A   1      38.173  30.808  37.056  1.00  0.00    -0.744 OA
ENDBRANCH  70  74
ENDBRANCH  53  67
BRANCH  54  78
ATOM     78  C   UNL A   1      42.597  24.068  27.277  1.00  0.00     0.023 A 
ATOM     79  C   UNL A   1      41.927  22.834  27.296  1.00  0.00     0.031 A 
ATOM     80  C   UNL A   1      43.462  24.332  26.202  1.00  0.00     0.131 A 
ATOM     81  C   UNL A   1      42.174  21.889  26.287  1.00  0.00     0.055 A 
ATOM     82  C   UNL A   1      43.661  23.412  25.171  1.00  0.00     0.041 A 
ATOM     83  F   UNL A   1      44.120  25.501  26.131  1.00  0.00    -0.206 F 
ATOM     84  C   UNL A   1      43.025  22.175  25.219  1.00  0.00     0.022 A 
BRANCH  81  85
ATOM     85  S   UNL A   1      41.430  20.241  26.441  1.00  0.00     0.124 S 
ATOM     86  O   UNL A   1      41.985  19.781  27.708  1.00  0.00    -0.237 OA
ATOM     87  O   UNL A   1      40.004  20.553  26.439  1.00  0.00    -0.237 OA
ATOM     88  O   UNL A   1      41.913  19.540  25.254  1.00  0.00    -0.744 OA
ENDBRANCH  81  85
ENDBRANCH  54  78
BRANCH  66  89
ATOM     89  C   UNL A   1      46.107  25.237  33.184  1.00  0.00     0.023 A 
ATOM     90  C   UNL A   1      45.910  24.187  34.099  1.00  0.00     0.031 A 
ATOM     91  C   UNL A   1      47.429  25.637  32.915  1.00  0.00     0.131 A 
ATOM     92  C   UNL A   1      47.008  23.628  34.771  1.00  0.00     0.055 A 
ATOM     93  C   UNL A   1      48.522  25.028  33.532  1.00  0.00     0.041 A 
ATOM     94  F   UNL A   1      47.679  26.635  32.053  1.00  0.00    -0.206 F 
ATOM     95  C   UNL A   1      48.314  24.031  34.481  1.00  0.00     0.022 A 
BRANCH  92  96
ATOM     96  S   UNL A   1      46.696  22.464  36.126  1.00  0.00     0.124 S 
ATOM     97  O   UNL A   1      47.610  21.373  35.807  1.00  0.00    -0.237 OA
ATOM     98  O   UNL A   1      47.038  23.258  37.303  1.00  0.00    -0.237 OA
ATOM     99  O   UNL A   1      45.276  22.146  35.985  1.00  0.00    -0.744 OA
ENDBRANCH  92  96
ENDBRANCH  66  89
ENDBRANCH  40  41
ENDBRANCH  32  35
ENDBRANCH  30  31
ENDBRANCH   1  30
TORSDOF 19
ENDMDL
MODEL 2
REMARK VINA RESULT:     -11.4      4.790      9.761
REMARK SMILES COc1cccc(OC)c1[C@@H](C(=O)NCCCNC(=O)c1ccc(-c2c3nc(c(-c4cc(S(=O)(=O)[O-])ccc4F)c4ccc([nH]4)c(-c4cc(S(=O)(=O)[O-])ccc4F)c4nc(c(-c5cc(S(=O)(=O)[O-])ccc5F)c5ccc2[nH]5)C=C4)C=C3)cc1)[N@@H+](C)Cc1c(C)n[nH]c1C
REMARK SMILES IDX 16 1 15 2 14 3 12 4 13 5 11 7 10 8 3 9 4 10 5 11 7 12 6 13
REMARK SMILES IDX 2 14 1 15 8 16 9 17 84 18 85 19 86 21 87 22 88 23 92 24
REMARK SMILES IDX 89 25 90 26 91 27 93 28 17 30 18 31 19 32 20 34 21 35 22 36
REMARK SMILES IDX 83 37 23 38 82 39 24 40 25 41 26 42 76 43 27 44 81 45 75 46
REMARK SMILES IDX 77 47 28 48 80 49 74 50 73 51 29 53 61 54 41 55 60 56 42 57
REMARK SMILES IDX 45 58 59 59 78 60 43 61 44 62 58 64 79 65 46 66 30 67 31 68
REMARK SMILES IDX 39 69 32 70 38 71 40 72 37 73 33 74 34 75 35 76 36 77 62 78
REMARK SMILES IDX 63 79 71 80 64 81 70 82 72 83 69 84 65 85 66 86 67 87 68 88
REMARK SMILES IDX 47 89 48 90 56 91 49 92 55 93 57 94 54 95 50 96 51 97 52 98
REMARK SMILES IDX 53 99
REMARK H PARENT 14 6 84 20 91 29 18 33 77 52 45 63
REMARK Flexibility Score: inf
ROOT
ATOM      1  C   UNL A   1      37.022  21.985  24.080  1.00  0.00     0.042 C 
ENDROOT
BRANCH   1   2
ATOM      2  C   UNL A   1      36.334  23.211  23.505  1.00  0.00     0.118 C 
BRANCH   2   3
ATOM      3  N   UNL A   1      35.793  24.098  24.506  1.00  0.00    -0.351 N 
ATOM      4  C   UNL A   1      34.557  24.575  24.785  1.00  0.00     0.283 C 
ATOM      5  O   UNL A   1      34.487  24.984  25.956  1.00  0.00    -0.268 OA
ATOM      6  H   UNL A   1      36.479  24.433  25.128  1.00  0.00     0.163 HD
BRANCH   4   7
ATOM      7  C   UNL A   1      33.290  24.526  23.870  1.00  0.00     0.313 C 
BRANCH   7   8
ATOM      8  C   UNL A   1      32.424  25.794  23.596  1.00  0.00     0.103 A 
ATOM      9  C   UNL A   1      31.555  26.310  24.600  1.00  0.00     0.132 A 
ATOM     10  C   UNL A   1      30.670  27.374  24.346  1.00  0.00     0.047 A 
ATOM     11  C   UNL A   1      30.693  28.039  23.133  1.00  0.00     0.008 A 
ATOM     12  C   UNL A   1      32.405  26.498  22.359  1.00  0.00     0.132 A 
ATOM     13  C   UNL A   1      31.583  27.623  22.157  1.00  0.00     0.047 A 
BRANCH   9  14
ATOM     14  O   UNL A   1      31.322  25.719  25.818  1.00  0.00    -0.496 OA
ATOM     15  C   UNL A   1      29.992  25.287  26.064  1.00  0.00     0.278 C 
ENDBRANCH   9  14
BRANCH  12  16
ATOM     16  O   UNL A   1      33.204  26.047  21.356  1.00  0.00    -0.496 OA
ATOM     17  C   UNL A   1      32.654  25.462  20.184  1.00  0.00     0.278 C 
ENDBRANCH  12  16
ENDBRANCH   7   8
BRANCH   7  18
ATOM     18  N   UNL A   1      32.573  23.199  23.954  1.00  0.00    -0.319 N 
ATOM     19  C   UNL A   1      31.257  23.208  23.306  1.00  0.00     0.333 C 
ATOM     20  H   UNL A   1      32.518  23.194  24.973  1.00  0.00     0.349 HD
BRANCH  18  21
ATOM     21  C   UNL A   1      33.245  21.904  23.757  1.00  0.00     0.303 C 
BRANCH  21  22
ATOM     22  C   UNL A   1      32.954  20.690  24.621  1.00  0.00     0.050 A 
ATOM     23  C   UNL A   1      32.579  19.327  24.331  1.00  0.00     0.068 A 
ATOM     24  C   UNL A   1      33.260  20.621  25.984  1.00  0.00     0.041 A 
ATOM     25  C   UNL A   1      32.285  18.599  23.073  1.00  0.00     0.069 C 
ATOM     26  N   UNL A   1      32.536  18.566  25.434  1.00  0.00    -0.180 NA
ATOM     27  N   UNL A   1      32.903  19.379  26.413  1.00  0.00    -0.282 N 
ATOM     28  C   UNL A   1      33.911  21.580  26.908  1.00  0.00     0.066 C 
ATOM     29  H   UNL A   1      32.915  19.113  27.360  1.00  0.00     0.190 HD
ENDBRANCH  21  22
ENDBRANCH  18  21
ENDBRANCH   7  18
ENDBRANCH   4   7
ENDBRANCH   2   3
ENDBRANCH   1   2
BRANCH   1  30
ATOM     30  C   UNL A   1      37.309  22.085  25.576  1.00  0.00     0.118 C 
BRANCH  30  31
ATOM     31  N   UNL A   1      38.349  21.166  26.015  1.00  0.00    -0.352 N 
ATOM     32  C   UNL A   1      39.620  21.385  26.477  1.00  0.00     0.251 C 
ATOM     33  H   UNL A   1      38.093  20.216  25.973  1.00  0.00     0.163 HD
ATOM     34  O   UNL A   1      40.381  20.425  26.574  1.00  0.00    -0.269 OA
BRANCH  32  35
ATOM     35  C   UNL A   1      40.087  22.740  26.845  1.00  0.00     0.039 A 
ATOM     36  C   UNL A   1      40.994  22.864  27.902  1.00  0.00     0.014 A 
ATOM     37  C   UNL A   1      39.595  23.888  26.218  1.00  0.00     0.014 A 
ATOM     38  C   UNL A   1      41.435  24.128  28.298  1.00  0.00     0.010 A 
ATOM     39  C   UNL A   1      40.100  25.142  26.557  1.00  0.00     0.010 A 
ATOM     40  C   UNL A   1      41.015  25.278  27.609  1.00  0.00    -0.014 A 
BRANCH  40  41
ATOM     41  C   UNL A   1      41.522  26.619  28.002  1.00  0.00     0.031 A 
ATOM     42  C   UNL A   1      42.928  27.036  27.659  1.00  0.00     0.074 A 
ATOM     43  C   UNL A   1      40.717  27.455  28.687  1.00  0.00     0.049 A 
ATOM     44  N   UNL A   1      43.541  28.164  27.910  1.00  0.00    -0.248 NA
ATOM     45  C   UNL A   1      43.762  26.043  26.967  1.00  0.00     0.031 C 
ATOM     46  C   UNL A   1      39.352  27.144  29.120  1.00  0.00     0.029 A 
ATOM     47  N   UNL A   1      40.923  28.734  29.136  1.00  0.00    -0.354 N 
ATOM     48  C   UNL A   1      44.832  28.016  27.413  1.00  0.00     0.074 A 
ATOM     49  C   UNL A   1      44.931  26.664  26.908  1.00  0.00     0.031 C 
ATOM     50  C   UNL A   1      38.831  28.218  29.735  1.00  0.00     0.029 A 
ATOM     51  C   UNL A   1      39.834  29.276  29.779  1.00  0.00     0.049 A 
ATOM     52  H   UNL A   1      41.770  29.219  29.011  1.00  0.00     0.167 HD
ATOM     53  C   UNL A   1      45.833  28.931  27.359  1.00  0.00     0.034 A 
ATOM     54  C   UNL A   1      39.660  30.490  30.338  1.00  0.00     0.034 A 
ATOM     55  C   UNL A   1      45.716  30.280  27.863  1.00  0.00     0.049 A 
ATOM     56  C   UNL A   1      40.786  31.489  30.266  1.00  0.00     0.074 A 
ATOM     57  C   UNL A   1      46.650  31.300  27.827  1.00  0.00     0.029 A 
ATOM     58  N   UNL A   1      44.595  30.796  28.504  1.00  0.00    -0.354 N 
ATOM     59  N   UNL A   1      41.984  31.350  29.745  1.00  0.00    -0.248 NA
ATOM     60  C   UNL A   1      40.527  32.814  30.839  1.00  0.00     0.031 C 
ATOM     61  C   UNL A   1      46.121  32.408  28.500  1.00  0.00     0.029 A 
ATOM     62  C   UNL A   1      44.825  32.110  28.887  1.00  0.00     0.049 A 
ATOM     63  H   UNL A   1      43.759  30.300  28.662  1.00  0.00     0.167 HD
ATOM     64  C   UNL A   1      42.608  32.586  29.898  1.00  0.00     0.074 A 
ATOM     65  C   UNL A   1      41.644  33.458  30.538  1.00  0.00     0.031 C 
ATOM     66  C   UNL A   1      43.861  32.967  29.539  1.00  0.00     0.034 A 
BRANCH  53  67
ATOM     67  C   UNL A   1      47.147  28.488  26.756  1.00  0.00     0.023 A 
ATOM     68  C   UNL A   1      47.320  28.371  25.365  1.00  0.00     0.031 A 
ATOM     69  C   UNL A   1      48.235  28.151  27.581  1.00  0.00     0.131 A 
ATOM     70  C   UNL A   1      48.519  27.857  24.845  1.00  0.00     0.055 A 
ATOM     71  C   UNL A   1      49.455  27.720  27.054  1.00  0.00     0.041 A 
ATOM     72  F   UNL A   1      48.127  28.221  28.917  1.00  0.00    -0.206 F 
ATOM     73  C   UNL A   1      49.597  27.555  25.680  1.00  0.00     0.022 A 
BRANCH  70  74
ATOM     74  S   UNL A   1      48.595  27.448  23.080  1.00  0.00     0.124 S 
ATOM     75  O   UNL A   1      48.507  25.989  23.111  1.00  0.00    -0.237 OA
ATOM     76  O   UNL A   1      47.434  28.147  22.543  1.00  0.00    -0.237 OA
ATOM     77  O   UNL A   1      49.892  27.977  22.661  1.00  0.00    -0.744 OA
ENDBRANCH  70  74
ENDBRANCH  53  67
BRANCH  54  78
ATOM     78  C   UNL A   1      38.373  30.836  31.006  1.00  0.00     0.023 A 
ATOM     79  C   UNL A   1      37.360  31.522  30.317  1.00  0.00     0.031 A 
ATOM     80  C   UNL A   1      38.153  30.524  32.360  1.00  0.00     0.131 A 
ATOM     81  C   UNL A   1      36.197  31.919  30.995  1.00  0.00     0.055 A 
ATOM     82  C   UNL A   1      36.971  30.871  33.015  1.00  0.00     0.041 A 
ATOM     83  F   UNL A   1      39.086  29.862  33.063  1.00  0.00    -0.206 F 
ATOM     84  C   UNL A   1      35.990  31.586  32.335  1.00  0.00     0.022 A 
BRANCH  81  85
ATOM     85  S   UNL A   1      34.992  32.956  30.120  1.00  0.00     0.124 S 
ATOM     86  O   UNL A   1      35.841  34.020  29.597  1.00  0.00    -0.237 OA
ATOM     87  O   UNL A   1      34.450  32.025  29.136  1.00  0.00    -0.237 OA
ATOM     88  O   UNL A   1      34.063  33.358  31.173  1.00  0.00    -0.744 OA
ENDBRANCH  81  85
ENDBRANCH  54  78
BRANCH  66  89
ATOM     89  C   UNL A   1      44.234  34.409  29.795  1.00  0.00     0.023 A 
ATOM     90  C   UNL A   1      44.778  34.829  31.022  1.00  0.00     0.031 A 
ATOM     91  C   UNL A   1      43.994  35.386  28.811  1.00  0.00     0.131 A 
ATOM     92  C   UNL A   1      44.988  36.195  31.263  1.00  0.00     0.055 A 
ATOM     93  C   UNL A   1      44.274  36.735  29.031  1.00  0.00     0.041 A 
ATOM     94  F   UNL A   1      43.474  35.045  27.621  1.00  0.00    -0.206 F 
ATOM     95  C   UNL A   1      44.756  37.149  30.270  1.00  0.00     0.022 A 
BRANCH  92  96
ATOM     96  S   UNL A   1      45.442  36.721  32.939  1.00  0.00     0.124 S 
ATOM     97  O   UNL A   1      46.084  35.523  33.470  1.00  0.00    -0.237 OA
ATOM     98  O   UNL A   1      46.325  37.855  32.681  1.00  0.00    -0.237 OA
ATOM     99  O   UNL A   1      44.159  37.061  33.551  1.00  0.00    -0.744 OA
ENDBRANCH  92  96
ENDBRANCH  66  89
ENDBRANCH  40  41
ENDBRANCH  32  35
ENDBRANCH  30  31
ENDBRANCH   1  30
TORSDOF 19
ENDMDL
MODEL 3
REMARK VINA RESULT:     -11.4      4.572      9.338
REMARK SMILES COc1cccc(OC)c1[C@@H](C(=O)NCCCNC(=O)c1ccc(-c2c3nc(c(-c4cc(S(=O)(=O)[O-])ccc4F)c4ccc([nH]4)c(-c4cc(S(=O)(=O)[O-])ccc4F)c4nc(c(-c5cc(S(=O)(=O)[O-])ccc5F)c5ccc2[nH]5)C=C4)C=C3)cc1)[N@@H+](C)Cc1c(C)n[nH]c1C
REMARK SMILES IDX 16 1 15 2 14 3 12 4 13 5 11 7 10 8 3 9 4 10 5 11 7 12 6 13
REMARK SMILES IDX 2 14 1 15 8 16 9 17 84 18 85 19 86 21 87 22 88 23 92 24
REMARK SMILES IDX 89 25 90 26 91 27 93 28 17 30 18 31 19 32 20 34 21 35 22 36
REMARK SMILES IDX 83 37 23 38 82 39 24 40 25 41 26 42 76 43 27 44 81 45 75 46
REMARK SMILES IDX 77 47 28 48 80 49 74 50 73 51 29 53 61 54 41 55 60 56 42 57
REMARK SMILES IDX 45 58 59 59 78 60 43 61 44 62 58 64 79 65 46 66 30 67 31 68
REMARK SMILES IDX 39 69 32 70 38 71 40 72 37 73 33 74 34 75 35 76 36 77 62 78
REMARK SMILES IDX 63 79 71 80 64 81 70 82 72 83 69 84 65 85 66 86 67 87 68 88
REMARK SMILES IDX 47 89 48 90 56 91 49 92 55 93 57 94 54 95 50 96 51 97 52 98
REMARK SMILES IDX 53 99
REMARK H PARENT 14 6 84 20 91 29 18 33 77 52 45 63
REMARK Flexibility Score: inf
ROOT
ATOM      1  C   UNL A   1      37.003  21.510  24.476  1.00  0.00     0.042 C 
ENDROOT
BRANCH   1   2
ATOM      2  C   UNL A   1      35.798  20.727  24.968  1.00  0.00     0.118 C 
BRANCH   2   3
ATOM      3  N   UNL A   1      35.240  21.230  26.200  1.00  0.00    -0.351 N 
ATOM      4  C   UNL A   1      33.982  21.415  26.667  1.00  0.00     0.283 C 
ATOM      5  O   UNL A   1      33.971  21.494  27.907  1.00  0.00    -0.268 OA
ATOM      6  H   UNL A   1      35.930  21.499  26.848  1.00  0.00     0.163 HD
BRANCH   4   7
ATOM      7  C   UNL A   1      32.652  21.400  25.848  1.00  0.00     0.313 C 
BRANCH   7   8
ATOM      8  C   UNL A   1      32.502  20.565  24.539  1.00  0.00     0.103 A 
ATOM      9  C   UNL A   1      32.385  21.212  23.274  1.00  0.00     0.132 A 
ATOM     10  C   UNL A   1      32.125  20.498  22.092  1.00  0.00     0.047 A 
ATOM     11  C   UNL A   1      32.085  19.115  22.095  1.00  0.00     0.008 A 
ATOM     12  C   UNL A   1      32.439  19.143  24.498  1.00  0.00     0.132 A 
ATOM     13  C   UNL A   1      32.276  18.442  23.290  1.00  0.00     0.047 A 
BRANCH   9  14
ATOM     14  O   UNL A   1      32.297  22.571  23.092  1.00  0.00    -0.496 OA
ATOM     15  C   UNL A   1      33.296  23.163  22.276  1.00  0.00     0.278 C 
ENDBRANCH   9  14
BRANCH  12  16
ATOM     16  O   UNL A   1      32.532  18.468  25.674  1.00  0.00    -0.496 OA
ATOM     17  C   UNL A   1      32.937  17.107  25.710  1.00  0.00     0.278 C 
ENDBRANCH  12  16
ENDBRANCH   7   8
BRANCH   7  18
ATOM     18  N   UNL A   1      31.919  22.719  25.919  1.00  0.00    -0.319 N 
ATOM     19  C   UNL A   1      30.490  22.574  26.214  1.00  0.00     0.333 C 
ATOM     20  H   UNL A   1      32.103  22.974  24.949  1.00  0.00     0.349 HD
BRANCH  18  21
ATOM     21  C   UNL A   1      32.471  23.915  26.576  1.00  0.00     0.303 C 
BRANCH  21  22
ATOM     22  C   UNL A   1      32.781  25.196  25.822  1.00  0.00     0.050 A 
ATOM     23  C   UNL A   1      32.148  26.491  25.754  1.00  0.00     0.068 A 
ATOM     24  C   UNL A   1      33.996  25.434  25.173  1.00  0.00     0.041 A 
ATOM     25  C   UNL A   1      30.919  27.055  26.362  1.00  0.00     0.069 C 
ATOM     26  N   UNL A   1      32.856  27.365  25.024  1.00  0.00    -0.180 NA
ATOM     27  N   UNL A   1      33.932  26.689  24.650  1.00  0.00    -0.282 N 
ATOM     28  C   UNL A   1      35.233  24.627  25.048  1.00  0.00     0.066 C 
ATOM     29  H   UNL A   1      34.621  27.059  24.052  1.00  0.00     0.190 HD
ENDBRANCH  21  22
ENDBRANCH  18  21
ENDBRANCH   7  18
ENDBRANCH   4   7
ENDBRANCH   2   3
ENDBRANCH   1   2
BRANCH   1  30
ATOM     30  C   UNL A   1      37.832  22.133  25.597  1.00  0.00     0.118 C 
BRANCH  30  31
ATOM     31  N   UNL A   1      38.943  21.290  26.014  1.00  0.00    -0.352 N 
ATOM     32  C   UNL A   1      40.189  21.599  26.493  1.00  0.00     0.251 C 
ATOM     33  H   UNL A   1      38.768  20.324  25.939  1.00  0.00     0.163 HD
ATOM     34  O   UNL A   1      41.028  20.704  26.564  1.00  0.00    -0.269 OA
BRANCH  32  35
ATOM     35  C   UNL A   1      40.539  22.976  26.908  1.00  0.00     0.039 A 
ATOM     36  C   UNL A   1      41.203  23.152  28.126  1.00  0.00     0.014 A 
ATOM     37  C   UNL A   1      40.162  24.093  26.158  1.00  0.00     0.014 A 
ATOM     38  C   UNL A   1      41.524  24.438  28.565  1.00  0.00     0.010 A 
ATOM     39  C   UNL A   1      40.557  25.370  26.556  1.00  0.00     0.010 A 
ATOM     40  C   UNL A   1      41.230  25.558  27.770  1.00  0.00    -0.014 A 
BRANCH  40  41
ATOM     41  C   UNL A   1      41.613  26.923  28.218  1.00  0.00     0.031 A 
ATOM     42  C   UNL A   1      43.052  27.366  28.171  1.00  0.00     0.074 A 
ATOM     43  C   UNL A   1      40.664  27.755  28.687  1.00  0.00     0.049 A 
ATOM     44  N   UNL A   1      43.574  28.517  28.511  1.00  0.00    -0.248 NA
ATOM     45  C   UNL A   1      44.035  26.377  27.706  1.00  0.00     0.031 C 
ATOM     46  C   UNL A   1      39.244  27.420  28.827  1.00  0.00     0.029 A 
ATOM     47  N   UNL A   1      40.742  29.051  29.128  1.00  0.00    -0.354 N 
ATOM     48  C   UNL A   1      44.945  28.390  28.307  1.00  0.00     0.074 A 
ATOM     49  C   UNL A   1      45.177  27.027  27.879  1.00  0.00     0.031 C 
ATOM     50  C   UNL A   1      38.582  28.496  29.281  1.00  0.00     0.029 A 
ATOM     51  C   UNL A   1      39.530  29.582  29.505  1.00  0.00     0.049 A 
ATOM     52  H   UNL A   1      41.587  29.555  29.172  1.00  0.00     0.167 HD
ATOM     53  C   UNL A   1      45.915  29.329  28.438  1.00  0.00     0.034 A 
ATOM     54  C   UNL A   1      39.217  30.806  29.974  1.00  0.00     0.034 A 
ATOM     55  C   UNL A   1      45.665  30.688  28.861  1.00  0.00     0.049 A 
ATOM     56  C   UNL A   1      40.312  31.832  30.112  1.00  0.00     0.074 A 
ATOM     57  C   UNL A   1      46.565  31.731  28.993  1.00  0.00     0.029 A 
ATOM     58  N   UNL A   1      44.423  31.191  29.230  1.00  0.00    -0.354 N 
ATOM     59  N   UNL A   1      41.596  31.711  29.864  1.00  0.00    -0.248 NA
ATOM     60  C   UNL A   1      39.908  33.165  30.573  1.00  0.00     0.031 C 
ATOM     61  C   UNL A   1      45.882  32.842  29.500  1.00  0.00     0.029 A 
ATOM     62  C   UNL A   1      44.539  32.521  29.610  1.00  0.00     0.049 A 
ATOM     63  H   UNL A   1      43.583  30.679  29.221  1.00  0.00     0.167 HD
ATOM     64  C   UNL A   1      42.148  32.966  30.107  1.00  0.00     0.074 A 
ATOM     65  C   UNL A   1      41.051  33.829  30.497  1.00  0.00     0.031 C 
ATOM     66  C   UNL A   1      43.441  33.370  30.013  1.00  0.00     0.034 A 
BRANCH  53  67
ATOM     67  C   UNL A   1      47.337  28.904  28.145  1.00  0.00     0.023 A 
ATOM     68  C   UNL A   1      47.793  28.706  26.829  1.00  0.00     0.031 A 
ATOM     69  C   UNL A   1      48.243  28.668  29.194  1.00  0.00     0.131 A 
ATOM     70  C   UNL A   1      49.086  28.210  26.600  1.00  0.00     0.055 A 
ATOM     71  C   UNL A   1      49.556  28.257  28.956  1.00  0.00     0.041 A 
ATOM     72  F   UNL A   1      47.863  28.820  30.473  1.00  0.00    -0.206 F 
ATOM     73  C   UNL A   1      49.980  28.009  27.654  1.00  0.00     0.022 A 
BRANCH  70  74
ATOM     74  S   UNL A   1      49.533  27.693  24.920  1.00  0.00     0.124 S 
ATOM     75  O   UNL A   1      48.292  27.954  24.192  1.00  0.00    -0.237 OA
ATOM     76  O   UNL A   1      50.654  28.569  24.607  1.00  0.00    -0.237 OA
ATOM     77  O   UNL A   1      49.868  26.278  25.075  1.00  0.00    -0.744 OA
ENDBRANCH  70  74
ENDBRANCH  53  67
BRANCH  54  78
ATOM     78  C   UNL A   1      37.809  31.136  30.339  1.00  0.00     0.023 A 
ATOM     79  C   UNL A   1      36.900  31.600  29.375  1.00  0.00     0.031 A 
ATOM     80  C   UNL A   1      37.364  31.033  31.669  1.00  0.00     0.131 A 
ATOM     81  C   UNL A   1      35.609  31.993  29.762  1.00  0.00     0.055 A 
ATOM     82  C   UNL A   1      36.061  31.372  32.039  1.00  0.00     0.041 A 
ATOM     83  F   UNL A   1      38.190  30.587  32.629  1.00  0.00    -0.206 F 
ATOM     84  C   UNL A   1      35.180  31.869  31.084  1.00  0.00     0.022 A 
BRANCH  81  85
ATOM     85  S   UNL A   1      34.524  32.753  28.521  1.00  0.00     0.124 S 
ATOM     86  O   UNL A   1      33.820  31.592  27.991  1.00  0.00    -0.237 OA
ATOM     87  O   UNL A   1      33.732  33.669  29.335  1.00  0.00    -0.237 OA
ATOM     88  O   UNL A   1      35.460  33.392  27.599  1.00  0.00    -0.744 OA
ENDBRANCH  81  85
ENDBRANCH  54  78
BRANCH  66  89
ATOM     89  C   UNL A   1      43.721  34.827  30.294  1.00  0.00     0.023 A 
ATOM     90  C   UNL A   1      43.808  35.327  31.607  1.00  0.00     0.031 A 
ATOM     91  C   UNL A   1      43.854  35.740  29.232  1.00  0.00     0.131 A 
ATOM     92  C   UNL A   1      43.940  36.707  31.823  1.00  0.00     0.055 A 
ATOM     93  C   UNL A   1      44.058  37.103  29.454  1.00  0.00     0.041 A 
ATOM     94  F   UNL A   1      43.778  35.323  27.958  1.00  0.00    -0.206 F 
ATOM     95  C   UNL A   1      44.082  37.596  30.756  1.00  0.00     0.022 A 
BRANCH  92  96
ATOM     96  S   UNL A   1      43.786  37.338  33.517  1.00  0.00     0.124 S 
ATOM     97  O   UNL A   1      43.382  38.722  33.291  1.00  0.00    -0.237 OA
ATOM     98  O   UNL A   1      42.766  36.462  34.085  1.00  0.00    -0.237 OA
ATOM     99  O   UNL A   1      45.128  37.166  34.070  1.00  0.00    -0.744 OA
ENDBRANCH  92  96
ENDBRANCH  66  89
ENDBRANCH  40  41
ENDBRANCH  32  35
ENDBRANCH  30  31
ENDBRANCH   1  30
TORSDOF 19
ENDMDL
