MODEL 1
REMARK VINA RESULT:     -13.8      0.000      0.000
REMARK SMILES Cc1ccc(-c2cc(Cl)ccc2Cl)c(C(=O)NCCCNC(=O)c2ccc(-c3c4nc(c(-c5cc(S(=O)(=O)[O-])ccc5F)c5ccc([nH]5)c(-c5cc(S(=O)(=O)[O-])ccc5F)c5nc(c(-c6cc(S(=O)(=O)[O-])ccc6F)c6ccc3[nH]6)C=C5)C=C4)cc2)c1
REMARK SMILES IDX 20 1 19 2 18 3 17 4 15 5 16 6 14 8 1 9 2 10 3 11 87 12 4 13
REMARK SMILES IDX 5 14 6 15 7 16 12 17 8 18 11 19 13 20 9 21 10 22 21 23 22 24
REMARK SMILES IDX 23 26 24 27 25 28 86 29 26 30 85 31 27 32 28 33 29 34 79 35
REMARK SMILES IDX 30 36 84 37 78 38 80 39 31 40 83 41 77 42 76 43 32 45 64 46
REMARK SMILES IDX 44 47 63 48 45 49 48 50 62 51 81 52 46 53 47 54 61 56 82 57
REMARK SMILES IDX 49 58 33 59 34 60 42 61 35 62 41 63 43 64 40 65 36 66 37 67
REMARK SMILES IDX 38 68 39 69 65 70 66 71 74 72 67 73 73 74 75 75 72 76 68 77
REMARK SMILES IDX 69 78 70 79 71 80 50 81 51 82 59 83 52 84 58 85 60 86 57 87
REMARK SMILES IDX 53 88 54 89 55 90 56 91
REMARK H PARENT 17 7 21 25 80 44 48 55
REMARK Flexibility Score: inf
ROOT
ATOM      1  C   UNL A   1      34.203  30.304  27.620  1.00  0.00     0.118 C 
ENDROOT
BRANCH   1   2
ATOM      2  C   UNL A   1      32.788  30.719  27.236  1.00  0.00     0.042 C 
BRANCH   2   3
ATOM      3  C   UNL A   1      31.978  29.595  26.584  1.00  0.00     0.118 C 
BRANCH   3   4
ATOM      4  N   UNL A   1      32.515  29.223  25.281  1.00  0.00    -0.352 N 
ATOM      5  C   UNL A   1      31.975  28.955  24.045  1.00  0.00     0.251 C 
ATOM      6  O   UNL A   1      32.792  28.719  23.154  1.00  0.00    -0.269 OA
ATOM      7  H   UNL A   1      33.497  29.145  25.286  1.00  0.00     0.163 HD
BRANCH   5   8
ATOM      8  C   UNL A   1      30.495  28.927  23.731  1.00  0.00     0.047 A 
ATOM      9  C   UNL A   1      27.702  31.450  23.008  1.00  0.00     0.044 C 
ATOM     10  C   UNL A   1      28.403  30.142  23.229  1.00  0.00    -0.050 A 
ATOM     11  C   UNL A   1      27.716  28.941  23.121  1.00  0.00     0.004 A 
ATOM     12  C   UNL A   1      29.768  30.116  23.547  1.00  0.00     0.018 A 
ATOM     13  C   UNL A   1      28.391  27.743  23.340  1.00  0.00     0.010 A 
ATOM     14  C   UNL A   1      29.776  27.702  23.646  1.00  0.00    -0.004 A 
BRANCH  14  15
ATOM     15  C   UNL A   1      30.353  26.359  23.876  1.00  0.00     0.003 A 
ATOM     16  C   UNL A   1      30.115  25.709  25.105  1.00  0.00     0.030 A 
ATOM     17  C   UNL A   1      31.093  25.663  22.899  1.00  0.00     0.049 A 
ATOM     18  C   UNL A   1      30.631  24.437  25.358  1.00  0.00     0.041 A 
ATOM     19  C   UNL A   1      31.593  24.379  23.153  1.00  0.00     0.023 A 
ATOM     20  Cl  UNL A   1      31.400  26.333  21.331  1.00  0.00    -0.084 Cl
ATOM     21  Cl  UNL A   1      30.341  23.681  26.877  1.00  0.00    -0.084 Cl
ATOM     22  C   UNL A   1      31.368  23.769  24.386  1.00  0.00     0.022 A 
ENDBRANCH  14  15
ENDBRANCH   5   8
ENDBRANCH   3   4
ENDBRANCH   2   3
ENDBRANCH   1   2
BRANCH   1  23
ATOM     23  N   UNL A   1      34.885  31.291  28.457  1.00  0.00    -0.352 N 
ATOM     24  C   UNL A   1      36.103  31.172  29.104  1.00  0.00     0.251 C 
ATOM     25  H   UNL A   1      34.417  32.149  28.575  1.00  0.00     0.163 HD
ATOM     26  O   UNL A   1      36.556  32.064  29.805  1.00  0.00    -0.269 OA
BRANCH  24  27
ATOM     27  C   UNL A   1      36.914  29.972  28.814  1.00  0.00     0.039 A 
ATOM     28  C   UNL A   1      37.095  29.062  29.861  1.00  0.00     0.014 A 
ATOM     29  C   UNL A   1      37.692  29.909  27.662  1.00  0.00     0.014 A 
ATOM     30  C   UNL A   1      38.207  28.227  29.846  1.00  0.00     0.010 A 
ATOM     31  C   UNL A   1      38.843  29.147  27.690  1.00  0.00     0.010 A 
ATOM     32  C   UNL A   1      39.132  28.355  28.810  1.00  0.00    -0.014 A 
BRANCH  32  33
ATOM     33  C   UNL A   1      40.484  27.809  28.892  1.00  0.00     0.031 A 
ATOM     34  C   UNL A   1      40.770  26.429  28.455  1.00  0.00     0.074 A 
ATOM     35  C   UNL A   1      41.493  28.582  29.348  1.00  0.00     0.049 A 
ATOM     36  N   UNL A   1      41.760  25.719  28.882  1.00  0.00    -0.248 NA
ATOM     37  C   UNL A   1      39.908  25.712  27.523  1.00  0.00     0.031 C 
ATOM     38  C   UNL A   1      42.925  28.310  29.272  1.00  0.00     0.029 A 
ATOM     39  N   UNL A   1      41.389  29.665  30.221  1.00  0.00    -0.354 N 
ATOM     40  C   UNL A   1      41.835  24.590  28.099  1.00  0.00     0.074 A 
ATOM     41  C   UNL A   1      40.623  24.603  27.311  1.00  0.00     0.031 C 
ATOM     42  C   UNL A   1      43.549  29.001  30.238  1.00  0.00     0.029 A 
ATOM     43  C   UNL A   1      42.523  29.628  31.052  1.00  0.00     0.049 A 
ATOM     44  H   UNL A   1      40.661  30.328  30.250  1.00  0.00     0.167 HD
ATOM     45  C   UNL A   1      42.974  23.840  28.102  1.00  0.00     0.034 A 
ATOM     46  C   UNL A   1      42.408  29.511  32.406  1.00  0.00     0.034 A 
ATOM     47  C   UNL A   1      43.958  24.347  29.055  1.00  0.00     0.049 A 
ATOM     48  C   UNL A   1      43.112  28.300  32.970  1.00  0.00     0.074 A 
ATOM     49  C   UNL A   1      45.081  25.146  28.911  1.00  0.00     0.029 A 
ATOM     50  N   UNL A   1      43.697  24.277  30.419  1.00  0.00    -0.354 N 
ATOM     51  N   UNL A   1      43.480  27.271  32.258  1.00  0.00    -0.248 NA
ATOM     52  C   UNL A   1      43.444  28.149  34.382  1.00  0.00     0.031 C 
ATOM     53  C   UNL A   1      45.461  25.606  30.199  1.00  0.00     0.029 A 
ATOM     54  C   UNL A   1      44.590  25.059  31.127  1.00  0.00     0.049 A 
ATOM     55  H   UNL A   1      42.977  23.744  30.826  1.00  0.00     0.167 HD
ATOM     56  C   UNL A   1      44.070  26.336  33.070  1.00  0.00     0.074 A 
ATOM     57  C   UNL A   1      44.044  26.945  34.388  1.00  0.00     0.031 C 
ATOM     58  C   UNL A   1      44.522  25.140  32.581  1.00  0.00     0.034 A 
BRANCH  45  59
ATOM     59  C   UNL A   1      43.309  22.846  27.012  1.00  0.00     0.023 A 
ATOM     60  C   UNL A   1      42.748  21.551  27.055  1.00  0.00     0.031 A 
ATOM     61  C   UNL A   1      44.199  23.083  25.948  1.00  0.00     0.131 A 
ATOM     62  C   UNL A   1      43.160  20.543  26.163  1.00  0.00     0.055 A 
ATOM     63  C   UNL A   1      44.663  22.064  25.104  1.00  0.00     0.041 A 
ATOM     64  F   UNL A   1      44.618  24.320  25.649  1.00  0.00    -0.206 F 
ATOM     65  C   UNL A   1      44.156  20.780  25.221  1.00  0.00     0.022 A 
BRANCH  62  66
ATOM     66  S   UNL A   1      42.365  18.914  26.242  1.00  0.00     0.124 S 
ATOM     67  O   UNL A   1      43.205  18.112  25.359  1.00  0.00    -0.237 OA
ATOM     68  O   UNL A   1      42.441  18.604  27.666  1.00  0.00    -0.237 OA
ATOM     69  O   UNL A   1      41.015  19.171  25.741  1.00  0.00    -0.744 OA
ENDBRANCH  62  66
ENDBRANCH  45  59
BRANCH  46  70
ATOM     70  C   UNL A   1      41.168  30.133  32.953  1.00  0.00     0.023 A 
ATOM     71  C   UNL A   1      41.138  31.544  33.010  1.00  0.00     0.031 A 
ATOM     72  C   UNL A   1      39.948  29.449  33.016  1.00  0.00     0.131 A 
ATOM     73  C   UNL A   1      39.919  32.229  32.927  1.00  0.00     0.055 A 
ATOM     74  C   UNL A   1      38.728  30.141  33.022  1.00  0.00     0.041 A 
ATOM     75  F   UNL A   1      39.909  28.111  32.945  1.00  0.00    -0.206 F 
ATOM     76  C   UNL A   1      38.709  31.534  32.925  1.00  0.00     0.022 A 
BRANCH  73  77
ATOM     77  S   UNL A   1      39.949  33.996  32.506  1.00  0.00     0.124 S 
ATOM     78  O   UNL A   1      41.369  34.239  32.283  1.00  0.00    -0.237 OA
ATOM     79  O   UNL A   1      39.098  34.062  31.319  1.00  0.00    -0.237 OA
ATOM     80  O   UNL A   1      39.374  34.643  33.683  1.00  0.00    -0.744 OA
ENDBRANCH  73  77
ENDBRANCH  46  70
BRANCH  58  81
ATOM     81  C   UNL A   1      45.022  23.967  33.402  1.00  0.00     0.023 A 
ATOM     82  C   UNL A   1      46.341  23.849  33.868  1.00  0.00     0.031 A 
ATOM     83  C   UNL A   1      44.137  22.940  33.817  1.00  0.00     0.131 A 
ATOM     84  C   UNL A   1      46.754  22.731  34.618  1.00  0.00     0.055 A 
ATOM     85  C   UNL A   1      44.531  21.871  34.629  1.00  0.00     0.041 A 
ATOM     86  F   UNL A   1      42.845  22.931  33.460  1.00  0.00    -0.206 F 
ATOM     87  C   UNL A   1      45.853  21.752  35.022  1.00  0.00     0.022 A 
BRANCH  84  88
ATOM     88  S   UNL A   1      48.516  22.562  35.010  1.00  0.00     0.124 S 
ATOM     89  O   UNL A   1      48.847  21.297  34.359  1.00  0.00    -0.237 OA
ATOM     90  O   UNL A   1      49.091  23.756  34.399  1.00  0.00    -0.237 OA
ATOM     91  O   UNL A   1      48.546  22.535  36.470  1.00  0.00    -0.744 OA
ENDBRANCH  84  88
ENDBRANCH  58  81
ENDBRANCH  32  33
ENDBRANCH  24  27
ENDBRANCH   1  23
TORSDOF 14
ENDMDL
MODEL 2
REMARK VINA RESULT:     -13.6      4.511     10.918
REMARK SMILES Cc1ccc(-c2cc(Cl)ccc2Cl)c(C(=O)NCCCNC(=O)c2ccc(-c3c4nc(c(-c5cc(S(=O)(=O)[O-])ccc5F)c5ccc([nH]5)c(-c5cc(S(=O)(=O)[O-])ccc5F)c5nc(c(-c6cc(S(=O)(=O)[O-])ccc6F)c6ccc3[nH]6)C=C5)C=C4)cc2)c1
REMARK SMILES IDX 20 1 19 2 18 3 17 4 15 5 16 6 14 8 1 9 2 10 3 11 87 12 4 13
REMARK SMILES IDX 5 14 6 15 7 16 12 17 8 18 11 19 13 20 9 21 10 22 21 23 22 24
REMARK SMILES IDX 23 26 24 27 25 28 86 29 26 30 85 31 27 32 28 33 29 34 79 35
REMARK SMILES IDX 30 36 84 37 78 38 80 39 31 40 83 41 77 42 76 43 32 45 64 46
REMARK SMILES IDX 44 47 63 48 45 49 48 50 62 51 81 52 46 53 47 54 61 56 82 57
REMARK SMILES IDX 49 58 33 59 34 60 42 61 35 62 41 63 43 64 40 65 36 66 37 67
REMARK SMILES IDX 38 68 39 69 65 70 66 71 74 72 67 73 73 74 75 75 72 76 68 77
REMARK SMILES IDX 69 78 70 79 71 80 50 81 51 82 59 83 52 84 58 85 60 86 57 87
REMARK SMILES IDX 53 88 54 89 55 90 56 91
REMARK H PARENT 17 7 21 25 80 44 48 55
REMARK Flexibility Score: inf
ROOT
ATOM      1  C   UNL A   1      38.725  22.746  26.121  1.00  0.00     0.118 C 
ENDROOT
BRANCH   1   2
ATOM      2  C   UNL A   1      38.270  21.500  25.369  1.00  0.00     0.042 C 
BRANCH   2   3
ATOM      3  C   UNL A   1      36.841  21.603  24.828  1.00  0.00     0.118 C 
BRANCH   3   4
ATOM      4  N   UNL A   1      35.850  21.564  25.896  1.00  0.00    -0.352 N 
ATOM      5  C   UNL A   1      34.616  20.979  26.060  1.00  0.00     0.251 C 
ATOM      6  O   UNL A   1      34.098  21.146  27.165  1.00  0.00    -0.269 OA
ATOM      7  H   UNL A   1      36.129  22.079  26.688  1.00  0.00     0.163 HD
BRANCH   5   8
ATOM      8  C   UNL A   1      33.886  20.181  25.002  1.00  0.00     0.047 A 
ATOM      9  C   UNL A   1      34.130  16.709  23.397  1.00  0.00     0.044 C 
ATOM     10  C   UNL A   1      33.647  18.098  23.694  1.00  0.00    -0.050 A 
ATOM     11  C   UNL A   1      32.545  18.623  23.035  1.00  0.00     0.004 A 
ATOM     12  C   UNL A   1      34.305  18.887  24.648  1.00  0.00     0.018 A 
ATOM     13  C   UNL A   1      32.125  19.919  23.325  1.00  0.00     0.010 A 
ATOM     14  C   UNL A   1      32.772  20.721  24.300  1.00  0.00    -0.004 A 
BRANCH  14  15
ATOM     15  C   UNL A   1      32.230  22.086  24.485  1.00  0.00     0.003 A 
ATOM     16  C   UNL A   1      31.269  22.314  25.493  1.00  0.00     0.030 A 
ATOM     17  C   UNL A   1      32.669  23.196  23.734  1.00  0.00     0.049 A 
ATOM     18  C   UNL A   1      30.742  23.588  25.708  1.00  0.00     0.041 A 
ATOM     19  C   UNL A   1      32.148  24.475  23.968  1.00  0.00     0.023 A 
ATOM     20  Cl  UNL A   1      33.887  23.051  22.511  1.00  0.00    -0.084 Cl
ATOM     21  Cl  UNL A   1      29.554  23.828  26.930  1.00  0.00    -0.084 Cl
ATOM     22  C   UNL A   1      31.178  24.670  24.951  1.00  0.00     0.022 A 
ENDBRANCH  14  15
ENDBRANCH   5   8
ENDBRANCH   3   4
ENDBRANCH   2   3
ENDBRANCH   1   2
BRANCH   1  23
ATOM     23  N   UNL A   1      40.172  22.794  26.331  1.00  0.00    -0.352 N 
ATOM     24  C   UNL A   1      40.949  23.876  26.704  1.00  0.00     0.251 C 
ATOM     25  H   UNL A   1      40.654  21.947  26.188  1.00  0.00     0.163 HD
ATOM     26  O   UNL A   1      42.162  23.797  26.818  1.00  0.00    -0.269 OA
BRANCH  24  27
ATOM     27  C   UNL A   1      40.247  25.116  27.094  1.00  0.00     0.039 A 
ATOM     28  C   UNL A   1      40.560  26.274  26.375  1.00  0.00     0.014 A 
ATOM     29  C   UNL A   1      39.547  25.181  28.295  1.00  0.00     0.014 A 
ATOM     30  C   UNL A   1      40.365  27.515  26.972  1.00  0.00     0.010 A 
ATOM     31  C   UNL A   1      39.437  26.405  28.925  1.00  0.00     0.010 A 
ATOM     32  C   UNL A   1      39.905  27.564  28.289  1.00  0.00    -0.014 A 
BRANCH  32  33
ATOM     33  C   UNL A   1      40.019  28.762  29.117  1.00  0.00     0.031 A 
ATOM     34  C   UNL A   1      38.962  29.791  29.107  1.00  0.00     0.074 A 
ATOM     35  C   UNL A   1      41.091  28.921  29.922  1.00  0.00     0.049 A 
ATOM     36  N   UNL A   1      39.148  31.031  29.415  1.00  0.00    -0.248 NA
ATOM     37  C   UNL A   1      37.596  29.502  28.686  1.00  0.00     0.031 C 
ATOM     38  C   UNL A   1      41.264  29.903  30.988  1.00  0.00     0.029 A 
ATOM     39  N   UNL A   1      42.361  28.373  29.744  1.00  0.00    -0.354 N 
ATOM     40  C   UNL A   1      37.913  31.630  29.508  1.00  0.00     0.074 A 
ATOM     41  C   UNL A   1      36.986  30.652  28.984  1.00  0.00     0.031 C 
ATOM     42  C   UNL A   1      42.576  30.089  31.196  1.00  0.00     0.029 A 
ATOM     43  C   UNL A   1      43.286  29.339  30.176  1.00  0.00     0.049 A 
ATOM     44  H   UNL A   1      42.569  27.479  29.383  1.00  0.00     0.167 HD
ATOM     45  C   UNL A   1      37.789  32.830  30.143  1.00  0.00     0.034 A 
ATOM     46  C   UNL A   1      44.229  29.849  29.332  1.00  0.00     0.034 A 
ATOM     47  C   UNL A   1      39.083  33.352  30.578  1.00  0.00     0.049 A 
ATOM     48  C   UNL A   1      44.152  31.349  29.177  1.00  0.00     0.074 A 
ATOM     49  C   UNL A   1      39.740  33.340  31.797  1.00  0.00     0.029 A 
ATOM     50  N   UNL A   1      40.021  33.748  29.630  1.00  0.00    -0.354 N 
ATOM     51  N   UNL A   1      43.108  32.064  29.494  1.00  0.00    -0.248 NA
ATOM     52  C   UNL A   1      45.241  32.158  28.639  1.00  0.00     0.031 C 
ATOM     53  C   UNL A   1      41.099  33.676  31.567  1.00  0.00     0.029 A 
ATOM     54  C   UNL A   1      41.260  33.926  30.215  1.00  0.00     0.049 A 
ATOM     55  H   UNL A   1      39.829  33.885  28.674  1.00  0.00     0.167 HD
ATOM     56  C   UNL A   1      43.352  33.385  29.212  1.00  0.00     0.074 A 
ATOM     57  C   UNL A   1      44.711  33.392  28.700  1.00  0.00     0.031 C 
ATOM     58  C   UNL A   1      42.406  34.352  29.421  1.00  0.00     0.034 A 
BRANCH  45  59
ATOM     59  C   UNL A   1      36.467  33.365  30.646  1.00  0.00     0.023 A 
ATOM     60  C   UNL A   1      35.613  34.055  29.759  1.00  0.00     0.031 A 
ATOM     61  C   UNL A   1      36.014  33.279  31.975  1.00  0.00     0.131 A 
ATOM     62  C   UNL A   1      34.457  34.715  30.217  1.00  0.00     0.055 A 
ATOM     63  C   UNL A   1      34.903  33.992  32.448  1.00  0.00     0.041 A 
ATOM     64  F   UNL A   1      36.598  32.461  32.863  1.00  0.00    -0.206 F 
ATOM     65  C   UNL A   1      34.127  34.732  31.569  1.00  0.00     0.022 A 
BRANCH  62  66
ATOM     66  S   UNL A   1      33.378  35.545  29.017  1.00  0.00     0.124 S 
ATOM     67  O   UNL A   1      32.598  36.441  29.864  1.00  0.00    -0.237 OA
ATOM     68  O   UNL A   1      34.342  36.175  28.122  1.00  0.00    -0.237 OA
ATOM     69  O   UNL A   1      32.620  34.443  28.425  1.00  0.00    -0.744 OA
ENDBRANCH  62  66
ENDBRANCH  45  59
BRANCH  46  70
ATOM     70  C   UNL A   1      44.672  28.884  28.285  1.00  0.00     0.023 A 
ATOM     71  C   UNL A   1      45.532  27.845  28.703  1.00  0.00     0.031 A 
ATOM     72  C   UNL A   1      43.989  28.721  27.074  1.00  0.00     0.131 A 
ATOM     73  C   UNL A   1      45.537  26.617  28.029  1.00  0.00     0.055 A 
ATOM     74  C   UNL A   1      44.066  27.520  26.354  1.00  0.00     0.041 A 
ATOM     75  F   UNL A   1      43.143  29.662  26.634  1.00  0.00    -0.206 F 
ATOM     76  C   UNL A   1      44.801  26.444  26.857  1.00  0.00     0.022 A 
BRANCH  73  77
ATOM     77  S   UNL A   1      46.256  25.175  28.869  1.00  0.00     0.124 S 
ATOM     78  O   UNL A   1      45.777  24.067  28.051  1.00  0.00    -0.237 OA
ATOM     79  O   UNL A   1      47.692  25.440  28.800  1.00  0.00    -0.237 OA
ATOM     80  O   UNL A   1      45.705  25.249  30.220  1.00  0.00    -0.744 OA
ENDBRANCH  73  77
ENDBRANCH  46  70
BRANCH  58  81
ATOM     81  C   UNL A   1      42.494  35.801  28.983  1.00  0.00     0.023 A 
ATOM     82  C   UNL A   1      43.194  36.788  29.695  1.00  0.00     0.031 A 
ATOM     83  C   UNL A   1      41.921  36.227  27.758  1.00  0.00     0.131 A 
ATOM     84  C   UNL A   1      43.233  38.122  29.247  1.00  0.00     0.055 A 
ATOM     85  C   UNL A   1      42.029  37.535  27.276  1.00  0.00     0.041 A 
ATOM     86  F   UNL A   1      41.237  35.389  26.967  1.00  0.00    -0.206 F 
ATOM     87  C   UNL A   1      42.675  38.499  28.030  1.00  0.00     0.022 A 
BRANCH  84  88
ATOM     88  S   UNL A   1      43.990  39.368  30.325  1.00  0.00     0.124 S 
ATOM     89  O   UNL A   1      44.288  38.586  31.523  1.00  0.00    -0.237 OA
ATOM     90  O   UNL A   1      45.147  39.798  29.547  1.00  0.00    -0.237 OA
ATOM     91  O   UNL A   1      42.940  40.372  30.485  1.00  0.00    -0.744 OA
ENDBRANCH  84  88
ENDBRANCH  58  81
ENDBRANCH  32  33
ENDBRANCH  24  27
ENDBRANCH   1  23
TORSDOF 14
ENDMDL
MODEL 3
REMARK VINA RESULT:     -13.3      1.359      2.608
REMARK SMILES Cc1ccc(-c2cc(Cl)ccc2Cl)c(C(=O)NCCCNC(=O)c2ccc(-c3c4nc(c(-c5cc(S(=O)(=O)[O-])ccc5F)c5ccc([nH]5)c(-c5cc(S(=O)(=O)[O-])ccc5F)c5nc(c(-c6cc(S(=O)(=O)[O-])ccc6F)c6ccc3[nH]6)C=C5)C=C4)cc2)c1
REMARK SMILES IDX 20 1 19 2 18 3 17 4 15 5 16 6 14 8 1 9 2 10 3 11 87 12 4 13
REMARK SMILES IDX 5 14 6 15 7 16 12 17 8 18 11 19 13 20 9 21 10 22 21 23 22 24
REMARK SMILES IDX 23 26 24 27 25 28 86 29 26 30 85 31 27 32 28 33 29 34 79 35
REMARK SMILES IDX 30 36 84 37 78 38 80 39 31 40 83 41 77 42 76 43 32 45 64 46
REMARK SMILES IDX 44 47 63 48 45 49 48 50 62 51 81 52 46 53 47 54 61 56 82 57
REMARK SMILES IDX 49 58 33 59 34 60 42 61 35 62 41 63 43 64 40 65 36 66 37 67
REMARK SMILES IDX 38 68 39 69 65 70 66 71 74 72 67 73 73 74 75 75 72 76 68 77
REMARK SMILES IDX 69 78 70 79 71 80 50 81 51 82 59 83 52 84 58 85 60 86 57 87
REMARK SMILES IDX 53 88 54 89 55 90 56 91
REMARK H PARENT 17 7 21 25 80 44 48 55
REMARK Flexibility Score: inf
ROOT
ATOM      1  C   UNL A   1      34.803  31.172  27.402  1.00  0.00     0.118 C 
ENDROOT
BRANCH   1   2
ATOM      2  C   UNL A   1      33.573  30.273  27.447  1.00  0.00     0.042 C 
BRANCH   2   3
ATOM      3  C   UNL A   1      33.860  28.826  27.038  1.00  0.00     0.118 C 
BRANCH   3   4
ATOM      4  N   UNL A   1      32.678  27.982  27.154  1.00  0.00    -0.352 N 
ATOM      5  C   UNL A   1      32.251  26.816  26.562  1.00  0.00     0.251 C 
ATOM      6  O   UNL A   1      31.178  26.377  26.980  1.00  0.00    -0.269 OA
ATOM      7  H   UNL A   1      32.031  28.328  27.810  1.00  0.00     0.163 HD
BRANCH   5   8
ATOM      8  C   UNL A   1      32.989  26.076  25.469  1.00  0.00     0.047 A 
ATOM      9  C   UNL A   1      35.793  23.476  25.199  1.00  0.00     0.044 C 
ATOM     10  C   UNL A   1      34.723  24.448  24.797  1.00  0.00    -0.050 A 
ATOM     11  C   UNL A   1      34.403  24.640  23.460  1.00  0.00     0.004 A 
ATOM     12  C   UNL A   1      34.027  25.177  25.771  1.00  0.00     0.018 A 
ATOM     13  C   UNL A   1      33.411  25.556  23.117  1.00  0.00     0.010 A 
ATOM     14  C   UNL A   1      32.689  26.286  24.094  1.00  0.00    -0.004 A 
BRANCH  14  15
ATOM     15  C   UNL A   1      31.680  27.240  23.581  1.00  0.00     0.003 A 
ATOM     16  C   UNL A   1      30.310  26.953  23.754  1.00  0.00     0.030 A 
ATOM     17  C   UNL A   1      32.021  28.463  22.967  1.00  0.00     0.049 A 
ATOM     18  C   UNL A   1      29.327  27.831  23.295  1.00  0.00     0.041 A 
ATOM     19  C   UNL A   1      31.029  29.348  22.526  1.00  0.00     0.023 A 
ATOM     20  Cl  UNL A   1      33.668  28.954  22.752  1.00  0.00    -0.084 Cl
ATOM     21  Cl  UNL A   1      27.664  27.439  23.503  1.00  0.00    -0.084 Cl
ATOM     22  C   UNL A   1      29.681  29.028  22.683  1.00  0.00     0.022 A 
ENDBRANCH  14  15
ENDBRANCH   5   8
ENDBRANCH   3   4
ENDBRANCH   2   3
ENDBRANCH   1   2
BRANCH   1  23
ATOM     23  N   UNL A   1      35.162  31.720  28.710  1.00  0.00    -0.352 N 
ATOM     24  C   UNL A   1      36.047  31.207  29.641  1.00  0.00     0.251 C 
ATOM     25  H   UNL A   1      34.716  32.561  28.959  1.00  0.00     0.163 HD
ATOM     26  O   UNL A   1      36.241  31.745  30.720  1.00  0.00    -0.269 OA
BRANCH  24  27
ATOM     27  C   UNL A   1      36.863  30.043  29.236  1.00  0.00     0.039 A 
ATOM     28  C   UNL A   1      37.042  29.033  30.187  1.00  0.00     0.014 A 
ATOM     29  C   UNL A   1      37.647  30.099  28.087  1.00  0.00     0.014 A 
ATOM     30  C   UNL A   1      38.156  28.206  30.094  1.00  0.00     0.010 A 
ATOM     31  C   UNL A   1      38.800  29.340  28.044  1.00  0.00     0.010 A 
ATOM     32  C   UNL A   1      39.086  28.440  29.080  1.00  0.00    -0.014 A 
BRANCH  32  33
ATOM     33  C   UNL A   1      40.439  27.892  29.113  1.00  0.00     0.031 A 
ATOM     34  C   UNL A   1      40.709  26.516  28.651  1.00  0.00     0.074 A 
ATOM     35  C   UNL A   1      41.463  28.658  29.547  1.00  0.00     0.049 A 
ATOM     36  N   UNL A   1      41.711  25.801  29.039  1.00  0.00    -0.248 NA
ATOM     37  C   UNL A   1      39.818  25.812  27.738  1.00  0.00     0.031 C 
ATOM     38  C   UNL A   1      42.892  28.386  29.423  1.00  0.00     0.029 A 
ATOM     39  N   UNL A   1      41.388  29.731  30.435  1.00  0.00    -0.354 N 
ATOM     40  C   UNL A   1      41.760  24.681  28.241  1.00  0.00     0.074 A 
ATOM     41  C   UNL A   1      40.524  24.705  27.491  1.00  0.00     0.031 C 
ATOM     42  C   UNL A   1      43.546  29.065  30.377  1.00  0.00     0.029 A 
ATOM     43  C   UNL A   1      42.547  29.683  31.230  1.00  0.00     0.049 A 
ATOM     44  H   UNL A   1      40.662  30.394  30.495  1.00  0.00     0.167 HD
ATOM     45  C   UNL A   1      42.897  23.930  28.199  1.00  0.00     0.034 A 
ATOM     46  C   UNL A   1      42.474  29.550  32.586  1.00  0.00     0.034 A 
ATOM     47  C   UNL A   1      43.912  24.425  29.127  1.00  0.00     0.049 A 
ATOM     48  C   UNL A   1      43.194  28.331  33.113  1.00  0.00     0.074 A 
ATOM     49  C   UNL A   1      45.031  25.224  28.957  1.00  0.00     0.029 A 
ATOM     50  N   UNL A   1      43.694  24.339  30.498  1.00  0.00    -0.354 N 
ATOM     51  N   UNL A   1      43.538  27.311  32.377  1.00  0.00    -0.248 NA
ATOM     52  C   UNL A   1      43.570  28.163  34.512  1.00  0.00     0.031 C 
ATOM     53  C   UNL A   1      45.451  25.668  30.238  1.00  0.00     0.029 A 
ATOM     54  C   UNL A   1      44.609  25.111  31.186  1.00  0.00     0.049 A 
ATOM     55  H   UNL A   1      42.985  23.801  30.920  1.00  0.00     0.167 HD
ATOM     56  C   UNL A   1      44.152  26.365  33.159  1.00  0.00     0.074 A 
ATOM     57  C   UNL A   1      44.168  26.959  34.485  1.00  0.00     0.031 C 
ATOM     58  C   UNL A   1      44.587  25.175  32.642  1.00  0.00     0.034 A 
BRANCH  45  59
ATOM     59  C   UNL A   1      43.197  22.948  27.087  1.00  0.00     0.023 A 
ATOM     60  C   UNL A   1      42.660  21.645  27.147  1.00  0.00     0.031 A 
ATOM     61  C   UNL A   1      44.032  23.206  25.985  1.00  0.00     0.131 A 
ATOM     62  C   UNL A   1      43.045  20.649  26.230  1.00  0.00     0.055 A 
ATOM     63  C   UNL A   1      44.472  22.202  25.113  1.00  0.00     0.041 A 
ATOM     64  F   UNL A   1      44.417  24.453  25.675  1.00  0.00    -0.206 F 
ATOM     65  C   UNL A   1      43.992  20.908  25.243  1.00  0.00     0.022 A 
BRANCH  62  66
ATOM     66  S   UNL A   1      42.281  19.006  26.334  1.00  0.00     0.124 S 
ATOM     67  O   UNL A   1      43.184  18.188  25.533  1.00  0.00    -0.237 OA
ATOM     68  O   UNL A   1      42.285  18.757  27.772  1.00  0.00    -0.237 OA
ATOM     69  O   UNL A   1      40.955  19.212  25.751  1.00  0.00    -0.744 OA
ENDBRANCH  62  66
ENDBRANCH  45  59
BRANCH  46  70
ATOM     70  C   UNL A   1      41.252  30.167  33.178  1.00  0.00     0.023 A 
ATOM     71  C   UNL A   1      41.229  31.576  33.259  1.00  0.00     0.031 A 
ATOM     72  C   UNL A   1      40.033  29.486  33.265  1.00  0.00     0.131 A 
ATOM     73  C   UNL A   1      40.011  32.267  33.223  1.00  0.00     0.055 A 
ATOM     74  C   UNL A   1      38.816  30.181  33.318  1.00  0.00     0.041 A 
ATOM     75  F   UNL A   1      39.987  28.149  33.174  1.00  0.00    -0.206 F 
ATOM     76  C   UNL A   1      38.799  31.575  33.245  1.00  0.00     0.022 A 
BRANCH  73  77
ATOM     77  S   UNL A   1      40.035  34.040  32.830  1.00  0.00     0.124 S 
ATOM     78  O   UNL A   1      39.225  34.608  33.901  1.00  0.00    -0.237 OA
ATOM     79  O   UNL A   1      41.461  34.363  32.872  1.00  0.00    -0.237 OA
ATOM     80  O   UNL A   1      39.452  34.108  31.492  1.00  0.00    -0.744 OA
ENDBRANCH  73  77
ENDBRANCH  46  70
BRANCH  58  81
ATOM     81  C   UNL A   1      45.111  23.992  33.434  1.00  0.00     0.023 A 
ATOM     82  C   UNL A   1      46.391  23.943  34.005  1.00  0.00     0.031 A 
ATOM     83  C   UNL A   1      44.281  22.876  33.708  1.00  0.00     0.131 A 
ATOM     84  C   UNL A   1      46.830  22.813  34.722  1.00  0.00     0.055 A 
ATOM     85  C   UNL A   1      44.691  21.788  34.487  1.00  0.00     0.041 A 
ATOM     86  F   UNL A   1      43.027  22.792  33.239  1.00  0.00    -0.206 F 
ATOM     87  C   UNL A   1      45.981  21.744  34.986  1.00  0.00     0.022 A 
BRANCH  84  88
ATOM     88  S   UNL A   1      48.561  22.753  35.256  1.00  0.00     0.124 S 
ATOM     89  O   UNL A   1      48.601  21.496  36.000  1.00  0.00    -0.237 OA
ATOM     90  O   UNL A   1      49.283  22.760  33.987  1.00  0.00    -0.237 OA
ATOM     91  O   UNL A   1      48.717  23.959  36.066  1.00  0.00    -0.744 OA
ENDBRANCH  84  88
ENDBRANCH  58  81
ENDBRANCH  32  33
ENDBRANCH  24  27
ENDBRANCH   1  23
TORSDOF 14
ENDMDL
