MODEL 1
REMARK VINA RESULT:     -11.3      0.000      0.000
REMARK SMILES CC(C)(C[NH+]1CCC(C(N)=S)CC1)C(=O)NCCCNC(=O)c1ccc(-c2c3nc(c(-c4cc(S(=O)(=O)[O-])ccc4F)c4ccc([nH]4)c(-c4cc(S(=O)(=O)[O-])ccc4F)c4nc(c(-c5cc(S(=O)(=O)[O-])ccc5F)c5ccc2[nH]5)C=C4)C=C3)cc1
REMARK SMILES IDX 17 1 16 2 14 3 15 4 2 6 1 7 3 8 4 9 5 10 6 11 13 12 7 14
REMARK SMILES IDX 12 15 8 16 9 17 11 18 10 19 18 22 19 23 20 24 21 25 22 27
REMARK SMILES IDX 23 28 24 29 85 30 25 31 84 32 26 33 27 34 28 35 78 36 29 37
REMARK SMILES IDX 83 38 77 39 79 40 30 41 82 42 76 43 75 44 31 46 63 47 43 48
REMARK SMILES IDX 62 49 44 50 47 51 61 52 80 53 45 54 46 55 60 57 81 58 48 59
REMARK SMILES IDX 32 60 33 61 41 62 34 63 40 64 42 65 39 66 35 67 36 68 37 69
REMARK SMILES IDX 38 70 64 71 65 72 73 73 66 74 72 75 74 76 71 77 67 78 68 79
REMARK SMILES IDX 69 80 70 81 49 82 50 83 58 84 51 85 57 86 59 87 56 88 52 89
REMARK SMILES IDX 53 90 54 91 55 92
REMARK H PARENT 16 5 5 13 10 20 10 21 20 26 79 45 47 56
REMARK Flexibility Score: inf
ROOT
ATOM      1  C   UNL A   1      31.733  30.722  26.072  1.00  0.00     0.117 C 
ENDROOT
BRANCH   1   2
ATOM      2  N   UNL A   1      30.894  30.410  24.928  1.00  0.00    -0.355 N 
ATOM      3  C   UNL A   1      30.878  29.395  24.025  1.00  0.00     0.231 C 
ATOM      4  O   UNL A   1      29.918  29.405  23.244  1.00  0.00    -0.274 OA
ATOM      5  H   UNL A   1      30.186  31.077  24.774  1.00  0.00     0.163 HD
BRANCH   3   6
ATOM      6  C   UNL A   1      31.952  28.293  23.948  1.00  0.00     0.092 C 
ATOM      7  C   UNL A   1      33.270  28.929  23.444  1.00  0.00     0.027 C 
ATOM      8  C   UNL A   1      31.560  27.280  22.846  1.00  0.00     0.027 C 
BRANCH   6   9
ATOM      9  C   UNL A   1      32.180  27.555  25.308  1.00  0.00     0.278 C 
BRANCH   9  10
ATOM     10  N   UNL A   1      32.582  26.136  25.395  1.00  0.00    -0.334 N 
ATOM     11  C   UNL A   1      34.029  25.914  25.398  1.00  0.00     0.262 C 
ATOM     12  C   UNL A   1      31.848  25.351  26.390  1.00  0.00     0.262 C 
ATOM     13  H   UNL A   1      32.273  25.744  24.505  1.00  0.00     0.348 HD
ATOM     14  C   UNL A   1      34.407  24.430  25.368  1.00  0.00     0.072 C 
ATOM     15  C   UNL A   1      32.193  23.862  26.337  1.00  0.00     0.072 C 
ATOM     16  C   UNL A   1      33.702  23.686  26.503  1.00  0.00     0.058 C 
BRANCH  16  17
ATOM     17  C   UNL A   1      34.108  22.227  26.646  1.00  0.00     0.076 C 
ATOM     18  S   UNL A   1      35.390  21.495  25.872  1.00  0.00    -0.066 S 
BRANCH  17  19
ATOM     19  N   UNL A   1      33.314  21.478  27.470  1.00  0.00    -0.393 N 
ATOM     20  H   UNL A   1      32.548  21.895  27.927  1.00  0.00     0.157 HD
ATOM     21  H   UNL A   1      33.508  20.522  27.607  1.00  0.00     0.157 HD
ENDBRANCH  17  19
ENDBRANCH  16  17
ENDBRANCH   9  10
ENDBRANCH   6   9
ENDBRANCH   3   6
ENDBRANCH   1   2
BRANCH   1  22
ATOM     22  C   UNL A   1      31.521  32.126  26.626  1.00  0.00     0.042 C 
BRANCH  22  23
ATOM     23  C   UNL A   1      32.750  32.752  27.273  1.00  0.00     0.118 C 
BRANCH  23  24
ATOM     24  N   UNL A   1      32.516  34.119  27.710  1.00  0.00    -0.352 N 
ATOM     25  C   UNL A   1      33.071  34.833  28.746  1.00  0.00     0.251 C 
ATOM     26  H   UNL A   1      31.852  34.615  27.178  1.00  0.00     0.163 HD
ATOM     27  O   UNL A   1      32.558  35.898  29.075  1.00  0.00    -0.269 OA
BRANCH  25  28
ATOM     28  C   UNL A   1      34.254  34.322  29.476  1.00  0.00     0.039 A 
ATOM     29  C   UNL A   1      34.069  33.701  30.715  1.00  0.00     0.014 A 
ATOM     30  C   UNL A   1      35.546  34.482  28.969  1.00  0.00     0.014 A 
ATOM     31  C   UNL A   1      35.168  33.181  31.408  1.00  0.00     0.010 A 
ATOM     32  C   UNL A   1      36.630  33.892  29.619  1.00  0.00     0.010 A 
ATOM     33  C   UNL A   1      36.454  33.236  30.847  1.00  0.00    -0.014 A 
BRANCH  33  34
ATOM     34  C   UNL A   1      37.628  32.629  31.530  1.00  0.00     0.031 A 
ATOM     35  C   UNL A   1      38.355  31.473  30.894  1.00  0.00     0.074 A 
ATOM     36  C   UNL A   1      38.002  33.075  32.747  1.00  0.00     0.049 A 
ATOM     37  N   UNL A   1      39.327  30.739  31.375  1.00  0.00    -0.248 NA
ATOM     38  C   UNL A   1      37.913  31.075  29.549  1.00  0.00     0.031 C 
ATOM     39  C   UNL A   1      37.363  34.171  33.479  1.00  0.00     0.029 A 
ATOM     40  N   UNL A   1      39.003  32.658  33.589  1.00  0.00    -0.354 N 
ATOM     41  C   UNL A   1      39.605  29.789  30.398  1.00  0.00     0.074 A 
ATOM     42  C   UNL A   1      38.658  30.002  29.324  1.00  0.00     0.031 C 
ATOM     43  C   UNL A   1      38.001  34.353  34.646  1.00  0.00     0.029 A 
ATOM     44  C   UNL A   1      39.057  33.355  34.775  1.00  0.00     0.049 A 
ATOM     45  H   UNL A   1      39.624  31.927  33.366  1.00  0.00     0.167 HD
ATOM     46  C   UNL A   1      40.577  28.843  30.385  1.00  0.00     0.034 A 
ATOM     47  C   UNL A   1      39.855  33.196  35.851  1.00  0.00     0.034 A 
ATOM     48  C   UNL A   1      41.524  28.648  31.456  1.00  0.00     0.049 A 
ATOM     49  C   UNL A   1      40.898  32.105  35.830  1.00  0.00     0.074 A 
ATOM     50  C   UNL A   1      42.565  27.739  31.530  1.00  0.00     0.029 A 
ATOM     51  N   UNL A   1      41.546  29.373  32.640  1.00  0.00    -0.354 N 
ATOM     52  N   UNL A   1      41.166  31.236  34.883  1.00  0.00    -0.248 NA
ATOM     53  C   UNL A   1      41.753  31.981  37.018  1.00  0.00     0.031 C 
ATOM     54  C   UNL A   1      43.177  27.873  32.782  1.00  0.00     0.029 A 
ATOM     55  C   UNL A   1      42.568  28.917  33.458  1.00  0.00     0.049 A 
ATOM     56  H   UNL A   1      40.927  30.104  32.866  1.00  0.00     0.167 HD
ATOM     57  C   UNL A   1      42.247  30.490  35.348  1.00  0.00     0.074 A 
ATOM     58  C   UNL A   1      42.589  31.022  36.650  1.00  0.00     0.031 C 
ATOM     59  C   UNL A   1      42.901  29.461  34.752  1.00  0.00     0.034 A 
BRANCH  46  60
ATOM     60  C   UNL A   1      40.655  27.939  29.178  1.00  0.00     0.023 A 
ATOM     61  C   UNL A   1      41.585  28.168  28.148  1.00  0.00     0.031 A 
ATOM     62  C   UNL A   1      39.789  26.839  29.051  1.00  0.00     0.131 A 
ATOM     63  C   UNL A   1      41.585  27.348  27.010  1.00  0.00     0.055 A 
ATOM     64  C   UNL A   1      39.848  25.980  27.951  1.00  0.00     0.041 A 
ATOM     65  F   UNL A   1      38.867  26.583  29.991  1.00  0.00    -0.206 F 
ATOM     66  C   UNL A   1      40.742  26.239  26.916  1.00  0.00     0.022 A 
BRANCH  63  67
ATOM     67  S   UNL A   1      42.622  27.823  25.600  1.00  0.00     0.124 S 
ATOM     68  O   UNL A   1      41.895  28.979  25.077  1.00  0.00    -0.237 OA
ATOM     69  O   UNL A   1      43.905  28.108  26.230  1.00  0.00    -0.237 OA
ATOM     70  O   UNL A   1      42.596  26.641  24.741  1.00  0.00    -0.744 OA
ENDBRANCH  63  67
ENDBRANCH  46  60
BRANCH  47  71
ATOM     71  C   UNL A   1      39.704  34.070  37.053  1.00  0.00     0.023 A 
ATOM     72  C   UNL A   1      39.114  33.582  38.229  1.00  0.00     0.031 A 
ATOM     73  C   UNL A   1      40.074  35.427  37.017  1.00  0.00     0.131 A 
ATOM     74  C   UNL A   1      38.847  34.455  39.294  1.00  0.00     0.055 A 
ATOM     75  C   UNL A   1      39.866  36.277  38.105  1.00  0.00     0.041 A 
ATOM     76  F   UNL A   1      40.645  35.948  35.919  1.00  0.00    -0.206 F 
ATOM     77  C   UNL A   1      39.232  35.796  39.246  1.00  0.00     0.022 A 
BRANCH  74  78
ATOM     78  S   UNL A   1      37.876  33.838  40.698  1.00  0.00     0.124 S 
ATOM     79  O   UNL A   1      36.754  33.196  40.020  1.00  0.00    -0.237 OA
ATOM     80  O   UNL A   1      38.827  32.946  41.353  1.00  0.00    -0.237 OA
ATOM     81  O   UNL A   1      37.546  35.052  41.441  1.00  0.00    -0.744 OA
ENDBRANCH  74  78
ENDBRANCH  47  71
BRANCH  59  82
ATOM     82  C   UNL A   1      44.093  28.891  35.481  1.00  0.00     0.023 A 
ATOM     83  C   UNL A   1      43.969  27.830  36.393  1.00  0.00     0.031 A 
ATOM     84  C   UNL A   1      45.374  29.430  35.262  1.00  0.00     0.131 A 
ATOM     85  C   UNL A   1      45.097  27.378  37.096  1.00  0.00     0.055 A 
ATOM     86  C   UNL A   1      46.501  28.935  35.918  1.00  0.00     0.041 A 
ATOM     87  F   UNL A   1      45.550  30.446  34.403  1.00  0.00    -0.206 F 
ATOM     88  C   UNL A   1      46.364  27.912  36.852  1.00  0.00     0.022 A 
BRANCH  85  89
ATOM     89  S   UNL A   1      44.872  26.139  38.402  1.00  0.00     0.124 S 
ATOM     90  O   UNL A   1      44.805  24.898  37.634  1.00  0.00    -0.237 OA
ATOM     91  O   UNL A   1      46.069  26.320  39.216  1.00  0.00    -0.237 OA
ATOM     92  O   UNL A   1      43.622  26.539  39.044  1.00  0.00    -0.744 OA
ENDBRANCH  85  89
ENDBRANCH  59  82
ENDBRANCH  33  34
ENDBRANCH  25  28
ENDBRANCH  23  24
ENDBRANCH  22  23
ENDBRANCH   1  22
TORSDOF 17
ENDMDL
MODEL 2
REMARK VINA RESULT:     -11.3      2.610      8.357
REMARK SMILES CC(C)(C[NH+]1CCC(C(N)=S)CC1)C(=O)NCCCNC(=O)c1ccc(-c2c3nc(c(-c4cc(S(=O)(=O)[O-])ccc4F)c4ccc([nH]4)c(-c4cc(S(=O)(=O)[O-])ccc4F)c4nc(c(-c5cc(S(=O)(=O)[O-])ccc5F)c5ccc2[nH]5)C=C4)C=C3)cc1
REMARK SMILES IDX 17 1 16 2 14 3 15 4 2 6 1 7 3 8 4 9 5 10 6 11 13 12 7 14
REMARK SMILES IDX 12 15 8 16 9 17 11 18 10 19 18 22 19 23 20 24 21 25 22 27
REMARK SMILES IDX 23 28 24 29 85 30 25 31 84 32 26 33 27 34 28 35 78 36 29 37
REMARK SMILES IDX 83 38 77 39 79 40 30 41 82 42 76 43 75 44 31 46 63 47 43 48
REMARK SMILES IDX 62 49 44 50 47 51 61 52 80 53 45 54 46 55 60 57 81 58 48 59
REMARK SMILES IDX 32 60 33 61 41 62 34 63 40 64 42 65 39 66 35 67 36 68 37 69
REMARK SMILES IDX 38 70 64 71 65 72 73 73 66 74 72 75 74 76 71 77 67 78 68 79
REMARK SMILES IDX 69 80 70 81 49 82 50 83 58 84 51 85 57 86 59 87 56 88 52 89
REMARK SMILES IDX 53 90 54 91 55 92
REMARK H PARENT 16 5 5 13 10 20 10 21 20 26 79 45 47 56
REMARK Flexibility Score: inf
ROOT
ATOM      1  C   UNL A   1      32.361  27.702  26.873  1.00  0.00     0.117 C 
ENDROOT
BRANCH   1   2
ATOM      2  N   UNL A   1      31.276  26.736  26.872  1.00  0.00    -0.355 N 
ATOM      3  C   UNL A   1      30.627  26.056  25.891  1.00  0.00     0.231 C 
ATOM      4  O   UNL A   1      29.815  25.211  26.289  1.00  0.00    -0.274 OA
ATOM      5  H   UNL A   1      30.939  26.531  27.773  1.00  0.00     0.163 HD
BRANCH   3   6
ATOM      6  C   UNL A   1      30.857  26.287  24.384  1.00  0.00     0.092 C 
ATOM      7  C   UNL A   1      30.282  27.674  24.009  1.00  0.00     0.027 C 
ATOM      8  C   UNL A   1      30.003  25.278  23.581  1.00  0.00     0.027 C 
BRANCH   6   9
ATOM      9  C   UNL A   1      32.360  26.181  23.965  1.00  0.00     0.278 C 
BRANCH   9  10
ATOM     10  N   UNL A   1      33.212  25.025  24.313  1.00  0.00    -0.334 N 
ATOM     11  C   UNL A   1      33.475  24.110  23.200  1.00  0.00     0.262 C 
ATOM     12  C   UNL A   1      34.388  25.352  25.120  1.00  0.00     0.262 C 
ATOM     13  H   UNL A   1      32.628  24.480  24.948  1.00  0.00     0.348 HD
ATOM     14  C   UNL A   1      34.260  22.864  23.624  1.00  0.00     0.072 C 
ATOM     15  C   UNL A   1      35.152  24.108  25.578  1.00  0.00     0.072 C 
ATOM     16  C   UNL A   1      35.538  23.272  24.358  1.00  0.00     0.058 C 
BRANCH  16  17
ATOM     17  C   UNL A   1      36.458  22.113  24.711  1.00  0.00     0.076 C 
ATOM     18  S   UNL A   1      35.976  20.544  25.002  1.00  0.00    -0.066 S 
BRANCH  17  19
ATOM     19  N   UNL A   1      37.784  22.430  24.811  1.00  0.00    -0.393 N 
ATOM     20  H   UNL A   1      38.252  22.320  25.670  1.00  0.00     0.157 HD
ATOM     21  H   UNL A   1      38.271  22.769  24.025  1.00  0.00     0.157 HD
ENDBRANCH  17  19
ENDBRANCH  16  17
ENDBRANCH   9  10
ENDBRANCH   6   9
ENDBRANCH   3   6
ENDBRANCH   1   2
BRANCH   1  22
ATOM     22  C   UNL A   1      31.896  29.151  26.784  1.00  0.00     0.042 C 
BRANCH  22  23
ATOM     23  C   UNL A   1      32.827  30.076  26.013  1.00  0.00     0.118 C 
BRANCH  23  24
ATOM     24  N   UNL A   1      32.736  31.458  26.458  1.00  0.00    -0.352 N 
ATOM     25  C   UNL A   1      33.460  32.140  27.408  1.00  0.00     0.251 C 
ATOM     26  H   UNL A   1      32.044  31.992  26.006  1.00  0.00     0.163 HD
ATOM     27  O   UNL A   1      33.060  33.238  27.784  1.00  0.00    -0.269 OA
BRANCH  25  28
ATOM     28  C   UNL A   1      34.690  31.558  27.991  1.00  0.00     0.039 A 
ATOM     29  C   UNL A   1      35.819  32.370  28.139  1.00  0.00     0.014 A 
ATOM     30  C   UNL A   1      34.755  30.212  28.359  1.00  0.00     0.014 A 
ATOM     31  C   UNL A   1      36.982  31.853  28.718  1.00  0.00     0.010 A 
ATOM     32  C   UNL A   1      35.885  29.719  29.010  1.00  0.00     0.010 A 
ATOM     33  C   UNL A   1      37.013  30.533  29.196  1.00  0.00    -0.014 A 
BRANCH  33  34
ATOM     34  C   UNL A   1      38.214  29.979  29.879  1.00  0.00     0.031 A 
ATOM     35  C   UNL A   1      38.594  30.472  31.250  1.00  0.00     0.074 A 
ATOM     36  C   UNL A   1      38.994  29.082  29.243  1.00  0.00     0.049 A 
ATOM     37  N   UNL A   1      39.656  30.198  31.965  1.00  0.00    -0.248 NA
ATOM     38  C   UNL A   1      37.668  31.417  31.892  1.00  0.00     0.031 C 
ATOM     39  C   UNL A   1      38.747  28.546  27.902  1.00  0.00     0.029 A 
ATOM     40  N   UNL A   1      40.159  28.468  29.631  1.00  0.00    -0.354 N 
ATOM     41  C   UNL A   1      39.531  30.941  33.134  1.00  0.00     0.074 A 
ATOM     42  C   UNL A   1      38.321  31.725  33.003  1.00  0.00     0.031 C 
ATOM     43  C   UNL A   1      39.715  27.668  27.592  1.00  0.00     0.029 A 
ATOM     44  C   UNL A   1      40.682  27.619  28.682  1.00  0.00     0.049 A 
ATOM     45  H   UNL A   1      40.582  28.622  30.507  1.00  0.00     0.167 HD
ATOM     46  C   UNL A   1      40.337  30.951  34.225  1.00  0.00     0.034 A 
ATOM     47  C   UNL A   1      41.822  26.896  28.684  1.00  0.00     0.034 A 
ATOM     48  C   UNL A   1      41.534  30.157  34.348  1.00  0.00     0.049 A 
ATOM     49  C   UNL A   1      42.724  26.962  29.892  1.00  0.00     0.074 A 
ATOM     50  C   UNL A   1      42.405  30.071  35.421  1.00  0.00     0.029 A 
ATOM     51  N   UNL A   1      42.031  29.309  33.366  1.00  0.00    -0.354 N 
ATOM     52  N   UNL A   1      42.573  27.649  31.001  1.00  0.00    -0.248 NA
ATOM     53  C   UNL A   1      43.946  26.146  29.854  1.00  0.00     0.031 C 
ATOM     54  C   UNL A   1      43.458  29.221  35.065  1.00  0.00     0.029 A 
ATOM     55  C   UNL A   1      43.206  28.716  33.800  1.00  0.00     0.049 A 
ATOM     56  H   UNL A   1      41.611  29.154  32.489  1.00  0.00     0.167 HD
ATOM     57  C   UNL A   1      43.660  27.314  31.805  1.00  0.00     0.074 A 
ATOM     58  C   UNL A   1      44.448  26.355  31.061  1.00  0.00     0.031 C 
ATOM     59  C   UNL A   1      43.979  27.756  33.049  1.00  0.00     0.034 A 
BRANCH  46  60
ATOM     60  C   UNL A   1      39.953  31.862  35.367  1.00  0.00     0.023 A 
ATOM     61  C   UNL A   1      39.092  31.431  36.392  1.00  0.00     0.031 A 
ATOM     62  C   UNL A   1      40.449  33.175  35.432  1.00  0.00     0.131 A 
ATOM     63  C   UNL A   1      38.704  32.324  37.402  1.00  0.00     0.055 A 
ATOM     64  C   UNL A   1      40.121  34.034  36.483  1.00  0.00     0.041 A 
ATOM     65  F   UNL A   1      41.258  33.650  34.472  1.00  0.00    -0.206 F 
ATOM     66  C   UNL A   1      39.233  33.615  37.470  1.00  0.00     0.022 A 
BRANCH  63  67
ATOM     67  S   UNL A   1      37.403  31.813  38.557  1.00  0.00     0.124 S 
ATOM     68  O   UNL A   1      37.141  30.444  38.117  1.00  0.00    -0.237 OA
ATOM     69  O   UNL A   1      38.056  31.953  39.853  1.00  0.00    -0.237 OA
ATOM     70  O   UNL A   1      36.321  32.761  38.298  1.00  0.00    -0.744 OA
ENDBRANCH  63  67
ENDBRANCH  46  60
BRANCH  47  71
ATOM     71  C   UNL A   1      42.198  26.057  27.508  1.00  0.00     0.023 A 
ATOM     72  C   UNL A   1      41.777  24.722  27.411  1.00  0.00     0.031 A 
ATOM     73  C   UNL A   1      43.049  26.551  26.502  1.00  0.00     0.131 A 
ATOM     74  C   UNL A   1      42.260  23.906  26.377  1.00  0.00     0.055 A 
ATOM     75  C   UNL A   1      43.475  25.755  25.438  1.00  0.00     0.041 A 
ATOM     76  F   UNL A   1      43.481  27.822  26.542  1.00  0.00    -0.206 F 
ATOM     77  C   UNL A   1      43.094  24.417  25.381  1.00  0.00     0.022 A 
BRANCH  74  78
ATOM     78  S   UNL A   1      41.878  22.132  26.421  1.00  0.00     0.124 S 
ATOM     79  O   UNL A   1      42.257  21.784  27.786  1.00  0.00    -0.237 OA
ATOM     80  O   UNL A   1      40.448  22.124  26.129  1.00  0.00    -0.237 OA
ATOM     81  O   UNL A   1      42.731  21.576  25.373  1.00  0.00    -0.744 OA
ENDBRANCH  74  78
ENDBRANCH  47  71
BRANCH  59  82
ATOM     82  C   UNL A   1      45.197  27.152  33.702  1.00  0.00     0.023 A 
ATOM     83  C   UNL A   1      45.128  25.968  34.455  1.00  0.00     0.031 A 
ATOM     84  C   UNL A   1      46.448  27.784  33.575  1.00  0.00     0.131 A 
ATOM     85  C   UNL A   1      46.276  25.482  35.099  1.00  0.00     0.055 A 
ATOM     86  C   UNL A   1      47.598  27.262  34.167  1.00  0.00     0.041 A 
ATOM     87  F   UNL A   1      46.572  28.919  32.869  1.00  0.00    -0.206 F 
ATOM     88  C   UNL A   1      47.513  26.111  34.945  1.00  0.00     0.022 A 
BRANCH  85  89
ATOM     89  S   UNL A   1      46.114  24.060  36.214  1.00  0.00     0.124 S 
ATOM     90  O   UNL A   1      47.045  23.104  35.623  1.00  0.00    -0.237 OA
ATOM     91  O   UNL A   1      46.511  24.624  37.500  1.00  0.00    -0.237 OA
ATOM     92  O   UNL A   1      44.702  23.699  36.107  1.00  0.00    -0.744 OA
ENDBRANCH  85  89
ENDBRANCH  59  82
ENDBRANCH  33  34
ENDBRANCH  25  28
ENDBRANCH  23  24
ENDBRANCH  22  23
ENDBRANCH   1  22
TORSDOF 17
ENDMDL
MODEL 3
REMARK VINA RESULT:     -11.2      5.717     10.787
REMARK SMILES CC(C)(C[NH+]1CCC(C(N)=S)CC1)C(=O)NCCCNC(=O)c1ccc(-c2c3nc(c(-c4cc(S(=O)(=O)[O-])ccc4F)c4ccc([nH]4)c(-c4cc(S(=O)(=O)[O-])ccc4F)c4nc(c(-c5cc(S(=O)(=O)[O-])ccc5F)c5ccc2[nH]5)C=C4)C=C3)cc1
REMARK SMILES IDX 17 1 16 2 14 3 15 4 2 6 1 7 3 8 4 9 5 10 6 11 13 12 7 14
REMARK SMILES IDX 12 15 8 16 9 17 11 18 10 19 18 22 19 23 20 24 21 25 22 27
REMARK SMILES IDX 23 28 24 29 85 30 25 31 84 32 26 33 27 34 28 35 78 36 29 37
REMARK SMILES IDX 83 38 77 39 79 40 30 41 82 42 76 43 75 44 31 46 63 47 43 48
REMARK SMILES IDX 62 49 44 50 47 51 61 52 80 53 45 54 46 55 60 57 81 58 48 59
REMARK SMILES IDX 32 60 33 61 41 62 34 63 40 64 42 65 39 66 35 67 36 68 37 69
REMARK SMILES IDX 38 70 64 71 65 72 73 73 66 74 72 75 74 76 71 77 67 78 68 79
REMARK SMILES IDX 69 80 70 81 49 82 50 83 58 84 51 85 57 86 59 87 56 88 52 89
REMARK SMILES IDX 53 90 54 91 55 92
REMARK H PARENT 16 5 5 13 10 20 10 21 20 26 79 45 47 56
REMARK Flexibility Score: inf
ROOT
ATOM      1  C   UNL A   1      34.289  22.694  23.558  1.00  0.00     0.117 C 
ENDROOT
BRANCH   1   2
ATOM      2  N   UNL A   1      33.461  21.668  24.169  1.00  0.00    -0.355 N 
ATOM      3  C   UNL A   1      32.305  21.697  24.881  1.00  0.00     0.231 C 
ATOM      4  O   UNL A   1      31.823  20.587  25.143  1.00  0.00    -0.274 OA
ATOM      5  H   UNL A   1      33.814  20.758  24.040  1.00  0.00     0.163 HD
BRANCH   3   6
ATOM      6  C   UNL A   1      31.610  22.992  25.347  1.00  0.00     0.092 C 
ATOM      7  C   UNL A   1      30.372  22.607  26.192  1.00  0.00     0.027 C 
ATOM      8  C   UNL A   1      31.031  23.727  24.115  1.00  0.00     0.027 C 
BRANCH   6   9
ATOM      9  C   UNL A   1      32.554  23.944  26.153  1.00  0.00     0.278 C 
BRANCH   9  10
ATOM     10  N   UNL A   1      32.557  25.411  25.976  1.00  0.00    -0.334 N 
ATOM     11  C   UNL A   1      31.632  26.130  26.855  1.00  0.00     0.262 C 
ATOM     12  C   UNL A   1      33.888  26.013  25.876  1.00  0.00     0.262 C 
ATOM     13  H   UNL A   1      32.164  25.541  25.044  1.00  0.00     0.348 HD
ATOM     14  C   UNL A   1      31.575  27.633  26.562  1.00  0.00     0.072 C 
ATOM     15  C   UNL A   1      33.835  27.506  25.544  1.00  0.00     0.072 C 
ATOM     16  C   UNL A   1      32.983  28.227  26.589  1.00  0.00     0.058 C 
BRANCH  16  17
ATOM     17  C   UNL A   1      33.031  29.740  26.438  1.00  0.00     0.076 C 
ATOM     18  S   UNL A   1      31.722  30.727  26.133  1.00  0.00    -0.066 S 
BRANCH  17  19
ATOM     19  N   UNL A   1      34.274  30.299  26.545  1.00  0.00    -0.393 N 
ATOM     20  H   UNL A   1      34.964  30.095  25.873  1.00  0.00     0.157 HD
ATOM     21  H   UNL A   1      34.480  30.905  27.293  1.00  0.00     0.157 HD
ENDBRANCH  17  19
ENDBRANCH  16  17
ENDBRANCH   9  10
ENDBRANCH   6   9
ENDBRANCH   3   6
ENDBRANCH   1   2
BRANCH   1  22
ATOM     22  C   UNL A   1      35.778  22.530  23.836  1.00  0.00     0.042 C 
BRANCH  22  23
ATOM     23  C   UNL A   1      36.127  22.197  25.281  1.00  0.00     0.118 C 
BRANCH  23  24
ATOM     24  N   UNL A   1      37.036  21.066  25.390  1.00  0.00    -0.352 N 
ATOM     25  C   UNL A   1      38.375  21.023  25.696  1.00  0.00     0.251 C 
ATOM     26  H   UNL A   1      36.624  20.188  25.216  1.00  0.00     0.163 HD
ATOM     27  O   UNL A   1      38.995  19.981  25.506  1.00  0.00    -0.269 OA
BRANCH  25  28
ATOM     28  C   UNL A   1      39.074  22.217  26.226  1.00  0.00     0.039 A 
ATOM     29  C   UNL A   1      40.140  22.039  27.113  1.00  0.00     0.014 A 
ATOM     30  C   UNL A   1      38.665  23.509  25.887  1.00  0.00     0.014 A 
ATOM     31  C   UNL A   1      40.837  23.149  27.601  1.00  0.00     0.010 A 
ATOM     32  C   UNL A   1      39.411  24.610  26.308  1.00  0.00     0.010 A 
ATOM     33  C   UNL A   1      40.504  24.443  27.171  1.00  0.00    -0.014 A 
BRANCH  33  34
ATOM     34  C   UNL A   1      41.275  25.635  27.620  1.00  0.00     0.031 A 
ATOM     35  C   UNL A   1      40.600  26.703  28.441  1.00  0.00     0.074 A 
ATOM     36  C   UNL A   1      42.560  25.786  27.240  1.00  0.00     0.049 A 
ATOM     37  N   UNL A   1      41.064  27.861  28.836  1.00  0.00    -0.248 NA
ATOM     38  C   UNL A   1      39.211  26.442  28.850  1.00  0.00     0.031 C 
ATOM     39  C   UNL A   1      43.318  24.835  26.424  1.00  0.00     0.029 A 
ATOM     40  N   UNL A   1      43.455  26.799  27.478  1.00  0.00    -0.354 N 
ATOM     41  C   UNL A   1      40.024  28.471  29.531  1.00  0.00     0.074 A 
ATOM     42  C   UNL A   1      38.887  27.579  29.448  1.00  0.00     0.031 C 
ATOM     43  C   UNL A   1      44.566  25.298  26.251  1.00  0.00     0.029 A 
ATOM     44  C   UNL A   1      44.685  26.602  26.893  1.00  0.00     0.049 A 
ATOM     45  H   UNL A   1      43.237  27.594  28.018  1.00  0.00     0.167 HD
ATOM     46  C   UNL A   1      40.024  29.652  30.197  1.00  0.00     0.034 A 
ATOM     47  C   UNL A   1      45.779  27.392  26.861  1.00  0.00     0.034 A 
ATOM     48  C   UNL A   1      41.168  30.527  30.281  1.00  0.00     0.049 A 
ATOM     49  C   UNL A   1      45.737  28.723  27.571  1.00  0.00     0.074 A 
ATOM     50  C   UNL A   1      41.283  31.732  30.955  1.00  0.00     0.029 A 
ATOM     51  N   UNL A   1      42.396  30.294  29.675  1.00  0.00    -0.354 N 
ATOM     52  N   UNL A   1      44.753  29.268  28.249  1.00  0.00    -0.248 NA
ATOM     53  C   UNL A   1      46.956  29.540  27.522  1.00  0.00     0.031 C 
ATOM     54  C   UNL A   1      42.557  32.254  30.705  1.00  0.00     0.029 A 
ATOM     55  C   UNL A   1      43.264  31.341  29.940  1.00  0.00     0.049 A 
ATOM     56  H   UNL A   1      42.616  29.501  29.135  1.00  0.00     0.167 HD
ATOM     57  C   UNL A   1      45.252  30.473  28.739  1.00  0.00     0.074 A 
ATOM     58  C   UNL A   1      46.626  30.566  28.292  1.00  0.00     0.031 C 
ATOM     59  C   UNL A   1      44.634  31.417  29.493  1.00  0.00     0.034 A 
BRANCH  46  60
ATOM     60  C   UNL A   1      38.742  30.071  30.876  1.00  0.00     0.023 A 
ATOM     61  C   UNL A   1      37.779  30.849  30.209  1.00  0.00     0.031 A 
ATOM     62  C   UNL A   1      38.480  29.693  32.204  1.00  0.00     0.131 A 
ATOM     63  C   UNL A   1      36.630  31.276  30.891  1.00  0.00     0.055 A 
ATOM     64  C   UNL A   1      37.296  30.056  32.851  1.00  0.00     0.041 A 
ATOM     65  F   UNL A   1      39.370  28.968  32.898  1.00  0.00    -0.206 F 
ATOM     66  C   UNL A   1      36.368  30.863  32.199  1.00  0.00     0.022 A 
BRANCH  63  67
ATOM     67  S   UNL A   1      35.540  32.480  30.084  1.00  0.00     0.124 S 
ATOM     68  O   UNL A   1      34.428  32.550  31.030  1.00  0.00    -0.237 OA
ATOM     69  O   UNL A   1      36.383  33.666  30.001  1.00  0.00    -0.237 OA
ATOM     70  O   UNL A   1      35.221  31.850  28.804  1.00  0.00    -0.744 OA
ENDBRANCH  63  67
ENDBRANCH  46  60
BRANCH  47  71
ATOM     71  C   UNL A   1      47.007  26.969  26.125  1.00  0.00     0.023 A 
ATOM     72  C   UNL A   1      48.039  26.280  26.781  1.00  0.00     0.031 A 
ATOM     73  C   UNL A   1      47.204  27.317  24.776  1.00  0.00     0.131 A 
ATOM     74  C   UNL A   1      49.246  26.022  26.113  1.00  0.00     0.055 A 
ATOM     75  C   UNL A   1      48.381  27.000  24.096  1.00  0.00     0.041 A 
ATOM     76  F   UNL A   1      46.249  27.974  24.098  1.00  0.00    -0.206 F 
ATOM     77  C   UNL A   1      49.418  26.364  24.770  1.00  0.00     0.022 A 
BRANCH  74  78
ATOM     78  S   UNL A   1      50.634  25.341  27.063  1.00  0.00     0.124 S 
ATOM     79  O   UNL A   1      51.091  26.514  27.799  1.00  0.00    -0.237 OA
ATOM     80  O   UNL A   1      49.979  24.302  27.851  1.00  0.00    -0.237 OA
ATOM     81  O   UNL A   1      51.546  24.856  26.030  1.00  0.00    -0.744 OA
ENDBRANCH  74  78
ENDBRANCH  47  71
BRANCH  59  82
ATOM     82  C   UNL A   1      45.464  32.598  29.933  1.00  0.00     0.023 A 
ATOM     83  C   UNL A   1      45.596  33.750  29.141  1.00  0.00     0.031 A 
ATOM     84  C   UNL A   1      46.142  32.560  31.165  1.00  0.00     0.131 A 
ATOM     85  C   UNL A   1      46.433  34.795  29.563  1.00  0.00     0.055 A 
ATOM     86  C   UNL A   1      46.923  33.627  31.607  1.00  0.00     0.041 A 
ATOM     87  F   UNL A   1      46.053  31.482  31.962  1.00  0.00    -0.206 F 
ATOM     88  C   UNL A   1      47.083  34.748  30.798  1.00  0.00     0.022 A 
BRANCH  85  89
ATOM     89  S   UNL A   1      46.732  36.183  28.434  1.00  0.00     0.124 S 
ATOM     90  O   UNL A   1      45.467  36.261  27.708  1.00  0.00    -0.237 OA
ATOM     91  O   UNL A   1      47.007  37.282  29.354  1.00  0.00    -0.237 OA
ATOM     92  O   UNL A   1      47.875  35.741  27.640  1.00  0.00    -0.744 OA
ENDBRANCH  85  89
ENDBRANCH  59  82
ENDBRANCH  33  34
ENDBRANCH  25  28
ENDBRANCH  23  24
ENDBRANCH  22  23
ENDBRANCH   1  22
TORSDOF 17
ENDMDL
