MODEL 1
REMARK VINA RESULT:     -12.0      0.000      0.000
REMARK SMILES N#Cc1ccccc1S(=O)(=O)N1CCC(C(=O)NCCCNC(=O)c2ccc(-c3c4nc(c(-c5cc(S(=O)(=O)[O-])ccc5F)c5ccc([nH]5)c(-c5cc(S(=O)(=O)[O-])ccc5F)c5nc(c(-c6cc(S(=O)(=O)[O-])ccc6F)c6ccc3[nH]6)C=C5)C=C4)cc2)CC1
REMARK SMILES IDX 20 1 19 2 18 3 16 4 17 5 15 7 12 8 13 9 89 10 14 11 88 12
REMARK SMILES IDX 9 13 10 14 11 15 8 16 3 17 4 18 5 19 7 20 6 21 2 22 1 23
REMARK SMILES IDX 21 24 22 25 23 26 24 28 25 29 26 30 87 31 27 32 86 33 28 34
REMARK SMILES IDX 29 35 30 36 80 37 31 38 85 39 79 40 81 41 32 42 84 43 78 44
REMARK SMILES IDX 77 45 33 47 65 48 45 49 64 50 46 51 49 52 63 53 82 54 47 55
REMARK SMILES IDX 48 56 62 58 83 59 50 60 34 61 35 62 43 63 36 64 42 65 44 66
REMARK SMILES IDX 41 67 37 68 38 69 39 70 40 71 66 72 67 73 75 74 68 75 74 76
REMARK SMILES IDX 76 77 73 78 69 79 70 80 71 81 72 82 51 83 52 84 60 85 53 86
REMARK SMILES IDX 59 87 61 88 58 89 54 90 55 91 56 92 57 93
REMARK H PARENT 18 6 22 27 81 46 49 57
REMARK Flexibility Score: inf
ROOT
ATOM      1  C   UNL A   1      32.932  29.210  24.775  1.00  0.00     0.042 C 
ENDROOT
BRANCH   1   2
ATOM      2  C   UNL A   1      31.437  28.963  24.879  1.00  0.00     0.117 C 
BRANCH   2   3
ATOM      3  N   UNL A   1      30.712  29.496  23.733  1.00  0.00    -0.356 N 
ATOM      4  C   UNL A   1      30.442  28.949  22.517  1.00  0.00     0.223 C 
ATOM      5  O   UNL A   1      29.831  29.633  21.695  1.00  0.00    -0.275 OA
ATOM      6  H   UNL A   1      30.358  30.406  23.860  1.00  0.00     0.163 HD
BRANCH   4   7
ATOM      7  C   UNL A   1      30.859  27.524  22.192  1.00  0.00     0.081 C 
ATOM      8  N   UNL A   1      32.363  25.109  22.820  1.00  0.00    -0.198 NA
ATOM      9  C   UNL A   1      32.978  26.081  21.903  1.00  0.00     0.103 C 
ATOM     10  C   UNL A   1      30.951  25.185  23.225  1.00  0.00     0.103 C 
ATOM     11  C   UNL A   1      32.346  27.453  21.877  1.00  0.00     0.030 C 
ATOM     12  C   UNL A   1      30.369  26.576  23.276  1.00  0.00     0.030 C 
BRANCH   8  13
ATOM     13  S   UNL A   1      33.079  23.575  22.864  1.00  0.00     0.244 S 
ATOM     14  O   UNL A   1      33.527  23.279  21.518  1.00  0.00    -0.207 OA
ATOM     15  O   UNL A   1      32.174  22.684  23.560  1.00  0.00    -0.207 OA
BRANCH  13  16
ATOM     16  C   UNL A   1      34.570  23.592  23.850  1.00  0.00     0.100 A 
ATOM     17  C   UNL A   1      34.827  24.304  25.023  1.00  0.00     0.072 A 
ATOM     18  C   UNL A   1      36.102  24.207  25.619  1.00  0.00     0.021 A 
ATOM     19  C   UNL A   1      37.099  23.404  25.077  1.00  0.00     0.001 A 
ATOM     20  C   UNL A   1      35.588  22.772  23.316  1.00  0.00     0.023 A 
ATOM     21  C   UNL A   1      36.839  22.677  23.927  1.00  0.00     0.001 A 
BRANCH  17  22
ATOM     22  C   UNL A   1      33.926  25.147  25.741  1.00  0.00     0.101 C 
ATOM     23  N   UNL A   1      33.122  25.815  26.233  1.00  0.00    -0.192 NA
ENDBRANCH  17  22
ENDBRANCH  13  16
ENDBRANCH   8  13
ENDBRANCH   4   7
ENDBRANCH   2   3
ENDBRANCH   1   2
BRANCH   1  24
ATOM     24  C   UNL A   1      33.580  29.508  26.112  1.00  0.00     0.118 C 
BRANCH  24  25
ATOM     25  N   UNL A   1      33.379  30.890  26.516  1.00  0.00    -0.352 N 
ATOM     26  C   UNL A   1      34.004  31.614  27.499  1.00  0.00     0.251 C 
ATOM     27  H   UNL A   1      32.692  31.380  26.008  1.00  0.00     0.163 HD
ATOM     28  O   UNL A   1      33.507  32.672  27.874  1.00  0.00    -0.269 OA
BRANCH  26  29
ATOM     29  C   UNL A   1      35.254  31.109  28.103  1.00  0.00     0.039 A 
ATOM     30  C   UNL A   1      36.399  31.903  28.056  1.00  0.00     0.014 A 
ATOM     31  C   UNL A   1      35.305  29.843  28.695  1.00  0.00     0.014 A 
ATOM     32  C   UNL A   1      37.582  31.440  28.632  1.00  0.00     0.010 A 
ATOM     33  C   UNL A   1      36.445  29.438  29.376  1.00  0.00     0.010 A 
ATOM     34  C   UNL A   1      37.609  30.213  29.318  1.00  0.00    -0.014 A 
BRANCH  34  35
ATOM     35  C   UNL A   1      38.863  29.700  29.921  1.00  0.00     0.031 A 
ATOM     36  C   UNL A   1      39.299  30.194  31.277  1.00  0.00     0.074 A 
ATOM     37  C   UNL A   1      39.615  28.812  29.243  1.00  0.00     0.049 A 
ATOM     38  N   UNL A   1      40.364  29.881  31.970  1.00  0.00    -0.248 NA
ATOM     39  C   UNL A   1      38.442  31.200  31.924  1.00  0.00     0.031 C 
ATOM     40  C   UNL A   1      39.315  28.299  27.904  1.00  0.00     0.029 A 
ATOM     41  N   UNL A   1      40.779  28.174  29.588  1.00  0.00    -0.354 N 
ATOM     42  C   UNL A   1      40.306  30.656  33.124  1.00  0.00     0.074 A 
ATOM     43  C   UNL A   1      39.150  31.514  32.997  1.00  0.00     0.031 C 
ATOM     44  C   UNL A   1      40.244  27.391  27.562  1.00  0.00     0.029 A 
ATOM     45  C   UNL A   1      41.231  27.292  28.634  1.00  0.00     0.049 A 
ATOM     46  H   UNL A   1      41.248  28.333  30.439  1.00  0.00     0.167 HD
ATOM     47  C   UNL A   1      41.122  30.629  34.207  1.00  0.00     0.034 A 
ATOM     48  C   UNL A   1      42.317  26.497  28.623  1.00  0.00     0.034 A 
ATOM     49  C   UNL A   1      42.265  29.757  34.318  1.00  0.00     0.049 A 
ATOM     50  C   UNL A   1      43.220  26.497  29.832  1.00  0.00     0.074 A 
ATOM     51  C   UNL A   1      43.142  29.614  35.379  1.00  0.00     0.029 A 
ATOM     52  N   UNL A   1      42.694  28.879  33.329  1.00  0.00    -0.354 N 
ATOM     53  N   UNL A   1      43.125  27.200  30.938  1.00  0.00    -0.248 NA
ATOM     54  C   UNL A   1      44.365  25.580  29.797  1.00  0.00     0.031 C 
ATOM     55  C   UNL A   1      44.142  28.712  35.002  1.00  0.00     0.029 A 
ATOM     56  C   UNL A   1      43.838  28.214  33.745  1.00  0.00     0.049 A 
ATOM     57  H   UNL A   1      42.252  28.749  32.460  1.00  0.00     0.167 HD
ATOM     58  C   UNL A   1      44.176  26.775  31.747  1.00  0.00     0.074 A 
ATOM     59  C   UNL A   1      44.875  25.745  31.007  1.00  0.00     0.031 C 
ATOM     60  C   UNL A   1      44.530  27.194  32.991  1.00  0.00     0.034 A 
BRANCH  47  61
ATOM     61  C   UNL A   1      40.813  31.587  35.335  1.00  0.00     0.023 A 
ATOM     62  C   UNL A   1      39.689  31.419  36.164  1.00  0.00     0.031 A 
ATOM     63  C   UNL A   1      41.634  32.704  35.566  1.00  0.00     0.131 A 
ATOM     64  C   UNL A   1      39.371  32.391  37.124  1.00  0.00     0.055 A 
ATOM     65  C   UNL A   1      41.364  33.621  36.586  1.00  0.00     0.041 A 
ATOM     66  F   UNL A   1      42.707  32.937  34.794  1.00  0.00    -0.206 F 
ATOM     67  C   UNL A   1      40.217  33.476  37.362  1.00  0.00     0.022 A 
BRANCH  64  68
ATOM     68  S   UNL A   1      37.756  32.303  37.947  1.00  0.00     0.124 S 
ATOM     69  O   UNL A   1      38.063  32.865  39.259  1.00  0.00    -0.237 OA
ATOM     70  O   UNL A   1      36.916  33.122  37.081  1.00  0.00    -0.237 OA
ATOM     71  O   UNL A   1      37.449  30.874  37.946  1.00  0.00    -0.744 OA
ENDBRANCH  64  68
ENDBRANCH  47  61
BRANCH  48  72
ATOM     72  C   UNL A   1      42.612  25.629  27.447  1.00  0.00     0.023 A 
ATOM     73  C   UNL A   1      42.109  24.320  27.364  1.00  0.00     0.031 A 
ATOM     74  C   UNL A   1      43.445  26.079  26.406  1.00  0.00     0.131 A 
ATOM     75  C   UNL A   1      42.491  23.488  26.300  1.00  0.00     0.055 A 
ATOM     76  C   UNL A   1      43.770  25.270  25.317  1.00  0.00     0.041 A 
ATOM     77  F   UNL A   1      43.950  27.323  26.431  1.00  0.00    -0.206 F 
ATOM     78  C   UNL A   1      43.306  23.959  25.268  1.00  0.00     0.022 A 
BRANCH  75  79
ATOM     79  S   UNL A   1      41.992  21.745  26.339  1.00  0.00     0.124 S 
ATOM     80  O   UNL A   1      42.853  21.167  25.313  1.00  0.00    -0.237 OA
ATOM     81  O   UNL A   1      42.295  21.373  27.716  1.00  0.00    -0.237 OA
ATOM     82  O   UNL A   1      40.569  21.792  26.006  1.00  0.00    -0.744 OA
ENDBRANCH  75  79
ENDBRANCH  48  72
BRANCH  60  83
ATOM     83  C   UNL A   1      45.691  26.484  33.647  1.00  0.00     0.023 A 
ATOM     84  C   UNL A   1      45.513  25.331  34.432  1.00  0.00     0.031 A 
ATOM     85  C   UNL A   1      46.996  26.995  33.515  1.00  0.00     0.131 A 
ATOM     86  C   UNL A   1      46.603  24.781  35.123  1.00  0.00     0.055 A 
ATOM     87  C   UNL A   1      48.089  26.393  34.138  1.00  0.00     0.041 A 
ATOM     88  F   UNL A   1      47.228  28.095  32.780  1.00  0.00    -0.206 F 
ATOM     89  C   UNL A   1      47.893  25.293  34.966  1.00  0.00     0.022 A 
BRANCH  86  90
ATOM     90  S   UNL A   1      46.286  23.480  36.346  1.00  0.00     0.124 S 
ATOM     91  O   UNL A   1      47.504  22.681  36.262  1.00  0.00    -0.237 OA
ATOM     92  O   UNL A   1      46.110  24.245  37.577  1.00  0.00    -0.237 OA
ATOM     93  O   UNL A   1      45.078  22.825  35.846  1.00  0.00    -0.744 OA
ENDBRANCH  86  90
ENDBRANCH  60  83
ENDBRANCH  34  35
ENDBRANCH  26  29
ENDBRANCH  24  25
ENDBRANCH   1  24
TORSDOF 16
ENDMDL
MODEL 2
REMARK VINA RESULT:     -12.0      1.650      2.163
REMARK SMILES N#Cc1ccccc1S(=O)(=O)N1CCC(C(=O)NCCCNC(=O)c2ccc(-c3c4nc(c(-c5cc(S(=O)(=O)[O-])ccc5F)c5ccc([nH]5)c(-c5cc(S(=O)(=O)[O-])ccc5F)c5nc(c(-c6cc(S(=O)(=O)[O-])ccc6F)c6ccc3[nH]6)C=C5)C=C4)cc2)CC1
REMARK SMILES IDX 20 1 19 2 18 3 16 4 17 5 15 7 12 8 13 9 89 10 14 11 88 12
REMARK SMILES IDX 9 13 10 14 11 15 8 16 3 17 4 18 5 19 7 20 6 21 2 22 1 23
REMARK SMILES IDX 21 24 22 25 23 26 24 28 25 29 26 30 87 31 27 32 86 33 28 34
REMARK SMILES IDX 29 35 30 36 80 37 31 38 85 39 79 40 81 41 32 42 84 43 78 44
REMARK SMILES IDX 77 45 33 47 65 48 45 49 64 50 46 51 49 52 63 53 82 54 47 55
REMARK SMILES IDX 48 56 62 58 83 59 50 60 34 61 35 62 43 63 36 64 42 65 44 66
REMARK SMILES IDX 41 67 37 68 38 69 39 70 40 71 66 72 67 73 75 74 68 75 74 76
REMARK SMILES IDX 76 77 73 78 69 79 70 80 71 81 72 82 51 83 52 84 60 85 53 86
REMARK SMILES IDX 59 87 61 88 58 89 54 90 55 91 56 92 57 93
REMARK H PARENT 18 6 22 27 81 46 49 57
REMARK Flexibility Score: inf
ROOT
ATOM      1  C   UNL A   1      31.397  31.869  26.544  1.00  0.00     0.042 C 
ENDROOT
BRANCH   1   2
ATOM      2  C   UNL A   1      31.488  30.502  25.890  1.00  0.00     0.117 C 
BRANCH   2   3
ATOM      3  N   UNL A   1      30.760  30.446  24.629  1.00  0.00    -0.356 N 
ATOM      4  C   UNL A   1      30.608  29.434  23.733  1.00  0.00     0.223 C 
ATOM      5  O   UNL A   1      29.963  29.658  22.708  1.00  0.00    -0.275 OA
ATOM      6  H   UNL A   1      30.302  31.282  24.384  1.00  0.00     0.163 HD
BRANCH   4   7
ATOM      7  C   UNL A   1      31.195  28.058  24.001  1.00  0.00     0.081 C 
ATOM      8  N   UNL A   1      32.069  25.439  23.069  1.00  0.00    -0.198 NA
ATOM      9  C   UNL A   1      30.698  25.561  23.590  1.00  0.00     0.103 C 
ATOM     10  C   UNL A   1      33.074  26.502  23.228  1.00  0.00     0.103 C 
ATOM     11  C   UNL A   1      30.168  26.968  23.731  1.00  0.00     0.030 C 
ATOM     12  C   UNL A   1      32.525  27.907  23.277  1.00  0.00     0.030 C 
BRANCH   8  13
ATOM     13  S   UNL A   1      32.660  23.863  22.893  1.00  0.00     0.244 S 
ATOM     14  O   UNL A   1      33.359  23.813  21.624  1.00  0.00    -0.207 OA
ATOM     15  O   UNL A   1      31.575  22.948  23.180  1.00  0.00    -0.207 OA
BRANCH  13  16
ATOM     16  C   UNL A   1      33.911  23.507  24.119  1.00  0.00     0.100 A 
ATOM     17  C   UNL A   1      33.823  23.621  25.508  1.00  0.00     0.072 A 
ATOM     18  C   UNL A   1      34.957  23.330  26.294  1.00  0.00     0.021 A 
ATOM     19  C   UNL A   1      36.152  22.911  25.719  1.00  0.00     0.001 A 
ATOM     20  C   UNL A   1      35.127  23.071  23.550  1.00  0.00     0.023 A 
ATOM     21  C   UNL A   1      36.235  22.773  24.343  1.00  0.00     0.001 A 
BRANCH  17  22
ATOM     22  C   UNL A   1      32.680  23.999  26.276  1.00  0.00     0.101 C 
ATOM     23  N   UNL A   1      31.716  24.196  26.880  1.00  0.00    -0.192 NA
ENDBRANCH  17  22
ENDBRANCH  13  16
ENDBRANCH   8  13
ENDBRANCH   4   7
ENDBRANCH   2   3
ENDBRANCH   1   2
BRANCH   1  24
ATOM     24  C   UNL A   1      32.746  32.420  26.963  1.00  0.00     0.118 C 
BRANCH  24  25
ATOM     25  N   UNL A   1      32.634  33.746  27.547  1.00  0.00    -0.352 N 
ATOM     26  C   UNL A   1      33.290  34.286  28.623  1.00  0.00     0.251 C 
ATOM     27  H   UNL A   1      31.992  34.347  27.104  1.00  0.00     0.163 HD
ATOM     28  O   UNL A   1      32.862  35.317  29.133  1.00  0.00    -0.269 OA
BRANCH  26  29
ATOM     29  C   UNL A   1      34.492  33.618  29.164  1.00  0.00     0.039 A 
ATOM     30  C   UNL A   1      35.752  34.122  28.841  1.00  0.00     0.014 A 
ATOM     31  C   UNL A   1      34.380  32.480  29.968  1.00  0.00     0.014 A 
ATOM     32  C   UNL A   1      36.892  33.504  29.354  1.00  0.00     0.010 A 
ATOM     33  C   UNL A   1      35.506  31.943  30.578  1.00  0.00     0.010 A 
ATOM     34  C   UNL A   1      36.778  32.424  30.247  1.00  0.00    -0.014 A 
BRANCH  34  35
ATOM     35  C   UNL A   1      37.982  31.747  30.787  1.00  0.00     0.031 A 
ATOM     36  C   UNL A   1      38.490  32.106  32.160  1.00  0.00     0.074 A 
ATOM     37  C   UNL A   1      38.626  30.831  30.038  1.00  0.00     0.049 A 
ATOM     38  N   UNL A   1      39.528  31.641  32.807  1.00  0.00    -0.248 NA
ATOM     39  C   UNL A   1      37.755  33.151  32.888  1.00  0.00     0.031 C 
ATOM     40  C   UNL A   1      38.251  30.438  28.677  1.00  0.00     0.029 A 
ATOM     41  N   UNL A   1      39.722  30.056  30.315  1.00  0.00    -0.354 N 
ATOM     42  C   UNL A   1      39.572  32.342  34.008  1.00  0.00     0.074 A 
ATOM     43  C   UNL A   1      38.510  33.321  33.961  1.00  0.00     0.031 C 
ATOM     44  C   UNL A   1      39.074  29.463  28.258  1.00  0.00     0.029 A 
ATOM     45  C   UNL A   1      40.063  29.195  29.297  1.00  0.00     0.049 A 
ATOM     46  H   UNL A   1      40.220  30.110  31.163  1.00  0.00     0.167 HD
ATOM     47  C   UNL A   1      40.399  32.162  35.067  1.00  0.00     0.034 A 
ATOM     48  C   UNL A   1      41.060  28.293  29.213  1.00  0.00     0.034 A 
ATOM     49  C   UNL A   1      41.446  31.171  35.097  1.00  0.00     0.049 A 
ATOM     50  C   UNL A   1      41.979  28.123  30.397  1.00  0.00     0.074 A 
ATOM     51  C   UNL A   1      42.321  30.871  36.126  1.00  0.00     0.029 A 
ATOM     52  N   UNL A   1      41.764  30.319  34.046  1.00  0.00    -0.354 N 
ATOM     53  N   UNL A   1      41.977  28.760  31.547  1.00  0.00    -0.248 NA
ATOM     54  C   UNL A   1      43.020  27.097  30.279  1.00  0.00     0.031 C 
ATOM     55  C   UNL A   1      43.215  29.896  35.671  1.00  0.00     0.029 A 
ATOM     56  C   UNL A   1      42.839  29.514  34.393  1.00  0.00     0.049 A 
ATOM     57  H   UNL A   1      41.296  30.290  33.181  1.00  0.00     0.167 HD
ATOM     58  C   UNL A   1      42.991  28.179  32.303  1.00  0.00     0.074 A 
ATOM     59  C   UNL A   1      43.566  27.131  31.484  1.00  0.00     0.031 C 
ATOM     60  C   UNL A   1      43.408  28.478  33.561  1.00  0.00     0.034 A 
BRANCH  47  61
ATOM     61  C   UNL A   1      40.211  33.073  36.260  1.00  0.00     0.023 A 
ATOM     62  C   UNL A   1      39.477  32.671  37.391  1.00  0.00     0.031 A 
ATOM     63  C   UNL A   1      40.743  34.373  36.254  1.00  0.00     0.131 A 
ATOM     64  C   UNL A   1      39.227  33.584  38.427  1.00  0.00     0.055 A 
ATOM     65  C   UNL A   1      40.568  35.248  37.329  1.00  0.00     0.041 A 
ATOM     66  F   UNL A   1      41.430  34.827  35.193  1.00  0.00    -0.206 F 
ATOM     67  C   UNL A   1      39.792  34.861  38.418  1.00  0.00     0.022 A 
BRANCH  64  68
ATOM     68  S   UNL A   1      38.021  33.134  39.706  1.00  0.00     0.124 S 
ATOM     69  O   UNL A   1      38.088  34.292  40.594  1.00  0.00    -0.237 OA
ATOM     70  O   UNL A   1      36.789  32.987  38.941  1.00  0.00    -0.237 OA
ATOM     71  O   UNL A   1      38.561  31.898  40.267  1.00  0.00    -0.744 OA
ENDBRANCH  64  68
ENDBRANCH  47  61
BRANCH  48  72
ATOM     72  C   UNL A   1      41.242  27.477  27.978  1.00  0.00     0.023 A 
ATOM     73  C   UNL A   1      40.900  26.115  27.949  1.00  0.00     0.031 A 
ATOM     74  C   UNL A   1      41.811  28.035  26.818  1.00  0.00     0.131 A 
ATOM     75  C   UNL A   1      41.183  25.345  26.811  1.00  0.00     0.055 A 
ATOM     76  C   UNL A   1      42.031  27.280  25.666  1.00  0.00     0.041 A 
ATOM     77  F   UNL A   1      42.153  29.333  26.788  1.00  0.00    -0.206 F 
ATOM     78  C   UNL A   1      41.732  25.921  25.664  1.00  0.00     0.022 A 
BRANCH  75  79
ATOM     79  S   UNL A   1      40.919  23.552  26.888  1.00  0.00     0.124 S 
ATOM     80  O   UNL A   1      41.315  23.253  28.260  1.00  0.00    -0.237 OA
ATOM     81  O   UNL A   1      39.495  23.442  26.592  1.00  0.00    -0.237 OA
ATOM     82  O   UNL A   1      41.811  23.032  25.853  1.00  0.00    -0.744 OA
ENDBRANCH  75  79
ENDBRANCH  48  72
BRANCH  60  83
ATOM     83  C   UNL A   1      44.500  27.611  34.145  1.00  0.00     0.023 A 
ATOM     84  C   UNL A   1      44.216  26.435  34.860  1.00  0.00     0.031 A 
ATOM     85  C   UNL A   1      45.848  27.993  34.014  1.00  0.00     0.131 A 
ATOM     86  C   UNL A   1      45.253  25.732  35.490  1.00  0.00     0.055 A 
ATOM     87  C   UNL A   1      46.883  27.244  34.573  1.00  0.00     0.041 A 
ATOM     88  F   UNL A   1      46.182  29.108  33.345  1.00  0.00    -0.206 F 
ATOM     89  C   UNL A   1      46.586  26.118  35.336  1.00  0.00     0.022 A 
BRANCH  86  90
ATOM     90  S   UNL A   1      44.823  24.394  36.637  1.00  0.00     0.124 S 
ATOM     91  O   UNL A   1      46.106  24.116  37.273  1.00  0.00    -0.237 OA
ATOM     92  O   UNL A   1      43.814  25.023  37.484  1.00  0.00    -0.237 OA
ATOM     93  O   UNL A   1      44.322  23.338  35.759  1.00  0.00    -0.744 OA
ENDBRANCH  86  90
ENDBRANCH  60  83
ENDBRANCH  34  35
ENDBRANCH  26  29
ENDBRANCH  24  25
ENDBRANCH   1  24
TORSDOF 16
ENDMDL
MODEL 3
REMARK VINA RESULT:     -12.0      2.439      8.120
REMARK SMILES N#Cc1ccccc1S(=O)(=O)N1CCC(C(=O)NCCCNC(=O)c2ccc(-c3c4nc(c(-c5cc(S(=O)(=O)[O-])ccc5F)c5ccc([nH]5)c(-c5cc(S(=O)(=O)[O-])ccc5F)c5nc(c(-c6cc(S(=O)(=O)[O-])ccc6F)c6ccc3[nH]6)C=C5)C=C4)cc2)CC1
REMARK SMILES IDX 20 1 19 2 18 3 16 4 17 5 15 7 12 8 13 9 89 10 14 11 88 12
REMARK SMILES IDX 9 13 10 14 11 15 8 16 3 17 4 18 5 19 7 20 6 21 2 22 1 23
REMARK SMILES IDX 21 24 22 25 23 26 24 28 25 29 26 30 87 31 27 32 86 33 28 34
REMARK SMILES IDX 29 35 30 36 80 37 31 38 85 39 79 40 81 41 32 42 84 43 78 44
REMARK SMILES IDX 77 45 33 47 65 48 45 49 64 50 46 51 49 52 63 53 82 54 47 55
REMARK SMILES IDX 48 56 62 58 83 59 50 60 34 61 35 62 43 63 36 64 42 65 44 66
REMARK SMILES IDX 41 67 37 68 38 69 39 70 40 71 66 72 67 73 75 74 68 75 74 76
REMARK SMILES IDX 76 77 73 78 69 79 70 80 71 81 72 82 51 83 52 84 60 85 53 86
REMARK SMILES IDX 59 87 61 88 58 89 54 90 55 91 56 92 57 93
REMARK H PARENT 18 6 22 27 81 46 49 57
REMARK Flexibility Score: inf
ROOT
ATOM      1  C   UNL A   1      31.495  31.840  26.646  1.00  0.00     0.042 C 
ENDROOT
BRANCH   1   2
ATOM      2  C   UNL A   1      31.644  30.510  25.929  1.00  0.00     0.117 C 
BRANCH   2   3
ATOM      3  N   UNL A   1      30.826  30.440  24.726  1.00  0.00    -0.356 N 
ATOM      4  C   UNL A   1      30.639  29.429  23.834  1.00  0.00     0.223 C 
ATOM      5  O   UNL A   1      29.913  29.639  22.862  1.00  0.00    -0.275 OA
ATOM      6  H   UNL A   1      30.326  31.262  24.522  1.00  0.00     0.163 HD
BRANCH   4   7
ATOM      7  C   UNL A   1      31.286  28.070  24.046  1.00  0.00     0.081 C 
ATOM      8  N   UNL A   1      32.220  25.509  23.017  1.00  0.00    -0.198 NA
ATOM      9  C   UNL A   1      30.867  25.566  23.592  1.00  0.00     0.103 C 
ATOM     10  C   UNL A   1      33.190  26.605  23.165  1.00  0.00     0.103 C 
ATOM     11  C   UNL A   1      30.291  26.949  23.787  1.00  0.00     0.030 C 
ATOM     12  C   UNL A   1      32.592  27.987  23.269  1.00  0.00     0.030 C 
BRANCH   8  13
ATOM     13  S   UNL A   1      32.862  23.961  22.780  1.00  0.00     0.244 S 
ATOM     14  O   UNL A   1      33.442  23.943  21.452  1.00  0.00    -0.207 OA
ATOM     15  O   UNL A   1      31.850  22.998  23.162  1.00  0.00    -0.207 OA
BRANCH  13  16
ATOM     16  C   UNL A   1      34.235  23.660  23.884  1.00  0.00     0.100 A 
ATOM     17  C   UNL A   1      34.259  23.727  25.279  1.00  0.00     0.072 A 
ATOM     18  C   UNL A   1      35.474  23.495  25.956  1.00  0.00     0.021 A 
ATOM     19  C   UNL A   1      36.642  23.182  25.269  1.00  0.00     0.001 A 
ATOM     20  C   UNL A   1      35.426  23.331  23.200  1.00  0.00     0.023 A 
ATOM     21  C   UNL A   1      36.616  23.091  23.887  1.00  0.00     0.001 A 
BRANCH  17  22
ATOM     22  C   UNL A   1      33.163  23.998  26.152  1.00  0.00     0.101 C 
ATOM     23  N   UNL A   1      32.227  24.276  26.770  1.00  0.00    -0.192 NA
ENDBRANCH  17  22
ENDBRANCH  13  16
ENDBRANCH   8  13
ENDBRANCH   4   7
ENDBRANCH   2   3
ENDBRANCH   1   2
BRANCH   1  24
ATOM     24  C   UNL A   1      32.812  32.393  27.155  1.00  0.00     0.118 C 
BRANCH  24  25
ATOM     25  N   UNL A   1      32.704  33.794  27.527  1.00  0.00    -0.352 N 
ATOM     26  C   UNL A   1      33.289  34.469  28.567  1.00  0.00     0.251 C 
ATOM     27  H   UNL A   1      32.127  34.340  26.946  1.00  0.00     0.163 HD
ATOM     28  O   UNL A   1      32.862  35.576  28.882  1.00  0.00    -0.269 OA
BRANCH  26  29
ATOM     29  C   UNL A   1      34.413  33.856  29.305  1.00  0.00     0.039 A 
ATOM     30  C   UNL A   1      34.146  32.854  30.238  1.00  0.00     0.014 A 
ATOM     31  C   UNL A   1      35.728  34.284  29.096  1.00  0.00     0.014 A 
ATOM     32  C   UNL A   1      35.201  32.262  30.932  1.00  0.00     0.010 A 
ATOM     33  C   UNL A   1      36.784  33.610  29.694  1.00  0.00     0.010 A 
ATOM     34  C   UNL A   1      36.531  32.618  30.649  1.00  0.00    -0.014 A 
BRANCH  34  35
ATOM     35  C   UNL A   1      37.662  32.008  31.391  1.00  0.00     0.031 A 
ATOM     36  C   UNL A   1      38.480  30.920  30.746  1.00  0.00     0.074 A 
ATOM     37  C   UNL A   1      37.935  32.418  32.645  1.00  0.00     0.049 A 
ATOM     38  N   UNL A   1      39.498  30.252  31.228  1.00  0.00    -0.248 NA
ATOM     39  C   UNL A   1      38.081  30.501  29.393  1.00  0.00     0.031 C 
ATOM     40  C   UNL A   1      37.180  33.432  33.386  1.00  0.00     0.029 A 
ATOM     41  N   UNL A   1      38.926  32.042  33.515  1.00  0.00    -0.354 N 
ATOM     42  C   UNL A   1      39.850  29.334  30.244  1.00  0.00     0.074 A 
ATOM     43  C   UNL A   1      38.885  29.473  29.177  1.00  0.00     0.031 C 
ATOM     44  C   UNL A   1      37.764  33.631  34.579  1.00  0.00     0.029 A 
ATOM     45  C   UNL A   1      38.903  32.727  34.708  1.00  0.00     0.049 A 
ATOM     46  H   UNL A   1      39.591  31.348  33.306  1.00  0.00     0.167 HD
ATOM     47  C   UNL A   1      40.902  28.480  30.217  1.00  0.00     0.034 A 
ATOM     48  C   UNL A   1      39.708  32.635  35.784  1.00  0.00     0.034 A 
ATOM     49  C   UNL A   1      41.860  28.366  31.288  1.00  0.00     0.049 A 
ATOM     50  C   UNL A   1      40.862  31.664  35.738  1.00  0.00     0.074 A 
ATOM     51  C   UNL A   1      42.985  27.563  31.359  1.00  0.00     0.029 A 
ATOM     52  N   UNL A   1      41.803  29.072  32.484  1.00  0.00    -0.354 N 
ATOM     53  N   UNL A   1      41.212  30.836  34.778  1.00  0.00    -0.248 NA
ATOM     54  C   UNL A   1      41.741  31.630  36.912  1.00  0.00     0.031 C 
ATOM     55  C   UNL A   1      43.562  27.727  32.622  1.00  0.00     0.029 A 
ATOM     56  C   UNL A   1      42.856  28.704  33.307  1.00  0.00     0.049 A 
ATOM     57  H   UNL A   1      41.115  29.737  32.714  1.00  0.00     0.167 HD
ATOM     58  C   UNL A   1      42.378  30.217  35.220  1.00  0.00     0.074 A 
ATOM     59  C   UNL A   1      42.677  30.781  36.520  1.00  0.00     0.031 C 
ATOM     60  C   UNL A   1      43.137  29.271  34.606  1.00  0.00     0.034 A 
BRANCH  47  61
ATOM     61  C   UNL A   1      41.048  27.594  29.000  1.00  0.00     0.023 A 
ATOM     62  C   UNL A   1      42.047  27.818  28.034  1.00  0.00     0.031 A 
ATOM     63  C   UNL A   1      40.156  26.530  28.782  1.00  0.00     0.131 A 
ATOM     64  C   UNL A   1      42.077  27.047  26.863  1.00  0.00     0.055 A 
ATOM     65  C   UNL A   1      40.249  25.707  27.657  1.00  0.00     0.041 A 
ATOM     66  F   UNL A   1      39.164  26.280  29.652  1.00  0.00    -0.206 F 
ATOM     67  C   UNL A   1      41.204  25.973  26.680  1.00  0.00     0.022 A 
BRANCH  64  68
ATOM     68  S   UNL A   1      43.169  27.569  25.510  1.00  0.00     0.124 S 
ATOM     69  O   UNL A   1      42.225  28.216  24.603  1.00  0.00    -0.237 OA
ATOM     70  O   UNL A   1      44.112  28.451  26.188  1.00  0.00    -0.237 OA
ATOM     71  O   UNL A   1      43.731  26.312  25.019  1.00  0.00    -0.744 OA
ENDBRANCH  64  68
ENDBRANCH  47  61
BRANCH  48  72
ATOM     72  C   UNL A   1      39.468  33.482  36.988  1.00  0.00     0.023 A 
ATOM     73  C   UNL A   1      38.806  32.971  38.116  1.00  0.00     0.031 A 
ATOM     74  C   UNL A   1      39.853  34.835  37.009  1.00  0.00     0.131 A 
ATOM     75  C   UNL A   1      38.495  33.819  39.190  1.00  0.00     0.055 A 
ATOM     76  C   UNL A   1      39.600  35.658  38.107  1.00  0.00     0.041 A 
ATOM     77  F   UNL A   1      40.493  35.375  35.960  1.00  0.00    -0.206 F 
ATOM     78  C   UNL A   1      38.901  35.154  39.200  1.00  0.00     0.022 A 
BRANCH  75  79
ATOM     79  S   UNL A   1      37.459  33.175  40.533  1.00  0.00     0.124 S 
ATOM     80  O   UNL A   1      38.249  32.041  40.999  1.00  0.00    -0.237 OA
ATOM     81  O   UNL A   1      37.384  34.320  41.434  1.00  0.00    -0.237 OA
ATOM     82  O   UNL A   1      36.207  32.831  39.860  1.00  0.00    -0.744 OA
ENDBRANCH  75  79
ENDBRANCH  48  72
BRANCH  60  83
ATOM     83  C   UNL A   1      44.400  28.840  35.317  1.00  0.00     0.023 A 
ATOM     84  C   UNL A   1      44.403  27.811  36.274  1.00  0.00     0.031 A 
ATOM     85  C   UNL A   1      45.615  29.500  35.056  1.00  0.00     0.131 A 
ATOM     86  C   UNL A   1      45.571  27.533  36.999  1.00  0.00     0.055 A 
ATOM     87  C   UNL A   1      46.794  29.162  35.721  1.00  0.00     0.041 A 
ATOM     88  F   UNL A   1      45.675  30.493  34.154  1.00  0.00    -0.206 F 
ATOM     89  C   UNL A   1      46.772  28.188  36.714  1.00  0.00     0.022 A 
BRANCH  86  90
ATOM     90  S   UNL A   1      45.465  26.408  38.417  1.00  0.00     0.124 S 
ATOM     91  O   UNL A   1      44.879  27.266  39.441  1.00  0.00    -0.237 OA
ATOM     92  O   UNL A   1      44.605  25.345  37.908  1.00  0.00    -0.237 OA
ATOM     93  O   UNL A   1      46.855  26.021  38.653  1.00  0.00    -0.744 OA
ENDBRANCH  86  90
ENDBRANCH  60  83
ENDBRANCH  34  35
ENDBRANCH  26  29
ENDBRANCH  24  25
ENDBRANCH   1  24
TORSDOF 16
ENDMDL
