MODEL 1
REMARK VINA RESULT:     -10.6      0.000      0.000
REMARK SMILES O=C(NCCCNC(=O)[C@@H]1CC[C@]2(CC[NH2+]C2)C1)c1ccc(-c2c3nc(c(-c4cc(S(=O)(=O)[O-])ccc4F)c4ccc([nH]4)c(-c4cc(S(=O)(=O)[O-])ccc4F)c4nc(c(-c5cc(S(=O)(=O)[O-])ccc5F)c5ccc2[nH]5)C=C4)C=C3)cc1
REMARK SMILES IDX 1 1 2 2 3 3 19 5 20 6 81 7 21 8 80 9 22 10 23 11 24 12 74 13
REMARK SMILES IDX 25 14 79 15 73 16 75 17 26 18 78 19 72 20 71 21 27 23 59 24
REMARK SMILES IDX 39 25 58 26 40 27 43 28 57 29 76 30 41 31 42 32 56 34 77 35
REMARK SMILES IDX 44 36 28 37 29 38 37 39 30 40 36 41 38 42 35 43 31 44 32 45
REMARK SMILES IDX 33 46 34 47 60 48 61 49 69 50 62 51 68 52 70 53 67 54 63 55
REMARK SMILES IDX 64 56 65 57 66 58 45 59 46 60 54 61 47 62 53 63 55 64 52 65
REMARK SMILES IDX 48 66 49 67 50 68 51 69 4 70 5 71 6 72 7 73 8 74 9 76 10 77
REMARK SMILES IDX 11 78 18 79 12 80 13 81 14 82 17 83 15 84 16 85
REMARK H PARENT 3 4 75 22 43 33 7 75 16 86 16 87
REMARK Flexibility Score: inf
ROOT
ATOM      1  O   UNL A   1      33.691  29.665  26.715  1.00  0.00    -0.269 OA
ATOM      2  C   UNL A   1      34.292  30.464  27.428  1.00  0.00     0.251 C 
ATOM      3  N   UNL A   1      33.726  31.692  27.671  1.00  0.00    -0.352 N 
ATOM      4  H   UNL A   1      32.777  31.765  27.422  1.00  0.00     0.163 HD
ENDROOT
BRANCH   2   5
ATOM      5  C   UNL A   1      35.602  30.096  28.012  1.00  0.00     0.039 A 
ATOM      6  C   UNL A   1      35.701  29.586  29.309  1.00  0.00     0.014 A 
ATOM      7  C   UNL A   1      36.750  30.187  27.217  1.00  0.00     0.014 A 
ATOM      8  C   UNL A   1      36.946  29.292  29.853  1.00  0.00     0.010 A 
ATOM      9  C   UNL A   1      37.990  29.793  27.731  1.00  0.00     0.010 A 
ATOM     10  C   UNL A   1      38.100  29.354  29.059  1.00  0.00    -0.014 A 
BRANCH  10  11
ATOM     11  C   UNL A   1      39.393  28.864  29.603  1.00  0.00     0.031 A 
ATOM     12  C   UNL A   1      40.081  29.582  30.728  1.00  0.00     0.074 A 
ATOM     13  C   UNL A   1      39.952  27.769  29.051  1.00  0.00     0.049 A 
ATOM     14  N   UNL A   1      41.242  29.334  31.277  1.00  0.00    -0.248 NA
ATOM     15  C   UNL A   1      39.378  30.738  31.299  1.00  0.00     0.031 C 
ATOM     16  C   UNL A   1      39.376  27.001  27.942  1.00  0.00     0.029 A 
ATOM     17  N   UNL A   1      41.122  27.113  29.334  1.00  0.00    -0.354 N 
ATOM     18  C   UNL A   1      41.424  30.315  32.245  1.00  0.00     0.074 A 
ATOM     19  C   UNL A   1      40.265  31.182  32.179  1.00  0.00     0.031 C 
ATOM     20  C   UNL A   1      40.182  25.971  27.655  1.00  0.00     0.029 A 
ATOM     21  C   UNL A   1      41.368  26.048  28.498  1.00  0.00     0.049 A 
ATOM     22  H   UNL A   1      41.727  27.377  30.064  1.00  0.00     0.167 HD
ATOM     23  C   UNL A   1      42.460  30.469  33.109  1.00  0.00     0.034 A 
ATOM     24  C   UNL A   1      42.446  25.249  28.384  1.00  0.00     0.034 A 
ATOM     25  C   UNL A   1      43.607  29.591  33.145  1.00  0.00     0.049 A 
ATOM     26  C   UNL A   1      43.606  25.468  29.315  1.00  0.00     0.074 A 
ATOM     27  C   UNL A   1      44.691  29.623  34.006  1.00  0.00     0.029 A 
ATOM     28  N   UNL A   1      43.832  28.535  32.268  1.00  0.00    -0.354 N 
ATOM     29  N   UNL A   1      43.749  26.380  30.248  1.00  0.00    -0.248 NA
ATOM     30  C   UNL A   1      44.744  24.553  29.181  1.00  0.00     0.031 C 
ATOM     31  C   UNL A   1      45.604  28.643  33.600  1.00  0.00     0.029 A 
ATOM     32  C   UNL A   1      45.055  27.937  32.541  1.00  0.00     0.049 A 
ATOM     33  H   UNL A   1      43.213  28.252  31.557  1.00  0.00     0.167 HD
ATOM     34  C   UNL A   1      44.991  26.137  30.827  1.00  0.00     0.074 A 
ATOM     35  C   UNL A   1      45.546  24.985  30.145  1.00  0.00     0.031 C 
ATOM     36  C   UNL A   1      45.608  26.801  31.838  1.00  0.00     0.034 A 
BRANCH  23  37
ATOM     37  C   UNL A   1      42.419  31.663  34.037  1.00  0.00     0.023 A 
ATOM     38  C   UNL A   1      41.815  31.600  35.305  1.00  0.00     0.031 A 
ATOM     39  C   UNL A   1      42.949  32.901  33.628  1.00  0.00     0.131 A 
ATOM     40  C   UNL A   1      41.669  32.765  36.074  1.00  0.00     0.055 A 
ATOM     41  C   UNL A   1      42.884  34.037  34.438  1.00  0.00     0.041 A 
ATOM     42  F   UNL A   1      43.522  33.035  32.421  1.00  0.00    -0.206 F 
ATOM     43  C   UNL A   1      42.222  33.979  35.660  1.00  0.00     0.022 A 
BRANCH  40  44
ATOM     44  S   UNL A   1      40.589  32.709  37.530  1.00  0.00     0.124 S 
ATOM     45  O   UNL A   1      41.488  32.160  38.544  1.00  0.00    -0.237 OA
ATOM     46  O   UNL A   1      40.216  34.108  37.699  1.00  0.00    -0.237 OA
ATOM     47  O   UNL A   1      39.507  31.817  37.121  1.00  0.00    -0.744 OA
ENDBRANCH  40  44
ENDBRANCH  23  37
BRANCH  24  48
ATOM     48  C   UNL A   1      42.488  24.218  27.309  1.00  0.00     0.023 A 
ATOM     49  C   UNL A   1      41.717  23.050  27.384  1.00  0.00     0.031 A 
ATOM     50  C   UNL A   1      43.295  24.407  26.171  1.00  0.00     0.131 A 
ATOM     51  C   UNL A   1      41.784  22.105  26.349  1.00  0.00     0.055 A 
ATOM     52  C   UNL A   1      43.320  23.489  25.122  1.00  0.00     0.041 A 
ATOM     53  F   UNL A   1      44.047  25.514  26.048  1.00  0.00    -0.206 F 
ATOM     54  C   UNL A   1      42.566  22.324  25.212  1.00  0.00     0.022 A 
BRANCH  51  55
ATOM     55  S   UNL A   1      40.870  20.549  26.531  1.00  0.00     0.124 S 
ATOM     56  O   UNL A   1      39.539  20.930  26.071  1.00  0.00    -0.237 OA
ATOM     57  O   UNL A   1      41.620  19.653  25.656  1.00  0.00    -0.237 OA
ATOM     58  O   UNL A   1      40.978  20.256  27.958  1.00  0.00    -0.744 OA
ENDBRANCH  51  55
ENDBRANCH  24  48
BRANCH  36  59
ATOM     59  C   UNL A   1      46.943  26.267  32.292  1.00  0.00     0.023 A 
ATOM     60  C   UNL A   1      47.048  25.242  33.248  1.00  0.00     0.031 A 
ATOM     61  C   UNL A   1      48.130  26.792  31.750  1.00  0.00     0.131 A 
ATOM     62  C   UNL A   1      48.315  24.803  33.663  1.00  0.00     0.055 A 
ATOM     63  C   UNL A   1      49.384  26.311  32.124  1.00  0.00     0.041 A 
ATOM     64  F   UNL A   1      48.087  27.777  30.839  1.00  0.00    -0.206 F 
ATOM     65  C   UNL A   1      49.483  25.317  33.093  1.00  0.00     0.022 A 
BRANCH  62  66
ATOM     66  S   UNL A   1      48.422  23.598  35.015  1.00  0.00     0.124 S 
ATOM     67  O   UNL A   1      49.250  22.552  34.421  1.00  0.00    -0.237 OA
ATOM     68  O   UNL A   1      49.044  24.376  36.080  1.00  0.00    -0.237 OA
ATOM     69  O   UNL A   1      47.029  23.226  35.253  1.00  0.00    -0.744 OA
ENDBRANCH  62  66
ENDBRANCH  36  59
ENDBRANCH  10  11
ENDBRANCH   2   5
BRANCH   3  70
ATOM     70  C   UNL A   1      34.303  32.904  28.235  1.00  0.00     0.118 C 
BRANCH  70  71
ATOM     71  C   UNL A   1      33.306  34.053  28.255  1.00  0.00     0.042 C 
BRANCH  71  72
ATOM     72  C   UNL A   1      33.733  35.213  29.140  1.00  0.00     0.117 C 
BRANCH  72  73
ATOM     73  N   UNL A   1      33.398  34.980  30.532  1.00  0.00    -0.356 N 
ATOM     74  C   UNL A   1      34.082  34.515  31.600  1.00  0.00     0.223 C 
ATOM     75  H   UNL A   1      32.466  35.212  30.745  1.00  0.00     0.163 HD
ATOM     76  O   UNL A   1      33.425  34.434  32.648  1.00  0.00    -0.275 OA
BRANCH  74  77
ATOM     77  C   UNL A   1      35.536  34.043  31.620  1.00  0.00     0.079 C 
ATOM     78  C   UNL A   1      35.935  32.584  31.542  1.00  0.00     0.014 C 
ATOM     79  C   UNL A   1      36.323  34.606  32.807  1.00  0.00     0.026 C 
ATOM     80  C   UNL A   1      36.247  32.150  32.969  1.00  0.00     0.014 C 
ATOM     81  C   UNL A   1      36.665  33.414  33.737  1.00  0.00     0.026 C 
ATOM     82  C   UNL A   1      35.983  33.552  35.115  1.00  0.00     0.074 C 
ATOM     83  C   UNL A   1      38.152  33.396  34.119  1.00  0.00     0.267 C 
ATOM     84  C   UNL A   1      37.096  33.859  36.109  1.00  0.00     0.261 C 
ATOM     85  N   UNL A   1      38.233  34.278  35.285  1.00  0.00    -0.346 N 
ATOM     86  H   UNL A   1      39.114  34.143  35.783  1.00  0.00     0.346 HD
ATOM     87  H   UNL A   1      38.202  35.267  35.037  1.00  0.00     0.346 HD
ENDBRANCH  74  77
ENDBRANCH  72  73
ENDBRANCH  71  72
ENDBRANCH  70  71
ENDBRANCH   3  70
TORSDOF 13
ENDMDL
MODEL 2
REMARK VINA RESULT:     -10.5      3.489      9.751
REMARK SMILES O=C(NCCCNC(=O)[C@@H]1CC[C@]2(CC[NH2+]C2)C1)c1ccc(-c2c3nc(c(-c4cc(S(=O)(=O)[O-])ccc4F)c4ccc([nH]4)c(-c4cc(S(=O)(=O)[O-])ccc4F)c4nc(c(-c5cc(S(=O)(=O)[O-])ccc5F)c5ccc2[nH]5)C=C4)C=C3)cc1
REMARK SMILES IDX 1 1 2 2 3 3 19 5 20 6 81 7 21 8 80 9 22 10 23 11 24 12 74 13
REMARK SMILES IDX 25 14 79 15 73 16 75 17 26 18 78 19 72 20 71 21 27 23 59 24
REMARK SMILES IDX 39 25 58 26 40 27 43 28 57 29 76 30 41 31 42 32 56 34 77 35
REMARK SMILES IDX 44 36 28 37 29 38 37 39 30 40 36 41 38 42 35 43 31 44 32 45
REMARK SMILES IDX 33 46 34 47 60 48 61 49 69 50 62 51 68 52 70 53 67 54 63 55
REMARK SMILES IDX 64 56 65 57 66 58 45 59 46 60 54 61 47 62 53 63 55 64 52 65
REMARK SMILES IDX 48 66 49 67 50 68 51 69 4 70 5 71 6 72 7 73 8 74 9 76 10 77
REMARK SMILES IDX 11 78 18 79 12 80 13 81 14 82 17 83 15 84 16 85
REMARK H PARENT 3 4 75 22 43 33 7 75 16 86 16 87
REMARK Flexibility Score: inf
ROOT
ATOM      1  O   UNL A   1      32.609  32.948  27.283  1.00  0.00    -0.269 OA
ATOM      2  C   UNL A   1      33.050  31.815  27.117  1.00  0.00     0.251 C 
ATOM      3  N   UNL A   1      32.343  30.937  26.331  1.00  0.00    -0.352 N 
ATOM      4  H   UNL A   1      31.634  31.350  25.787  1.00  0.00     0.163 HD
ENDROOT
BRANCH   2   5
ATOM      5  C   UNL A   1      34.326  31.414  27.754  1.00  0.00     0.039 A 
ATOM      6  C   UNL A   1      35.337  32.345  28.001  1.00  0.00     0.014 A 
ATOM      7  C   UNL A   1      34.482  30.093  28.188  1.00  0.00     0.014 A 
ATOM      8  C   UNL A   1      36.544  31.937  28.558  1.00  0.00     0.010 A 
ATOM      9  C   UNL A   1      35.657  29.706  28.841  1.00  0.00     0.010 A 
ATOM     10  C   UNL A   1      36.704  30.622  29.020  1.00  0.00    -0.014 A 
BRANCH  10  11
ATOM     11  C   UNL A   1      37.931  30.252  29.773  1.00  0.00     0.031 A 
ATOM     12  C   UNL A   1      38.928  29.289  29.201  1.00  0.00     0.074 A 
ATOM     13  C   UNL A   1      38.122  30.785  30.996  1.00  0.00     0.049 A 
ATOM     14  N   UNL A   1      40.014  28.804  29.747  1.00  0.00    -0.248 NA
ATOM     15  C   UNL A   1      38.663  28.793  27.844  1.00  0.00     0.031 C 
ATOM     16  C   UNL A   1      37.207  31.724  31.655  1.00  0.00     0.029 A 
ATOM     17  N   UNL A   1      39.134  30.618  31.905  1.00  0.00    -0.354 N 
ATOM     18  C   UNL A   1      40.554  27.928  28.811  1.00  0.00     0.074 A 
ATOM     19  C   UNL A   1      39.651  27.925  27.678  1.00  0.00     0.031 C 
ATOM     20  C   UNL A   1      37.710  32.063  32.849  1.00  0.00     0.029 A 
ATOM     21  C   UNL A   1      38.935  31.308  33.078  1.00  0.00     0.049 A 
ATOM     22  H   UNL A   1      39.926  30.059  31.734  1.00  0.00     0.167 HD
ATOM     23  C   UNL A   1      41.698  27.202  28.894  1.00  0.00     0.034 A 
ATOM     24  C   UNL A   1      39.630  31.302  34.232  1.00  0.00     0.034 A 
ATOM     25  C   UNL A   1      42.575  27.221  30.043  1.00  0.00     0.049 A 
ATOM     26  C   UNL A   1      40.866  30.451  34.323  1.00  0.00     0.074 A 
ATOM     27  C   UNL A   1      43.781  26.565  30.219  1.00  0.00     0.029 A 
ATOM     28  N   UNL A   1      42.329  27.916  31.222  1.00  0.00    -0.354 N 
ATOM     29  N   UNL A   1      41.383  29.653  33.417  1.00  0.00    -0.248 NA
ATOM     30  C   UNL A   1      41.613  30.502  35.584  1.00  0.00     0.031 C 
ATOM     31  C   UNL A   1      44.221  26.796  31.526  1.00  0.00     0.029 A 
ATOM     32  C   UNL A   1      43.339  27.669  32.143  1.00  0.00     0.049 A 
ATOM     33  H   UNL A   1      41.553  28.499  31.382  1.00  0.00     0.167 HD
ATOM     34  C   UNL A   1      42.530  29.118  33.995  1.00  0.00     0.074 A 
ATOM     35  C   UNL A   1      42.633  29.696  35.321  1.00  0.00     0.031 C 
ATOM     36  C   UNL A   1      43.419  28.236  33.471  1.00  0.00     0.034 A 
BRANCH  23  37
ATOM     37  C   UNL A   1      42.026  26.288  27.735  1.00  0.00     0.023 A 
ATOM     38  C   UNL A   1      41.564  24.961  27.680  1.00  0.00     0.031 A 
ATOM     39  C   UNL A   1      42.855  26.734  26.689  1.00  0.00     0.131 A 
ATOM     40  C   UNL A   1      42.009  24.103  26.662  1.00  0.00     0.055 A 
ATOM     41  C   UNL A   1      43.219  25.901  25.628  1.00  0.00     0.041 A 
ATOM     42  F   UNL A   1      43.346  27.983  26.691  1.00  0.00    -0.206 F 
ATOM     43  C   UNL A   1      42.814  24.571  25.621  1.00  0.00     0.022 A 
BRANCH  40  44
ATOM     44  S   UNL A   1      41.672  22.327  26.820  1.00  0.00     0.124 S 
ATOM     45  O   UNL A   1      42.595  21.945  27.889  1.00  0.00    -0.237 OA
ATOM     46  O   UNL A   1      40.255  22.306  27.162  1.00  0.00    -0.237 OA
ATOM     47  O   UNL A   1      42.007  21.795  25.501  1.00  0.00    -0.744 OA
ENDBRANCH  40  44
ENDBRANCH  23  37
BRANCH  24  48
ATOM     48  C   UNL A   1      39.129  32.082  35.397  1.00  0.00     0.023 A 
ATOM     49  C   UNL A   1      38.457  31.463  36.460  1.00  0.00     0.031 A 
ATOM     50  C   UNL A   1      39.341  33.472  35.468  1.00  0.00     0.131 A 
ATOM     51  C   UNL A   1      38.001  32.235  37.540  1.00  0.00     0.055 A 
ATOM     52  C   UNL A   1      38.932  34.228  36.567  1.00  0.00     0.041 A 
ATOM     53  F   UNL A   1      39.987  34.112  34.480  1.00  0.00    -0.206 F 
ATOM     54  C   UNL A   1      38.249  33.609  37.609  1.00  0.00     0.022 A 
BRANCH  51  55
ATOM     55  S   UNL A   1      37.029  31.427  38.840  1.00  0.00     0.124 S 
ATOM     56  O   UNL A   1      36.896  30.073  38.312  1.00  0.00    -0.237 OA
ATOM     57  O   UNL A   1      37.893  31.579  40.005  1.00  0.00    -0.237 OA
ATOM     58  O   UNL A   1      35.794  32.207  38.876  1.00  0.00    -0.744 OA
ENDBRANCH  51  55
ENDBRANCH  24  48
BRANCH  36  59
ATOM     59  C   UNL A   1      44.608  27.875  34.326  1.00  0.00     0.023 A 
ATOM     60  C   UNL A   1      44.580  26.790  35.218  1.00  0.00     0.031 A 
ATOM     61  C   UNL A   1      45.792  28.631  34.238  1.00  0.00     0.131 A 
ATOM     62  C   UNL A   1      45.701  26.515  36.017  1.00  0.00     0.055 A 
ATOM     63  C   UNL A   1      46.921  28.317  34.992  1.00  0.00     0.041 A 
ATOM     64  F   UNL A   1      45.870  29.683  33.407  1.00  0.00    -0.206 F 
ATOM     65  C   UNL A   1      46.878  27.260  35.896  1.00  0.00     0.022 A 
BRANCH  62  66
ATOM     66  S   UNL A   1      45.579  25.214  37.276  1.00  0.00     0.124 S 
ATOM     67  O   UNL A   1      46.512  24.213  36.765  1.00  0.00    -0.237 OA
ATOM     68  O   UNL A   1      45.991  25.910  38.489  1.00  0.00    -0.237 OA
ATOM     69  O   UNL A   1      44.170  24.827  37.232  1.00  0.00    -0.744 OA
ENDBRANCH  62  66
ENDBRANCH  36  59
ENDBRANCH  10  11
ENDBRANCH   2   5
BRANCH   3  70
ATOM     70  C   UNL A   1      32.471  29.496  26.172  1.00  0.00     0.118 C 
BRANCH  70  71
ATOM     71  C   UNL A   1      33.148  29.125  24.861  1.00  0.00     0.042 C 
BRANCH  71  72
ATOM     72  C   UNL A   1      33.009  27.655  24.499  1.00  0.00     0.117 C 
BRANCH  72  73
ATOM     73  N   UNL A   1      32.321  27.474  23.236  1.00  0.00    -0.356 N 
ATOM     74  C   UNL A   1      31.066  27.719  22.802  1.00  0.00     0.223 C 
ATOM     75  H   UNL A   1      32.898  27.086  22.539  1.00  0.00     0.163 HD
ATOM     76  O   UNL A   1      30.845  27.396  21.626  1.00  0.00    -0.275 OA
BRANCH  74  77
ATOM     77  C   UNL A   1      29.912  28.294  23.623  1.00  0.00     0.079 C 
ATOM     78  C   UNL A   1      28.484  27.805  23.501  1.00  0.00     0.014 C 
ATOM     79  C   UNL A   1      29.818  29.820  23.523  1.00  0.00     0.026 C 
ATOM     80  C   UNL A   1      27.761  28.815  22.616  1.00  0.00     0.014 C 
ATOM     81  C   UNL A   1      28.508  30.151  22.763  1.00  0.00     0.026 C 
ATOM     82  C   UNL A   1      28.791  30.851  21.417  1.00  0.00     0.074 C 
ATOM     83  C   UNL A   1      27.671  31.205  23.501  1.00  0.00     0.267 C 
ATOM     84  C   UNL A   1      28.339  32.296  21.589  1.00  0.00     0.261 C 
ATOM     85  N   UNL A   1      28.215  32.482  23.037  1.00  0.00    -0.346 N 
ATOM     86  H   UNL A   1      27.578  33.250  23.253  1.00  0.00     0.346 HD
ATOM     87  H   UNL A   1      29.100  32.723  23.484  1.00  0.00     0.346 HD
ENDBRANCH  74  77
ENDBRANCH  72  73
ENDBRANCH  71  72
ENDBRANCH  70  71
ENDBRANCH   3  70
TORSDOF 13
ENDMDL
MODEL 3
REMARK VINA RESULT:     -10.5      3.914     10.267
REMARK SMILES O=C(NCCCNC(=O)[C@@H]1CC[C@]2(CC[NH2+]C2)C1)c1ccc(-c2c3nc(c(-c4cc(S(=O)(=O)[O-])ccc4F)c4ccc([nH]4)c(-c4cc(S(=O)(=O)[O-])ccc4F)c4nc(c(-c5cc(S(=O)(=O)[O-])ccc5F)c5ccc2[nH]5)C=C4)C=C3)cc1
REMARK SMILES IDX 1 1 2 2 3 3 19 5 20 6 81 7 21 8 80 9 22 10 23 11 24 12 74 13
REMARK SMILES IDX 25 14 79 15 73 16 75 17 26 18 78 19 72 20 71 21 27 23 59 24
REMARK SMILES IDX 39 25 58 26 40 27 43 28 57 29 76 30 41 31 42 32 56 34 77 35
REMARK SMILES IDX 44 36 28 37 29 38 37 39 30 40 36 41 38 42 35 43 31 44 32 45
REMARK SMILES IDX 33 46 34 47 60 48 61 49 69 50 62 51 68 52 70 53 67 54 63 55
REMARK SMILES IDX 64 56 65 57 66 58 45 59 46 60 54 61 47 62 53 63 55 64 52 65
REMARK SMILES IDX 48 66 49 67 50 68 51 69 4 70 5 71 6 72 7 73 8 74 9 76 10 77
REMARK SMILES IDX 11 78 18 79 12 80 13 81 14 82 17 83 15 84 16 85
REMARK H PARENT 3 4 75 22 43 33 7 75 16 86 16 87
REMARK Flexibility Score: inf
ROOT
ATOM      1  O   UNL A   1      32.544  35.659  29.275  1.00  0.00    -0.269 OA
ATOM      2  C   UNL A   1      33.147  34.676  28.856  1.00  0.00     0.251 C 
ATOM      3  N   UNL A   1      32.714  34.075  27.699  1.00  0.00    -0.352 N 
ATOM      4  H   UNL A   1      32.071  34.605  27.176  1.00  0.00     0.163 HD
ENDROOT
BRANCH   2   5
ATOM      5  C   UNL A   1      34.324  34.159  29.592  1.00  0.00     0.039 A 
ATOM      6  C   UNL A   1      34.178  33.286  30.673  1.00  0.00     0.014 A 
ATOM      7  C   UNL A   1      35.607  34.491  29.142  1.00  0.00     0.014 A 
ATOM      8  C   UNL A   1      35.295  32.851  31.378  1.00  0.00     0.010 A 
ATOM      9  C   UNL A   1      36.732  33.970  29.788  1.00  0.00     0.010 A 
ATOM     10  C   UNL A   1      36.585  33.156  30.921  1.00  0.00    -0.014 A 
BRANCH  10  11
ATOM     11  C   UNL A   1      37.763  32.535  31.581  1.00  0.00     0.031 A 
ATOM     12  C   UNL A   1      38.505  31.402  30.934  1.00  0.00     0.074 A 
ATOM     13  C   UNL A   1      38.143  32.996  32.790  1.00  0.00     0.049 A 
ATOM     14  N   UNL A   1      39.507  30.700  31.397  1.00  0.00    -0.248 NA
ATOM     15  C   UNL A   1      38.050  30.995  29.598  1.00  0.00     0.031 C 
ATOM     16  C   UNL A   1      37.484  34.085  33.518  1.00  0.00     0.029 A 
ATOM     17  N   UNL A   1      39.162  32.613  33.621  1.00  0.00    -0.354 N 
ATOM     18  C   UNL A   1      39.793  29.752  30.422  1.00  0.00     0.074 A 
ATOM     19  C   UNL A   1      38.830  29.950  29.357  1.00  0.00     0.031 C 
ATOM     20  C   UNL A   1      38.127  34.294  34.673  1.00  0.00     0.029 A 
ATOM     21  C   UNL A   1      39.189  33.306  34.809  1.00  0.00     0.049 A 
ATOM     22  H   UNL A   1      39.812  31.910  33.392  1.00  0.00     0.167 HD
ATOM     23  C   UNL A   1      40.772  28.811  30.418  1.00  0.00     0.034 A 
ATOM     24  C   UNL A   1      39.948  33.140  35.909  1.00  0.00     0.034 A 
ATOM     25  C   UNL A   1      41.713  28.633  31.499  1.00  0.00     0.049 A 
ATOM     26  C   UNL A   1      40.992  32.058  35.907  1.00  0.00     0.074 A 
ATOM     27  C   UNL A   1      42.773  27.747  31.584  1.00  0.00     0.029 A 
ATOM     28  N   UNL A   1      41.696  29.341  32.697  1.00  0.00    -0.354 N 
ATOM     29  N   UNL A   1      41.274  31.191  34.963  1.00  0.00    -0.248 NA
ATOM     30  C   UNL A   1      41.821  31.935  37.110  1.00  0.00     0.031 C 
ATOM     31  C   UNL A   1      43.341  27.861  32.857  1.00  0.00     0.029 A 
ATOM     32  C   UNL A   1      42.698  28.880  33.540  1.00  0.00     0.049 A 
ATOM     33  H   UNL A   1      41.065  30.064  32.915  1.00  0.00     0.167 HD
ATOM     34  C   UNL A   1      42.327  30.426  35.453  1.00  0.00     0.074 A 
ATOM     35  C   UNL A   1      42.637  30.947  36.770  1.00  0.00     0.031 C 
ATOM     36  C   UNL A   1      42.983  29.395  34.862  1.00  0.00     0.034 A 
BRANCH  23  37
ATOM     37  C   UNL A   1      40.827  27.872  29.234  1.00  0.00     0.023 A 
ATOM     38  C   UNL A   1      41.763  28.036  28.197  1.00  0.00     0.031 A 
ATOM     39  C   UNL A   1      39.898  26.823  29.113  1.00  0.00     0.131 A 
ATOM     40  C   UNL A   1      41.687  27.233  27.048  1.00  0.00     0.055 A 
ATOM     41  C   UNL A   1      39.887  25.967  28.009  1.00  0.00     0.041 A 
ATOM     42  F   UNL A   1      38.965  26.623  30.058  1.00  0.00    -0.206 F 
ATOM     43  C   UNL A   1      40.772  26.183  26.958  1.00  0.00     0.022 A 
BRANCH  40  44
ATOM     44  S   UNL A   1      42.678  27.700  25.602  1.00  0.00     0.124 S 
ATOM     45  O   UNL A   1      43.970  28.006  26.215  1.00  0.00    -0.237 OA
ATOM     46  O   UNL A   1      42.630  26.493  24.785  1.00  0.00    -0.237 OA
ATOM     47  O   UNL A   1      41.968  28.855  25.057  1.00  0.00    -0.744 OA
ENDBRANCH  40  44
ENDBRANCH  23  37
BRANCH  24  48
ATOM     48  C   UNL A   1      39.697  33.983  37.112  1.00  0.00     0.023 A 
ATOM     49  C   UNL A   1      39.005  33.485  38.224  1.00  0.00     0.031 A 
ATOM     50  C   UNL A   1      40.174  35.306  37.166  1.00  0.00     0.131 A 
ATOM     51  C   UNL A   1      38.790  34.313  39.338  1.00  0.00     0.055 A 
ATOM     52  C   UNL A   1      40.002  36.108  38.294  1.00  0.00     0.041 A 
ATOM     53  F   UNL A   1      40.850  35.828  36.129  1.00  0.00    -0.206 F 
ATOM     54  C   UNL A   1      39.299  35.614  39.387  1.00  0.00     0.022 A 
BRANCH  51  55
ATOM     55  S   UNL A   1      37.786  33.682  40.710  1.00  0.00     0.124 S 
ATOM     56  O   UNL A   1      36.692  33.027  40.001  1.00  0.00    -0.237 OA
ATOM     57  O   UNL A   1      38.727  32.801  41.394  1.00  0.00    -0.237 OA
ATOM     58  O   UNL A   1      37.419  34.890  41.446  1.00  0.00    -0.744 OA
ENDBRANCH  51  55
ENDBRANCH  24  48
BRANCH  36  59
ATOM     59  C   UNL A   1      44.133  28.788  35.626  1.00  0.00     0.023 A 
ATOM     60  C   UNL A   1      43.955  27.698  36.495  1.00  0.00     0.031 A 
ATOM     61  C   UNL A   1      45.431  29.310  35.474  1.00  0.00     0.131 A 
ATOM     62  C   UNL A   1      45.051  27.191  37.210  1.00  0.00     0.055 A 
ATOM     63  C   UNL A   1      46.525  28.764  36.144  1.00  0.00     0.041 A 
ATOM     64  F   UNL A   1      45.655  30.356  34.662  1.00  0.00    -0.206 F 
ATOM     65  C   UNL A   1      46.338  27.704  37.025  1.00  0.00     0.022 A 
BRANCH  62  66
ATOM     66  S   UNL A   1      44.763  25.893  38.446  1.00  0.00     0.124 S 
ATOM     67  O   UNL A   1      46.125  25.488  38.781  1.00  0.00    -0.237 OA
ATOM     68  O   UNL A   1      44.035  26.609  39.488  1.00  0.00    -0.237 OA
ATOM     69  O   UNL A   1      43.980  24.896  37.719  1.00  0.00    -0.744 OA
ENDBRANCH  62  66
ENDBRANCH  36  59
ENDBRANCH  10  11
ENDBRANCH   2   5
BRANCH   3  70
ATOM     70  C   UNL A   1      33.049  32.781  27.122  1.00  0.00     0.118 C 
BRANCH  70  71
ATOM     71  C   UNL A   1      31.834  31.872  27.018  1.00  0.00     0.042 C 
BRANCH  71  72
ATOM     72  C   UNL A   1      32.184  30.393  26.973  1.00  0.00     0.117 C 
BRANCH  72  73
ATOM     73  N   UNL A   1      32.819  30.027  25.722  1.00  0.00    -0.356 N 
ATOM     74  C   UNL A   1      32.458  29.260  24.671  1.00  0.00     0.223 C 
ATOM     75  H   UNL A   1      33.711  30.428  25.615  1.00  0.00     0.163 HD
ATOM     76  O   UNL A   1      33.307  29.167  23.772  1.00  0.00    -0.275 OA
BRANCH  74  77
ATOM     77  C   UNL A   1      31.155  28.475  24.517  1.00  0.00     0.079 C 
ATOM     78  C   UNL A   1      31.027  27.243  23.645  1.00  0.00     0.014 C 
ATOM     79  C   UNL A   1      29.972  29.364  24.123  1.00  0.00     0.026 C 
ATOM     80  C   UNL A   1      30.374  27.705  22.348  1.00  0.00     0.014 C 
ATOM     81  C   UNL A   1      29.555  28.962  22.685  1.00  0.00     0.026 C 
ATOM     82  C   UNL A   1      29.765  30.121  21.686  1.00  0.00     0.074 C 
ATOM     83  C   UNL A   1      28.044  28.717  22.575  1.00  0.00     0.267 C 
ATOM     84  C   UNL A   1      28.372  30.604  21.301  1.00  0.00     0.261 C 
ATOM     85  N   UNL A   1      27.483  30.046  22.323  1.00  0.00    -0.346 N 
ATOM     86  H   UNL A   1      26.526  29.977  21.977  1.00  0.00     0.346 HD
ATOM     87  H   UNL A   1      27.433  30.621  23.164  1.00  0.00     0.346 HD
ENDBRANCH  74  77
ENDBRANCH  72  73
ENDBRANCH  71  72
ENDBRANCH  70  71
ENDBRANCH   3  70
TORSDOF 13
ENDMDL
