MODEL 1
REMARK VINA RESULT:     -11.6      0.000      0.000
REMARK SMILES O=C(NCCCNC(=O)c1ccc2nc(Cl)sc2c1)c1ccc(-c2c3nc(c(-c4cc(S(=O)(=O)[O-])ccc4F)c4ccc([nH]4)c(-c4cc(S(=O)(=O)[O-])ccc4F)c4nc(c(-c5cc(S(=O)(=O)[O-])ccc5F)c5ccc2[nH]5)C=C4)C=C3)cc1
REMARK SMILES IDX 1 1 2 2 3 3 20 5 21 6 82 7 22 8 81 9 23 10 24 11 25 12 75 13
REMARK SMILES IDX 26 14 80 15 74 16 76 17 27 18 79 19 73 20 72 21 28 23 60 24
REMARK SMILES IDX 40 25 59 26 41 27 44 28 58 29 77 30 42 31 43 32 57 34 78 35
REMARK SMILES IDX 45 36 29 37 30 38 38 39 31 40 37 41 39 42 36 43 32 44 33 45
REMARK SMILES IDX 34 46 35 47 61 48 62 49 70 50 63 51 69 52 71 53 68 54 64 55
REMARK SMILES IDX 65 56 66 57 67 58 46 59 47 60 55 61 48 62 54 63 56 64 53 65
REMARK SMILES IDX 49 66 50 67 51 68 52 69 4 70 5 71 6 72 7 73 8 74 9 76 10 77
REMARK SMILES IDX 11 78 19 79 12 80 18 81 13 82 17 83 14 84 15 85 16 86
REMARK H PARENT 3 4 76 22 44 33 7 75
REMARK Flexibility Score: inf
ROOT
ATOM      1  O   UNL A   1      35.622  34.777  28.861  1.00  0.00    -0.269 OA
ATOM      2  C   UNL A   1      35.558  33.547  28.911  1.00  0.00     0.251 C 
ATOM      3  N   UNL A   1      34.503  32.951  28.281  1.00  0.00    -0.352 N 
ATOM      4  H   UNL A   1      34.056  33.522  27.615  1.00  0.00     0.163 HD
ENDROOT
BRANCH   2   5
ATOM      5  C   UNL A   1      36.621  32.790  29.614  1.00  0.00     0.039 A 
ATOM      6  C   UNL A   1      37.512  32.061  28.813  1.00  0.00     0.014 A 
ATOM      7  C   UNL A   1      36.665  32.642  31.004  1.00  0.00     0.014 A 
ATOM      8  C   UNL A   1      38.435  31.196  29.394  1.00  0.00     0.010 A 
ATOM      9  C   UNL A   1      37.606  31.787  31.589  1.00  0.00     0.010 A 
ATOM     10  C   UNL A   1      38.487  31.054  30.786  1.00  0.00    -0.014 A 
BRANCH  10  11
ATOM     11  C   UNL A   1      39.509  30.142  31.335  1.00  0.00     0.031 A 
ATOM     12  C   UNL A   1      39.538  28.770  30.744  1.00  0.00     0.074 A 
ATOM     13  C   UNL A   1      40.644  30.640  31.869  1.00  0.00     0.049 A 
ATOM     14  N   UNL A   1      40.097  28.501  29.599  1.00  0.00    -0.248 NA
ATOM     15  C   UNL A   1      38.731  27.673  31.277  1.00  0.00     0.031 C 
ATOM     16  C   UNL A   1      41.322  31.837  31.350  1.00  0.00     0.029 A 
ATOM     17  N   UNL A   1      41.541  30.100  32.761  1.00  0.00    -0.354 N 
ATOM     18  C   UNL A   1      39.701  27.224  29.235  1.00  0.00     0.074 A 
ATOM     19  C   UNL A   1      38.851  26.752  30.307  1.00  0.00     0.031 C 
ATOM     20  C   UNL A   1      42.594  31.841  31.799  1.00  0.00     0.029 A 
ATOM     21  C   UNL A   1      42.775  30.749  32.749  1.00  0.00     0.049 A 
ATOM     22  H   UNL A   1      41.334  29.337  33.346  1.00  0.00     0.167 HD
ATOM     23  C   UNL A   1      40.098  26.621  28.082  1.00  0.00     0.034 A 
ATOM     24  C   UNL A   1      43.965  30.144  33.023  1.00  0.00     0.034 A 
ATOM     25  C   UNL A   1      41.035  27.366  27.294  1.00  0.00     0.049 A 
ATOM     26  C   UNL A   1      44.156  29.328  31.762  1.00  0.00     0.074 A 
ATOM     27  C   UNL A   1      41.024  28.168  26.176  1.00  0.00     0.029 A 
ATOM     28  N   UNL A   1      42.349  27.359  27.700  1.00  0.00    -0.354 N 
ATOM     29  N   UNL A   1      44.566  29.779  30.601  1.00  0.00    -0.248 NA
ATOM     30  C   UNL A   1      43.497  28.023  31.705  1.00  0.00     0.031 C 
ATOM     31  C   UNL A   1      42.227  28.939  26.248  1.00  0.00     0.029 A 
ATOM     32  C   UNL A   1      42.870  28.599  27.441  1.00  0.00     0.049 A 
ATOM     33  H   UNL A   1      42.828  26.600  28.103  1.00  0.00     0.167 HD
ATOM     34  C   UNL A   1      43.954  28.958  29.644  1.00  0.00     0.074 A 
ATOM     35  C   UNL A   1      43.321  27.897  30.398  1.00  0.00     0.031 C 
ATOM     36  C   UNL A   1      43.824  29.261  28.317  1.00  0.00     0.034 A 
BRANCH  23  37
ATOM     37  C   UNL A   1      39.803  25.215  27.719  1.00  0.00     0.023 A 
ATOM     38  C   UNL A   1      38.667  24.830  26.992  1.00  0.00     0.031 A 
ATOM     39  C   UNL A   1      40.810  24.259  27.959  1.00  0.00     0.131 A 
ATOM     40  C   UNL A   1      38.585  23.512  26.506  1.00  0.00     0.055 A 
ATOM     41  C   UNL A   1      40.729  22.963  27.461  1.00  0.00     0.041 A 
ATOM     42  F   UNL A   1      41.910  24.597  28.653  1.00  0.00    -0.206 F 
ATOM     43  C   UNL A   1      39.615  22.587  26.722  1.00  0.00     0.022 A 
BRANCH  40  44
ATOM     44  S   UNL A   1      37.155  22.946  25.542  1.00  0.00     0.124 S 
ATOM     45  O   UNL A   1      37.252  23.768  24.334  1.00  0.00    -0.237 OA
ATOM     46  O   UNL A   1      37.465  21.527  25.352  1.00  0.00    -0.237 OA
ATOM     47  O   UNL A   1      36.017  23.225  26.401  1.00  0.00    -0.744 OA
ENDBRANCH  40  44
ENDBRANCH  23  37
BRANCH  24  48
ATOM     48  C   UNL A   1      44.039  29.616  34.427  1.00  0.00     0.023 A 
ATOM     49  C   UNL A   1      43.493  28.410  34.887  1.00  0.00     0.031 A 
ATOM     50  C   UNL A   1      44.626  30.454  35.405  1.00  0.00     0.131 A 
ATOM     51  C   UNL A   1      43.370  28.168  36.267  1.00  0.00     0.055 A 
ATOM     52  C   UNL A   1      44.564  30.178  36.775  1.00  0.00     0.041 A 
ATOM     53  F   UNL A   1      45.252  31.586  35.038  1.00  0.00    -0.206 F 
ATOM     54  C   UNL A   1      43.899  29.045  37.215  1.00  0.00     0.022 A 
BRANCH  51  55
ATOM     55  S   UNL A   1      42.419  26.742  36.868  1.00  0.00     0.124 S 
ATOM     56  O   UNL A   1      41.065  27.282  36.950  1.00  0.00    -0.237 OA
ATOM     57  O   UNL A   1      42.651  25.773  35.800  1.00  0.00    -0.237 OA
ATOM     58  O   UNL A   1      43.050  26.431  38.146  1.00  0.00    -0.744 OA
ENDBRANCH  51  55
ENDBRANCH  24  48
BRANCH  36  59
ATOM     59  C   UNL A   1      44.562  30.452  27.786  1.00  0.00     0.023 A 
ATOM     60  C   UNL A   1      44.095  31.757  28.042  1.00  0.00     0.031 A 
ATOM     61  C   UNL A   1      45.601  30.289  26.859  1.00  0.00     0.131 A 
ATOM     62  C   UNL A   1      44.582  32.833  27.292  1.00  0.00     0.055 A 
ATOM     63  C   UNL A   1      46.135  31.378  26.166  1.00  0.00     0.041 A 
ATOM     64  F   UNL A   1      46.057  29.064  26.549  1.00  0.00    -0.206 F 
ATOM     65  C   UNL A   1      45.609  32.652  26.362  1.00  0.00     0.022 A 
BRANCH  62  66
ATOM     66  S   UNL A   1      43.812  34.472  27.409  1.00  0.00     0.124 S 
ATOM     67  O   UNL A   1      44.955  35.340  27.687  1.00  0.00    -0.237 OA
ATOM     68  O   UNL A   1      43.224  34.623  26.079  1.00  0.00    -0.237 OA
ATOM     69  O   UNL A   1      42.856  34.338  28.504  1.00  0.00    -0.744 OA
ENDBRANCH  62  66
ENDBRANCH  36  59
ENDBRANCH  10  11
ENDBRANCH   2   5
BRANCH   3  70
ATOM     70  C   UNL A   1      33.920  31.626  28.413  1.00  0.00     0.118 C 
BRANCH  70  71
ATOM     71  C   UNL A   1      33.906  30.896  27.065  1.00  0.00     0.042 C 
BRANCH  71  72
ATOM     72  C   UNL A   1      34.113  29.381  27.138  1.00  0.00     0.118 C 
BRANCH  72  73
ATOM     73  N   UNL A   1      32.955  28.665  27.647  1.00  0.00    -0.352 N 
ATOM     74  C   UNL A   1      32.234  27.651  27.075  1.00  0.00     0.251 C 
ATOM     75  H   UNL A   1      32.641  28.953  28.534  1.00  0.00     0.163 HD
ATOM     76  O   UNL A   1      31.210  27.230  27.612  1.00  0.00    -0.269 OA
BRANCH  74  77
ATOM     77  C   UNL A   1      32.655  27.045  25.794  1.00  0.00     0.041 A 
ATOM     78  C   UNL A   1      33.748  26.178  25.727  1.00  0.00     0.016 A 
ATOM     79  C   UNL A   1      31.867  27.301  24.663  1.00  0.00     0.035 A 
ATOM     80  C   UNL A   1      34.111  25.595  24.508  1.00  0.00     0.031 A 
ATOM     81  C   UNL A   1      32.240  26.704  23.450  1.00  0.00     0.057 A 
ATOM     82  C   UNL A   1      33.353  25.860  23.348  1.00  0.00     0.083 A 
ATOM     83  S   UNL A   1      31.492  26.831  21.900  1.00  0.00    -0.102 S 
ATOM     84  N   UNL A   1      33.599  25.350  22.084  1.00  0.00    -0.225 NA
ATOM     85  C   UNL A   1      32.683  25.805  21.268  1.00  0.00     0.184 A 
ATOM     86  Cl  UNL A   1      32.656  25.389  19.601  1.00  0.00    -0.050 Cl
ENDBRANCH  74  77
ENDBRANCH  72  73
ENDBRANCH  71  72
ENDBRANCH  70  71
ENDBRANCH   3  70
TORSDOF 13
ENDMDL
MODEL 2
REMARK VINA RESULT:     -11.6      2.835      8.208
REMARK SMILES O=C(NCCCNC(=O)c1ccc2nc(Cl)sc2c1)c1ccc(-c2c3nc(c(-c4cc(S(=O)(=O)[O-])ccc4F)c4ccc([nH]4)c(-c4cc(S(=O)(=O)[O-])ccc4F)c4nc(c(-c5cc(S(=O)(=O)[O-])ccc5F)c5ccc2[nH]5)C=C4)C=C3)cc1
REMARK SMILES IDX 1 1 2 2 3 3 20 5 21 6 82 7 22 8 81 9 23 10 24 11 25 12 75 13
REMARK SMILES IDX 26 14 80 15 74 16 76 17 27 18 79 19 73 20 72 21 28 23 60 24
REMARK SMILES IDX 40 25 59 26 41 27 44 28 58 29 77 30 42 31 43 32 57 34 78 35
REMARK SMILES IDX 45 36 29 37 30 38 38 39 31 40 37 41 39 42 36 43 32 44 33 45
REMARK SMILES IDX 34 46 35 47 61 48 62 49 70 50 63 51 69 52 71 53 68 54 64 55
REMARK SMILES IDX 65 56 66 57 67 58 46 59 47 60 55 61 48 62 54 63 56 64 53 65
REMARK SMILES IDX 49 66 50 67 51 68 52 69 4 70 5 71 6 72 7 73 8 74 9 76 10 77
REMARK SMILES IDX 11 78 19 79 12 80 18 81 13 82 17 83 14 84 15 85 16 86
REMARK H PARENT 3 4 76 22 44 33 7 75
REMARK Flexibility Score: inf
ROOT
ATOM      1  O   UNL A   1      41.848  20.522  27.412  1.00  0.00    -0.269 OA
ATOM      2  C   UNL A   1      41.145  21.484  27.096  1.00  0.00     0.251 C 
ATOM      3  N   UNL A   1      39.902  21.212  26.596  1.00  0.00    -0.352 N 
ATOM      4  H   UNL A   1      39.577  20.305  26.799  1.00  0.00     0.163 HD
ENDROOT
BRANCH   2   5
ATOM      5  C   UNL A   1      41.660  22.860  27.291  1.00  0.00     0.039 A 
ATOM      6  C   UNL A   1      40.871  23.725  28.062  1.00  0.00     0.014 A 
ATOM      7  C   UNL A   1      42.780  23.363  26.621  1.00  0.00     0.014 A 
ATOM      8  C   UNL A   1      41.197  25.075  28.161  1.00  0.00     0.010 A 
ATOM      9  C   UNL A   1      43.118  24.716  26.735  1.00  0.00     0.010 A 
ATOM     10  C   UNL A   1      42.323  25.578  27.498  1.00  0.00    -0.014 A 
BRANCH  10  11
ATOM     11  C   UNL A   1      42.624  27.012  27.670  1.00  0.00     0.031 A 
ATOM     12  C   UNL A   1      41.452  27.936  27.593  1.00  0.00     0.074 A 
ATOM     13  C   UNL A   1      43.704  27.396  28.385  1.00  0.00     0.049 A 
ATOM     14  N   UNL A   1      40.628  28.122  28.583  1.00  0.00    -0.248 NA
ATOM     15  C   UNL A   1      40.993  28.510  26.328  1.00  0.00     0.031 C 
ATOM     16  C   UNL A   1      44.180  26.675  29.575  1.00  0.00     0.029 A 
ATOM     17  N   UNL A   1      44.422  28.568  28.385  1.00  0.00    -0.354 N 
ATOM     18  C   UNL A   1      39.529  28.803  28.084  1.00  0.00     0.074 A 
ATOM     19  C   UNL A   1      39.801  29.019  26.679  1.00  0.00     0.031 C 
ATOM     20  C   UNL A   1      44.980  27.497  30.284  1.00  0.00     0.029 A 
ATOM     21  C   UNL A   1      45.197  28.730  29.534  1.00  0.00     0.049 A 
ATOM     22  H   UNL A   1      44.394  29.223  27.652  1.00  0.00     0.167 HD
ATOM     23  C   UNL A   1      38.463  29.161  28.850  1.00  0.00     0.034 A 
ATOM     24  C   UNL A   1      45.509  29.935  30.087  1.00  0.00     0.034 A 
ATOM     25  C   UNL A   1      38.586  28.860  30.245  1.00  0.00     0.049 A 
ATOM     26  C   UNL A   1      44.174  30.317  30.690  1.00  0.00     0.074 A 
ATOM     27  C   UNL A   1      38.146  27.901  31.130  1.00  0.00     0.029 A 
ATOM     28  N   UNL A   1      39.361  29.701  31.009  1.00  0.00    -0.354 N 
ATOM     29  N   UNL A   1      43.666  29.850  31.806  1.00  0.00    -0.248 NA
ATOM     30  C   UNL A   1      43.204  30.965  29.809  1.00  0.00     0.031 C 
ATOM     31  C   UNL A   1      39.039  27.973  32.246  1.00  0.00     0.029 A 
ATOM     32  C   UNL A   1      40.005  28.936  31.945  1.00  0.00     0.049 A 
ATOM     33  H   UNL A   1      39.439  30.676  30.901  1.00  0.00     0.167 HD
ATOM     34  C   UNL A   1      42.277  29.884  31.626  1.00  0.00     0.074 A 
ATOM     35  C   UNL A   1      42.069  30.590  30.379  1.00  0.00     0.031 C 
ATOM     36  C   UNL A   1      41.370  29.191  32.379  1.00  0.00     0.034 A 
BRANCH  23  37
ATOM     37  C   UNL A   1      37.333  30.000  28.387  1.00  0.00     0.023 A 
ATOM     38  C   UNL A   1      36.149  29.470  27.854  1.00  0.00     0.031 A 
ATOM     39  C   UNL A   1      37.390  31.378  28.671  1.00  0.00     0.131 A 
ATOM     40  C   UNL A   1      35.052  30.325  27.649  1.00  0.00     0.055 A 
ATOM     41  C   UNL A   1      36.296  32.215  28.481  1.00  0.00     0.041 A 
ATOM     42  F   UNL A   1      38.511  31.917  29.180  1.00  0.00    -0.206 F 
ATOM     43  C   UNL A   1      35.115  31.687  27.975  1.00  0.00     0.022 A 
BRANCH  40  44
ATOM     44  S   UNL A   1      33.480  29.709  26.982  1.00  0.00     0.124 S 
ATOM     45  O   UNL A   1      32.566  30.816  27.271  1.00  0.00    -0.237 OA
ATOM     46  O   UNL A   1      33.807  29.528  25.566  1.00  0.00    -0.237 OA
ATOM     47  O   UNL A   1      33.237  28.485  27.726  1.00  0.00    -0.744 OA
ENDBRANCH  40  44
ENDBRANCH  23  37
BRANCH  24  48
ATOM     48  C   UNL A   1      46.336  30.797  29.176  1.00  0.00     0.023 A 
ATOM     49  C   UNL A   1      45.864  31.847  28.378  1.00  0.00     0.031 A 
ATOM     50  C   UNL A   1      47.703  30.458  29.026  1.00  0.00     0.131 A 
ATOM     51  C   UNL A   1      46.671  32.380  27.356  1.00  0.00     0.055 A 
ATOM     52  C   UNL A   1      48.524  31.038  28.053  1.00  0.00     0.041 A 
ATOM     53  F   UNL A   1      48.258  29.523  29.816  1.00  0.00    -0.206 F 
ATOM     54  C   UNL A   1      47.996  31.980  27.185  1.00  0.00     0.022 A 
BRANCH  51  55
ATOM     55  S   UNL A   1      45.973  33.542  26.147  1.00  0.00     0.124 S 
ATOM     56  O   UNL A   1      47.170  34.097  25.521  1.00  0.00    -0.237 OA
ATOM     57  O   UNL A   1      45.180  32.644  25.311  1.00  0.00    -0.237 OA
ATOM     58  O   UNL A   1      45.208  34.469  26.974  1.00  0.00    -0.744 OA
ENDBRANCH  51  55
ENDBRANCH  24  48
BRANCH  36  59
ATOM     59  C   UNL A   1      41.856  28.506  33.620  1.00  0.00     0.023 A 
ATOM     60  C   UNL A   1      42.633  27.333  33.533  1.00  0.00     0.031 A 
ATOM     61  C   UNL A   1      41.377  28.892  34.880  1.00  0.00     0.131 A 
ATOM     62  C   UNL A   1      42.807  26.525  34.662  1.00  0.00     0.055 A 
ATOM     63  C   UNL A   1      41.617  28.119  36.018  1.00  0.00     0.041 A 
ATOM     64  F   UNL A   1      40.598  29.979  35.013  1.00  0.00    -0.206 F 
ATOM     65  C   UNL A   1      42.313  26.918  35.909  1.00  0.00     0.022 A 
BRANCH  62  66
ATOM     66  S   UNL A   1      43.569  24.884  34.522  1.00  0.00     0.124 S 
ATOM     67  O   UNL A   1      42.467  23.991  34.876  1.00  0.00    -0.237 OA
ATOM     68  O   UNL A   1      43.965  24.855  33.115  1.00  0.00    -0.237 OA
ATOM     69  O   UNL A   1      44.669  24.920  35.481  1.00  0.00    -0.744 OA
ENDBRANCH  62  66
ENDBRANCH  36  59
ENDBRANCH  10  11
ENDBRANCH   2   5
BRANCH   3  70
ATOM     70  C   UNL A   1      38.973  22.017  25.822  1.00  0.00     0.118 C 
BRANCH  70  71
ATOM     71  C   UNL A   1      37.838  21.153  25.258  1.00  0.00     0.042 C 
BRANCH  71  72
ATOM     72  C   UNL A   1      36.441  21.478  25.792  1.00  0.00     0.118 C 
BRANCH  72  73
ATOM     73  N   UNL A   1      35.417  20.558  25.324  1.00  0.00    -0.352 N 
ATOM     74  C   UNL A   1      34.200  20.820  24.754  1.00  0.00     0.251 C 
ATOM     75  H   UNL A   1      35.631  19.603  25.434  1.00  0.00     0.163 HD
ATOM     76  O   UNL A   1      33.412  19.907  24.511  1.00  0.00    -0.269 OA
BRANCH  74  77
ATOM     77  C   UNL A   1      33.793  22.203  24.430  1.00  0.00     0.041 A 
ATOM     78  C   UNL A   1      34.137  22.794  23.212  1.00  0.00     0.016 A 
ATOM     79  C   UNL A   1      32.974  22.873  25.351  1.00  0.00     0.035 A 
ATOM     80  C   UNL A   1      33.717  24.096  22.917  1.00  0.00     0.031 A 
ATOM     81  C   UNL A   1      32.556  24.175  25.037  1.00  0.00     0.057 A 
ATOM     82  C   UNL A   1      32.918  24.804  23.839  1.00  0.00     0.083 A 
ATOM     83  S   UNL A   1      31.568  25.251  25.956  1.00  0.00    -0.102 S 
ATOM     84  N   UNL A   1      32.434  26.090  23.673  1.00  0.00    -0.225 NA
ATOM     85  C   UNL A   1      31.725  26.406  24.726  1.00  0.00     0.184 A 
ATOM     86  Cl  UNL A   1      30.956  27.934  24.887  1.00  0.00    -0.050 Cl
ENDBRANCH  74  77
ENDBRANCH  72  73
ENDBRANCH  71  72
ENDBRANCH  70  71
ENDBRANCH   3  70
TORSDOF 13
ENDMDL
MODEL 3
REMARK VINA RESULT:     -11.6      3.331      8.644
REMARK SMILES O=C(NCCCNC(=O)c1ccc2nc(Cl)sc2c1)c1ccc(-c2c3nc(c(-c4cc(S(=O)(=O)[O-])ccc4F)c4ccc([nH]4)c(-c4cc(S(=O)(=O)[O-])ccc4F)c4nc(c(-c5cc(S(=O)(=O)[O-])ccc5F)c5ccc2[nH]5)C=C4)C=C3)cc1
REMARK SMILES IDX 1 1 2 2 3 3 20 5 21 6 82 7 22 8 81 9 23 10 24 11 25 12 75 13
REMARK SMILES IDX 26 14 80 15 74 16 76 17 27 18 79 19 73 20 72 21 28 23 60 24
REMARK SMILES IDX 40 25 59 26 41 27 44 28 58 29 77 30 42 31 43 32 57 34 78 35
REMARK SMILES IDX 45 36 29 37 30 38 38 39 31 40 37 41 39 42 36 43 32 44 33 45
REMARK SMILES IDX 34 46 35 47 61 48 62 49 70 50 63 51 69 52 71 53 68 54 64 55
REMARK SMILES IDX 65 56 66 57 67 58 46 59 47 60 55 61 48 62 54 63 56 64 53 65
REMARK SMILES IDX 49 66 50 67 51 68 52 69 4 70 5 71 6 72 7 73 8 74 9 76 10 77
REMARK SMILES IDX 11 78 19 79 12 80 18 81 13 82 17 83 14 84 15 85 16 86
REMARK H PARENT 3 4 76 22 44 33 7 75
REMARK Flexibility Score: inf
ROOT
ATOM      1  O   UNL A   1      41.089  20.868  27.451  1.00  0.00    -0.269 OA
ATOM      2  C   UNL A   1      40.442  21.823  27.018  1.00  0.00     0.251 C 
ATOM      3  N   UNL A   1      39.250  21.546  26.411  1.00  0.00    -0.352 N 
ATOM      4  H   UNL A   1      38.887  20.657  26.624  1.00  0.00     0.163 HD
ENDROOT
BRANCH   2   5
ATOM      5  C   UNL A   1      40.964  23.199  27.197  1.00  0.00     0.039 A 
ATOM      6  C   UNL A   1      40.390  23.964  28.223  1.00  0.00     0.014 A 
ATOM      7  C   UNL A   1      41.858  23.802  26.307  1.00  0.00     0.014 A 
ATOM      8  C   UNL A   1      40.705  25.313  28.356  1.00  0.00     0.010 A 
ATOM      9  C   UNL A   1      42.188  25.154  26.452  1.00  0.00     0.010 A 
ATOM     10  C   UNL A   1      41.607  25.916  27.471  1.00  0.00    -0.014 A 
BRANCH  10  11
ATOM     11  C   UNL A   1      41.915  27.342  27.688  1.00  0.00     0.031 A 
ATOM     12  C   UNL A   1      40.735  28.245  27.847  1.00  0.00     0.074 A 
ATOM     13  C   UNL A   1      43.086  27.703  28.257  1.00  0.00     0.049 A 
ATOM     14  N   UNL A   1      40.068  28.353  28.960  1.00  0.00    -0.248 NA
ATOM     15  C   UNL A   1      40.085  28.888  26.705  1.00  0.00     0.031 C 
ATOM     16  C   UNL A   1      43.744  26.919  29.313  1.00  0.00     0.029 A 
ATOM     17  N   UNL A   1      43.784  28.887  28.225  1.00  0.00    -0.354 N 
ATOM     18  C   UNL A   1      38.899  29.042  28.675  1.00  0.00     0.074 A 
ATOM     19  C   UNL A   1      38.955  29.350  27.263  1.00  0.00     0.031 C 
ATOM     20  C   UNL A   1      44.633  27.711  29.947  1.00  0.00     0.029 A 
ATOM     21  C   UNL A   1      44.721  28.992  29.253  1.00  0.00     0.049 A 
ATOM     22  H   UNL A   1      43.639  29.586  27.549  1.00  0.00     0.167 HD
ATOM     23  C   UNL A   1      37.957  29.329  29.614  1.00  0.00     0.034 A 
ATOM     24  C   UNL A   1      45.100  30.166  29.830  1.00  0.00     0.034 A 
ATOM     25  C   UNL A   1      38.291  28.944  30.953  1.00  0.00     0.049 A 
ATOM     26  C   UNL A   1      43.868  30.483  30.650  1.00  0.00     0.074 A 
ATOM     27  C   UNL A   1      38.001  27.923  31.829  1.00  0.00     0.029 A 
ATOM     28  N   UNL A   1      39.164  29.752  31.644  1.00  0.00    -0.354 N 
ATOM     29  N   UNL A   1      43.538  29.938  31.797  1.00  0.00    -0.248 NA
ATOM     30  C   UNL A   1      42.769  31.165  29.967  1.00  0.00     0.031 C 
ATOM     31  C   UNL A   1      39.050  27.944  32.801  1.00  0.00     0.029 A 
ATOM     32  C   UNL A   1      39.950  28.943  32.422  1.00  0.00     0.049 A 
ATOM     33  H   UNL A   1      39.215  30.733  31.589  1.00  0.00     0.167 HD
ATOM     34  C   UNL A   1      42.137  29.954  31.829  1.00  0.00     0.074 A 
ATOM     35  C   UNL A   1      41.736  30.733  30.676  1.00  0.00     0.031 C 
ATOM     36  C   UNL A   1      41.361  29.198  32.663  1.00  0.00     0.034 A 
BRANCH  23  37
ATOM     37  C   UNL A   1      36.761  30.173  29.380  1.00  0.00     0.023 A 
ATOM     38  C   UNL A   1      36.550  31.403  30.018  1.00  0.00     0.031 A 
ATOM     39  C   UNL A   1      35.900  29.797  28.331  1.00  0.00     0.131 A 
ATOM     40  C   UNL A   1      35.504  32.231  29.571  1.00  0.00     0.055 A 
ATOM     41  C   UNL A   1      34.879  30.628  27.882  1.00  0.00     0.041 A 
ATOM     42  F   UNL A   1      36.076  28.623  27.700  1.00  0.00    -0.206 F 
ATOM     43  C   UNL A   1      34.682  31.857  28.500  1.00  0.00     0.022 A 
BRANCH  40  44
ATOM     44  S   UNL A   1      35.181  33.846  30.335  1.00  0.00     0.124 S 
ATOM     45  O   UNL A   1      34.804  34.664  29.180  1.00  0.00    -0.237 OA
ATOM     46  O   UNL A   1      34.086  33.528  31.253  1.00  0.00    -0.237 OA
ATOM     47  O   UNL A   1      36.442  34.196  30.966  1.00  0.00    -0.744 OA
ENDBRANCH  40  44
ENDBRANCH  23  37
BRANCH  24  48
ATOM     48  C   UNL A   1      45.772  31.100  28.863  1.00  0.00     0.023 A 
ATOM     49  C   UNL A   1      45.135  32.053  28.058  1.00  0.00     0.031 A 
ATOM     50  C   UNL A   1      47.164  30.938  28.666  1.00  0.00     0.131 A 
ATOM     51  C   UNL A   1      45.826  32.654  26.990  1.00  0.00     0.055 A 
ATOM     52  C   UNL A   1      47.865  31.589  27.645  1.00  0.00     0.041 A 
ATOM     53  F   UNL A   1      47.867  30.110  29.457  1.00  0.00    -0.206 F 
ATOM     54  C   UNL A   1      47.185  32.427  26.775  1.00  0.00     0.022 A 
BRANCH  51  55
ATOM     55  S   UNL A   1      44.936  33.676  25.780  1.00  0.00     0.124 S 
ATOM     56  O   UNL A   1      46.013  34.455  25.176  1.00  0.00    -0.237 OA
ATOM     57  O   UNL A   1      44.339  32.653  24.925  1.00  0.00    -0.237 OA
ATOM     58  O   UNL A   1      43.998  34.432  26.603  1.00  0.00    -0.744 OA
ENDBRANCH  51  55
ENDBRANCH  24  48
BRANCH  36  59
ATOM     59  C   UNL A   1      42.037  28.446  33.770  1.00  0.00     0.023 A 
ATOM     60  C   UNL A   1      42.814  27.305  33.491  1.00  0.00     0.031 A 
ATOM     61  C   UNL A   1      41.739  28.735  35.110  1.00  0.00     0.131 A 
ATOM     62  C   UNL A   1      43.166  26.430  34.524  1.00  0.00     0.055 A 
ATOM     63  C   UNL A   1      42.157  27.896  36.145  1.00  0.00     0.041 A 
ATOM     64  F   UNL A   1      40.967  29.788  35.429  1.00  0.00    -0.206 F 
ATOM     65  C   UNL A   1      42.852  26.725  35.853  1.00  0.00     0.022 A 
BRANCH  62  66
ATOM     66  S   UNL A   1      43.931  24.824  34.162  1.00  0.00     0.124 S 
ATOM     67  O   UNL A   1      44.197  24.915  32.727  1.00  0.00    -0.237 OA
ATOM     68  O   UNL A   1      45.115  24.855  35.018  1.00  0.00    -0.237 OA
ATOM     69  O   UNL A   1      42.910  23.852  34.541  1.00  0.00    -0.744 OA
ENDBRANCH  62  66
ENDBRANCH  36  59
ENDBRANCH  10  11
ENDBRANCH   2   5
BRANCH   3  70
ATOM     70  C   UNL A   1      38.419  22.326  25.508  1.00  0.00     0.118 C 
BRANCH  70  71
ATOM     71  C   UNL A   1      37.671  23.429  26.267  1.00  0.00     0.042 C 
BRANCH  71  72
ATOM     72  C   UNL A   1      36.152  23.435  26.082  1.00  0.00     0.118 C 
BRANCH  72  73
ATOM     73  N   UNL A   1      35.736  23.816  24.742  1.00  0.00    -0.352 N 
ATOM     74  C   UNL A   1      34.865  23.195  23.887  1.00  0.00     0.251 C 
ATOM     75  H   UNL A   1      36.143  24.644  24.397  1.00  0.00     0.163 HD
ATOM     76  O   UNL A   1      34.711  23.611  22.739  1.00  0.00    -0.269 OA
BRANCH  74  77
ATOM     77  C   UNL A   1      34.100  22.004  24.311  1.00  0.00     0.041 A 
ATOM     78  C   UNL A   1      32.763  22.102  24.701  1.00  0.00     0.016 A 
ATOM     79  C   UNL A   1      34.737  20.758  24.226  1.00  0.00     0.035 A 
ATOM     80  C   UNL A   1      32.051  20.956  25.073  1.00  0.00     0.031 A 
ATOM     81  C   UNL A   1      34.009  19.617  24.596  1.00  0.00     0.057 A 
ATOM     82  C   UNL A   1      32.678  19.693  25.026  1.00  0.00     0.083 A 
ATOM     83  S   UNL A   1      34.508  17.966  24.613  1.00  0.00    -0.102 S 
ATOM     84  N   UNL A   1      32.092  18.484  25.363  1.00  0.00    -0.225 NA
ATOM     85  C   UNL A   1      32.972  17.532  25.182  1.00  0.00     0.184 A 
ATOM     86  Cl  UNL A   1      32.611  15.882  25.495  1.00  0.00    -0.050 Cl
ENDBRANCH  74  77
ENDBRANCH  72  73
ENDBRANCH  71  72
ENDBRANCH  70  71
ENDBRANCH   3  70
TORSDOF 13
ENDMDL
