MODEL 1
REMARK VINA RESULT:     -13.2      0.000      0.000
REMARK SMILES [NH2+]=C1S[C@@H](C(=O)Nc2ccc(C(=O)NCCCNC(=O)c3ccc(-c4c5nc(c(-c6cc(S(=O)(=O)[O-])ccc6F)c6ccc([nH]6)c(-c6cc(S(=O)(=O)[O-])ccc6F)c6nc(c(-c7cc(S(=O)(=O)[O-])ccc7F)c7ccc4[nH]7)C=C6)C=C5)cc3)cc2)CC(=O)N1/N=C/c1ccc(Cl)cc1
REMARK SMILES IDX 15 1 14 2 12 3 13 4 11 6 8 7 9 8 85 9 10 10 84 11 7 12 5 13
REMARK SMILES IDX 6 14 4 16 1 17 2 18 3 21 89 22 87 23 86 24 88 25 90 26 91 27
REMARK SMILES IDX 92 28 93 29 98 30 94 31 97 32 95 33 96 34 16 35 17 36 18 37
REMARK SMILES IDX 19 38 20 40 21 41 22 42 83 43 23 44 82 45 24 46 25 47 26 48
REMARK SMILES IDX 76 49 27 50 81 51 75 52 77 53 28 54 80 55 74 56 73 57 29 59
REMARK SMILES IDX 61 60 41 61 60 62 42 63 45 64 59 65 78 66 43 67 44 68 58 70
REMARK SMILES IDX 79 71 46 72 30 73 31 74 39 75 32 76 38 77 40 78 37 79 33 80
REMARK SMILES IDX 34 81 35 82 36 83 62 84 63 85 71 86 64 87 70 88 72 89 69 90
REMARK SMILES IDX 65 91 66 92 67 93 68 94 47 95 48 96 56 97 49 98 55 99 57 100
REMARK SMILES IDX 54 101 50 102 51 103 52 104 53 105
REMARK H PARENT 14 5 7 15 1 19 1 20 18 39 77 58 45 69
REMARK Flexibility Score: inf
ROOT
ATOM      1  C   UNL A   1      31.388  30.807  26.097  1.00  0.00     0.118 C 
ENDROOT
BRANCH   1   2
ATOM      2  N   UNL A   1      30.990  30.654  24.701  1.00  0.00    -0.352 N 
ATOM      3  C   UNL A   1      30.794  29.508  23.970  1.00  0.00     0.251 C 
ATOM      4  O   UNL A   1      30.215  29.568  22.888  1.00  0.00    -0.269 OA
ATOM      5  H   UNL A   1      30.841  31.496  24.213  1.00  0.00     0.163 HD
BRANCH   3   6
ATOM      6  C   UNL A   1      31.192  28.189  24.507  1.00  0.00     0.039 A 
ATOM      7  C   UNL A   1      31.808  25.765  25.735  1.00  0.00     0.041 A 
ATOM      8  C   UNL A   1      30.521  25.984  25.243  1.00  0.00     0.027 A 
ATOM      9  C   UNL A   1      32.819  26.691  25.479  1.00  0.00     0.027 A 
ATOM     10  C   UNL A   1      30.205  27.208  24.652  1.00  0.00     0.016 A 
ATOM     11  C   UNL A   1      32.514  27.901  24.853  1.00  0.00     0.016 A 
BRANCH   7  12
ATOM     12  N   UNL A   1      32.068  24.566  26.391  1.00  0.00    -0.325 N 
ATOM     13  C   UNL A   1      32.029  23.278  25.951  1.00  0.00     0.238 C 
ATOM     14  O   UNL A   1      31.922  22.399  26.818  1.00  0.00    -0.273 OA
ATOM     15  H   UNL A   1      32.324  24.666  27.336  1.00  0.00     0.169 HD
BRANCH  13  16
ATOM     16  C   UNL A   1      32.366  22.863  24.505  1.00  0.00     0.160 C 
ATOM     17  N   UNL A   1      34.345  19.857  25.629  1.00  0.00    -0.279 N 
ATOM     18  C   UNL A   1      34.100  20.839  24.830  1.00  0.00     0.338 C 
ATOM     19  H   UNL A   1      33.605  19.306  25.973  1.00  0.00     0.302 HD
ATOM     20  H   UNL A   1      35.271  19.659  25.896  1.00  0.00     0.302 HD
ATOM     21  S   UNL A   1      32.444  21.062  24.377  1.00  0.00    -0.022 SA
ATOM     22  N   UNL A   1      35.065  21.684  24.283  1.00  0.00    -0.057 N 
ATOM     23  C   UNL A   1      34.814  22.883  23.601  1.00  0.00     0.337 C 
ATOM     24  C   UNL A   1      33.442  23.524  23.692  1.00  0.00     0.155 C 
ATOM     25  O   UNL A   1      35.654  23.456  22.896  1.00  0.00    -0.244 OA
BRANCH  22  26
ATOM     26  N   UNL A   1      36.434  21.389  24.413  1.00  0.00    -0.082 NA
ATOM     27  C   UNL A   1      37.025  21.679  25.527  1.00  0.00     0.167 C 
BRANCH  27  28
ATOM     28  C   UNL A   1      38.443  21.329  25.764  1.00  0.00    -0.003 A 
ATOM     29  C   UNL A   1      39.286  22.325  26.264  1.00  0.00     0.011 A 
ATOM     30  C   UNL A   1      38.932  20.039  25.552  1.00  0.00     0.011 A 
ATOM     31  C   UNL A   1      40.611  22.018  26.587  1.00  0.00     0.021 A 
ATOM     32  C   UNL A   1      40.259  19.732  25.874  1.00  0.00     0.021 A 
ATOM     33  C   UNL A   1      41.091  20.722  26.396  1.00  0.00     0.041 A 
ATOM     34  Cl  UNL A   1      42.718  20.348  26.809  1.00  0.00    -0.084 Cl
ENDBRANCH  27  28
ENDBRANCH  22  26
ENDBRANCH  13  16
ENDBRANCH   7  12
ENDBRANCH   3   6
ENDBRANCH   1   2
BRANCH   1  35
ATOM     35  C   UNL A   1      31.348  32.260  26.541  1.00  0.00     0.042 C 
BRANCH  35  36
ATOM     36  C   UNL A   1      32.657  32.709  27.175  1.00  0.00     0.118 C 
BRANCH  36  37
ATOM     37  N   UNL A   1      32.585  34.061  27.713  1.00  0.00    -0.352 N 
ATOM     38  C   UNL A   1      33.357  34.641  28.700  1.00  0.00     0.251 C 
ATOM     39  H   UNL A   1      31.893  34.640  27.319  1.00  0.00     0.163 HD
ATOM     40  O   UNL A   1      33.062  35.741  29.143  1.00  0.00    -0.269 OA
BRANCH  38  41
ATOM     41  C   UNL A   1      34.517  33.896  29.246  1.00  0.00     0.039 A 
ATOM     42  C   UNL A   1      35.806  34.270  28.859  1.00  0.00     0.014 A 
ATOM     43  C   UNL A   1      34.335  32.861  30.167  1.00  0.00     0.014 A 
ATOM     44  C   UNL A   1      36.913  33.662  29.458  1.00  0.00     0.010 A 
ATOM     45  C   UNL A   1      35.435  32.320  30.825  1.00  0.00     0.010 A 
ATOM     46  C   UNL A   1      36.738  32.714  30.479  1.00  0.00    -0.014 A 
BRANCH  46  47
ATOM     47  C   UNL A   1      37.900  32.125  31.200  1.00  0.00     0.031 A 
ATOM     48  C   UNL A   1      38.680  30.997  30.579  1.00  0.00     0.074 A 
ATOM     49  C   UNL A   1      38.197  32.541  32.447  1.00  0.00     0.049 A 
ATOM     50  N   UNL A   1      39.661  30.290  31.080  1.00  0.00    -0.248 NA
ATOM     51  C   UNL A   1      38.273  30.586  29.227  1.00  0.00     0.031 C 
ATOM     52  C   UNL A   1      37.475  33.580  33.185  1.00  0.00     0.029 A 
ATOM     53  N   UNL A   1      39.171  32.129  33.323  1.00  0.00    -0.354 N 
ATOM     54  C   UNL A   1      39.970  29.335  30.118  1.00  0.00     0.074 A 
ATOM     55  C   UNL A   1      39.027  29.515  29.035  1.00  0.00     0.031 C 
ATOM     56  C   UNL A   1      38.039  33.734  34.393  1.00  0.00     0.029 A 
ATOM     57  C   UNL A   1      39.133  32.778  34.536  1.00  0.00     0.049 A 
ATOM     58  H   UNL A   1      39.833  31.436  33.103  1.00  0.00     0.167 HD
ATOM     59  C   UNL A   1      40.962  28.409  30.127  1.00  0.00     0.034 A 
ATOM     60  C   UNL A   1      39.881  32.612  35.645  1.00  0.00     0.034 A 
ATOM     61  C   UNL A   1      41.905  28.258  31.210  1.00  0.00     0.049 A 
ATOM     62  C   UNL A   1      40.983  31.586  35.636  1.00  0.00     0.074 A 
ATOM     63  C   UNL A   1      43.002  27.418  31.288  1.00  0.00     0.029 A 
ATOM     64  N   UNL A   1      41.852  28.950  32.415  1.00  0.00    -0.354 N 
ATOM     65  N   UNL A   1      41.317  30.741  34.687  1.00  0.00    -0.248 NA
ATOM     66  C   UNL A   1      41.817  31.499  36.841  1.00  0.00     0.031 C 
ATOM     67  C   UNL A   1      43.566  27.547  32.562  1.00  0.00     0.029 A 
ATOM     68  C   UNL A   1      42.873  28.528  33.255  1.00  0.00     0.049 A 
ATOM     69  H   UNL A   1      41.187  29.640  32.639  1.00  0.00     0.167 HD
ATOM     70  C   UNL A   1      42.414  30.036  35.173  1.00  0.00     0.074 A 
ATOM     71  C   UNL A   1      42.694  30.567  36.492  1.00  0.00     0.031 C 
ATOM     72  C   UNL A   1      43.129  29.046  34.579  1.00  0.00     0.034 A 
BRANCH  59  73
ATOM     73  C   UNL A   1      41.048  27.474  28.940  1.00  0.00     0.023 A 
ATOM     74  C   UNL A   1      42.056  27.601  27.968  1.00  0.00     0.031 A 
ATOM     75  C   UNL A   1      40.074  26.478  28.746  1.00  0.00     0.131 A 
ATOM     76  C   UNL A   1      42.009  26.822  26.802  1.00  0.00     0.055 A 
ATOM     77  C   UNL A   1      40.089  25.639  27.630  1.00  0.00     0.041 A 
ATOM     78  F   UNL A   1      39.075  26.316  29.629  1.00  0.00    -0.206 F 
ATOM     79  C   UNL A   1      41.048  25.824  26.637  1.00  0.00     0.022 A 
BRANCH  76  80
ATOM     80  S   UNL A   1      43.110  27.259  25.426  1.00  0.00     0.124 S 
ATOM     81  O   UNL A   1      44.192  27.952  26.123  1.00  0.00    -0.237 OA
ATOM     82  O   UNL A   1      43.444  25.955  24.864  1.00  0.00    -0.237 OA
ATOM     83  O   UNL A   1      42.278  28.111  24.579  1.00  0.00    -0.744 OA
ENDBRANCH  76  80
ENDBRANCH  59  73
BRANCH  60  84
ATOM     84  C   UNL A   1      39.599  33.427  36.860  1.00  0.00     0.023 A 
ATOM     85  C   UNL A   1      38.859  32.907  37.933  1.00  0.00     0.031 A 
ATOM     86  C   UNL A   1      40.072  34.748  36.961  1.00  0.00     0.131 A 
ATOM     87  C   UNL A   1      38.589  33.713  39.050  1.00  0.00     0.055 A 
ATOM     88  C   UNL A   1      39.838  35.531  38.093  1.00  0.00     0.041 A 
ATOM     89  F   UNL A   1      40.793  35.289  35.966  1.00  0.00    -0.206 F 
ATOM     90  C   UNL A   1      39.085  35.016  39.143  1.00  0.00     0.022 A 
BRANCH  87  91
ATOM     91  S   UNL A   1      37.538  33.048  40.371  1.00  0.00     0.124 S 
ATOM     92  O   UNL A   1      37.485  34.170  41.302  1.00  0.00    -0.237 OA
ATOM     93  O   UNL A   1      36.303  32.748  39.655  1.00  0.00    -0.237 OA
ATOM     94  O   UNL A   1      38.281  31.881  40.842  1.00  0.00    -0.744 OA
ENDBRANCH  87  91
ENDBRANCH  60  84
BRANCH  72  95
ATOM     95  C   UNL A   1      44.308  28.495  35.347  1.00  0.00     0.023 A 
ATOM     96  C   UNL A   1      44.157  27.488  36.316  1.00  0.00     0.031 A 
ATOM     97  C   UNL A   1      45.601  28.994  35.107  1.00  0.00     0.131 A 
ATOM     98  C   UNL A   1      45.272  27.049  37.047  1.00  0.00     0.055 A 
ATOM     99  C   UNL A   1      46.716  28.509  35.794  1.00  0.00     0.041 A 
ATOM    100  F   UNL A   1      45.804  29.959  34.196  1.00  0.00    -0.206 F 
ATOM    101  C   UNL A   1      46.553  27.540  36.779  1.00  0.00     0.022 A 
BRANCH  98 102
ATOM    102  S   UNL A   1      45.016  25.891  38.419  1.00  0.00     0.124 S 
ATOM    103  O   UNL A   1      46.224  26.090  39.213  1.00  0.00    -0.237 OA
ATOM    104  O   UNL A   1      43.775  26.378  39.011  1.00  0.00    -0.237 OA
ATOM    105  O   UNL A   1      44.918  24.591  37.757  1.00  0.00    -0.744 OA
ENDBRANCH  98 102
ENDBRANCH  72  95
ENDBRANCH  46  47
ENDBRANCH  38  41
ENDBRANCH  36  37
ENDBRANCH  35  36
ENDBRANCH   1  35
TORSDOF 17
ENDMDL
MODEL 2
REMARK VINA RESULT:     -13.0      5.896     10.929
REMARK SMILES [NH2+]=C1S[C@@H](C(=O)Nc2ccc(C(=O)NCCCNC(=O)c3ccc(-c4c5nc(c(-c6cc(S(=O)(=O)[O-])ccc6F)c6ccc([nH]6)c(-c6cc(S(=O)(=O)[O-])ccc6F)c6nc(c(-c7cc(S(=O)(=O)[O-])ccc7F)c7ccc4[nH]7)C=C6)C=C5)cc3)cc2)CC(=O)N1/N=C/c1ccc(Cl)cc1
REMARK SMILES IDX 15 1 14 2 12 3 13 4 11 6 8 7 9 8 85 9 10 10 84 11 7 12 5 13
REMARK SMILES IDX 6 14 4 16 1 17 2 18 3 21 89 22 87 23 86 24 88 25 90 26 91 27
REMARK SMILES IDX 92 28 93 29 98 30 94 31 97 32 95 33 96 34 16 35 17 36 18 37
REMARK SMILES IDX 19 38 20 40 21 41 22 42 83 43 23 44 82 45 24 46 25 47 26 48
REMARK SMILES IDX 76 49 27 50 81 51 75 52 77 53 28 54 80 55 74 56 73 57 29 59
REMARK SMILES IDX 61 60 41 61 60 62 42 63 45 64 59 65 78 66 43 67 44 68 58 70
REMARK SMILES IDX 79 71 46 72 30 73 31 74 39 75 32 76 38 77 40 78 37 79 33 80
REMARK SMILES IDX 34 81 35 82 36 83 62 84 63 85 71 86 64 87 70 88 72 89 69 90
REMARK SMILES IDX 65 91 66 92 67 93 68 94 47 95 48 96 56 97 49 98 55 99 57 100
REMARK SMILES IDX 54 101 50 102 51 103 52 104 53 105
REMARK H PARENT 14 5 7 15 1 19 1 20 18 39 77 58 45 69
REMARK Flexibility Score: inf
ROOT
ATOM      1  C   UNL A   1      35.899  21.658  24.977  1.00  0.00     0.118 C 
ENDROOT
BRANCH   1   2
ATOM      2  N   UNL A   1      35.354  21.352  26.296  1.00  0.00    -0.352 N 
ATOM      3  C   UNL A   1      34.415  22.032  27.032  1.00  0.00     0.251 C 
ATOM      4  O   UNL A   1      33.894  21.491  28.003  1.00  0.00    -0.269 OA
ATOM      5  H   UNL A   1      35.713  20.539  26.720  1.00  0.00     0.163 HD
BRANCH   3   6
ATOM      6  C   UNL A   1      33.958  23.378  26.619  1.00  0.00     0.039 A 
ATOM      7  C   UNL A   1      32.960  25.792  25.651  1.00  0.00     0.041 A 
ATOM      8  C   UNL A   1      32.123  24.934  26.365  1.00  0.00     0.027 A 
ATOM      9  C   UNL A   1      34.323  25.515  25.553  1.00  0.00     0.027 A 
ATOM     10  C   UNL A   1      32.615  23.713  26.827  1.00  0.00     0.016 A 
ATOM     11  C   UNL A   1      34.826  24.310  26.049  1.00  0.00     0.016 A 
BRANCH   7  12
ATOM     12  N   UNL A   1      32.416  26.964  25.135  1.00  0.00    -0.325 N 
ATOM     13  C   UNL A   1      32.494  27.517  23.894  1.00  0.00     0.238 C 
ATOM     14  O   UNL A   1      32.253  28.730  23.811  1.00  0.00    -0.273 OA
ATOM     15  H   UNL A   1      31.883  27.484  25.780  1.00  0.00     0.169 HD
BRANCH  13  16
ATOM     16  C   UNL A   1      32.600  26.688  22.599  1.00  0.00     0.160 C 
ATOM     17  N   UNL A   1      30.081  24.151  23.797  1.00  0.00    -0.279 N 
ATOM     18  C   UNL A   1      31.134  24.505  23.142  1.00  0.00     0.338 C 
ATOM     19  H   UNL A   1      29.273  24.712  23.771  1.00  0.00     0.302 HD
ATOM     20  H   UNL A   1      30.085  23.319  24.324  1.00  0.00     0.302 HD
ATOM     21  S   UNL A   1      30.998  25.951  22.200  1.00  0.00    -0.022 SA
ATOM     22  N   UNL A   1      32.331  23.790  23.106  1.00  0.00    -0.057 N 
ATOM     23  C   UNL A   1      33.549  24.257  22.595  1.00  0.00     0.337 C 
ATOM     24  C   UNL A   1      33.731  25.738  22.324  1.00  0.00     0.155 C 
ATOM     25  O   UNL A   1      34.504  23.517  22.324  1.00  0.00    -0.244 OA
BRANCH  22  26
ATOM     26  N   UNL A   1      32.407  22.490  23.640  1.00  0.00    -0.082 NA
ATOM     27  C   UNL A   1      32.228  21.485  22.844  1.00  0.00     0.167 C 
BRANCH  27  28
ATOM     28  C   UNL A   1      32.369  20.091  23.318  1.00  0.00    -0.003 A 
ATOM     29  C   UNL A   1      32.390  19.075  22.358  1.00  0.00     0.011 A 
ATOM     30  C   UNL A   1      32.530  19.780  24.670  1.00  0.00     0.011 A 
ATOM     31  C   UNL A   1      32.611  17.751  22.751  1.00  0.00     0.021 A 
ATOM     32  C   UNL A   1      32.748  18.455  25.063  1.00  0.00     0.021 A 
ATOM     33  C   UNL A   1      32.794  17.448  24.100  1.00  0.00     0.041 A 
ATOM     34  Cl  UNL A   1      33.078  15.819  24.574  1.00  0.00    -0.084 Cl
ENDBRANCH  27  28
ENDBRANCH  22  26
ENDBRANCH  13  16
ENDBRANCH   7  12
ENDBRANCH   3   6
ENDBRANCH   1   2
BRANCH   1  35
ATOM     35  C   UNL A   1      37.101  20.789  24.647  1.00  0.00     0.042 C 
BRANCH  35  36
ATOM     36  C   UNL A   1      38.292  21.077  25.551  1.00  0.00     0.118 C 
BRANCH  36  37
ATOM     37  N   UNL A   1      39.139  19.909  25.753  1.00  0.00    -0.352 N 
ATOM     38  C   UNL A   1      40.473  19.860  26.105  1.00  0.00     0.251 C 
ATOM     39  H   UNL A   1      38.701  19.038  25.622  1.00  0.00     0.163 HD
ATOM     40  O   UNL A   1      41.075  18.797  26.081  1.00  0.00    -0.269 OA
BRANCH  38  41
ATOM     41  C   UNL A   1      41.175  21.115  26.467  1.00  0.00     0.039 A 
ATOM     42  C   UNL A   1      41.857  21.821  25.472  1.00  0.00     0.014 A 
ATOM     43  C   UNL A   1      41.125  21.614  27.770  1.00  0.00     0.014 A 
ATOM     44  C   UNL A   1      42.417  23.067  25.768  1.00  0.00     0.010 A 
ATOM     45  C   UNL A   1      41.606  22.892  28.041  1.00  0.00     0.010 A 
ATOM     46  C   UNL A   1      42.259  23.634  27.043  1.00  0.00    -0.014 A 
BRANCH  46  47
ATOM     47  C   UNL A   1      42.761  25.000  27.354  1.00  0.00     0.031 A 
ATOM     48  C   UNL A   1      41.853  26.007  28.007  1.00  0.00     0.074 A 
ATOM     49  C   UNL A   1      44.001  25.363  26.969  1.00  0.00     0.049 A 
ATOM     50  N   UNL A   1      42.069  27.270  28.274  1.00  0.00    -0.248 NA
ATOM     51  C   UNL A   1      40.508  25.537  28.370  1.00  0.00     0.031 C 
ATOM     52  C   UNL A   1      44.955  24.499  26.268  1.00  0.00     0.029 A 
ATOM     53  N   UNL A   1      44.666  26.558  27.094  1.00  0.00    -0.354 N 
ATOM     54  C   UNL A   1      40.880  27.752  28.812  1.00  0.00     0.074 A 
ATOM     55  C   UNL A   1      39.931  26.660  28.769  1.00  0.00     0.031 C 
ATOM     56  C   UNL A   1      46.084  25.186  26.040  1.00  0.00     0.029 A 
ATOM     57  C   UNL A   1      45.924  26.550  26.535  1.00  0.00     0.049 A 
ATOM     58  H   UNL A   1      44.280  27.344  27.541  1.00  0.00     0.167 HD
ATOM     59  C   UNL A   1      40.612  28.984  29.315  1.00  0.00     0.034 A 
ATOM     60  C   UNL A   1      46.839  27.534  26.417  1.00  0.00     0.034 A 
ATOM     61  C   UNL A   1      41.579  30.055  29.366  1.00  0.00     0.049 A 
ATOM     62  C   UNL A   1      46.529  28.892  26.988  1.00  0.00     0.074 A 
ATOM     63  C   UNL A   1      41.447  31.310  29.933  1.00  0.00     0.029 A 
ATOM     64  N   UNL A   1      42.853  30.004  28.812  1.00  0.00    -0.354 N 
ATOM     65  N   UNL A   1      45.428  29.313  27.566  1.00  0.00    -0.248 NA
ATOM     66  C   UNL A   1      47.589  29.904  26.902  1.00  0.00     0.031 C 
ATOM     67  C   UNL A   1      42.608  32.042  29.659  1.00  0.00     0.029 A 
ATOM     68  C   UNL A   1      43.502  31.218  28.991  1.00  0.00     0.049 A 
ATOM     69  H   UNL A   1      43.240  29.220  28.360  1.00  0.00     0.167 HD
ATOM     70  C   UNL A   1      45.671  30.633  27.933  1.00  0.00     0.074 A 
ATOM     71  C   UNL A   1      47.028  30.932  27.523  1.00  0.00     0.031 C 
ATOM     72  C   UNL A   1      44.848  31.515  28.557  1.00  0.00     0.034 A 
BRANCH  59  73
ATOM     73  C   UNL A   1      39.207  29.236  29.818  1.00  0.00     0.023 A 
ATOM     74  C   UNL A   1      38.262  29.941  29.052  1.00  0.00     0.031 A 
ATOM     75  C   UNL A   1      38.823  28.815  31.103  1.00  0.00     0.131 A 
ATOM     76  C   UNL A   1      37.025  30.294  29.614  1.00  0.00     0.055 A 
ATOM     77  C   UNL A   1      37.555  29.085  31.621  1.00  0.00     0.041 A 
ATOM     78  F   UNL A   1      39.685  28.151  31.891  1.00  0.00    -0.206 F 
ATOM     79  C   UNL A   1      36.654  29.849  30.883  1.00  0.00     0.022 A 
BRANCH  76  80
ATOM     80  S   UNL A   1      35.988  31.496  28.733  1.00  0.00     0.124 S 
ATOM     81  O   UNL A   1      36.964  32.525  28.380  1.00  0.00    -0.237 OA
ATOM     82  O   UNL A   1      35.463  30.706  27.626  1.00  0.00    -0.237 OA
ATOM     83  O   UNL A   1      35.004  31.899  29.736  1.00  0.00    -0.744 OA
ENDBRANCH  76  80
ENDBRANCH  59  73
BRANCH  60  84
ATOM     84  C   UNL A   1      48.127  27.269  25.716  1.00  0.00     0.023 A 
ATOM     85  C   UNL A   1      48.243  27.414  24.325  1.00  0.00     0.031 A 
ATOM     86  C   UNL A   1      49.265  26.865  26.436  1.00  0.00     0.131 A 
ATOM     87  C   UNL A   1      49.465  27.130  23.693  1.00  0.00     0.055 A 
ATOM     88  C   UNL A   1      50.489  26.625  25.809  1.00  0.00     0.041 A 
ATOM     89  F   UNL A   1      49.209  26.721  27.770  1.00  0.00    -0.206 F 
ATOM     90  C   UNL A   1      50.591  26.750  24.427  1.00  0.00     0.022 A 
BRANCH  87  91
ATOM     91  S   UNL A   1      49.553  27.220  21.883  1.00  0.00     0.124 S 
ATOM     92  O   UNL A   1      49.081  28.577  21.631  1.00  0.00    -0.237 OA
ATOM     93  O   UNL A   1      50.969  26.976  21.635  1.00  0.00    -0.237 OA
ATOM     94  O   UNL A   1      48.653  26.155  21.446  1.00  0.00    -0.744 OA
ENDBRANCH  87  91
ENDBRANCH  60  84
BRANCH  72  95
ATOM     95  C   UNL A   1      45.413  32.882  28.864  1.00  0.00     0.023 A 
ATOM     96  C   UNL A   1      45.465  33.899  27.894  1.00  0.00     0.031 A 
ATOM     97  C   UNL A   1      45.914  33.167  30.147  1.00  0.00     0.131 A 
ATOM     98  C   UNL A   1      46.053  35.134  28.207  1.00  0.00     0.055 A 
ATOM     99  C   UNL A   1      46.441  34.418  30.470  1.00  0.00     0.041 A 
ATOM    100  F   UNL A   1      45.894  32.234  31.112  1.00  0.00    -0.206 F 
ATOM    101  C   UNL A   1      46.524  35.406  29.494  1.00  0.00     0.022 A 
BRANCH  98 102
ATOM    102  S   UNL A   1      46.278  36.354  26.883  1.00  0.00     0.124 S 
ATOM    103  O   UNL A   1      47.732  36.466  26.820  1.00  0.00    -0.237 OA
ATOM    104  O   UNL A   1      45.638  35.702  25.746  1.00  0.00    -0.237 OA
ATOM    105  O   UNL A   1      45.587  37.539  27.388  1.00  0.00    -0.744 OA
ENDBRANCH  98 102
ENDBRANCH  72  95
ENDBRANCH  46  47
ENDBRANCH  38  41
ENDBRANCH  36  37
ENDBRANCH  35  36
ENDBRANCH   1  35
TORSDOF 17
ENDMDL
MODEL 3
REMARK VINA RESULT:     -12.9      5.451      8.595
REMARK SMILES [NH2+]=C1S[C@@H](C(=O)Nc2ccc(C(=O)NCCCNC(=O)c3ccc(-c4c5nc(c(-c6cc(S(=O)(=O)[O-])ccc6F)c6ccc([nH]6)c(-c6cc(S(=O)(=O)[O-])ccc6F)c6nc(c(-c7cc(S(=O)(=O)[O-])ccc7F)c7ccc4[nH]7)C=C6)C=C5)cc3)cc2)CC(=O)N1/N=C/c1ccc(Cl)cc1
REMARK SMILES IDX 15 1 14 2 12 3 13 4 11 6 8 7 9 8 85 9 10 10 84 11 7 12 5 13
REMARK SMILES IDX 6 14 4 16 1 17 2 18 3 21 89 22 87 23 86 24 88 25 90 26 91 27
REMARK SMILES IDX 92 28 93 29 98 30 94 31 97 32 95 33 96 34 16 35 17 36 18 37
REMARK SMILES IDX 19 38 20 40 21 41 22 42 83 43 23 44 82 45 24 46 25 47 26 48
REMARK SMILES IDX 76 49 27 50 81 51 75 52 77 53 28 54 80 55 74 56 73 57 29 59
REMARK SMILES IDX 61 60 41 61 60 62 42 63 45 64 59 65 78 66 43 67 44 68 58 70
REMARK SMILES IDX 79 71 46 72 30 73 31 74 39 75 32 76 38 77 40 78 37 79 33 80
REMARK SMILES IDX 34 81 35 82 36 83 62 84 63 85 71 86 64 87 70 88 72 89 69 90
REMARK SMILES IDX 65 91 66 92 67 93 68 94 47 95 48 96 56 97 49 98 55 99 57 100
REMARK SMILES IDX 54 101 50 102 51 103 52 104 53 105
REMARK H PARENT 14 5 7 15 1 19 1 20 18 39 77 58 45 69
REMARK Flexibility Score: inf
ROOT
ATOM      1  C   UNL A   1      35.570  21.629  24.620  1.00  0.00     0.118 C 
ENDROOT
BRANCH   1   2
ATOM      2  N   UNL A   1      35.327  21.414  26.044  1.00  0.00    -0.352 N 
ATOM      3  C   UNL A   1      34.583  22.160  26.924  1.00  0.00     0.251 C 
ATOM      4  O   UNL A   1      34.282  21.689  28.019  1.00  0.00    -0.269 OA
ATOM      5  H   UNL A   1      35.759  20.617  26.428  1.00  0.00     0.163 HD
BRANCH   3   6
ATOM      6  C   UNL A   1      34.064  23.491  26.540  1.00  0.00     0.039 A 
ATOM      7  C   UNL A   1      32.955  25.876  25.623  1.00  0.00     0.041 A 
ATOM      8  C   UNL A   1      32.159  24.967  26.320  1.00  0.00     0.027 A 
ATOM      9  C   UNL A   1      34.329  25.664  25.519  1.00  0.00     0.027 A 
ATOM     10  C   UNL A   1      32.708  23.760  26.755  1.00  0.00     0.016 A 
ATOM     11  C   UNL A   1      34.888  24.474  25.989  1.00  0.00     0.016 A 
BRANCH   7  12
ATOM     12  N   UNL A   1      32.357  27.033  25.133  1.00  0.00    -0.325 N 
ATOM     13  C   UNL A   1      32.377  27.596  23.893  1.00  0.00     0.238 C 
ATOM     14  O   UNL A   1      32.095  28.800  23.826  1.00  0.00    -0.273 OA
ATOM     15  H   UNL A   1      31.827  27.531  25.797  1.00  0.00     0.169 HD
BRANCH  13  16
ATOM     16  C   UNL A   1      32.470  26.777  22.590  1.00  0.00     0.160 C 
ATOM     17  N   UNL A   1      29.957  24.234  23.788  1.00  0.00    -0.279 N 
ATOM     18  C   UNL A   1      31.005  24.592  23.126  1.00  0.00     0.338 C 
ATOM     19  H   UNL A   1      29.150  24.797  23.774  1.00  0.00     0.302 HD
ATOM     20  H   UNL A   1      29.965  23.398  24.308  1.00  0.00     0.302 HD
ATOM     21  S   UNL A   1      30.864  26.047  22.198  1.00  0.00    -0.022 SA
ATOM     22  N   UNL A   1      32.200  23.876  23.074  1.00  0.00    -0.057 N 
ATOM     23  C   UNL A   1      33.415  24.345  22.556  1.00  0.00     0.337 C 
ATOM     24  C   UNL A   1      33.597  25.828  22.296  1.00  0.00     0.155 C 
ATOM     25  O   UNL A   1      34.366  23.605  22.270  1.00  0.00    -0.244 OA
BRANCH  22  26
ATOM     26  N   UNL A   1      32.279  22.571  23.595  1.00  0.00    -0.082 NA
ATOM     27  C   UNL A   1      32.170  21.572  22.779  1.00  0.00     0.167 C 
BRANCH  27  28
ATOM     28  C   UNL A   1      32.318  20.176  23.243  1.00  0.00    -0.003 A 
ATOM     29  C   UNL A   1      32.374  19.170  22.275  1.00  0.00     0.011 A 
ATOM     30  C   UNL A   1      32.454  19.855  24.595  1.00  0.00     0.011 A 
ATOM     31  C   UNL A   1      32.603  17.845  22.660  1.00  0.00     0.021 A 
ATOM     32  C   UNL A   1      32.681  18.529  24.980  1.00  0.00     0.021 A 
ATOM     33  C   UNL A   1      32.761  17.531  24.011  1.00  0.00     0.041 A 
ATOM     34  Cl  UNL A   1      33.056  15.902  24.475  1.00  0.00    -0.084 Cl
ENDBRANCH  27  28
ENDBRANCH  22  26
ENDBRANCH  13  16
ENDBRANCH   7  12
ENDBRANCH   3   6
ENDBRANCH   1   2
BRANCH   1  35
ATOM     35  C   UNL A   1      37.000  22.069  24.351  1.00  0.00     0.042 C 
BRANCH  35  36
ATOM     36  C   UNL A   1      37.731  22.473  25.624  1.00  0.00     0.118 C 
BRANCH  36  37
ATOM     37  N   UNL A   1      38.961  21.720  25.827  1.00  0.00    -0.352 N 
ATOM     38  C   UNL A   1      40.193  22.175  26.254  1.00  0.00     0.251 C 
ATOM     39  H   UNL A   1      38.907  20.756  25.635  1.00  0.00     0.163 HD
ATOM     40  O   UNL A   1      41.165  21.435  26.222  1.00  0.00    -0.269 OA
BRANCH  38  41
ATOM     41  C   UNL A   1      40.330  23.580  26.707  1.00  0.00     0.039 A 
ATOM     42  C   UNL A   1      40.411  23.846  28.076  1.00  0.00     0.014 A 
ATOM     43  C   UNL A   1      40.422  24.625  25.784  1.00  0.00     0.014 A 
ATOM     44  C   UNL A   1      40.666  25.149  28.514  1.00  0.00     0.010 A 
ATOM     45  C   UNL A   1      40.763  25.903  26.217  1.00  0.00     0.010 A 
ATOM     46  C   UNL A   1      40.888  26.181  27.588  1.00  0.00    -0.014 A 
BRANCH  46  47
ATOM     47  C   UNL A   1      41.258  27.554  28.028  1.00  0.00     0.031 A 
ATOM     48  C   UNL A   1      42.706  27.961  28.095  1.00  0.00     0.074 A 
ATOM     49  C   UNL A   1      40.301  28.403  28.453  1.00  0.00     0.049 A 
ATOM     50  N   UNL A   1      43.237  29.072  28.538  1.00  0.00    -0.248 NA
ATOM     51  C   UNL A   1      43.687  26.966  27.638  1.00  0.00     0.031 C 
ATOM     52  C   UNL A   1      38.868  28.105  28.501  1.00  0.00     0.029 A 
ATOM     53  N   UNL A   1      40.389  29.682  28.945  1.00  0.00    -0.354 N 
ATOM     54  C   UNL A   1      44.614  28.899  28.438  1.00  0.00     0.074 A 
ATOM     55  C   UNL A   1      44.830  27.552  27.955  1.00  0.00     0.031 C 
ATOM     56  C   UNL A   1      38.212  29.174  28.979  1.00  0.00     0.029 A 
ATOM     57  C   UNL A   1      39.176  30.217  29.314  1.00  0.00     0.049 A 
ATOM     58  H   UNL A   1      41.240  30.170  29.025  1.00  0.00     0.167 HD
ATOM     59  C   UNL A   1      45.603  29.790  28.702  1.00  0.00     0.034 A 
ATOM     60  C   UNL A   1      38.873  31.405  29.875  1.00  0.00     0.034 A 
ATOM     61  C   UNL A   1      45.365  31.136  29.166  1.00  0.00     0.049 A 
ATOM     62  C   UNL A   1      39.982  32.384  30.155  1.00  0.00     0.074 A 
ATOM     63  C   UNL A   1      46.283  32.150  29.380  1.00  0.00     0.029 A 
ATOM     64  N   UNL A   1      44.120  31.653  29.506  1.00  0.00    -0.354 N 
ATOM     65  N   UNL A   1      41.276  32.238  29.981  1.00  0.00    -0.248 NA
ATOM     66  C   UNL A   1      39.590  33.692  30.693  1.00  0.00     0.031 C 
ATOM     67  C   UNL A   1      45.606  33.251  29.917  1.00  0.00     0.029 A 
ATOM     68  C   UNL A   1      44.251  32.957  29.963  1.00  0.00     0.049 A 
ATOM     69  H   UNL A   1      43.268  31.165  29.432  1.00  0.00     0.167 HD
ATOM     70  C   UNL A   1      41.851  33.445  30.370  1.00  0.00     0.074 A 
ATOM     71  C   UNL A   1      40.760  34.311  30.771  1.00  0.00     0.031 C 
ATOM     72  C   UNL A   1      43.160  33.805  30.386  1.00  0.00     0.034 A 
BRANCH  59  73
ATOM     73  C   UNL A   1      47.029  29.314  28.524  1.00  0.00     0.023 A 
ATOM     74  C   UNL A   1      47.582  29.092  27.250  1.00  0.00     0.031 A 
ATOM     75  C   UNL A   1      47.828  29.022  29.644  1.00  0.00     0.131 A 
ATOM     76  C   UNL A   1      48.848  28.499  27.128  1.00  0.00     0.055 A 
ATOM     77  C   UNL A   1      49.125  28.522  29.515  1.00  0.00     0.041 A 
ATOM     78  F   UNL A   1      47.353  29.196  30.888  1.00  0.00    -0.206 F 
ATOM     79  C   UNL A   1      49.635  28.236  28.251  1.00  0.00     0.022 A 
BRANCH  76  80
ATOM     80  S   UNL A   1      49.371  27.907  25.494  1.00  0.00     0.124 S 
ATOM     81  O   UNL A   1      49.609  26.489  25.756  1.00  0.00    -0.237 OA
ATOM     82  O   UNL A   1      48.214  28.219  24.662  1.00  0.00    -0.237 OA
ATOM     83  O   UNL A   1      50.572  28.691  25.213  1.00  0.00    -0.744 OA
ENDBRANCH  76  80
ENDBRANCH  59  73
BRANCH  60  84
ATOM     84  C   UNL A   1      37.460  31.724  30.222  1.00  0.00     0.023 A 
ATOM     85  C   UNL A   1      36.573  32.243  29.266  1.00  0.00     0.031 A 
ATOM     86  C   UNL A   1      36.976  31.510  31.526  1.00  0.00     0.131 A 
ATOM     87  C   UNL A   1      35.255  32.557  29.635  1.00  0.00     0.055 A 
ATOM     88  C   UNL A   1      35.653  31.784  31.876  1.00  0.00     0.041 A 
ATOM     89  F   UNL A   1      37.782  31.007  32.474  1.00  0.00    -0.206 F 
ATOM     90  C   UNL A   1      34.786  32.318  30.929  1.00  0.00     0.022 A 
BRANCH  87  91
ATOM     91  S   UNL A   1      34.166  33.328  28.405  1.00  0.00     0.124 S 
ATOM     92  O   UNL A   1      33.287  34.131  29.249  1.00  0.00    -0.237 OA
ATOM     93  O   UNL A   1      35.115  34.065  27.579  1.00  0.00    -0.237 OA
ATOM     94  O   UNL A   1      33.530  32.186  27.751  1.00  0.00    -0.744 OA
ENDBRANCH  87  91
ENDBRANCH  60  84
BRANCH  72  95
ATOM     95  C   UNL A   1      43.479  35.215  30.825  1.00  0.00     0.023 A 
ATOM     96  C   UNL A   1      43.481  36.291  29.920  1.00  0.00     0.031 A 
ATOM     97  C   UNL A   1      43.793  35.482  32.170  1.00  0.00     0.131 A 
ATOM     98  C   UNL A   1      43.841  37.574  30.361  1.00  0.00     0.055 A 
ATOM     99  C   UNL A   1      44.091  36.771  32.614  1.00  0.00     0.041 A 
ATOM    100  F   UNL A   1      43.811  34.492  33.077  1.00  0.00    -0.206 F 
ATOM    101  C   UNL A   1      44.128  37.824  31.706  1.00  0.00     0.022 A 
BRANCH  98 102
ATOM    102  S   UNL A   1      44.020  38.899  29.136  1.00  0.00     0.124 S 
ATOM    103  O   UNL A   1      44.085  40.087  29.982  1.00  0.00    -0.237 OA
ATOM    104  O   UNL A   1      45.257  38.532  28.455  1.00  0.00    -0.237 OA
ATOM    105  O   UNL A   1      42.809  38.783  28.325  1.00  0.00    -0.744 OA
ENDBRANCH  98 102
ENDBRANCH  72  95
ENDBRANCH  46  47
ENDBRANCH  38  41
ENDBRANCH  36  37
ENDBRANCH  35  36
ENDBRANCH   1  35
TORSDOF 17
ENDMDL
