MODEL 1
REMARK VINA RESULT:     -11.6      0.000      0.000
REMARK SMILES O=C(C[C@H](c1ccsc1)n1cccc1)NCCCNC(=O)c1ccc(-c2c3nc(c(-c4cc(S(=O)(=O)[O-])ccc4F)c4ccc([nH]4)c(-c4cc(S(=O)(=O)[O-])ccc4F)c4nc(c(-c5cc(S(=O)(=O)[O-])ccc5F)c5ccc2[nH]5)C=C4)C=C3)cc1
REMARK SMILES IDX 17 1 16 2 15 3 1 4 2 5 3 7 4 8 10 9 11 10 14 11 12 12 13 13
REMARK SMILES IDX 5 14 6 15 9 16 7 17 8 18 18 19 19 20 20 21 21 23 22 24 23 25
REMARK SMILES IDX 84 26 24 27 83 28 25 29 26 30 27 31 77 32 28 33 82 34 76 35
REMARK SMILES IDX 78 36 29 37 81 38 75 39 74 40 30 42 62 43 42 44 61 45 43 46
REMARK SMILES IDX 46 47 60 48 79 49 44 50 45 51 59 53 80 54 47 55 31 56 32 57
REMARK SMILES IDX 40 58 33 59 39 60 41 61 38 62 34 63 35 64 36 65 37 66 63 67
REMARK SMILES IDX 64 68 72 69 65 70 71 71 73 72 70 73 66 74 67 75 68 76 69 77
REMARK SMILES IDX 48 78 49 79 57 80 50 81 56 82 58 83 55 84 51 85 52 86 53 87
REMARK SMILES IDX 54 88
REMARK H PARENT 15 6 19 22 78 41 46 52
REMARK Flexibility Score: inf
ROOT
ATOM      1  C   UNL A   1      36.754  22.985  25.420  1.00  0.00     0.042 C 
ENDROOT
BRANCH   1   2
ATOM      2  C   UNL A   1      35.778  23.645  24.445  1.00  0.00     0.117 C 
BRANCH   2   3
ATOM      3  N   UNL A   1      35.063  24.764  25.029  1.00  0.00    -0.356 N 
ATOM      4  O   UNL A   1      32.955  23.887  24.765  1.00  0.00    -0.275 OA
ATOM      5  C   UNL A   1      33.694  24.756  25.210  1.00  0.00     0.222 C 
ATOM      6  H   UNL A   1      35.573  25.560  25.306  1.00  0.00     0.163 HD
BRANCH   5   7
ATOM      7  C   UNL A   1      33.188  25.916  26.038  1.00  0.00     0.130 C 
BRANCH   7   8
ATOM      8  C   UNL A   1      32.949  27.200  25.219  1.00  0.00     0.127 C 
BRANCH   8   9
ATOM      9  N   UNL A   1      31.685  27.196  24.453  1.00  0.00    -0.346 N 
ATOM     10  C   UNL A   1      31.471  27.547  23.142  1.00  0.00     0.086 A 
ATOM     11  C   UNL A   1      30.506  26.672  24.947  1.00  0.00     0.086 A 
ATOM     12  C   UNL A   1      30.148  27.324  22.832  1.00  0.00     0.019 A 
ATOM     13  C   UNL A   1      29.537  26.767  23.974  1.00  0.00     0.019 A 
ENDBRANCH   8   9
BRANCH   8  14
ATOM     14  C   UNL A   1      33.215  28.478  26.010  1.00  0.00    -0.014 A 
ATOM     15  C   UNL A   1      34.342  28.729  26.875  1.00  0.00     0.017 A 
ATOM     16  C   UNL A   1      32.407  29.601  25.957  1.00  0.00     0.070 A 
ATOM     17  C   UNL A   1      34.339  29.992  27.420  1.00  0.00     0.065 A 
ATOM     18  S   UNL A   1      32.960  30.878  26.952  1.00  0.00    -0.152 S 
ENDBRANCH   8  14
ENDBRANCH   7   8
ENDBRANCH   5   7
ENDBRANCH   2   3
ENDBRANCH   1   2
BRANCH   1  19
ATOM     19  C   UNL A   1      37.571  23.965  26.269  1.00  0.00     0.118 C 
BRANCH  19  20
ATOM     20  N   UNL A   1      38.735  23.345  26.877  1.00  0.00    -0.352 N 
ATOM     21  C   UNL A   1      39.850  23.947  27.417  1.00  0.00     0.251 C 
ATOM     22  H   UNL A   1      38.726  22.361  26.907  1.00  0.00     0.163 HD
ATOM     23  O   UNL A   1      40.865  23.279  27.572  1.00  0.00    -0.269 OA
BRANCH  21  24
ATOM     24  C   UNL A   1      39.851  25.382  27.796  1.00  0.00     0.039 A 
ATOM     25  C   UNL A   1      39.502  25.722  29.108  1.00  0.00     0.014 A 
ATOM     26  C   UNL A   1      40.101  26.393  26.861  1.00  0.00     0.014 A 
ATOM     27  C   UNL A   1      39.469  27.063  29.495  1.00  0.00     0.010 A 
ATOM     28  C   UNL A   1      40.063  27.736  27.241  1.00  0.00     0.010 A 
ATOM     29  C   UNL A   1      39.773  28.071  28.568  1.00  0.00    -0.014 A 
BRANCH  29  30
ATOM     30  C   UNL A   1      40.045  29.441  29.082  1.00  0.00     0.031 A 
ATOM     31  C   UNL A   1      38.709  30.143  29.466  1.00  0.00     0.074 A 
ATOM     32  C   UNL A   1      41.348  29.878  29.096  1.00  0.00     0.049 A 
ATOM     33  N   UNL A   1      38.362  31.392  29.412  1.00  0.00    -0.248 NA
ATOM     34  C   UNL A   1      37.540  29.303  29.872  1.00  0.00     0.031 C 
ATOM     35  C   UNL A   1      42.530  29.046  28.757  1.00  0.00     0.029 A 
ATOM     36  N   UNL A   1      41.962  31.084  29.394  1.00  0.00    -0.354 N 
ATOM     37  C   UNL A   1      37.076  31.514  30.007  1.00  0.00     0.074 A 
ATOM     38  C   UNL A   1      36.567  30.184  30.115  1.00  0.00     0.031 C 
ATOM     39  C   UNL A   1      43.673  29.774  28.782  1.00  0.00     0.029 A 
ATOM     40  C   UNL A   1      43.373  31.145  29.149  1.00  0.00     0.049 A 
ATOM     41  H   UNL A   1      41.460  31.850  29.752  1.00  0.00     0.167 HD
ATOM     42  C   UNL A   1      36.595  32.686  30.528  1.00  0.00     0.034 A 
ATOM     43  C   UNL A   1      44.223  32.228  29.203  1.00  0.00     0.034 A 
ATOM     44  C   UNL A   1      37.559  33.712  30.325  1.00  0.00     0.049 A 
ATOM     45  C   UNL A   1      43.393  33.294  29.779  1.00  0.00     0.074 A 
ATOM     46  C   UNL A   1      38.012  34.351  29.203  1.00  0.00     0.029 A 
ATOM     47  N   UNL A   1      38.430  33.946  31.365  1.00  0.00    -0.354 N 
ATOM     48  N   UNL A   1      43.067  33.372  31.031  1.00  0.00    -0.248 NA
ATOM     49  C   UNL A   1      42.839  34.326  28.892  1.00  0.00     0.031 C 
ATOM     50  C   UNL A   1      39.389  34.476  29.463  1.00  0.00     0.029 A 
ATOM     51  C   UNL A   1      39.658  34.161  30.804  1.00  0.00     0.049 A 
ATOM     52  H   UNL A   1      38.211  33.956  32.324  1.00  0.00     0.167 HD
ATOM     53  C   UNL A   1      42.012  34.243  31.004  1.00  0.00     0.074 A 
ATOM     54  C   UNL A   1      42.159  35.028  29.795  1.00  0.00     0.031 C 
ATOM     55  C   UNL A   1      40.841  33.874  31.587  1.00  0.00     0.034 A 
BRANCH  42  56
ATOM     56  C   UNL A   1      35.458  33.038  31.467  1.00  0.00     0.023 A 
ATOM     57  C   UNL A   1      34.623  34.112  31.054  1.00  0.00     0.031 A 
ATOM     58  C   UNL A   1      35.353  32.661  32.810  1.00  0.00     0.131 A 
ATOM     59  C   UNL A   1      33.889  34.873  31.971  1.00  0.00     0.055 A 
ATOM     60  C   UNL A   1      34.547  33.374  33.715  1.00  0.00     0.041 A 
ATOM     61  F   UNL A   1      36.076  31.657  33.320  1.00  0.00    -0.206 F 
ATOM     62  C   UNL A   1      33.849  34.511  33.310  1.00  0.00     0.022 A 
BRANCH  59  63
ATOM     63  S   UNL A   1      33.180  36.449  31.407  1.00  0.00     0.124 S 
ATOM     64  O   UNL A   1      33.345  36.356  29.960  1.00  0.00    -0.237 OA
ATOM     65  O   UNL A   1      31.808  36.361  31.900  1.00  0.00    -0.237 OA
ATOM     66  O   UNL A   1      34.014  37.451  32.066  1.00  0.00    -0.744 OA
ENDBRANCH  59  63
ENDBRANCH  42  56
BRANCH  43  67
ATOM     67  C   UNL A   1      45.651  32.667  28.851  1.00  0.00     0.023 A 
ATOM     68  C   UNL A   1      46.101  33.244  27.650  1.00  0.00     0.031 A 
ATOM     69  C   UNL A   1      46.673  32.551  29.856  1.00  0.00     0.131 A 
ATOM     70  C   UNL A   1      47.444  33.729  27.543  1.00  0.00     0.055 A 
ATOM     71  C   UNL A   1      47.948  33.109  29.779  1.00  0.00     0.041 A 
ATOM     72  F   UNL A   1      46.492  31.873  30.996  1.00  0.00    -0.206 F 
ATOM     73  C   UNL A   1      48.338  33.719  28.618  1.00  0.00     0.022 A 
BRANCH  70  74
ATOM     74  S   UNL A   1      48.107  34.414  25.991  1.00  0.00     0.124 S 
ATOM     75  O   UNL A   1      49.046  33.377  25.578  1.00  0.00    -0.237 OA
ATOM     76  O   UNL A   1      46.915  34.571  25.166  1.00  0.00    -0.237 OA
ATOM     77  O   UNL A   1      48.725  35.670  26.420  1.00  0.00    -0.744 OA
ENDBRANCH  70  74
ENDBRANCH  43  67
BRANCH  55  78
ATOM     78  C   UNL A   1      40.987  32.843  32.711  1.00  0.00     0.023 A 
ATOM     79  C   UNL A   1      40.744  31.475  32.455  1.00  0.00     0.031 A 
ATOM     80  C   UNL A   1      41.225  33.173  34.057  1.00  0.00     0.131 A 
ATOM     81  C   UNL A   1      40.693  30.532  33.502  1.00  0.00     0.055 A 
ATOM     82  C   UNL A   1      41.188  32.235  35.101  1.00  0.00     0.041 A 
ATOM     83  F   UNL A   1      41.491  34.426  34.423  1.00  0.00    -0.206 F 
ATOM     84  C   UNL A   1      40.912  30.905  34.827  1.00  0.00     0.022 A 
BRANCH  81  85
ATOM     85  S   UNL A   1      40.339  28.793  33.118  1.00  0.00     0.124 S 
ATOM     86  O   UNL A   1      41.215  28.528  31.983  1.00  0.00    -0.237 OA
ATOM     87  O   UNL A   1      40.685  28.119  34.365  1.00  0.00    -0.237 OA
ATOM     88  O   UNL A   1      38.909  28.797  32.804  1.00  0.00    -0.744 OA
ENDBRANCH  81  85
ENDBRANCH  55  78
ENDBRANCH  29  30
ENDBRANCH  21  24
ENDBRANCH  19  20
ENDBRANCH   1  19
TORSDOF 16
ENDMDL
MODEL 2
REMARK VINA RESULT:     -11.2      4.556     10.220
REMARK SMILES O=C(C[C@H](c1ccsc1)n1cccc1)NCCCNC(=O)c1ccc(-c2c3nc(c(-c4cc(S(=O)(=O)[O-])ccc4F)c4ccc([nH]4)c(-c4cc(S(=O)(=O)[O-])ccc4F)c4nc(c(-c5cc(S(=O)(=O)[O-])ccc5F)c5ccc2[nH]5)C=C4)C=C3)cc1
REMARK SMILES IDX 17 1 16 2 15 3 1 4 2 5 3 7 4 8 10 9 11 10 14 11 12 12 13 13
REMARK SMILES IDX 5 14 6 15 9 16 7 17 8 18 18 19 19 20 20 21 21 23 22 24 23 25
REMARK SMILES IDX 84 26 24 27 83 28 25 29 26 30 27 31 77 32 28 33 82 34 76 35
REMARK SMILES IDX 78 36 29 37 81 38 75 39 74 40 30 42 62 43 42 44 61 45 43 46
REMARK SMILES IDX 46 47 60 48 79 49 44 50 45 51 59 53 80 54 47 55 31 56 32 57
REMARK SMILES IDX 40 58 33 59 39 60 41 61 38 62 34 63 35 64 36 65 37 66 63 67
REMARK SMILES IDX 64 68 72 69 65 70 71 71 73 72 70 73 66 74 67 75 68 76 69 77
REMARK SMILES IDX 48 78 49 79 57 80 50 81 56 82 58 83 55 84 51 85 52 86 53 87
REMARK SMILES IDX 54 88
REMARK H PARENT 15 6 19 22 78 41 46 52
REMARK Flexibility Score: inf
ROOT
ATOM      1  C   UNL A   1      33.596  29.322  26.246  1.00  0.00     0.042 C 
ENDROOT
BRANCH   1   2
ATOM      2  C   UNL A   1      32.532  28.396  26.837  1.00  0.00     0.117 C 
BRANCH   2   3
ATOM      3  N   UNL A   1      32.834  26.990  26.643  1.00  0.00    -0.356 N 
ATOM      4  O   UNL A   1      30.653  26.262  26.614  1.00  0.00    -0.275 OA
ATOM      5  C   UNL A   1      31.848  26.038  26.470  1.00  0.00     0.222 C 
ATOM      6  H   UNL A   1      33.775  26.704  26.636  1.00  0.00     0.163 HD
BRANCH   5   7
ATOM      7  C   UNL A   1      32.383  24.684  26.058  1.00  0.00     0.130 C 
BRANCH   7   8
ATOM      8  C   UNL A   1      33.553  24.762  25.058  1.00  0.00     0.127 C 
BRANCH   8   9
ATOM      9  N   UNL A   1      34.311  23.501  24.921  1.00  0.00    -0.346 N 
ATOM     10  C   UNL A   1      33.902  22.216  25.187  1.00  0.00     0.086 A 
ATOM     11  C   UNL A   1      35.562  23.433  24.338  1.00  0.00     0.086 A 
ATOM     12  C   UNL A   1      34.917  21.348  24.851  1.00  0.00     0.019 A 
ATOM     13  C   UNL A   1      35.967  22.118  24.310  1.00  0.00     0.019 A 
ENDBRANCH   8   9
BRANCH   8  14
ATOM     14  C   UNL A   1      33.175  25.429  23.738  1.00  0.00    -0.014 A 
ATOM     15  C   UNL A   1      33.884  26.505  23.090  1.00  0.00     0.017 A 
ATOM     16  C   UNL A   1      32.099  25.042  22.957  1.00  0.00     0.070 A 
ATOM     17  C   UNL A   1      33.333  26.873  21.884  1.00  0.00     0.065 A 
ATOM     18  S   UNL A   1      31.926  25.975  21.535  1.00  0.00    -0.152 S 
ENDBRANCH   8  14
ENDBRANCH   7   8
ENDBRANCH   5   7
ENDBRANCH   2   3
ENDBRANCH   1   2
BRANCH   1  19
ATOM     19  C   UNL A   1      34.946  29.289  26.970  1.00  0.00     0.118 C 
BRANCH  19  20
ATOM     20  N   UNL A   1      35.347  30.593  27.468  1.00  0.00    -0.352 N 
ATOM     21  C   UNL A   1      36.380  30.909  28.324  1.00  0.00     0.251 C 
ATOM     22  H   UNL A   1      34.808  31.353  27.153  1.00  0.00     0.163 HD
ATOM     23  O   UNL A   1      36.361  31.992  28.895  1.00  0.00    -0.269 OA
BRANCH  21  24
ATOM     24  C   UNL A   1      37.496  29.965  28.577  1.00  0.00     0.039 A 
ATOM     25  C   UNL A   1      38.595  29.987  27.710  1.00  0.00     0.014 A 
ATOM     26  C   UNL A   1      37.435  29.003  29.592  1.00  0.00     0.014 A 
ATOM     27  C   UNL A   1      39.653  29.098  27.902  1.00  0.00     0.010 A 
ATOM     28  C   UNL A   1      38.487  28.107  29.785  1.00  0.00     0.010 A 
ATOM     29  C   UNL A   1      39.612  28.172  28.955  1.00  0.00    -0.014 A 
BRANCH  29  30
ATOM     30  C   UNL A   1      40.873  27.473  29.328  1.00  0.00     0.031 A 
ATOM     31  C   UNL A   1      41.152  26.308  28.333  1.00  0.00     0.074 A 
ATOM     32  C   UNL A   1      41.537  27.899  30.452  1.00  0.00     0.049 A 
ATOM     33  N   UNL A   1      41.721  25.157  28.515  1.00  0.00    -0.248 NA
ATOM     34  C   UNL A   1      40.616  26.401  26.940  1.00  0.00     0.031 C 
ATOM     35  C   UNL A   1      41.170  29.088  31.262  1.00  0.00     0.029 A 
ATOM     36  N   UNL A   1      42.645  27.448  31.151  1.00  0.00    -0.354 N 
ATOM     37  C   UNL A   1      41.843  24.524  27.247  1.00  0.00     0.074 A 
ATOM     38  C   UNL A   1      41.003  25.263  26.358  1.00  0.00     0.031 C 
ATOM     39  C   UNL A   1      41.960  29.207  32.357  1.00  0.00     0.029 A 
ATOM     40  C   UNL A   1      42.932  28.131  32.379  1.00  0.00     0.049 A 
ATOM     41  H   UNL A   1      43.201  26.705  30.825  1.00  0.00     0.167 HD
ATOM     42  C   UNL A   1      42.761  23.545  26.979  1.00  0.00     0.034 A 
ATOM     43  C   UNL A   1      43.859  27.826  33.352  1.00  0.00     0.034 A 
ATOM     44  C   UNL A   1      43.495  23.263  28.164  1.00  0.00     0.049 A 
ATOM     45  C   UNL A   1      44.650  26.743  32.754  1.00  0.00     0.074 A 
ATOM     46  C   UNL A   1      43.153  22.672  29.350  1.00  0.00     0.029 A 
ATOM     47  N   UNL A   1      44.689  23.933  28.318  1.00  0.00    -0.354 N 
ATOM     48  N   UNL A   1      45.542  26.914  31.829  1.00  0.00    -0.248 NA
ATOM     49  C   UNL A   1      44.398  25.358  33.174  1.00  0.00     0.031 C 
ATOM     50  C   UNL A   1      43.848  23.455  30.289  1.00  0.00     0.029 A 
ATOM     51  C   UNL A   1      44.767  24.291  29.635  1.00  0.00     0.049 A 
ATOM     52  H   UNL A   1      45.353  24.119  27.617  1.00  0.00     0.167 HD
ATOM     53  C   UNL A   1      45.695  25.647  31.335  1.00  0.00     0.074 A 
ATOM     54  C   UNL A   1      45.276  24.743  32.385  1.00  0.00     0.031 C 
ATOM     55  C   UNL A   1      45.562  25.445  29.997  1.00  0.00     0.034 A 
BRANCH  42  56
ATOM     56  C   UNL A   1      43.323  22.940  25.707  1.00  0.00     0.023 A 
ATOM     57  C   UNL A   1      43.435  21.523  25.691  1.00  0.00     0.031 A 
ATOM     58  C   UNL A   1      44.037  23.622  24.717  1.00  0.00     0.131 A 
ATOM     59  C   UNL A   1      44.354  20.863  24.866  1.00  0.00     0.055 A 
ATOM     60  C   UNL A   1      44.895  22.949  23.829  1.00  0.00     0.041 A 
ATOM     61  F   UNL A   1      44.005  24.958  24.617  1.00  0.00    -0.206 F 
ATOM     62  C   UNL A   1      45.094  21.573  23.931  1.00  0.00     0.022 A 
BRANCH  59  63
ATOM     63  S   UNL A   1      44.703  19.111  25.200  1.00  0.00     0.124 S 
ATOM     64  O   UNL A   1      44.588  18.519  23.871  1.00  0.00    -0.237 OA
ATOM     65  O   UNL A   1      46.050  19.169  25.759  1.00  0.00    -0.237 OA
ATOM     66  O   UNL A   1      43.654  18.731  26.144  1.00  0.00    -0.744 OA
ENDBRANCH  59  63
ENDBRANCH  42  56
BRANCH  43  67
ATOM     67  C   UNL A   1      44.286  28.201  34.777  1.00  0.00     0.023 A 
ATOM     68  C   UNL A   1      44.385  27.353  35.895  1.00  0.00     0.031 A 
ATOM     69  C   UNL A   1      44.703  29.553  35.038  1.00  0.00     0.131 A 
ATOM     70  C   UNL A   1      44.943  27.840  37.121  1.00  0.00     0.055 A 
ATOM     71  C   UNL A   1      45.330  29.994  36.201  1.00  0.00     0.041 A 
ATOM     72  F   UNL A   1      44.519  30.547  34.160  1.00  0.00    -0.206 F 
ATOM     73  C   UNL A   1      45.468  29.129  37.252  1.00  0.00     0.022 A 
BRANCH  70  74
ATOM     74  S   UNL A   1      45.026  26.814  38.624  1.00  0.00     0.124 S 
ATOM     75  O   UNL A   1      45.837  25.688  38.177  1.00  0.00    -0.237 OA
ATOM     76  O   UNL A   1      45.644  27.708  39.598  1.00  0.00    -0.237 OA
ATOM     77  O   UNL A   1      43.622  26.498  38.889  1.00  0.00    -0.744 OA
ENDBRANCH  70  74
ENDBRANCH  43  67
BRANCH  55  78
ATOM     78  C   UNL A   1      45.867  26.673  29.134  1.00  0.00     0.023 A 
ATOM     79  C   UNL A   1      44.813  27.478  28.646  1.00  0.00     0.031 A 
ATOM     80  C   UNL A   1      47.150  27.006  28.662  1.00  0.00     0.131 A 
ATOM     81  C   UNL A   1      45.048  28.503  27.707  1.00  0.00     0.055 A 
ATOM     82  C   UNL A   1      47.389  28.034  27.736  1.00  0.00     0.041 A 
ATOM     83  F   UNL A   1      48.228  26.337  29.067  1.00  0.00    -0.206 F 
ATOM     84  C   UNL A   1      46.333  28.784  27.245  1.00  0.00     0.022 A 
BRANCH  81  85
ATOM     85  S   UNL A   1      43.650  29.479  27.086  1.00  0.00     0.124 S 
ATOM     86  O   UNL A   1      42.907  28.510  26.288  1.00  0.00    -0.237 OA
ATOM     87  O   UNL A   1      43.005  29.924  28.317  1.00  0.00    -0.237 OA
ATOM     88  O   UNL A   1      44.292  30.546  26.316  1.00  0.00    -0.744 OA
ENDBRANCH  81  85
ENDBRANCH  55  78
ENDBRANCH  29  30
ENDBRANCH  21  24
ENDBRANCH  19  20
ENDBRANCH   1  19
TORSDOF 16
ENDMDL
MODEL 3
REMARK VINA RESULT:     -11.2      1.666      2.585
REMARK SMILES O=C(C[C@H](c1ccsc1)n1cccc1)NCCCNC(=O)c1ccc(-c2c3nc(c(-c4cc(S(=O)(=O)[O-])ccc4F)c4ccc([nH]4)c(-c4cc(S(=O)(=O)[O-])ccc4F)c4nc(c(-c5cc(S(=O)(=O)[O-])ccc5F)c5ccc2[nH]5)C=C4)C=C3)cc1
REMARK SMILES IDX 17 1 16 2 15 3 1 4 2 5 3 7 4 8 10 9 11 10 14 11 12 12 13 13
REMARK SMILES IDX 5 14 6 15 9 16 7 17 8 18 18 19 19 20 20 21 21 23 22 24 23 25
REMARK SMILES IDX 84 26 24 27 83 28 25 29 26 30 27 31 77 32 28 33 82 34 76 35
REMARK SMILES IDX 78 36 29 37 81 38 75 39 74 40 30 42 62 43 42 44 61 45 43 46
REMARK SMILES IDX 46 47 60 48 79 49 44 50 45 51 59 53 80 54 47 55 31 56 32 57
REMARK SMILES IDX 40 58 33 59 39 60 41 61 38 62 34 63 35 64 36 65 37 66 63 67
REMARK SMILES IDX 64 68 72 69 65 70 71 71 73 72 70 73 66 74 67 75 68 76 69 77
REMARK SMILES IDX 48 78 49 79 57 80 50 81 56 82 58 83 55 84 51 85 52 86 53 87
REMARK SMILES IDX 54 88
REMARK H PARENT 15 6 19 22 78 41 46 52
REMARK Flexibility Score: inf
ROOT
ATOM      1  C   UNL A   1      36.741  22.995  25.490  1.00  0.00     0.042 C 
ENDROOT
BRANCH   1   2
ATOM      2  C   UNL A   1      36.593  23.261  23.992  1.00  0.00     0.117 C 
BRANCH   2   3
ATOM      3  N   UNL A   1      35.338  22.776  23.451  1.00  0.00    -0.356 N 
ATOM      4  O   UNL A   1      34.280  24.817  23.389  1.00  0.00    -0.275 OA
ATOM      5  C   UNL A   1      34.298  23.623  23.120  1.00  0.00     0.222 C 
ATOM      6  H   UNL A   1      35.222  21.808  23.316  1.00  0.00     0.163 HD
BRANCH   5   7
ATOM      7  C   UNL A   1      33.180  22.938  22.365  1.00  0.00     0.130 C 
BRANCH   7   8
ATOM      8  C   UNL A   1      32.068  22.384  23.277  1.00  0.00     0.127 C 
BRANCH   8   9
ATOM      9  N   UNL A   1      32.412  21.105  23.934  1.00  0.00    -0.346 N 
ATOM     10  C   UNL A   1      32.747  20.872  25.246  1.00  0.00     0.086 A 
ATOM     11  C   UNL A   1      32.297  19.881  23.304  1.00  0.00     0.086 A 
ATOM     12  C   UNL A   1      32.923  19.518  25.426  1.00  0.00     0.019 A 
ATOM     13  C   UNL A   1      32.634  18.889  24.197  1.00  0.00     0.019 A 
ENDBRANCH   8   9
BRANCH   8  14
ATOM     14  C   UNL A   1      31.467  23.438  24.204  1.00  0.00    -0.014 A 
ATOM     15  C   UNL A   1      31.649  23.525  25.632  1.00  0.00     0.017 A 
ATOM     16  C   UNL A   1      30.688  24.497  23.766  1.00  0.00     0.070 A 
ATOM     17  C   UNL A   1      31.021  24.611  26.196  1.00  0.00     0.065 A 
ATOM     18  S   UNL A   1      30.158  25.513  25.035  1.00  0.00    -0.152 S 
ENDBRANCH   8  14
ENDBRANCH   7   8
ENDBRANCH   5   7
ENDBRANCH   2   3
ENDBRANCH   1   2
BRANCH   1  19
ATOM     19  C   UNL A   1      37.624  24.002  26.235  1.00  0.00     0.118 C 
BRANCH  19  20
ATOM     20  N   UNL A   1      38.796  23.385  26.832  1.00  0.00    -0.352 N 
ATOM     21  C   UNL A   1      39.911  23.992  27.370  1.00  0.00     0.251 C 
ATOM     22  H   UNL A   1      38.794  22.401  26.856  1.00  0.00     0.163 HD
ATOM     23  O   UNL A   1      40.930  23.329  27.514  1.00  0.00    -0.269 OA
BRANCH  21  24
ATOM     24  C   UNL A   1      39.904  25.424  27.758  1.00  0.00     0.039 A 
ATOM     25  C   UNL A   1      39.490  25.759  29.052  1.00  0.00     0.014 A 
ATOM     26  C   UNL A   1      40.210  26.438  26.845  1.00  0.00     0.014 A 
ATOM     27  C   UNL A   1      39.448  27.097  29.447  1.00  0.00     0.010 A 
ATOM     28  C   UNL A   1      40.164  27.779  27.231  1.00  0.00     0.010 A 
ATOM     29  C   UNL A   1      39.808  28.108  28.544  1.00  0.00    -0.014 A 
BRANCH  29  30
ATOM     30  C   UNL A   1      40.065  29.473  29.081  1.00  0.00     0.031 A 
ATOM     31  C   UNL A   1      38.716  30.179  29.411  1.00  0.00     0.074 A 
ATOM     32  C   UNL A   1      41.368  29.902  29.156  1.00  0.00     0.049 A 
ATOM     33  N   UNL A   1      38.379  31.430  29.353  1.00  0.00    -0.248 NA
ATOM     34  C   UNL A   1      37.527  29.343  29.759  1.00  0.00     0.031 C 
ATOM     35  C   UNL A   1      42.559  29.066  28.862  1.00  0.00     0.029 A 
ATOM     36  N   UNL A   1      41.975  31.102  29.490  1.00  0.00    -0.354 N 
ATOM     37  C   UNL A   1      37.069  31.555  29.891  1.00  0.00     0.074 A 
ATOM     38  C   UNL A   1      36.548  30.227  29.966  1.00  0.00     0.031 C 
ATOM     39  C   UNL A   1      43.704  29.788  28.942  1.00  0.00     0.029 A 
ATOM     40  C   UNL A   1      43.396  31.157  29.307  1.00  0.00     0.049 A 
ATOM     41  H   UNL A   1      41.462  31.869  29.832  1.00  0.00     0.167 HD
ATOM     42  C   UNL A   1      36.571  32.725  30.401  1.00  0.00     0.034 A 
ATOM     43  C   UNL A   1      44.248  32.235  29.408  1.00  0.00     0.034 A 
ATOM     44  C   UNL A   1      37.549  33.747  30.249  1.00  0.00     0.049 A 
ATOM     45  C   UNL A   1      43.399  33.301  29.955  1.00  0.00     0.074 A 
ATOM     46  C   UNL A   1      38.054  34.393  29.153  1.00  0.00     0.029 A 
ATOM     47  N   UNL A   1      38.375  33.968  31.328  1.00  0.00    -0.354 N 
ATOM     48  N   UNL A   1      43.019  33.370  31.192  1.00  0.00    -0.248 NA
ATOM     49  C   UNL A   1      42.890  34.343  29.054  1.00  0.00     0.031 C 
ATOM     50  C   UNL A   1      39.419  34.508  29.475  1.00  0.00     0.029 A 
ATOM     51  C   UNL A   1      39.627  34.181  30.823  1.00  0.00     0.049 A 
ATOM     52  H   UNL A   1      38.114  33.971  32.277  1.00  0.00     0.167 HD
ATOM     53  C   UNL A   1      41.971  34.248  31.126  1.00  0.00     0.074 A 
ATOM     54  C   UNL A   1      42.175  35.042  29.933  1.00  0.00     0.031 C 
ATOM     55  C   UNL A   1      40.774  33.881  31.654  1.00  0.00     0.034 A 
BRANCH  42  56
ATOM     56  C   UNL A   1      35.397  33.076  31.292  1.00  0.00     0.023 A 
ATOM     57  C   UNL A   1      34.600  34.174  30.864  1.00  0.00     0.031 A 
ATOM     58  C   UNL A   1      35.220  32.671  32.619  1.00  0.00     0.131 A 
ATOM     59  C   UNL A   1      33.836  34.927  31.764  1.00  0.00     0.055 A 
ATOM     60  C   UNL A   1      34.383  33.377  33.501  1.00  0.00     0.041 A 
ATOM     61  F   UNL A   1      35.901  31.642  33.140  1.00  0.00    -0.206 F 
ATOM     62  C   UNL A   1      33.724  34.535  33.090  1.00  0.00     0.022 A 
BRANCH  59  63
ATOM     63  S   UNL A   1      33.182  36.527  31.202  1.00  0.00     0.124 S 
ATOM     64  O   UNL A   1      33.977  37.471  31.981  1.00  0.00    -0.237 OA
ATOM     65  O   UNL A   1      33.462  36.487  29.770  1.00  0.00    -0.237 OA
ATOM     66  O   UNL A   1      31.767  36.460  31.560  1.00  0.00    -0.744 OA
ENDBRANCH  59  63
ENDBRANCH  42  56
BRANCH  43  67
ATOM     67  C   UNL A   1      45.692  32.668  29.122  1.00  0.00     0.023 A 
ATOM     68  C   UNL A   1      46.226  33.132  27.906  1.00  0.00     0.031 A 
ATOM     69  C   UNL A   1      46.635  32.678  30.209  1.00  0.00     0.131 A 
ATOM     70  C   UNL A   1      47.566  33.634  27.853  1.00  0.00     0.055 A 
ATOM     71  C   UNL A   1      47.903  33.254  30.172  1.00  0.00     0.041 A 
ATOM     72  F   UNL A   1      46.375  32.114  31.395  1.00  0.00    -0.206 F 
ATOM     73  C   UNL A   1      48.373  33.753  28.988  1.00  0.00     0.022 A 
BRANCH  70  74
ATOM     74  S   UNL A   1      48.338  34.174  26.294  1.00  0.00     0.124 S 
ATOM     75  O   UNL A   1      49.272  33.087  26.026  1.00  0.00    -0.237 OA
ATOM     76  O   UNL A   1      47.201  34.286  25.386  1.00  0.00    -0.237 OA
ATOM     77  O   UNL A   1      48.960  35.449  26.656  1.00  0.00    -0.744 OA
ENDBRANCH  70  74
ENDBRANCH  43  67
BRANCH  55  78
ATOM     78  C   UNL A   1      40.864  32.840  32.775  1.00  0.00     0.023 A 
ATOM     79  C   UNL A   1      40.698  31.467  32.485  1.00  0.00     0.031 A 
ATOM     80  C   UNL A   1      40.975  33.159  34.141  1.00  0.00     0.131 A 
ATOM     81  C   UNL A   1      40.596  30.507  33.512  1.00  0.00     0.055 A 
ATOM     82  C   UNL A   1      40.887  32.205  35.167  1.00  0.00     0.041 A 
ATOM     83  F   UNL A   1      41.159  34.416  34.542  1.00  0.00    -0.206 F 
ATOM     84  C   UNL A   1      40.687  30.870  34.855  1.00  0.00     0.022 A 
BRANCH  81  85
ATOM     85  S   UNL A   1      40.345  28.763  33.080  1.00  0.00     0.124 S 
ATOM     86  O   UNL A   1      41.377  28.526  32.078  1.00  0.00    -0.237 OA
ATOM     87  O   UNL A   1      40.530  28.091  34.363  1.00  0.00    -0.237 OA
ATOM     88  O   UNL A   1      38.973  28.731  32.570  1.00  0.00    -0.744 OA
ENDBRANCH  81  85
ENDBRANCH  55  78
ENDBRANCH  29  30
ENDBRANCH  21  24
ENDBRANCH  19  20
ENDBRANCH   1  19
TORSDOF 16
ENDMDL
