MODEL 1
REMARK VINA RESULT:     -15.2      0.000      0.000
REMARK SMILES O=CN[C@@H](CCS[C@@H]1CCO[C@]2(CCOC2)C1)C(=O)NCCCNC(=O)c1ccc(-c2c3nc(c(-c4cc(S(=O)(=O)[O-])ccc4F)c4ccc([nH]4)c(-c4cc(S(=O)(=O)[O-])ccc4F)c4nc(c(-c5cc(S(=O)(=O)[O-])ccc5F)c5ccc2[nH]5)C=C4)C=C3)cc1
REMARK SMILES IDX 21 1 20 2 18 3 19 4 4 6 3 7 1 8 2 9 5 11 6 12 7 13 8 14 9 15
REMARK SMILES IDX 17 16 10 17 12 18 11 19 13 20 16 21 14 22 15 23 22 24 23 25
REMARK SMILES IDX 24 26 25 27 26 29 27 30 28 31 89 32 29 33 88 34 30 35 31 36
REMARK SMILES IDX 32 37 82 38 33 39 87 40 81 41 83 42 34 43 86 44 80 45 79 46
REMARK SMILES IDX 35 48 67 49 47 50 66 51 48 52 51 53 65 54 84 55 49 56 50 57
REMARK SMILES IDX 64 59 85 60 52 61 36 62 37 63 45 64 38 65 44 66 46 67 43 68
REMARK SMILES IDX 39 69 40 70 41 71 42 72 68 73 69 74 77 75 70 76 76 77 78 78
REMARK SMILES IDX 75 79 71 80 72 81 73 82 74 83 53 84 54 85 62 86 55 87 61 88
REMARK SMILES IDX 63 89 60 90 56 91 57 92 58 93 59 94
REMARK H PARENT 20 5 3 10 24 28 83 47 51 58
REMARK Flexibility Score: inf
ROOT
ATOM      1  C   UNL A   1      35.422  21.258  25.790  1.00  0.00     0.117 C 
ENDROOT
BRANCH   1   2
ATOM      2  N   UNL A   1      34.045  20.248  25.588  1.00  0.00    -0.354 N 
ATOM      3  C   UNL A   1      33.027  19.636  24.985  1.00  0.00     0.242 C 
ATOM      4  O   UNL A   1      32.273  18.937  25.669  1.00  0.00    -0.273 OA
ATOM      5  H   UNL A   1      33.945  19.900  26.503  1.00  0.00     0.163 HD
BRANCH   3   6
ATOM      6  C   UNL A   1      32.987  19.597  23.537  1.00  0.00     0.171 C 
BRANCH   6   7
ATOM      7  N   UNL A   1      32.633  18.202  23.360  1.00  0.00    -0.347 N 
ATOM      8  O   UNL A   1      33.606  16.110  23.311  1.00  0.00    -0.279 OA
ATOM      9  C   UNL A   1      33.661  17.307  23.073  1.00  0.00     0.337 C 
ATOM     10  H   UNL A   1      31.700  17.898  23.440  1.00  0.00     0.164 HD
ENDBRANCH   6   7
BRANCH   6  11
ATOM     11  C   UNL A   1      32.071  20.807  23.222  1.00  0.00     0.046 C 
BRANCH  11  12
ATOM     12  C   UNL A   1      32.577  22.134  22.460  1.00  0.00     0.072 C 
BRANCH  12  13
ATOM     13  S   UNL A   1      33.909  23.564  23.164  1.00  0.00    -0.158 SA
BRANCH  13  14
ATOM     14  C   UNL A   1      33.252  24.148  25.113  1.00  0.00     0.052 C 
ATOM     15  C   UNL A   1      31.994  23.151  26.346  1.00  0.00     0.043 C 
ATOM     16  C   UNL A   1      32.663  25.845  24.506  1.00  0.00     0.052 C 
ATOM     17  C   UNL A   1      30.272  24.040  26.710  1.00  0.00     0.162 C 
ATOM     18  C   UNL A   1      31.166  26.764  25.444  1.00  0.00     0.095 C 
ATOM     19  O   UNL A   1      29.926  25.649  25.851  1.00  0.00    -0.372 OA
ATOM     20  C   UNL A   1      31.547  28.202  24.124  1.00  0.00     0.066 C 
ATOM     21  C   UNL A   1      31.520  27.653  27.282  1.00  0.00     0.195 C 
ATOM     22  C   UNL A   1      32.631  29.616  25.008  1.00  0.00     0.163 C 
ATOM     23  O   UNL A   1      32.708  29.179  26.899  1.00  0.00    -0.378 OA
ENDBRANCH  13  14
ENDBRANCH  12  13
ENDBRANCH  11  12
ENDBRANCH   6  11
ENDBRANCH   3   6
ENDBRANCH   1   2
BRANCH   1  24
ATOM     24  C   UNL A   1      37.288  20.737  24.946  1.00  0.00     0.042 C 
BRANCH  24  25
ATOM     25  C   UNL A   1      38.019  19.213  24.777  1.00  0.00     0.118 C 
BRANCH  25  26
ATOM     26  N   UNL A   1      39.376  19.104  25.821  1.00  0.00    -0.352 N 
ATOM     27  C   UNL A   1      40.826  20.336  26.311  1.00  0.00     0.251 C 
ATOM     28  H   UNL A   1      39.442  18.233  26.275  1.00  0.00     0.163 HD
ATOM     29  O   UNL A   1      41.876  20.555  25.653  1.00  0.00    -0.269 OA
BRANCH  27  30
ATOM     30  C   UNL A   1      40.721  21.649  27.545  1.00  0.00     0.039 A 
ATOM     31  C   UNL A   1      41.843  21.886  28.345  1.00  0.00     0.014 A 
ATOM     32  C   UNL A   1      39.887  22.788  27.406  1.00  0.00     0.014 A 
ATOM     33  C   UNL A   1      42.186  23.216  28.702  1.00  0.00     0.010 A 
ATOM     34  C   UNL A   1      40.454  24.031  27.316  1.00  0.00     0.010 A 
ATOM     35  C   UNL A   1      41.564  24.312  28.067  1.00  0.00    -0.014 A 
BRANCH  35  36
ATOM     36  C   UNL A   1      42.009  25.734  28.097  1.00  0.00     0.031 A 
ATOM     37  C   UNL A   1      41.171  26.820  28.778  1.00  0.00     0.074 A 
ATOM     38  C   UNL A   1      43.090  26.082  27.370  1.00  0.00     0.049 A 
ATOM     39  N   UNL A   1      41.398  28.109  28.860  1.00  0.00    -0.248 NA
ATOM     40  C   UNL A   1      39.874  26.435  29.372  1.00  0.00     0.031 C 
ATOM     41  C   UNL A   1      43.856  25.178  26.507  1.00  0.00     0.029 A 
ATOM     42  N   UNL A   1      43.747  27.277  27.250  1.00  0.00    -0.354 N 
ATOM     43  C   UNL A   1      40.275  28.659  29.481  1.00  0.00     0.074 A 
ATOM     44  C   UNL A   1      39.305  27.606  29.607  1.00  0.00     0.031 C 
ATOM     45  C   UNL A   1      44.947  25.811  26.058  1.00  0.00     0.029 A 
ATOM     46  C   UNL A   1      44.923  27.186  26.540  1.00  0.00     0.049 A 
ATOM     47  H   UNL A   1      43.412  28.120  27.633  1.00  0.00     0.167 HD
ATOM     48  C   UNL A   1      40.094  29.906  29.983  1.00  0.00     0.034 A 
ATOM     49  C   UNL A   1      45.886  28.102  26.327  1.00  0.00     0.034 A 
ATOM     50  C   UNL A   1      41.101  30.927  29.890  1.00  0.00     0.049 A 
ATOM     51  C   UNL A   1      45.704  29.466  26.938  1.00  0.00     0.074 A 
ATOM     52  C   UNL A   1      41.101  32.199  30.428  1.00  0.00     0.029 A 
ATOM     53  N   UNL A   1      42.302  30.780  29.205  1.00  0.00    -0.354 N 
ATOM     54  N   UNL A   1      44.696  29.929  27.643  1.00  0.00    -0.248 NA
ATOM     55  C   UNL A   1      46.795  30.425  26.742  1.00  0.00     0.031 C 
ATOM     56  C   UNL A   1      42.261  32.849  29.999  1.00  0.00     0.029 A 
ATOM     57  C   UNL A   1      43.033  31.951  29.276  1.00  0.00     0.049 A 
ATOM     58  H   UNL A   1      42.588  29.963  28.736  1.00  0.00     0.167 HD
ATOM     59  C   UNL A   1      45.047  31.227  27.999  1.00  0.00     0.074 A 
ATOM     60  C   UNL A   1      46.369  31.459  27.451  1.00  0.00     0.031 C 
ATOM     61  C   UNL A   1      44.346  32.148  28.710  1.00  0.00     0.034 A 
BRANCH  48  62
ATOM     62  C   UNL A   1      38.783  30.209  30.684  1.00  0.00     0.023 A 
ATOM     63  C   UNL A   1      37.733  30.888  30.032  1.00  0.00     0.031 A 
ATOM     64  C   UNL A   1      38.585  29.854  32.030  1.00  0.00     0.131 A 
ATOM     65  C   UNL A   1      36.589  31.276  30.747  1.00  0.00     0.055 A 
ATOM     66  C   UNL A   1      37.401  30.156  32.708  1.00  0.00     0.041 A 
ATOM     67  F   UNL A   1      39.549  29.224  32.720  1.00  0.00    -0.206 F 
ATOM     68  C   UNL A   1      36.402  30.889  32.073  1.00  0.00     0.022 A 
BRANCH  65  69
ATOM     69  S   UNL A   1      35.437  32.444  29.968  1.00  0.00     0.124 S 
ATOM     70  O   UNL A   1      35.055  31.717  28.759  1.00  0.00    -0.237 OA
ATOM     71  O   UNL A   1      34.399  32.589  30.981  1.00  0.00    -0.237 OA
ATOM     72  O   UNL A   1      36.256  33.632  29.738  1.00  0.00    -0.744 OA
ENDBRANCH  65  69
ENDBRANCH  48  62
BRANCH  49  73
ATOM     73  C   UNL A   1      47.113  27.746  25.555  1.00  0.00     0.023 A 
ATOM     74  C   UNL A   1      47.210  28.020  24.181  1.00  0.00     0.031 A 
ATOM     75  C   UNL A   1      48.204  27.110  26.175  1.00  0.00     0.131 A 
ATOM     76  C   UNL A   1      48.345  27.612  23.462  1.00  0.00     0.055 A 
ATOM     77  C   UNL A   1      49.358  26.765  25.469  1.00  0.00     0.041 A 
ATOM     78  F   UNL A   1      48.171  26.831  27.488  1.00  0.00    -0.206 F 
ATOM     79  C   UNL A   1      49.426  27.001  24.101  1.00  0.00     0.022 A 
BRANCH  76  80
ATOM     80  S   UNL A   1      48.340  27.791  21.657  1.00  0.00     0.124 S 
ATOM     81  O   UNL A   1      48.620  26.427  21.222  1.00  0.00    -0.237 OA
ATOM     82  O   UNL A   1      46.990  28.281  21.402  1.00  0.00    -0.237 OA
ATOM     83  O   UNL A   1      49.410  28.755  21.408  1.00  0.00    -0.744 OA
ENDBRANCH  76  80
ENDBRANCH  49  73
BRANCH  61  84
ATOM     84  C   UNL A   1      45.020  33.470  28.965  1.00  0.00     0.023 A 
ATOM     85  C   UNL A   1      45.811  33.684  30.105  1.00  0.00     0.031 A 
ATOM     86  C   UNL A   1      44.871  34.526  28.049  1.00  0.00     0.131 A 
ATOM     87  C   UNL A   1      46.368  34.948  30.334  1.00  0.00     0.055 A 
ATOM     88  C   UNL A   1      45.495  35.757  28.243  1.00  0.00     0.041 A 
ATOM     89  F   UNL A   1      44.122  34.374  26.944  1.00  0.00    -0.206 F 
ATOM     90  C   UNL A   1      46.238  35.978  29.400  1.00  0.00     0.022 A 
BRANCH  87  91
ATOM     91  S   UNL A   1      47.168  35.261  31.930  1.00  0.00     0.124 S 
ATOM     92  O   UNL A   1      48.580  35.118  31.593  1.00  0.00    -0.237 OA
ATOM     93  O   UNL A   1      46.721  36.614  32.244  1.00  0.00    -0.237 OA
ATOM     94  O   UNL A   1      46.627  34.214  32.794  1.00  0.00    -0.744 OA
ENDBRANCH  87  91
ENDBRANCH  61  84
ENDBRANCH  35  36
ENDBRANCH  27  30
ENDBRANCH  25  26
ENDBRANCH  24  25
ENDBRANCH   1  24
TORSDOF 18
ENDMDL
MODEL 2
REMARK VINA RESULT:     -14.8      1.445      2.155
REMARK SMILES O=CN[C@@H](CCS[C@@H]1CCO[C@]2(CCOC2)C1)C(=O)NCCCNC(=O)c1ccc(-c2c3nc(c(-c4cc(S(=O)(=O)[O-])ccc4F)c4ccc([nH]4)c(-c4cc(S(=O)(=O)[O-])ccc4F)c4nc(c(-c5cc(S(=O)(=O)[O-])ccc5F)c5ccc2[nH]5)C=C4)C=C3)cc1
REMARK SMILES IDX 21 1 20 2 18 3 19 4 4 6 3 7 1 8 2 9 5 11 6 12 7 13 8 14 9 15
REMARK SMILES IDX 17 16 10 17 12 18 11 19 13 20 16 21 14 22 15 23 22 24 23 25
REMARK SMILES IDX 24 26 25 27 26 29 27 30 28 31 89 32 29 33 88 34 30 35 31 36
REMARK SMILES IDX 32 37 82 38 33 39 87 40 81 41 83 42 34 43 86 44 80 45 79 46
REMARK SMILES IDX 35 48 67 49 47 50 66 51 48 52 51 53 65 54 84 55 49 56 50 57
REMARK SMILES IDX 64 59 85 60 52 61 36 62 37 63 45 64 38 65 44 66 46 67 43 68
REMARK SMILES IDX 39 69 40 70 41 71 42 72 68 73 69 74 77 75 70 76 76 77 78 78
REMARK SMILES IDX 75 79 71 80 72 81 73 82 74 83 53 84 54 85 62 86 55 87 61 88
REMARK SMILES IDX 63 89 60 90 56 91 57 92 58 93 59 94
REMARK H PARENT 20 5 3 10 24 28 83 47 51 58
REMARK Flexibility Score: inf
ROOT
ATOM      1  C   UNL A   1      35.217  21.178  25.622  1.00  0.00     0.117 C 
ENDROOT
BRANCH   1   2
ATOM      2  N   UNL A   1      33.916  20.061  25.492  1.00  0.00    -0.354 N 
ATOM      3  C   UNL A   1      32.946  19.338  24.934  1.00  0.00     0.242 C 
ATOM      4  O   UNL A   1      32.239  18.639  25.665  1.00  0.00    -0.273 OA
ATOM      5  H   UNL A   1      33.836  19.772  26.429  1.00  0.00     0.163 HD
BRANCH   3   6
ATOM      6  C   UNL A   1      32.916  19.195  23.492  1.00  0.00     0.171 C 
BRANCH   6   7
ATOM      7  N   UNL A   1      32.738  17.758  23.414  1.00  0.00    -0.347 N 
ATOM      8  O   UNL A   1      33.888  15.797  23.806  1.00  0.00    -0.279 OA
ATOM      9  C   UNL A   1      33.881  16.964  23.446  1.00  0.00     0.337 C 
ATOM     10  H   UNL A   1      31.841  17.358  23.340  1.00  0.00     0.164 HD
ENDBRANCH   6   7
BRANCH   6  11
ATOM     11  C   UNL A   1      31.859  20.258  23.099  1.00  0.00     0.046 C 
BRANCH  11  12
ATOM     12  C   UNL A   1      32.110  21.400  21.991  1.00  0.00     0.072 C 
BRANCH  12  13
ATOM     13  S   UNL A   1      33.550  22.897  22.025  1.00  0.00    -0.158 SA
BRANCH  13  14
ATOM     14  C   UNL A   1      32.626  24.658  22.810  1.00  0.00     0.052 C 
ATOM     15  C   UNL A   1      33.390  26.532  22.875  1.00  0.00     0.043 C 
ATOM     16  C   UNL A   1      32.269  23.838  24.481  1.00  0.00     0.052 C 
ATOM     17  C   UNL A   1      33.735  27.250  24.679  1.00  0.00     0.162 C 
ATOM     18  C   UNL A   1      32.171  24.953  26.128  1.00  0.00     0.095 C 
ATOM     19  O   UNL A   1      33.407  26.143  26.133  1.00  0.00    -0.372 OA
ATOM     20  C   UNL A   1      31.727  23.214  26.985  1.00  0.00     0.066 C 
ATOM     21  C   UNL A   1      30.492  26.124  26.455  1.00  0.00     0.195 C 
ATOM     22  C   UNL A   1      29.759  23.108  27.245  1.00  0.00     0.163 C 
ATOM     23  O   UNL A   1      29.027  24.848  26.785  1.00  0.00    -0.378 OA
ENDBRANCH  13  14
ENDBRANCH  12  13
ENDBRANCH  11  12
ENDBRANCH   6  11
ENDBRANCH   3   6
ENDBRANCH   1   2
BRANCH   1  24
ATOM     24  C   UNL A   1      37.125  20.723  24.834  1.00  0.00     0.042 C 
BRANCH  24  25
ATOM     25  C   UNL A   1      37.901  19.222  24.658  1.00  0.00     0.118 C 
BRANCH  25  26
ATOM     26  N   UNL A   1      39.230  19.128  25.738  1.00  0.00    -0.352 N 
ATOM     27  C   UNL A   1      40.662  20.371  26.253  1.00  0.00     0.251 C 
ATOM     28  H   UNL A   1      39.288  18.262  26.203  1.00  0.00     0.163 HD
ATOM     29  O   UNL A   1      41.729  20.587  25.620  1.00  0.00    -0.269 OA
BRANCH  27  30
ATOM     30  C   UNL A   1      40.520  21.696  27.471  1.00  0.00     0.039 A 
ATOM     31  C   UNL A   1      41.592  21.897  28.345  1.00  0.00     0.014 A 
ATOM     32  C   UNL A   1      39.741  22.863  27.269  1.00  0.00     0.014 A 
ATOM     33  C   UNL A   1      41.958  23.216  28.720  1.00  0.00     0.010 A 
ATOM     34  C   UNL A   1      40.358  24.084  27.213  1.00  0.00     0.010 A 
ATOM     35  C   UNL A   1      41.423  24.330  28.038  1.00  0.00    -0.014 A 
BRANCH  35  36
ATOM     36  C   UNL A   1      41.916  25.735  28.092  1.00  0.00     0.031 A 
ATOM     37  C   UNL A   1      41.108  26.841  28.776  1.00  0.00     0.074 A 
ATOM     38  C   UNL A   1      43.018  26.054  27.383  1.00  0.00     0.049 A 
ATOM     39  N   UNL A   1      41.378  28.120  28.878  1.00  0.00    -0.248 NA
ATOM     40  C   UNL A   1      39.790  26.494  29.349  1.00  0.00     0.031 C 
ATOM     41  C   UNL A   1      43.763  25.134  26.517  1.00  0.00     0.029 A 
ATOM     42  N   UNL A   1      43.718  27.227  27.287  1.00  0.00    -0.354 N 
ATOM     43  C   UNL A   1      40.268  28.701  29.492  1.00  0.00     0.074 A 
ATOM     44  C   UNL A   1      39.260  27.681  29.592  1.00  0.00     0.031 C 
ATOM     45  C   UNL A   1      44.882  25.735  26.091  1.00  0.00     0.029 A 
ATOM     46  C   UNL A   1      44.900  27.104  26.590  1.00  0.00     0.049 A 
ATOM     47  H   UNL A   1      43.407  28.076  27.677  1.00  0.00     0.167 HD
ATOM     48  C   UNL A   1      40.123  29.947  30.008  1.00  0.00     0.034 A 
ATOM     49  C   UNL A   1      45.896  27.989  26.401  1.00  0.00     0.034 A 
ATOM     50  C   UNL A   1      41.167  30.933  29.941  1.00  0.00     0.049 A 
ATOM     51  C   UNL A   1      45.754  29.350  27.028  1.00  0.00     0.074 A 
ATOM     52  C   UNL A   1      41.204  32.198  30.495  1.00  0.00     0.029 A 
ATOM     53  N   UNL A   1      42.370  30.753  29.269  1.00  0.00    -0.354 N 
ATOM     54  N   UNL A   1      44.753  29.839  27.726  1.00  0.00    -0.248 NA
ATOM     55  C   UNL A   1      46.880  30.273  26.858  1.00  0.00     0.031 C 
ATOM     56  C   UNL A   1      42.392  32.812  30.090  1.00  0.00     0.029 A 
ATOM     57  C   UNL A   1      43.141  31.897  29.365  1.00  0.00     0.049 A 
ATOM     58  H   UNL A   1      42.634  29.932  28.793  1.00  0.00     0.167 HD
ATOM     59  C   UNL A   1      45.144  31.119  28.103  1.00  0.00     0.074 A 
ATOM     60  C   UNL A   1      46.481  31.312  27.575  1.00  0.00     0.031 C 
ATOM     61  C   UNL A   1      44.467  32.055  28.818  1.00  0.00     0.034 A 
BRANCH  48  62
ATOM     62  C   UNL A   1      38.815  30.287  30.696  1.00  0.00     0.023 A 
ATOM     63  C   UNL A   1      37.745  30.887  30.001  1.00  0.00     0.031 A 
ATOM     64  C   UNL A   1      38.639  30.049  32.071  1.00  0.00     0.131 A 
ATOM     65  C   UNL A   1      36.602  31.316  30.694  1.00  0.00     0.055 A 
ATOM     66  C   UNL A   1      37.457  30.388  32.735  1.00  0.00     0.041 A 
ATOM     67  F   UNL A   1      39.622  29.499  32.801  1.00  0.00    -0.206 F 
ATOM     68  C   UNL A   1      36.437  31.043  32.051  1.00  0.00     0.022 A 
BRANCH  65  69
ATOM     69  S   UNL A   1      35.419  32.390  29.831  1.00  0.00     0.124 S 
ATOM     70  O   UNL A   1      34.389  32.573  30.851  1.00  0.00    -0.237 OA
ATOM     71  O   UNL A   1      36.224  33.563  29.517  1.00  0.00    -0.237 OA
ATOM     72  O   UNL A   1      35.006  31.589  28.679  1.00  0.00    -0.744 OA
ENDBRANCH  65  69
ENDBRANCH  48  62
BRANCH  49  73
ATOM     73  C   UNL A   1      47.120  27.599  25.641  1.00  0.00     0.023 A 
ATOM     74  C   UNL A   1      47.252  27.902  24.276  1.00  0.00     0.031 A 
ATOM     75  C   UNL A   1      48.172  26.903  26.262  1.00  0.00     0.131 A 
ATOM     76  C   UNL A   1      48.380  27.464  23.565  1.00  0.00     0.055 A 
ATOM     77  C   UNL A   1      49.323  26.526  25.566  1.00  0.00     0.041 A 
ATOM     78  F   UNL A   1      48.106  26.594  27.567  1.00  0.00    -0.206 F 
ATOM     79  C   UNL A   1      49.424  26.792  24.205  1.00  0.00     0.022 A 
BRANCH  76  80
ATOM     80  S   UNL A   1      48.413  27.686  21.765  1.00  0.00     0.124 S 
ATOM     81  O   UNL A   1      48.672  26.328  21.302  1.00  0.00    -0.237 OA
ATOM     82  O   UNL A   1      47.080  28.213  21.497  1.00  0.00    -0.237 OA
ATOM     83  O   UNL A   1      49.509  28.632  21.559  1.00  0.00    -0.744 OA
ENDBRANCH  76  80
ENDBRANCH  49  73
BRANCH  61  84
ATOM     84  C   UNL A   1      45.183  33.349  29.098  1.00  0.00     0.023 A 
ATOM     85  C   UNL A   1      45.211  34.392  28.158  1.00  0.00     0.031 A 
ATOM     86  C   UNL A   1      45.840  33.541  30.326  1.00  0.00     0.131 A 
ATOM     87  C   UNL A   1      45.941  35.555  28.434  1.00  0.00     0.055 A 
ATOM     88  C   UNL A   1      46.497  34.733  30.627  1.00  0.00     0.041 A 
ATOM     89  F   UNL A   1      45.846  32.574  31.258  1.00  0.00    -0.206 F 
ATOM     90  C   UNL A   1      46.562  35.743  29.671  1.00  0.00     0.022 A 
BRANCH  87  91
ATOM     91  S   UNL A   1      46.165  36.768  27.107  1.00  0.00     0.124 S 
ATOM     92  O   UNL A   1      47.564  37.143  27.274  1.00  0.00    -0.237 OA
ATOM     93  O   UNL A   1      45.851  35.988  25.914  1.00  0.00    -0.237 OA
ATOM     94  O   UNL A   1      45.199  37.814  27.434  1.00  0.00    -0.744 OA
ENDBRANCH  87  91
ENDBRANCH  61  84
ENDBRANCH  35  36
ENDBRANCH  27  30
ENDBRANCH  25  26
ENDBRANCH  24  25
ENDBRANCH   1  24
TORSDOF 18
ENDMDL
MODEL 3
REMARK VINA RESULT:     -14.2      2.029      2.279
REMARK SMILES O=CN[C@@H](CCS[C@@H]1CCO[C@]2(CCOC2)C1)C(=O)NCCCNC(=O)c1ccc(-c2c3nc(c(-c4cc(S(=O)(=O)[O-])ccc4F)c4ccc([nH]4)c(-c4cc(S(=O)(=O)[O-])ccc4F)c4nc(c(-c5cc(S(=O)(=O)[O-])ccc5F)c5ccc2[nH]5)C=C4)C=C3)cc1
REMARK SMILES IDX 21 1 20 2 18 3 19 4 4 6 3 7 1 8 2 9 5 11 6 12 7 13 8 14 9 15
REMARK SMILES IDX 17 16 10 17 12 18 11 19 13 20 16 21 14 22 15 23 22 24 23 25
REMARK SMILES IDX 24 26 25 27 26 29 27 30 28 31 89 32 29 33 88 34 30 35 31 36
REMARK SMILES IDX 32 37 82 38 33 39 87 40 81 41 83 42 34 43 86 44 80 45 79 46
REMARK SMILES IDX 35 48 67 49 47 50 66 51 48 52 51 53 65 54 84 55 49 56 50 57
REMARK SMILES IDX 64 59 85 60 52 61 36 62 37 63 45 64 38 65 44 66 46 67 43 68
REMARK SMILES IDX 39 69 40 70 41 71 42 72 68 73 69 74 77 75 70 76 76 77 78 78
REMARK SMILES IDX 75 79 71 80 72 81 73 82 74 83 53 84 54 85 62 86 55 87 61 88
REMARK SMILES IDX 63 89 60 90 56 91 57 92 58 93 59 94
REMARK H PARENT 20 5 3 10 24 28 83 47 51 58
REMARK Flexibility Score: inf
ROOT
ATOM      1  C   UNL A   1      35.728  21.564  25.903  1.00  0.00     0.117 C 
ENDROOT
BRANCH   1   2
ATOM      2  N   UNL A   1      34.284  20.636  25.794  1.00  0.00    -0.354 N 
ATOM      3  C   UNL A   1      33.291  19.936  25.246  1.00  0.00     0.242 C 
ATOM      4  O   UNL A   1      32.380  19.538  25.978  1.00  0.00    -0.273 OA
ATOM      5  H   UNL A   1      34.026  20.597  26.743  1.00  0.00     0.163 HD
BRANCH   3   6
ATOM      6  C   UNL A   1      33.437  19.452  23.888  1.00  0.00     0.171 C 
BRANCH   6   7
ATOM      7  N   UNL A   1      33.780  18.073  24.178  1.00  0.00    -0.347 N 
ATOM      8  O   UNL A   1      34.024  16.038  23.119  1.00  0.00    -0.279 OA
ATOM      9  C   UNL A   1      33.454  17.113  23.224  1.00  0.00     0.337 C 
ATOM     10  H   UNL A   1      34.228  17.825  25.019  1.00  0.00     0.164 HD
ENDBRANCH   6   7
BRANCH   6  11
ATOM     11  C   UNL A   1      32.113  19.936  23.245  1.00  0.00     0.046 C 
BRANCH  11  12
ATOM     12  C   UNL A   1      31.982  21.291  22.384  1.00  0.00     0.072 C 
BRANCH  12  13
ATOM     13  S   UNL A   1      33.276  22.917  22.384  1.00  0.00    -0.158 SA
BRANCH  13  14
ATOM     14  C   UNL A   1      32.950  23.997  24.200  1.00  0.00     0.052 C 
ATOM     15  C   UNL A   1      32.014  23.348  25.874  1.00  0.00     0.043 C 
ATOM     16  C   UNL A   1      32.140  25.453  23.297  1.00  0.00     0.052 C 
ATOM     17  C   UNL A   1      30.330  24.271  26.323  1.00  0.00     0.162 C 
ATOM     18  C   UNL A   1      30.778  26.564  24.234  1.00  0.00     0.095 C 
ATOM     19  O   UNL A   1      29.718  25.579  25.156  1.00  0.00    -0.372 OA
ATOM     20  C   UNL A   1      30.807  27.596  22.535  1.00  0.00     0.066 C 
ATOM     21  C   UNL A   1      31.400  27.926  25.667  1.00  0.00     0.195 C 
ATOM     22  C   UNL A   1      31.931  29.217  22.785  1.00  0.00     0.163 C 
ATOM     23  O   UNL A   1      32.386  29.312  24.671  1.00  0.00    -0.378 OA
ENDBRANCH  13  14
ENDBRANCH  12  13
ENDBRANCH  11  12
ENDBRANCH   6  11
ENDBRANCH   3   6
ENDBRANCH   1   2
BRANCH   1  24
ATOM     24  C   UNL A   1      37.469  20.997  24.849  1.00  0.00     0.042 C 
BRANCH  24  25
ATOM     25  C   UNL A   1      38.145  19.456  24.612  1.00  0.00     0.118 C 
BRANCH  25  26
ATOM     26  N   UNL A   1      39.397  19.192  25.754  1.00  0.00    -0.352 N 
ATOM     27  C   UNL A   1      40.928  20.255  26.373  1.00  0.00     0.251 C 
ATOM     28  H   UNL A   1      39.334  18.315  26.197  1.00  0.00     0.163 HD
ATOM     29  O   UNL A   1      42.044  20.365  25.801  1.00  0.00    -0.269 OA
BRANCH  27  30
ATOM     30  C   UNL A   1      40.869  21.562  27.618  1.00  0.00     0.039 A 
ATOM     31  C   UNL A   1      42.019  21.792  28.379  1.00  0.00     0.014 A 
ATOM     32  C   UNL A   1      40.033  22.703  27.515  1.00  0.00     0.014 A 
ATOM     33  C   UNL A   1      42.377  23.119  28.732  1.00  0.00     0.010 A 
ATOM     34  C   UNL A   1      40.600  23.946  27.412  1.00  0.00     0.010 A 
ATOM     35  C   UNL A   1      41.736  24.220  28.126  1.00  0.00    -0.014 A 
BRANCH  35  36
ATOM     36  C   UNL A   1      42.184  25.641  28.148  1.00  0.00     0.031 A 
ATOM     37  C   UNL A   1      41.310  26.746  28.748  1.00  0.00     0.074 A 
ATOM     38  C   UNL A   1      43.310  25.968  27.481  1.00  0.00     0.049 A 
ATOM     39  N   UNL A   1      41.537  28.036  28.812  1.00  0.00    -0.248 NA
ATOM     40  C   UNL A   1      39.976  26.380  29.269  1.00  0.00     0.031 C 
ATOM     41  C   UNL A   1      44.124  25.040  26.691  1.00  0.00     0.029 A 
ATOM     42  N   UNL A   1      43.978  27.158  27.373  1.00  0.00    -0.354 N 
ATOM     43  C   UNL A   1      40.380  28.605  29.348  1.00  0.00     0.074 A 
ATOM     44  C   UNL A   1      39.399  27.558  29.439  1.00  0.00     0.031 C 
ATOM     45  C   UNL A   1      45.245  25.658  26.296  1.00  0.00     0.029 A 
ATOM     46  C   UNL A   1      45.197  27.045  26.741  1.00  0.00     0.049 A 
ATOM     47  H   UNL A   1      43.624  28.011  27.714  1.00  0.00     0.167 HD
ATOM     48  C   UNL A   1      40.174  29.864  29.807  1.00  0.00     0.034 A 
ATOM     49  C   UNL A   1      46.175  27.953  26.566  1.00  0.00     0.034 A 
ATOM     50  C   UNL A   1      41.189  30.880  29.752  1.00  0.00     0.049 A 
ATOM     51  C   UNL A   1      45.962  29.332  27.131  1.00  0.00     0.074 A 
ATOM     52  C   UNL A   1      41.161  32.165  30.257  1.00  0.00     0.029 A 
ATOM     53  N   UNL A   1      42.430  30.712  29.147  1.00  0.00    -0.354 N 
ATOM     54  N   UNL A   1      44.913  29.816  27.759  1.00  0.00    -0.248 NA
ATOM     55  C   UNL A   1      47.067  30.283  26.980  1.00  0.00     0.031 C 
ATOM     56  C   UNL A   1      42.349  32.801  29.886  1.00  0.00     0.029 A 
ATOM     57  C   UNL A   1      43.160  31.882  29.235  1.00  0.00     0.049 A 
ATOM     58  H   UNL A   1      42.741  29.883  28.717  1.00  0.00     0.167 HD
ATOM     59  C   UNL A   1      45.247  31.121  28.104  1.00  0.00     0.074 A 
ATOM     60  C   UNL A   1      46.601  31.335  27.635  1.00  0.00     0.031 C 
ATOM     61  C   UNL A   1      44.507  32.061  28.748  1.00  0.00     0.034 A 
BRANCH  48  62
ATOM     62  C   UNL A   1      38.822  30.189  30.416  1.00  0.00     0.023 A 
ATOM     63  C   UNL A   1      37.779  30.747  29.651  1.00  0.00     0.031 A 
ATOM     64  C   UNL A   1      38.579  29.977  31.785  1.00  0.00     0.131 A 
ATOM     65  C   UNL A   1      36.591  31.165  30.272  1.00  0.00     0.055 A 
ATOM     66  C   UNL A   1      37.356  30.303  32.377  1.00  0.00     0.041 A 
ATOM     67  F   UNL A   1      39.533  29.468  32.579  1.00  0.00    -0.206 F 
ATOM     68  C   UNL A   1      36.360  30.919  31.625  1.00  0.00     0.022 A 
BRANCH  65  69
ATOM     69  S   UNL A   1      35.432  32.190  29.322  1.00  0.00     0.124 S 
ATOM     70  O   UNL A   1      34.806  31.197  28.451  1.00  0.00    -0.237 OA
ATOM     71  O   UNL A   1      34.581  32.755  30.362  1.00  0.00    -0.237 OA
ATOM     72  O   UNL A   1      36.301  33.146  28.637  1.00  0.00    -0.744 OA
ENDBRANCH  65  69
ENDBRANCH  48  62
BRANCH  49  73
ATOM     73  C   UNL A   1      47.446  27.574  25.882  1.00  0.00     0.023 A 
ATOM     74  C   UNL A   1      48.529  27.047  26.605  1.00  0.00     0.031 A 
ATOM     75  C   UNL A   1      47.606  27.747  24.495  1.00  0.00     0.131 A 
ATOM     76  C   UNL A   1      49.739  26.764  25.951  1.00  0.00     0.055 A 
ATOM     77  C   UNL A   1      48.789  27.402  23.838  1.00  0.00     0.041 A 
ATOM     78  F   UNL A   1      46.602  28.237  23.752  1.00  0.00    -0.206 F 
ATOM     79  C   UNL A   1      49.870  26.922  24.570  1.00  0.00     0.022 A 
BRANCH  76  80
ATOM     80  S   UNL A   1      51.177  26.290  26.951  1.00  0.00     0.124 S 
ATOM     81  O   UNL A   1      52.265  26.949  26.237  1.00  0.00    -0.237 OA
ATOM     82  O   UNL A   1      50.837  26.845  28.256  1.00  0.00    -0.237 OA
ATOM     83  O   UNL A   1      51.177  24.830  26.875  1.00  0.00    -0.744 OA
ENDBRANCH  76  80
ENDBRANCH  49  73
BRANCH  61  84
ATOM     84  C   UNL A   1      45.170  33.387  29.011  1.00  0.00     0.023 A 
ATOM     85  C   UNL A   1      45.039  34.464  28.119  1.00  0.00     0.031 A 
ATOM     86  C   UNL A   1      45.936  33.575  30.174  1.00  0.00     0.131 A 
ATOM     87  C   UNL A   1      45.723  35.660  28.371  1.00  0.00     0.055 A 
ATOM     88  C   UNL A   1      46.548  34.794  30.460  1.00  0.00     0.041 A 
ATOM     89  F   UNL A   1      46.095  32.576  31.058  1.00  0.00    -0.206 F 
ATOM     90  C   UNL A   1      46.455  35.841  29.547  1.00  0.00     0.022 A 
BRANCH  87  91
ATOM     91  S   UNL A   1      45.737  36.933  27.082  1.00  0.00     0.124 S 
ATOM     92  O   UNL A   1      44.312  37.166  26.874  1.00  0.00    -0.237 OA
ATOM     93  O   UNL A   1      46.473  38.018  27.722  1.00  0.00    -0.237 OA
ATOM     94  O   UNL A   1      46.429  36.285  25.970  1.00  0.00    -0.744 OA
ENDBRANCH  87  91
ENDBRANCH  61  84
ENDBRANCH  35  36
ENDBRANCH  27  30
ENDBRANCH  25  26
ENDBRANCH  24  25
ENDBRANCH   1  24
TORSDOF 18
ENDMDL
