MODEL 1
REMARK VINA RESULT:     -11.6      0.000      0.000
REMARK SMILES CC[NH2+][C@@]1(C(=O)NCCCNC(=O)c2ccc(-c3c4nc(c(-c5cc(S(=O)(=O)[O-])ccc5F)c5ccc([nH]5)c(-c5cc(S(=O)(=O)[O-])ccc5F)c5nc(c(-c6cc(S(=O)(=O)[O-])ccc6F)c6ccc3[nH]6)C=C5)C=C4)cc2)CC[C@@H]([N@@H+](C)Cc2nccn2C)C1
REMARK SMILES IDX 9 1 8 2 7 3 5 4 6 5 4 7 77 8 89 9 78 10 79 11 3 12 2 15 1 16
REMARK SMILES IDX 80 17 81 18 82 20 83 21 84 22 87 23 85 24 86 25 88 26 10 27
REMARK SMILES IDX 11 28 12 29 13 31 14 32 15 33 76 34 16 35 75 36 17 37 18 38
REMARK SMILES IDX 19 39 69 40 20 41 74 42 68 43 70 44 21 45 73 46 67 47 66 48
REMARK SMILES IDX 22 50 54 51 34 52 53 53 35 54 38 55 52 56 71 57 36 58 37 59
REMARK SMILES IDX 51 61 72 62 39 63 23 64 24 65 32 66 25 67 31 68 33 69 30 70
REMARK SMILES IDX 26 71 27 72 28 73 29 74 55 75 56 76 64 77 57 78 63 79 65 80
REMARK SMILES IDX 62 81 58 82 59 83 60 84 61 85 40 86 41 87 49 88 42 89 48 90
REMARK SMILES IDX 50 91 47 92 43 93 44 94 45 95 46 96
REMARK H PARENT 7 6 3 13 3 14 80 19 11 30 70 49 38 60
REMARK Flexibility Score: inf
ROOT
ATOM      1  C   UNL A   1      32.177  28.305  26.806  1.00  0.00     0.042 C 
ENDROOT
BRANCH   1   2
ATOM      2  C   UNL A   1      32.682  26.890  26.572  1.00  0.00     0.118 C 
BRANCH   2   3
ATOM      3  N   UNL A   1      31.662  25.907  26.840  1.00  0.00    -0.351 N 
ATOM      4  C   UNL A   1      30.776  25.232  26.067  1.00  0.00     0.281 C 
ATOM      5  O   UNL A   1      30.009  24.513  26.726  1.00  0.00    -0.268 OA
ATOM      6  H   UNL A   1      31.593  25.675  27.795  1.00  0.00     0.163 HD
BRANCH   4   7
ATOM      7  C   UNL A   1      30.665  25.336  24.488  1.00  0.00     0.181 C 
ATOM      8  C   UNL A   1      31.882  25.891  23.731  1.00  0.00     0.085 C 
ATOM      9  C   UNL A   1      29.491  26.252  24.079  1.00  0.00     0.144 C 
ATOM     10  C   UNL A   1      31.572  27.328  23.309  1.00  0.00     0.072 C 
ATOM     11  C   UNL A   1      30.098  27.586  23.628  1.00  0.00     0.191 C 
BRANCH   7  12
ATOM     12  N   UNL A   1      30.322  23.971  23.975  1.00  0.00    -0.334 N 
ATOM     13  H   UNL A   1      30.052  23.394  24.771  1.00  0.00     0.347 HD
ATOM     14  H   UNL A   1      29.574  24.106  23.295  1.00  0.00     0.347 HD
BRANCH  12  15
ATOM     15  C   UNL A   1      31.396  23.285  23.261  1.00  0.00     0.257 C 
ATOM     16  C   UNL A   1      32.016  22.251  24.188  1.00  0.00     0.071 C 
ENDBRANCH  12  15
ENDBRANCH   7  12
BRANCH  11  17
ATOM     17  N   UNL A   1      29.303  28.335  22.643  1.00  0.00    -0.328 N 
ATOM     18  C   UNL A   1      27.937  28.565  23.092  1.00  0.00     0.333 C 
ATOM     19  H   UNL A   1      29.271  27.684  21.858  1.00  0.00     0.348 HD
BRANCH  17  20
ATOM     20  C   UNL A   1      29.921  29.498  21.973  1.00  0.00     0.338 C 
BRANCH  20  21
ATOM     21  C   UNL A   1      29.030  30.664  21.633  1.00  0.00     0.164 A 
ATOM     22  N   UNL A   1      28.408  30.827  20.472  1.00  0.00    -0.236 NA
ATOM     23  N   UNL A   1      28.765  31.738  22.455  1.00  0.00    -0.333 N 
ATOM     24  C   UNL A   1      27.858  32.080  20.504  1.00  0.00     0.131 A 
ATOM     25  C   UNL A   1      28.088  32.675  21.717  1.00  0.00     0.107 A 
ATOM     26  C   UNL A   1      29.118  31.918  23.841  1.00  0.00     0.151 C 
ENDBRANCH  20  21
ENDBRANCH  17  20
ENDBRANCH  11  17
ENDBRANCH   4   7
ENDBRANCH   2   3
ENDBRANCH   1   2
BRANCH   1  27
ATOM     27  C   UNL A   1      33.004  29.324  26.040  1.00  0.00     0.118 C 
BRANCH  27  28
ATOM     28  N   UNL A   1      32.603  30.693  26.360  1.00  0.00    -0.352 N 
ATOM     29  C   UNL A   1      33.200  31.601  27.200  1.00  0.00     0.251 C 
ATOM     30  H   UNL A   1      31.786  31.010  25.908  1.00  0.00     0.163 HD
ATOM     31  O   UNL A   1      32.609  32.633  27.505  1.00  0.00    -0.269 OA
BRANCH  29  32
ATOM     32  C   UNL A   1      34.538  31.303  27.751  1.00  0.00     0.039 A 
ATOM     33  C   UNL A   1      35.489  32.323  27.835  1.00  0.00     0.014 A 
ATOM     34  C   UNL A   1      34.830  30.023  28.224  1.00  0.00     0.014 A 
ATOM     35  C   UNL A   1      36.709  32.075  28.470  1.00  0.00     0.010 A 
ATOM     36  C   UNL A   1      35.994  29.810  28.945  1.00  0.00     0.010 A 
ATOM     37  C   UNL A   1      36.951  30.829  29.069  1.00  0.00    -0.014 A 
BRANCH  37  38
ATOM     38  C   UNL A   1      38.207  30.528  29.803  1.00  0.00     0.031 A 
ATOM     39  C   UNL A   1      39.185  29.554  29.203  1.00  0.00     0.074 A 
ATOM     40  C   UNL A   1      38.406  31.026  31.039  1.00  0.00     0.049 A 
ATOM     41  N   UNL A   1      40.219  28.971  29.749  1.00  0.00    -0.248 NA
ATOM     42  C   UNL A   1      38.923  29.138  27.815  1.00  0.00     0.031 C 
ATOM     43  C   UNL A   1      37.510  31.949  31.739  1.00  0.00     0.029 A 
ATOM     44  N   UNL A   1      39.420  30.807  31.937  1.00  0.00    -0.354 N 
ATOM     45  C   UNL A   1      40.702  28.087  28.789  1.00  0.00     0.074 A 
ATOM     46  C   UNL A   1      39.808  28.168  27.654  1.00  0.00     0.031 C 
ATOM     47  C   UNL A   1      38.022  32.229  32.948  1.00  0.00     0.029 A 
ATOM     48  C   UNL A   1      39.251  31.465  33.134  1.00  0.00     0.049 A 
ATOM     49  H   UNL A   1      40.196  30.232  31.744  1.00  0.00     0.167 HD
ATOM     50  C   UNL A   1      41.804  27.297  28.842  1.00  0.00     0.034 A 
ATOM     51  C   UNL A   1      39.992  31.435  34.259  1.00  0.00     0.034 A 
ATOM     52  C   UNL A   1      42.703  27.269  29.967  1.00  0.00     0.049 A 
ATOM     53  C   UNL A   1      41.224  30.567  34.291  1.00  0.00     0.074 A 
ATOM     54  C   UNL A   1      43.880  26.559  30.114  1.00  0.00     0.029 A 
ATOM     55  N   UNL A   1      42.526  27.993  31.140  1.00  0.00    -0.354 N 
ATOM     56  N   UNL A   1      41.686  29.754  33.367  1.00  0.00    -0.248 NA
ATOM     57  C   UNL A   1      42.042  30.618  35.509  1.00  0.00     0.031 C 
ATOM     58  C   UNL A   1      44.389  26.814  31.393  1.00  0.00     0.029 A 
ATOM     59  C   UNL A   1      43.566  27.737  32.019  1.00  0.00     0.049 A 
ATOM     60  H   UNL A   1      41.772  28.599  31.320  1.00  0.00     0.167 HD
ATOM     61  C   UNL A   1      42.867  29.229  33.880  1.00  0.00     0.074 A 
ATOM     62  C   UNL A   1      43.049  29.817  35.191  1.00  0.00     0.031 C 
ATOM     63  C   UNL A   1      43.730  28.346  33.317  1.00  0.00     0.034 A 
BRANCH  50  64
ATOM     64  C   UNL A   1      42.070  26.398  27.658  1.00  0.00     0.023 A 
ATOM     65  C   UNL A   1      41.630  25.063  27.631  1.00  0.00     0.031 A 
ATOM     66  C   UNL A   1      42.816  26.864  26.561  1.00  0.00     0.131 A 
ATOM     67  C   UNL A   1      42.018  24.217  26.581  1.00  0.00     0.055 A 
ATOM     68  C   UNL A   1      43.120  26.042  25.474  1.00  0.00     0.041 A 
ATOM     69  F   UNL A   1      43.281  28.124  26.535  1.00  0.00    -0.206 F 
ATOM     70  C   UNL A   1      42.737  24.703  25.488  1.00  0.00     0.022 A 
BRANCH  67  71
ATOM     71  S   UNL A   1      41.708  22.438  26.748  1.00  0.00     0.124 S 
ATOM     72  O   UNL A   1      42.036  21.956  25.409  1.00  0.00    -0.237 OA
ATOM     73  O   UNL A   1      42.633  22.055  27.808  1.00  0.00    -0.237 OA
ATOM     74  O   UNL A   1      40.291  22.368  27.098  1.00  0.00    -0.744 OA
ENDBRANCH  67  71
ENDBRANCH  50  64
BRANCH  51  75
ATOM     75  C   UNL A   1      39.597  32.244  35.447  1.00  0.00     0.023 A 
ATOM     76  C   UNL A   1      38.810  31.688  36.467  1.00  0.00     0.031 A 
ATOM     77  C   UNL A   1      39.975  33.593  35.568  1.00  0.00     0.131 A 
ATOM     78  C   UNL A   1      38.385  32.487  37.540  1.00  0.00     0.055 A 
ATOM     79  C   UNL A   1      39.591  34.372  36.662  1.00  0.00     0.041 A 
ATOM     80  F   UNL A   1      40.737  34.172  34.626  1.00  0.00    -0.206 F 
ATOM     81  C   UNL A   1      38.781  33.822  37.650  1.00  0.00     0.022 A 
BRANCH  78  82
ATOM     82  S   UNL A   1      37.242  31.774  38.754  1.00  0.00     0.124 S 
ATOM     83  O   UNL A   1      37.069  30.420  38.240  1.00  0.00    -0.237 OA
ATOM     84  O   UNL A   1      38.002  31.900  39.994  1.00  0.00    -0.237 OA
ATOM     85  O   UNL A   1      36.065  32.634  38.659  1.00  0.00    -0.744 OA
ENDBRANCH  78  82
ENDBRANCH  51  75
BRANCH  63  86
ATOM     86  C   UNL A   1      44.985  28.026  34.085  1.00  0.00     0.023 A 
ATOM     87  C   UNL A   1      45.071  26.914  34.942  1.00  0.00     0.031 A 
ATOM     88  C   UNL A   1      46.120  28.843  33.941  1.00  0.00     0.131 A 
ATOM     89  C   UNL A   1      46.256  26.676  35.654  1.00  0.00     0.055 A 
ATOM     90  C   UNL A   1      47.312  28.571  34.611  1.00  0.00     0.041 A 
ATOM     91  F   UNL A   1      46.089  29.917  33.135  1.00  0.00    -0.206 F 
ATOM     92  C   UNL A   1      47.381  27.487  35.482  1.00  0.00     0.022 A 
BRANCH  89  93
ATOM     93  S   UNL A   1      46.287  25.325  36.864  1.00  0.00     0.124 S 
ATOM     94  O   UNL A   1      47.361  25.742  37.758  1.00  0.00    -0.237 OA
ATOM     95  O   UNL A   1      44.939  25.371  37.420  1.00  0.00    -0.237 OA
ATOM     96  O   UNL A   1      46.580  24.145  36.052  1.00  0.00    -0.744 OA
ENDBRANCH  89  93
ENDBRANCH  63  86
ENDBRANCH  37  38
ENDBRANCH  29  32
ENDBRANCH  27  28
ENDBRANCH   1  27
TORSDOF 18
ENDMDL
MODEL 2
REMARK VINA RESULT:     -11.3      4.475      9.107
REMARK SMILES CC[NH2+][C@@]1(C(=O)NCCCNC(=O)c2ccc(-c3c4nc(c(-c5cc(S(=O)(=O)[O-])ccc5F)c5ccc([nH]5)c(-c5cc(S(=O)(=O)[O-])ccc5F)c5nc(c(-c6cc(S(=O)(=O)[O-])ccc6F)c6ccc3[nH]6)C=C5)C=C4)cc2)CC[C@@H]([N@@H+](C)Cc2nccn2C)C1
REMARK SMILES IDX 9 1 8 2 7 3 5 4 6 5 4 7 77 8 89 9 78 10 79 11 3 12 2 15 1 16
REMARK SMILES IDX 80 17 81 18 82 20 83 21 84 22 87 23 85 24 86 25 88 26 10 27
REMARK SMILES IDX 11 28 12 29 13 31 14 32 15 33 76 34 16 35 75 36 17 37 18 38
REMARK SMILES IDX 19 39 69 40 20 41 74 42 68 43 70 44 21 45 73 46 67 47 66 48
REMARK SMILES IDX 22 50 54 51 34 52 53 53 35 54 38 55 52 56 71 57 36 58 37 59
REMARK SMILES IDX 51 61 72 62 39 63 23 64 24 65 32 66 25 67 31 68 33 69 30 70
REMARK SMILES IDX 26 71 27 72 28 73 29 74 55 75 56 76 64 77 57 78 63 79 65 80
REMARK SMILES IDX 62 81 58 82 59 83 60 84 61 85 40 86 41 87 49 88 42 89 48 90
REMARK SMILES IDX 50 91 47 92 43 93 44 94 45 95 46 96
REMARK H PARENT 7 6 3 13 3 14 80 19 11 30 70 49 38 60
REMARK Flexibility Score: inf
ROOT
ATOM      1  C   UNL A   1      35.195  22.687  26.482  1.00  0.00     0.042 C 
ENDROOT
BRANCH   1   2
ATOM      2  C   UNL A   1      33.854  22.046  26.160  1.00  0.00     0.118 C 
BRANCH   2   3
ATOM      3  N   UNL A   1      32.758  22.772  26.751  1.00  0.00    -0.351 N 
ATOM      4  C   UNL A   1      32.135  23.942  26.461  1.00  0.00     0.281 C 
ATOM      5  O   UNL A   1      31.260  24.242  27.289  1.00  0.00    -0.268 OA
ATOM      6  H   UNL A   1      32.377  22.320  27.539  1.00  0.00     0.163 HD
BRANCH   4   7
ATOM      7  C   UNL A   1      32.470  24.882  25.229  1.00  0.00     0.181 C 
ATOM      8  C   UNL A   1      33.770  25.698  25.297  1.00  0.00     0.085 C 
ATOM      9  C   UNL A   1      31.354  25.929  25.017  1.00  0.00     0.144 C 
ATOM     10  C   UNL A   1      33.411  27.150  25.618  1.00  0.00     0.072 C 
ATOM     11  C   UNL A   1      31.887  27.266  25.546  1.00  0.00     0.191 C 
BRANCH   7  12
ATOM     12  N   UNL A   1      32.469  24.025  24.000  1.00  0.00    -0.334 N 
ATOM     13  H   UNL A   1      32.514  23.050  24.297  1.00  0.00     0.347 HD
ATOM     14  H   UNL A   1      31.614  24.258  23.495  1.00  0.00     0.347 HD
BRANCH  12  15
ATOM     15  C   UNL A   1      33.567  24.266  23.070  1.00  0.00     0.257 C 
ATOM     16  C   UNL A   1      32.991  24.760  21.751  1.00  0.00     0.071 C 
ENDBRANCH  12  15
ENDBRANCH   7  12
BRANCH  11  17
ATOM     17  N   UNL A   1      31.318  28.463  24.909  1.00  0.00    -0.328 N 
ATOM     18  C   UNL A   1      31.841  29.696  25.480  1.00  0.00     0.333 C 
ATOM     19  H   UNL A   1      30.333  28.391  25.165  1.00  0.00     0.348 HD
BRANCH  17  20
ATOM     20  C   UNL A   1      31.190  28.488  23.437  1.00  0.00     0.338 C 
BRANCH  20  21
ATOM     21  C   UNL A   1      29.905  29.018  22.856  1.00  0.00     0.164 A 
ATOM     22  N   UNL A   1      29.804  30.123  22.129  1.00  0.00    -0.236 NA
ATOM     23  N   UNL A   1      28.657  28.458  23.026  1.00  0.00    -0.333 N 
ATOM     24  C   UNL A   1      28.464  30.345  21.954  1.00  0.00     0.131 A 
ATOM     25  C   UNL A   1      27.731  29.337  22.524  1.00  0.00     0.107 A 
ATOM     26  C   UNL A   1      28.312  27.194  23.627  1.00  0.00     0.151 C 
ENDBRANCH  20  21
ENDBRANCH  17  20
ENDBRANCH  11  17
ENDBRANCH   4   7
ENDBRANCH   2   3
ENDBRANCH   1   2
BRANCH   1  27
ATOM     27  C   UNL A   1      36.134  22.643  25.289  1.00  0.00     0.118 C 
BRANCH  27  28
ATOM     28  N   UNL A   1      36.964  21.440  25.301  1.00  0.00    -0.352 N 
ATOM     29  C   UNL A   1      38.283  21.297  25.654  1.00  0.00     0.251 C 
ATOM     30  H   UNL A   1      36.512  20.613  25.013  1.00  0.00     0.163 HD
ATOM     31  O   UNL A   1      38.873  20.250  25.406  1.00  0.00    -0.269 OA
BRANCH  29  32
ATOM     32  C   UNL A   1      38.983  22.425  26.302  1.00  0.00     0.039 A 
ATOM     33  C   UNL A   1      40.041  22.166  27.178  1.00  0.00     0.014 A 
ATOM     34  C   UNL A   1      38.618  23.738  26.005  1.00  0.00     0.014 A 
ATOM     35  C   UNL A   1      40.784  23.231  27.693  1.00  0.00     0.010 A 
ATOM     36  C   UNL A   1      39.420  24.785  26.432  1.00  0.00     0.010 A 
ATOM     37  C   UNL A   1      40.506  24.546  27.287  1.00  0.00    -0.014 A 
BRANCH  37  38
ATOM     38  C   UNL A   1      41.298  25.710  27.760  1.00  0.00     0.031 A 
ATOM     39  C   UNL A   1      40.612  26.773  28.576  1.00  0.00     0.074 A 
ATOM     40  C   UNL A   1      42.575  25.870  27.362  1.00  0.00     0.049 A 
ATOM     41  N   UNL A   1      41.027  27.969  28.903  1.00  0.00    -0.248 NA
ATOM     42  C   UNL A   1      39.248  26.464  29.035  1.00  0.00     0.031 C 
ATOM     43  C   UNL A   1      43.333  24.925  26.539  1.00  0.00     0.029 A 
ATOM     44  N   UNL A   1      43.457  26.898  27.579  1.00  0.00    -0.354 N 
ATOM     45  C   UNL A   1      39.960  28.569  29.563  1.00  0.00     0.074 A 
ATOM     46  C   UNL A   1      38.862  27.628  29.533  1.00  0.00     0.031 C 
ATOM     47  C   UNL A   1      44.569  25.411  26.335  1.00  0.00     0.029 A 
ATOM     48  C   UNL A   1      44.674  26.723  26.963  1.00  0.00     0.049 A 
ATOM     49  H   UNL A   1      43.238  27.689  28.124  1.00  0.00     0.167 HD
ATOM     50  C   UNL A   1      39.910  29.786  30.160  1.00  0.00     0.034 A 
ATOM     51  C   UNL A   1      45.744  27.540  26.895  1.00  0.00     0.034 A 
ATOM     52  C   UNL A   1      41.033  30.687  30.215  1.00  0.00     0.049 A 
ATOM     53  C   UNL A   1      45.676  28.880  27.583  1.00  0.00     0.074 A 
ATOM     54  C   UNL A   1      41.123  31.917  30.841  1.00  0.00     0.029 A 
ATOM     55  N   UNL A   1      42.268  30.449  29.626  1.00  0.00    -0.354 N 
ATOM     56  N   UNL A   1      44.670  29.427  28.227  1.00  0.00    -0.248 NA
ATOM     57  C   UNL A   1      46.888  29.708  27.545  1.00  0.00     0.031 C 
ATOM     58  C   UNL A   1      42.395  32.444  30.588  1.00  0.00     0.029 A 
ATOM     59  C   UNL A   1      43.122  31.513  29.863  1.00  0.00     0.049 A 
ATOM     60  H   UNL A   1      42.502  29.641  29.114  1.00  0.00     0.167 HD
ATOM     61  C   UNL A   1      45.142  30.646  28.703  1.00  0.00     0.074 A 
ATOM     62  C   UNL A   1      46.522  30.753  28.274  1.00  0.00     0.031 C 
ATOM     63  C   UNL A   1      44.498  31.590  29.435  1.00  0.00     0.034 A 
BRANCH  50  64
ATOM     64  C   UNL A   1      38.595  30.204  30.775  1.00  0.00     0.023 A 
ATOM     65  C   UNL A   1      37.605  30.863  30.025  1.00  0.00     0.031 A 
ATOM     66  C   UNL A   1      38.344  29.984  32.141  1.00  0.00     0.131 A 
ATOM     67  C   UNL A   1      36.459  31.363  30.660  1.00  0.00     0.055 A 
ATOM     68  C   UNL A   1      37.158  30.402  32.748  1.00  0.00     0.041 A 
ATOM     69  F   UNL A   1      39.256  29.377  32.916  1.00  0.00    -0.206 F 
ATOM     70  C   UNL A   1      36.214  31.113  32.012  1.00  0.00     0.022 A 
BRANCH  67  71
ATOM     71  S   UNL A   1      35.376  32.481  29.730  1.00  0.00     0.124 S 
ATOM     72  O   UNL A   1      36.305  33.542  29.351  1.00  0.00    -0.237 OA
ATOM     73  O   UNL A   1      34.901  31.631  28.645  1.00  0.00    -0.237 OA
ATOM     74  O   UNL A   1      34.363  32.870  30.709  1.00  0.00    -0.744 OA
ENDBRANCH  67  71
ENDBRANCH  50  64
BRANCH  51  75
ATOM     75  C   UNL A   1      46.968  27.123  26.153  1.00  0.00     0.023 A 
ATOM     76  C   UNL A   1      48.027  26.480  26.813  1.00  0.00     0.031 A 
ATOM     77  C   UNL A   1      47.112  27.387  24.779  1.00  0.00     0.131 A 
ATOM     78  C   UNL A   1      49.201  26.164  26.113  1.00  0.00     0.055 A 
ATOM     79  C   UNL A   1      48.262  27.026  24.074  1.00  0.00     0.041 A 
ATOM     80  F   UNL A   1      46.125  27.989  24.097  1.00  0.00    -0.206 F 
ATOM     81  C   UNL A   1      49.321  26.422  24.745  1.00  0.00     0.022 A 
BRANCH  78  82
ATOM     82  S   UNL A   1      50.603  25.477  27.035  1.00  0.00     0.124 S 
ATOM     83  O   UNL A   1      50.916  26.566  27.954  1.00  0.00    -0.237 OA
ATOM     84  O   UNL A   1      50.016  24.281  27.631  1.00  0.00    -0.237 OA
ATOM     85  O   UNL A   1      51.603  25.227  25.999  1.00  0.00    -0.744 OA
ENDBRANCH  78  82
ENDBRANCH  51  75
BRANCH  63  86
ATOM     86  C   UNL A   1      45.304  32.781  29.882  1.00  0.00     0.023 A 
ATOM     87  C   UNL A   1      46.020  32.783  31.092  1.00  0.00     0.031 A 
ATOM     88  C   UNL A   1      45.367  33.927  29.070  1.00  0.00     0.131 A 
ATOM     89  C   UNL A   1      46.735  33.928  31.474  1.00  0.00     0.055 A 
ATOM     90  C   UNL A   1      46.121  35.042  29.430  1.00  0.00     0.041 A 
ATOM     91  F   UNL A   1      44.700  33.975  27.905  1.00  0.00    -0.206 F 
ATOM     92  C   UNL A   1      46.803  35.051  30.644  1.00  0.00     0.022 A 
BRANCH  89  93
ATOM     93  S   UNL A   1      47.525  33.957  33.106  1.00  0.00     0.124 S 
ATOM     94  O   UNL A   1      47.739  32.538  33.366  1.00  0.00    -0.237 OA
ATOM     95  O   UNL A   1      48.725  34.749  32.859  1.00  0.00    -0.237 OA
ATOM     96  O   UNL A   1      46.526  34.600  33.959  1.00  0.00    -0.744 OA
ENDBRANCH  89  93
ENDBRANCH  63  86
ENDBRANCH  37  38
ENDBRANCH  29  32
ENDBRANCH  27  28
ENDBRANCH   1  27
TORSDOF 18
ENDMDL
MODEL 3
REMARK VINA RESULT:     -11.3      2.942      4.642
REMARK SMILES CC[NH2+][C@@]1(C(=O)NCCCNC(=O)c2ccc(-c3c4nc(c(-c5cc(S(=O)(=O)[O-])ccc5F)c5ccc([nH]5)c(-c5cc(S(=O)(=O)[O-])ccc5F)c5nc(c(-c6cc(S(=O)(=O)[O-])ccc6F)c6ccc3[nH]6)C=C5)C=C4)cc2)CC[C@@H]([N@@H+](C)Cc2nccn2C)C1
REMARK SMILES IDX 9 1 8 2 7 3 5 4 6 5 4 7 77 8 89 9 78 10 79 11 3 12 2 15 1 16
REMARK SMILES IDX 80 17 81 18 82 20 83 21 84 22 87 23 85 24 86 25 88 26 10 27
REMARK SMILES IDX 11 28 12 29 13 31 14 32 15 33 76 34 16 35 75 36 17 37 18 38
REMARK SMILES IDX 19 39 69 40 20 41 74 42 68 43 70 44 21 45 73 46 67 47 66 48
REMARK SMILES IDX 22 50 54 51 34 52 53 53 35 54 38 55 52 56 71 57 36 58 37 59
REMARK SMILES IDX 51 61 72 62 39 63 23 64 24 65 32 66 25 67 31 68 33 69 30 70
REMARK SMILES IDX 26 71 27 72 28 73 29 74 55 75 56 76 64 77 57 78 63 79 65 80
REMARK SMILES IDX 62 81 58 82 59 83 60 84 61 85 40 86 41 87 49 88 42 89 48 90
REMARK SMILES IDX 50 91 47 92 43 93 44 94 45 95 46 96
REMARK H PARENT 7 6 3 13 3 14 80 19 11 30 70 49 38 60
REMARK Flexibility Score: inf
ROOT
ATOM      1  C   UNL A   1      31.392  31.987  26.434  1.00  0.00     0.042 C 
ENDROOT
BRANCH   1   2
ATOM      2  C   UNL A   1      31.617  30.605  25.840  1.00  0.00     0.118 C 
BRANCH   2   3
ATOM      3  N   UNL A   1      31.626  29.582  26.855  1.00  0.00    -0.351 N 
ATOM      4  C   UNL A   1      31.673  28.227  26.829  1.00  0.00     0.281 C 
ATOM      5  O   UNL A   1      31.589  27.718  27.958  1.00  0.00    -0.268 OA
ATOM      6  H   UNL A   1      31.591  29.947  27.769  1.00  0.00     0.163 HD
BRANCH   4   7
ATOM      7  C   UNL A   1      31.791  27.335  25.523  1.00  0.00     0.181 C 
ATOM      8  C   UNL A   1      30.621  27.383  24.528  1.00  0.00     0.085 C 
ATOM      9  C   UNL A   1      31.941  25.842  25.888  1.00  0.00     0.144 C 
ATOM     10  C   UNL A   1      29.805  26.098  24.681  1.00  0.00     0.072 C 
ATOM     11  C   UNL A   1      30.586  25.176  25.621  1.00  0.00     0.191 C 
BRANCH   7  12
ATOM     12  N   UNL A   1      33.064  27.720  24.833  1.00  0.00    -0.334 N 
ATOM     13  H   UNL A   1      33.405  28.582  25.259  1.00  0.00     0.347 HD
ATOM     14  H   UNL A   1      33.697  26.929  24.948  1.00  0.00     0.347 HD
BRANCH  12  15
ATOM     15  C   UNL A   1      32.952  27.940  23.394  1.00  0.00     0.257 C 
ATOM     16  C   UNL A   1      33.412  26.684  22.670  1.00  0.00     0.071 C 
ENDBRANCH  12  15
ENDBRANCH   7  12
BRANCH  11  17
ATOM     17  N   UNL A   1      30.646  23.745  25.286  1.00  0.00    -0.328 N 
ATOM     18  C   UNL A   1      31.228  23.507  23.973  1.00  0.00     0.333 C 
ATOM     19  H   UNL A   1      29.657  23.497  25.241  1.00  0.00     0.348 HD
BRANCH  17  20
ATOM     20  C   UNL A   1      31.092  22.794  26.325  1.00  0.00     0.338 C 
BRANCH  20  21
ATOM     21  C   UNL A   1      32.535  22.359  26.301  1.00  0.00     0.164 A 
ATOM     22  N   UNL A   1      33.536  23.035  26.848  1.00  0.00    -0.236 NA
ATOM     23  N   UNL A   1      33.022  21.228  25.681  1.00  0.00    -0.333 N 
ATOM     24  C   UNL A   1      34.686  22.405  26.453  1.00  0.00     0.131 A 
ATOM     25  C   UNL A   1      34.392  21.293  25.706  1.00  0.00     0.107 A 
ATOM     26  C   UNL A   1      32.285  20.145  25.081  1.00  0.00     0.151 C 
ENDBRANCH  20  21
ENDBRANCH  17  20
ENDBRANCH  11  17
ENDBRANCH   4   7
ENDBRANCH   2   3
ENDBRANCH   1   2
BRANCH   1  27
ATOM     27  C   UNL A   1      32.508  32.371  27.391  1.00  0.00     0.118 C 
BRANCH  27  28
ATOM     28  N   UNL A   1      32.451  33.788  27.744  1.00  0.00    -0.352 N 
ATOM     29  C   UNL A   1      33.242  34.500  28.612  1.00  0.00     0.251 C 
ATOM     30  H   UNL A   1      31.744  34.307  27.294  1.00  0.00     0.163 HD
ATOM     31  O   UNL A   1      32.919  35.638  28.940  1.00  0.00    -0.269 OA
BRANCH  29  32
ATOM     32  C   UNL A   1      34.457  33.870  29.165  1.00  0.00     0.039 A 
ATOM     33  C   UNL A   1      35.713  34.371  28.814  1.00  0.00     0.014 A 
ATOM     34  C   UNL A   1      34.347  32.809  30.066  1.00  0.00     0.014 A 
ATOM     35  C   UNL A   1      36.856  33.858  29.432  1.00  0.00     0.010 A 
ATOM     36  C   UNL A   1      35.469  32.376  30.754  1.00  0.00     0.010 A 
ATOM     37  C   UNL A   1      36.738  32.888  30.440  1.00  0.00    -0.014 A 
BRANCH  37  38
ATOM     38  C   UNL A   1      37.914  32.348  31.168  1.00  0.00     0.031 A 
ATOM     39  C   UNL A   1      38.686  31.209  30.558  1.00  0.00     0.074 A 
ATOM     40  C   UNL A   1      38.207  32.788  32.407  1.00  0.00     0.049 A 
ATOM     41  N   UNL A   1      39.591  30.434  31.096  1.00  0.00    -0.248 NA
ATOM     42  C   UNL A   1      38.348  30.862  29.168  1.00  0.00     0.031 C 
ATOM     43  C   UNL A   1      37.505  33.860  33.116  1.00  0.00     0.029 A 
ATOM     44  N   UNL A   1      39.162  32.373  33.300  1.00  0.00    -0.354 N 
ATOM     45  C   UNL A   1      39.895  29.482  30.128  1.00  0.00     0.074 A 
ATOM     46  C   UNL A   1      39.031  29.741  28.997  1.00  0.00     0.031 C 
ATOM     47  C   UNL A   1      38.063  34.027  34.326  1.00  0.00     0.029 A 
ATOM     48  C   UNL A   1      39.123  33.041  34.502  1.00  0.00     0.049 A 
ATOM     49  H   UNL A   1      39.813  31.662  33.101  1.00  0.00     0.167 HD
ATOM     50  C   UNL A   1      40.825  28.496  30.172  1.00  0.00     0.034 A 
ATOM     51  C   UNL A   1      39.847  32.862  35.625  1.00  0.00     0.034 A 
ATOM     52  C   UNL A   1      41.704  28.288  31.294  1.00  0.00     0.049 A 
ATOM     53  C   UNL A   1      40.890  31.774  35.646  1.00  0.00     0.074 A 
ATOM     54  C   UNL A   1      42.725  27.364  31.432  1.00  0.00     0.029 A 
ATOM     55  N   UNL A   1      41.671  29.023  32.473  1.00  0.00    -0.354 N 
ATOM     56  N   UNL A   1      41.187  30.895  34.715  1.00  0.00    -0.248 NA
ATOM     57  C   UNL A   1      41.705  31.658  36.863  1.00  0.00     0.031 C 
ATOM     58  C   UNL A   1      43.275  27.507  32.711  1.00  0.00     0.029 A 
ATOM     59  C   UNL A   1      42.645  28.566  33.346  1.00  0.00     0.049 A 
ATOM     60  H   UNL A   1      41.047  29.760  32.660  1.00  0.00     0.167 HD
ATOM     61  C   UNL A   1      42.247  30.149  35.221  1.00  0.00     0.074 A 
ATOM     62  C   UNL A   1      42.540  30.682  36.536  1.00  0.00     0.031 C 
ATOM     63  C   UNL A   1      42.924  29.122  34.648  1.00  0.00     0.034 A 
BRANCH  50  64
ATOM     64  C   UNL A   1      40.913  27.572  28.981  1.00  0.00     0.023 A 
ATOM     65  C   UNL A   1      41.886  27.747  27.980  1.00  0.00     0.031 A 
ATOM     66  C   UNL A   1      39.984  26.530  28.815  1.00  0.00     0.131 A 
ATOM     67  C   UNL A   1      41.849  26.960  26.819  1.00  0.00     0.055 A 
ATOM     68  C   UNL A   1      40.009  25.690  27.700  1.00  0.00     0.041 A 
ATOM     69  F   UNL A   1      39.019  26.323  29.725  1.00  0.00    -0.206 F 
ATOM     70  C   UNL A   1      40.934  25.914  26.684  1.00  0.00     0.022 A 
BRANCH  67  71
ATOM     71  S   UNL A   1      42.906  27.431  25.424  1.00  0.00     0.124 S 
ATOM     72  O   UNL A   1      42.105  28.474  24.788  1.00  0.00    -0.237 OA
ATOM     73  O   UNL A   1      44.125  27.878  26.088  1.00  0.00    -0.237 OA
ATOM     74  O   UNL A   1      43.030  26.195  24.655  1.00  0.00    -0.744 OA
ENDBRANCH  67  71
ENDBRANCH  50  64
BRANCH  51  75
ATOM     75  C   UNL A   1      39.616  33.722  36.820  1.00  0.00     0.023 A 
ATOM     76  C   UNL A   1      40.489  34.778  37.127  1.00  0.00     0.031 A 
ATOM     77  C   UNL A   1      38.537  33.486  37.690  1.00  0.00     0.131 A 
ATOM     78  C   UNL A   1      40.297  35.529  38.297  1.00  0.00     0.055 A 
ATOM     79  C   UNL A   1      38.321  34.267  38.828  1.00  0.00     0.041 A 
ATOM     80  F   UNL A   1      37.666  32.496  37.438  1.00  0.00    -0.206 F 
ATOM     81  C   UNL A   1      39.212  35.288  39.143  1.00  0.00     0.022 A 
BRANCH  78  82
ATOM     82  S   UNL A   1      41.534  36.780  38.737  1.00  0.00     0.124 S 
ATOM     83  O   UNL A   1      40.695  37.873  39.213  1.00  0.00    -0.237 OA
ATOM     84  O   UNL A   1      42.320  36.083  39.750  1.00  0.00    -0.237 OA
ATOM     85  O   UNL A   1      42.230  37.029  37.476  1.00  0.00    -0.744 OA
ENDBRANCH  78  82
ENDBRANCH  51  75
BRANCH  63  86
ATOM     86  C   UNL A   1      44.096  28.562  35.411  1.00  0.00     0.023 A 
ATOM     87  C   UNL A   1      43.947  27.529  36.352  1.00  0.00     0.031 A 
ATOM     88  C   UNL A   1      45.388  29.065  35.174  1.00  0.00     0.131 A 
ATOM     89  C   UNL A   1      45.068  27.061  37.053  1.00  0.00     0.055 A 
ATOM     90  C   UNL A   1      46.505  28.560  35.836  1.00  0.00     0.041 A 
ATOM     91  F   UNL A   1      45.583  30.053  34.284  1.00  0.00    -0.206 F 
ATOM     92  C   UNL A   1      46.348  27.558  36.789  1.00  0.00     0.022 A 
BRANCH  89  93
ATOM     93  S   UNL A   1      44.824  25.835  38.367  1.00  0.00     0.124 S 
ATOM     94  O   UNL A   1      46.186  25.374  38.610  1.00  0.00    -0.237 OA
ATOM     95  O   UNL A   1      44.219  26.631  39.430  1.00  0.00    -0.237 OA
ATOM     96  O   UNL A   1      43.936  24.848  37.754  1.00  0.00    -0.744 OA
ENDBRANCH  89  93
ENDBRANCH  63  86
ENDBRANCH  37  38
ENDBRANCH  29  32
ENDBRANCH  27  28
ENDBRANCH   1  27
TORSDOF 18
ENDMDL
