MODEL 1
REMARK VINA RESULT:     -13.0      0.000      0.000
REMARK SMILES Cc1cc(Cl)c(C)c2c1O[C@H](C(F)(F)F)C(C(=O)NCCCNC(=O)c1ccc(-c3c4nc(c(-c5cc(S(=O)(=O)[O-])ccc5F)c5ccc([nH]5)c(-c5cc(S(=O)(=O)[O-])ccc5F)c5nc(c(-c6cc(S(=O)(=O)[O-])ccc6F)c6ccc3[nH]6)C=C5)C=C4)cc1)=C2
REMARK SMILES IDX 22 1 21 2 20 3 19 4 17 5 18 6 16 8 1 9 2 10 3 11 9 12 4 13
REMARK SMILES IDX 8 14 10 15 5 16 6 17 89 18 11 19 7 20 12 21 13 22 14 23
REMARK SMILES IDX 15 24 23 25 24 26 25 28 26 29 27 30 88 31 28 32 87 33 29 34
REMARK SMILES IDX 30 35 31 36 81 37 32 38 86 39 80 40 82 41 33 42 85 43 79 44
REMARK SMILES IDX 78 45 34 47 66 48 46 49 65 50 47 51 50 52 64 53 83 54 48 55
REMARK SMILES IDX 49 56 63 58 84 59 51 60 35 61 36 62 44 63 37 64 43 65 45 66
REMARK SMILES IDX 42 67 38 68 39 69 40 70 41 71 67 72 68 73 76 74 69 75 75 76
REMARK SMILES IDX 77 77 74 78 70 79 71 80 72 81 73 82 52 83 53 84 61 85 54 86
REMARK SMILES IDX 60 87 62 88 59 89 55 90 56 91 57 92 58 93
REMARK H PARENT 19 7 23 27 82 46 50 57
REMARK Flexibility Score: inf
ROOT
ATOM      1  C   UNL A   1      33.231  29.067  25.257  1.00  0.00     0.118 C 
ENDROOT
BRANCH   1   2
ATOM      2  C   UNL A   1      33.260  28.942  23.740  1.00  0.00     0.042 C 
BRANCH   2   3
ATOM      3  C   UNL A   1      32.062  28.173  23.205  1.00  0.00     0.118 C 
BRANCH   3   4
ATOM      4  N   UNL A   1      32.433  27.265  22.129  1.00  0.00    -0.352 N 
ATOM      5  C   UNL A   1      32.872  25.991  22.014  1.00  0.00     0.251 C 
ATOM      6  O   UNL A   1      33.057  25.597  20.857  1.00  0.00    -0.270 OA
ATOM      7  H   UNL A   1      32.339  27.694  21.248  1.00  0.00     0.163 HD
BRANCH   5   8
ATOM      8  C   UNL A   1      33.129  25.067  23.157  1.00  0.00     0.067 C 
ATOM      9  C   UNL A   1      33.066  22.579  27.610  1.00  0.00     0.048 C 
ATOM     10  C   UNL A   1      34.039  22.658  26.468  1.00  0.00    -0.007 A 
ATOM     11  C   UNL A   1      35.189  21.870  26.457  1.00  0.00     0.028 A 
ATOM     12  C   UNL A   1      33.791  23.491  25.372  1.00  0.00     0.131 A 
ATOM     13  C   UNL A   1      36.087  21.929  25.384  1.00  0.00     0.045 A 
ATOM     14  C   UNL A   1      34.682  23.571  24.288  1.00  0.00     0.022 A 
ATOM     15  O   UNL A   1      32.657  24.252  25.445  1.00  0.00    -0.475 OA
ATOM     16  Cl  UNL A   1      37.481  20.908  25.494  1.00  0.00    -0.084 Cl
ATOM     17  C   UNL A   1      35.855  22.780  24.284  1.00  0.00    -0.021 A 
ATOM     18  C   UNL A   1      34.356  24.516  23.213  1.00  0.00     0.026 C 
ATOM     19  C   UNL A   1      32.107  24.719  24.193  1.00  0.00     0.314 C 
ATOM     20  C   UNL A   1      36.819  22.860  23.126  1.00  0.00     0.047 C 
BRANCH  19  21
ATOM     21  C   UNL A   1      31.058  23.715  23.680  1.00  0.00     0.429 C 
ATOM     22  F   UNL A   1      30.579  22.962  24.702  1.00  0.00    -0.167 F 
ATOM     23  F   UNL A   1      29.985  24.322  23.115  1.00  0.00    -0.167 F 
ATOM     24  F   UNL A   1      31.555  22.867  22.751  1.00  0.00    -0.167 F 
ENDBRANCH  19  21
ENDBRANCH   5   8
ENDBRANCH   3   4
ENDBRANCH   2   3
ENDBRANCH   1   2
BRANCH   1  25
ATOM     25  N   UNL A   1      32.758  30.384  25.678  1.00  0.00    -0.352 N 
ATOM     26  C   UNL A   1      33.102  31.136  26.772  1.00  0.00     0.251 C 
ATOM     27  H   UNL A   1      32.091  30.796  25.083  1.00  0.00     0.163 HD
ATOM     28  O   UNL A   1      32.372  32.063  27.121  1.00  0.00    -0.269 OA
BRANCH  26  29
ATOM     29  C   UNL A   1      34.334  30.829  27.521  1.00  0.00     0.039 A 
ATOM     30  C   UNL A   1      35.289  31.830  27.718  1.00  0.00     0.014 A 
ATOM     31  C   UNL A   1      34.556  29.539  28.008  1.00  0.00     0.014 A 
ATOM     32  C   UNL A   1      36.437  31.545  28.458  1.00  0.00     0.010 A 
ATOM     33  C   UNL A   1      35.644  29.287  28.830  1.00  0.00     0.010 A 
ATOM     34  C   UNL A   1      36.606  30.281  29.047  1.00  0.00    -0.014 A 
BRANCH  34  35
ATOM     35  C   UNL A   1      37.801  29.961  29.863  1.00  0.00     0.031 A 
ATOM     36  C   UNL A   1      38.855  29.043  29.309  1.00  0.00     0.074 A 
ATOM     37  C   UNL A   1      37.900  30.447  31.115  1.00  0.00     0.049 A 
ATOM     38  N   UNL A   1      39.929  28.577  29.888  1.00  0.00    -0.248 NA
ATOM     39  C   UNL A   1      38.656  28.555  27.934  1.00  0.00     0.031 C 
ATOM     40  C   UNL A   1      36.915  31.313  31.767  1.00  0.00     0.029 A 
ATOM     41  N   UNL A   1      38.877  30.283  32.064  1.00  0.00    -0.354 N 
ATOM     42  C   UNL A   1      40.524  27.733  28.957  1.00  0.00     0.074 A 
ATOM     43  C   UNL A   1      39.656  27.699  27.801  1.00  0.00     0.031 C 
ATOM     44  C   UNL A   1      37.357  31.637  32.993  1.00  0.00     0.029 A 
ATOM     45  C   UNL A   1      38.630  30.965  33.232  1.00  0.00     0.049 A 
ATOM     46  H   UNL A   1      39.678  29.731  31.922  1.00  0.00     0.167 HD
ATOM     47  C   UNL A   1      41.702  27.071  29.049  1.00  0.00     0.034 A 
ATOM     48  C   UNL A   1      39.346  31.035  34.371  1.00  0.00     0.034 A 
ATOM     49  C   UNL A   1      42.568  27.145  30.197  1.00  0.00     0.049 A 
ATOM     50  C   UNL A   1      40.643  30.280  34.459  1.00  0.00     0.074 A 
ATOM     51  C   UNL A   1      43.814  26.573  30.370  1.00  0.00     0.029 A 
ATOM     52  N   UNL A   1      42.276  27.832  31.368  1.00  0.00    -0.354 N 
ATOM     53  N   UNL A   1      41.211  29.514  33.556  1.00  0.00    -0.248 NA
ATOM     54  C   UNL A   1      41.398  30.396  35.713  1.00  0.00     0.031 C 
ATOM     55  C   UNL A   1      44.245  26.856  31.670  1.00  0.00     0.029 A 
ATOM     56  C   UNL A   1      43.301  27.666  32.282  1.00  0.00     0.049 A 
ATOM     57  H   UNL A   1      41.458  28.359  31.525  1.00  0.00     0.167 HD
ATOM     58  C   UNL A   1      42.397  29.066  34.128  1.00  0.00     0.074 A 
ATOM     59  C   UNL A   1      42.467  29.656  35.451  1.00  0.00     0.031 C 
ATOM     60  C   UNL A   1      43.342  28.246  33.605  1.00  0.00     0.034 A 
BRANCH  47  61
ATOM     61  C   UNL A   1      42.108  26.203  27.886  1.00  0.00     0.023 A 
ATOM     62  C   UNL A   1      41.694  24.864  27.784  1.00  0.00     0.031 A 
ATOM     63  C   UNL A   1      42.926  26.720  26.867  1.00  0.00     0.131 A 
ATOM     64  C   UNL A   1      42.144  24.072  26.717  1.00  0.00     0.055 A 
ATOM     65  C   UNL A   1      43.313  25.948  25.770  1.00  0.00     0.041 A 
ATOM     66  F   UNL A   1      43.371  27.986  26.924  1.00  0.00    -0.206 F 
ATOM     67  C   UNL A   1      42.930  24.611  25.696  1.00  0.00     0.022 A 
BRANCH  64  68
ATOM     68  S   UNL A   1      41.772  22.297  26.737  1.00  0.00     0.124 S 
ATOM     69  O   UNL A   1      42.128  21.907  25.376  1.00  0.00    -0.237 OA
ATOM     70  O   UNL A   1      42.647  21.801  27.793  1.00  0.00    -0.237 OA
ATOM     71  O   UNL A   1      40.343  22.250  27.039  1.00  0.00    -0.744 OA
ENDBRANCH  64  68
ENDBRANCH  47  61
BRANCH  48  72
ATOM     72  C   UNL A   1      38.841  31.852  35.509  1.00  0.00     0.023 A 
ATOM     73  C   UNL A   1      38.177  31.253  36.589  1.00  0.00     0.031 A 
ATOM     74  C   UNL A   1      39.059  33.241  35.550  1.00  0.00     0.131 A 
ATOM     75  C   UNL A   1      37.744  32.044  37.665  1.00  0.00     0.055 A 
ATOM     76  C   UNL A   1      38.656  34.018  36.637  1.00  0.00     0.041 A 
ATOM     77  F   UNL A   1      39.704  33.857  34.546  1.00  0.00    -0.206 F 
ATOM     78  C   UNL A   1      37.991  33.419  37.703  1.00  0.00     0.022 A 
BRANCH  75  79
ATOM     79  S   UNL A   1      36.844  31.250  39.026  1.00  0.00     0.124 S 
ATOM     80  O   UNL A   1      35.661  32.096  39.133  1.00  0.00    -0.237 OA
ATOM     81  O   UNL A   1      36.627  29.905  38.505  1.00  0.00    -0.237 OA
ATOM     82  O   UNL A   1      37.777  31.336  40.147  1.00  0.00    -0.744 OA
ENDBRANCH  75  79
ENDBRANCH  48  72
BRANCH  60  83
ATOM     83  C   UNL A   1      44.544  27.940  34.458  1.00  0.00     0.023 A 
ATOM     84  C   UNL A   1      44.576  26.816  35.300  1.00  0.00     0.031 A 
ATOM     85  C   UNL A   1      45.692  28.748  34.379  1.00  0.00     0.131 A 
ATOM     86  C   UNL A   1      45.727  26.544  36.052  1.00  0.00     0.055 A 
ATOM     87  C   UNL A   1      46.852  28.444  35.092  1.00  0.00     0.041 A 
ATOM     88  F   UNL A   1      45.712  29.831  33.586  1.00  0.00    -0.206 F 
ATOM     89  C   UNL A   1      46.871  27.339  35.938  1.00  0.00     0.022 A 
BRANCH  86  90
ATOM     90  S   UNL A   1      45.699  25.152  37.213  1.00  0.00     0.124 S 
ATOM     91  O   UNL A   1      45.209  25.786  38.433  1.00  0.00    -0.237 OA
ATOM     92  O   UNL A   1      44.781  24.220  36.567  1.00  0.00    -0.237 OA
ATOM     93  O   UNL A   1      47.093  24.714  37.258  1.00  0.00    -0.744 OA
ENDBRANCH  86  90
ENDBRANCH  60  83
ENDBRANCH  34  35
ENDBRANCH  26  29
ENDBRANCH   1  25
TORSDOF 14
ENDMDL
MODEL 2
REMARK VINA RESULT:     -12.8      5.262     10.079
REMARK SMILES Cc1cc(Cl)c(C)c2c1O[C@H](C(F)(F)F)C(C(=O)NCCCNC(=O)c1ccc(-c3c4nc(c(-c5cc(S(=O)(=O)[O-])ccc5F)c5ccc([nH]5)c(-c5cc(S(=O)(=O)[O-])ccc5F)c5nc(c(-c6cc(S(=O)(=O)[O-])ccc6F)c6ccc3[nH]6)C=C5)C=C4)cc1)=C2
REMARK SMILES IDX 22 1 21 2 20 3 19 4 17 5 18 6 16 8 1 9 2 10 3 11 9 12 4 13
REMARK SMILES IDX 8 14 10 15 5 16 6 17 89 18 11 19 7 20 12 21 13 22 14 23
REMARK SMILES IDX 15 24 23 25 24 26 25 28 26 29 27 30 88 31 28 32 87 33 29 34
REMARK SMILES IDX 30 35 31 36 81 37 32 38 86 39 80 40 82 41 33 42 85 43 79 44
REMARK SMILES IDX 78 45 34 47 66 48 46 49 65 50 47 51 50 52 64 53 83 54 48 55
REMARK SMILES IDX 49 56 63 58 84 59 51 60 35 61 36 62 44 63 37 64 43 65 45 66
REMARK SMILES IDX 42 67 38 68 39 69 40 70 41 71 67 72 68 73 76 74 69 75 75 76
REMARK SMILES IDX 77 77 74 78 70 79 71 80 72 81 73 82 52 83 53 84 61 85 54 86
REMARK SMILES IDX 60 87 62 88 59 89 55 90 56 91 57 92 58 93
REMARK H PARENT 19 7 23 27 82 46 50 57
REMARK Flexibility Score: inf
ROOT
ATOM      1  C   UNL A   1      35.864  22.413  25.625  1.00  0.00     0.118 C 
ENDROOT
BRANCH   1   2
ATOM      2  C   UNL A   1      34.713  22.237  26.607  1.00  0.00     0.042 C 
BRANCH   2   3
ATOM      3  C   UNL A   1      33.472  21.665  25.938  1.00  0.00     0.118 C 
BRANCH   3   4
ATOM      4  N   UNL A   1      32.247  22.159  26.549  1.00  0.00    -0.352 N 
ATOM      5  C   UNL A   1      31.533  23.309  26.551  1.00  0.00     0.251 C 
ATOM      6  O   UNL A   1      30.499  23.288  27.226  1.00  0.00    -0.270 OA
ATOM      7  H   UNL A   1      31.823  21.473  27.113  1.00  0.00     0.163 HD
BRANCH   5   8
ATOM      8  C   UNL A   1      31.904  24.547  25.807  1.00  0.00     0.067 C 
ATOM      9  C   UNL A   1      33.768  27.954  22.498  1.00  0.00     0.048 C 
ATOM     10  C   UNL A   1      33.180  28.047  23.877  1.00  0.00    -0.007 A 
ATOM     11  C   UNL A   1      32.969  29.287  24.479  1.00  0.00     0.028 A 
ATOM     12  C   UNL A   1      32.791  26.895  24.570  1.00  0.00     0.131 A 
ATOM     13  C   UNL A   1      32.404  29.375  25.758  1.00  0.00     0.045 A 
ATOM     14  C   UNL A   1      32.229  26.960  25.856  1.00  0.00     0.022 A 
ATOM     15  O   UNL A   1      33.036  25.708  23.938  1.00  0.00    -0.475 OA
ATOM     16  Cl  UNL A   1      32.202  30.971  26.398  1.00  0.00    -0.084 Cl
ATOM     17  C   UNL A   1      32.028  28.219  26.471  1.00  0.00    -0.021 A 
ATOM     18  C   UNL A   1      31.906  25.690  26.518  1.00  0.00     0.026 C 
ATOM     19  C   UNL A   1      32.237  24.576  24.348  1.00  0.00     0.314 C 
ATOM     20  C   UNL A   1      31.426  28.299  27.852  1.00  0.00     0.047 C 
BRANCH  19  21
ATOM     21  C   UNL A   1      30.989  24.469  23.451  1.00  0.00     0.429 C 
ATOM     22  F   UNL A   1      29.925  25.066  24.042  1.00  0.00    -0.167 F 
ATOM     23  F   UNL A   1      31.155  25.079  22.252  1.00  0.00    -0.167 F 
ATOM     24  F   UNL A   1      30.641  23.189  23.189  1.00  0.00    -0.167 F 
ENDBRANCH  19  21
ENDBRANCH   5   8
ENDBRANCH   3   4
ENDBRANCH   2   3
ENDBRANCH   1   2
BRANCH   1  25
ATOM     25  N   UNL A   1      36.774  21.270  25.655  1.00  0.00    -0.352 N 
ATOM     26  C   UNL A   1      38.142  21.235  25.743  1.00  0.00     0.251 C 
ATOM     27  H   UNL A   1      36.337  20.390  25.605  1.00  0.00     0.163 HD
ATOM     28  O   UNL A   1      38.740  20.204  25.436  1.00  0.00    -0.269 OA
BRANCH  26  29
ATOM     29  C   UNL A   1      38.884  22.424  26.200  1.00  0.00     0.039 A 
ATOM     30  C   UNL A   1      40.025  22.264  26.989  1.00  0.00     0.014 A 
ATOM     31  C   UNL A   1      38.431  23.703  25.866  1.00  0.00     0.014 A 
ATOM     32  C   UNL A   1      40.745  23.391  27.389  1.00  0.00     0.010 A 
ATOM     33  C   UNL A   1      39.204  24.812  26.175  1.00  0.00     0.010 A 
ATOM     34  C   UNL A   1      40.357  24.670  26.956  1.00  0.00    -0.014 A 
BRANCH  34  35
ATOM     35  C   UNL A   1      41.120  25.881  27.341  1.00  0.00     0.031 A 
ATOM     36  C   UNL A   1      40.472  26.924  28.209  1.00  0.00     0.074 A 
ATOM     37  C   UNL A   1      42.364  26.063  26.860  1.00  0.00     0.049 A 
ATOM     38  N   UNL A   1      40.935  28.084  28.590  1.00  0.00    -0.248 NA
ATOM     39  C   UNL A   1      39.105  26.640  28.680  1.00  0.00     0.031 C 
ATOM     40  C   UNL A   1      43.074  25.134  25.977  1.00  0.00     0.029 A 
ATOM     41  N   UNL A   1      43.254  27.090  27.045  1.00  0.00    -0.354 N 
ATOM     42  C   UNL A   1      39.917  28.672  29.330  1.00  0.00     0.074 A 
ATOM     43  C   UNL A   1      38.787  27.771  29.289  1.00  0.00     0.031 C 
ATOM     44  C   UNL A   1      44.303  25.615  25.730  1.00  0.00     0.029 A 
ATOM     45  C   UNL A   1      44.452  26.904  26.396  1.00  0.00     0.049 A 
ATOM     46  H   UNL A   1      43.055  27.884  27.590  1.00  0.00     0.167 HD
ATOM     47  C   UNL A   1      39.935  29.845  30.007  1.00  0.00     0.034 A 
ATOM     48  C   UNL A   1      45.546  27.689  26.339  1.00  0.00     0.034 A 
ATOM     49  C   UNL A   1      41.082  30.713  30.064  1.00  0.00     0.049 A 
ATOM     50  C   UNL A   1      45.541  28.995  27.086  1.00  0.00     0.074 A 
ATOM     51  C   UNL A   1      41.236  31.889  30.775  1.00  0.00     0.029 A 
ATOM     52  N   UNL A   1      42.273  30.500  29.380  1.00  0.00    -0.354 N 
ATOM     53  N   UNL A   1      44.582  29.522  27.812  1.00  0.00    -0.248 NA
ATOM     54  C   UNL A   1      46.758  29.811  27.008  1.00  0.00     0.031 C 
ATOM     55  C   UNL A   1      42.492  32.421  30.467  1.00  0.00     0.029 A 
ATOM     56  C   UNL A   1      43.151  31.542  29.622  1.00  0.00     0.049 A 
ATOM     57  H   UNL A   1      42.463  29.722  28.806  1.00  0.00     0.167 HD
ATOM     58  C   UNL A   1      45.085  30.727  28.289  1.00  0.00     0.074 A 
ATOM     59  C   UNL A   1      46.437  30.844  27.776  1.00  0.00     0.031 C 
ATOM     60  C   UNL A   1      44.486  31.650  29.082  1.00  0.00     0.034 A 
BRANCH  47  61
ATOM     61  C   UNL A   1      38.675  30.258  30.725  1.00  0.00     0.023 A 
ATOM     62  C   UNL A   1      37.663  30.987  30.077  1.00  0.00     0.031 A 
ATOM     63  C   UNL A   1      38.486  29.924  32.076  1.00  0.00     0.131 A 
ATOM     64  C   UNL A   1      36.532  31.405  30.796  1.00  0.00     0.055 A 
ATOM     65  C   UNL A   1      37.327  30.280  32.767  1.00  0.00     0.041 A 
ATOM     66  F   UNL A   1      39.430  29.248  32.751  1.00  0.00    -0.206 F 
ATOM     67  C   UNL A   1      36.346  31.035  32.129  1.00  0.00     0.022 A 
BRANCH  64  68
ATOM     68  S   UNL A   1      35.358  32.527  29.990  1.00  0.00     0.124 S 
ATOM     69  O   UNL A   1      34.412  32.788  31.071  1.00  0.00    -0.237 OA
ATOM     70  O   UNL A   1      36.206  33.647  29.600  1.00  0.00    -0.237 OA
ATOM     71  O   UNL A   1      34.828  31.732  28.885  1.00  0.00    -0.744 OA
ENDBRANCH  64  68
ENDBRANCH  47  61
BRANCH  48  72
ATOM     72  C   UNL A   1      46.727  27.250  25.546  1.00  0.00     0.023 A 
ATOM     73  C   UNL A   1      46.914  27.688  24.227  1.00  0.00     0.031 A 
ATOM     74  C   UNL A   1      47.709  26.420  26.116  1.00  0.00     0.131 A 
ATOM     75  C   UNL A   1      48.055  27.286  23.515  1.00  0.00     0.055 A 
ATOM     76  C   UNL A   1      48.858  26.051  25.415  1.00  0.00     0.041 A 
ATOM     77  F   UNL A   1      47.582  25.988  27.381  1.00  0.00    -0.206 F 
ATOM     78  C   UNL A   1      49.035  26.483  24.104  1.00  0.00     0.022 A 
BRANCH  75  79
ATOM     79  S   UNL A   1      48.246  27.828  21.794  1.00  0.00     0.124 S 
ATOM     80  O   UNL A   1      49.387  28.730  21.891  1.00  0.00    -0.237 OA
ATOM     81  O   UNL A   1      48.483  26.565  21.101  1.00  0.00    -0.237 OA
ATOM     82  O   UNL A   1      46.967  28.468  21.494  1.00  0.00    -0.744 OA
ENDBRANCH  75  79
ENDBRANCH  48  72
BRANCH  60  83
ATOM     83  C   UNL A   1      45.288  32.869  29.457  1.00  0.00     0.023 A 
ATOM     84  C   UNL A   1      45.209  34.053  28.705  1.00  0.00     0.031 A 
ATOM     85  C   UNL A   1      46.089  32.862  30.611  1.00  0.00     0.131 A 
ATOM     86  C   UNL A   1      45.942  35.179  29.105  1.00  0.00     0.055 A 
ATOM     87  C   UNL A   1      46.777  34.000  31.032  1.00  0.00     0.041 A 
ATOM     88  F   UNL A   1      46.194  31.755  31.364  1.00  0.00    -0.206 F 
ATOM     89  C   UNL A   1      46.709  35.166  30.274  1.00  0.00     0.022 A 
BRANCH  86  90
ATOM     90  S   UNL A   1      45.908  36.657  28.056  1.00  0.00     0.124 S 
ATOM     91  O   UNL A   1      45.328  36.138  26.822  1.00  0.00    -0.237 OA
ATOM     92  O   UNL A   1      45.066  37.569  28.823  1.00  0.00    -0.237 OA
ATOM     93  O   UNL A   1      47.315  37.045  27.965  1.00  0.00    -0.744 OA
ENDBRANCH  86  90
ENDBRANCH  60  83
ENDBRANCH  34  35
ENDBRANCH  26  29
ENDBRANCH   1  25
TORSDOF 14
ENDMDL
MODEL 3
REMARK VINA RESULT:     -12.6      1.378      1.684
REMARK SMILES Cc1cc(Cl)c(C)c2c1O[C@H](C(F)(F)F)C(C(=O)NCCCNC(=O)c1ccc(-c3c4nc(c(-c5cc(S(=O)(=O)[O-])ccc5F)c5ccc([nH]5)c(-c5cc(S(=O)(=O)[O-])ccc5F)c5nc(c(-c6cc(S(=O)(=O)[O-])ccc6F)c6ccc3[nH]6)C=C5)C=C4)cc1)=C2
REMARK SMILES IDX 22 1 21 2 20 3 19 4 17 5 18 6 16 8 1 9 2 10 3 11 9 12 4 13
REMARK SMILES IDX 8 14 10 15 5 16 6 17 89 18 11 19 7 20 12 21 13 22 14 23
REMARK SMILES IDX 15 24 23 25 24 26 25 28 26 29 27 30 88 31 28 32 87 33 29 34
REMARK SMILES IDX 30 35 31 36 81 37 32 38 86 39 80 40 82 41 33 42 85 43 79 44
REMARK SMILES IDX 78 45 34 47 66 48 46 49 65 50 47 51 50 52 64 53 83 54 48 55
REMARK SMILES IDX 49 56 63 58 84 59 51 60 35 61 36 62 44 63 37 64 43 65 45 66
REMARK SMILES IDX 42 67 38 68 39 69 40 70 41 71 67 72 68 73 76 74 69 75 75 76
REMARK SMILES IDX 77 77 74 78 70 79 71 80 72 81 73 82 52 83 53 84 61 85 54 86
REMARK SMILES IDX 60 87 62 88 59 89 55 90 56 91 57 92 58 93
REMARK H PARENT 19 7 23 27 82 46 50 57
REMARK Flexibility Score: inf
ROOT
ATOM      1  C   UNL A   1      33.404  29.100  25.018  1.00  0.00     0.118 C 
ENDROOT
BRANCH   1   2
ATOM      2  C   UNL A   1      33.323  28.947  23.504  1.00  0.00     0.042 C 
BRANCH   2   3
ATOM      3  C   UNL A   1      32.098  28.155  23.073  1.00  0.00     0.118 C 
BRANCH   3   4
ATOM      4  N   UNL A   1      32.406  27.210  22.010  1.00  0.00    -0.352 N 
ATOM      5  C   UNL A   1      32.805  25.921  21.913  1.00  0.00     0.251 C 
ATOM      6  O   UNL A   1      32.939  25.494  20.761  1.00  0.00    -0.270 OA
ATOM      7  H   UNL A   1      32.295  27.619  21.122  1.00  0.00     0.163 HD
BRANCH   5   8
ATOM      8  C   UNL A   1      33.073  25.019  23.070  1.00  0.00     0.067 C 
ATOM      9  C   UNL A   1      33.077  22.634  27.580  1.00  0.00     0.048 C 
ATOM     10  C   UNL A   1      34.022  22.668  26.412  1.00  0.00    -0.007 A 
ATOM     11  C   UNL A   1      35.156  21.856  26.390  1.00  0.00     0.028 A 
ATOM     12  C   UNL A   1      33.762  23.480  25.303  1.00  0.00     0.131 A 
ATOM     13  C   UNL A   1      36.027  21.874  25.293  1.00  0.00     0.045 A 
ATOM     14  C   UNL A   1      34.625  23.518  24.196  1.00  0.00     0.022 A 
ATOM     15  O   UNL A   1      32.645  24.264  25.387  1.00  0.00    -0.475 OA
ATOM     16  Cl  UNL A   1      37.404  20.828  25.392  1.00  0.00    -0.084 Cl
ATOM     17  C   UNL A   1      35.783  22.704  24.181  1.00  0.00    -0.021 A 
ATOM     18  C   UNL A   1      34.290  24.445  23.108  1.00  0.00     0.026 C 
ATOM     19  C   UNL A   1      32.071  24.714  24.139  1.00  0.00     0.314 C 
ATOM     20  C   UNL A   1      36.718  22.739  22.997  1.00  0.00     0.047 C 
BRANCH  19  21
ATOM     21  C   UNL A   1      30.990  23.719  23.676  1.00  0.00     0.429 C 
ATOM     22  F   UNL A   1      31.492  22.869  22.746  1.00  0.00    -0.167 F 
ATOM     23  F   UNL A   1      30.522  22.949  24.688  1.00  0.00    -0.167 F 
ATOM     24  F   UNL A   1      29.916  24.331  23.127  1.00  0.00    -0.167 F 
ENDBRANCH  19  21
ENDBRANCH   5   8
ENDBRANCH   3   4
ENDBRANCH   2   3
ENDBRANCH   1   2
BRANCH   1  25
ATOM     25  N   UNL A   1      32.819  30.363  25.461  1.00  0.00    -0.352 N 
ATOM     26  C   UNL A   1      33.009  31.062  26.626  1.00  0.00     0.251 C 
ATOM     27  H   UNL A   1      32.193  30.777  24.825  1.00  0.00     0.163 HD
ATOM     28  O   UNL A   1      32.197  31.928  26.949  1.00  0.00    -0.269 OA
BRANCH  26  29
ATOM     29  C   UNL A   1      34.175  30.771  27.480  1.00  0.00     0.039 A 
ATOM     30  C   UNL A   1      34.344  29.487  28.004  1.00  0.00     0.014 A 
ATOM     31  C   UNL A   1      35.091  31.782  27.782  1.00  0.00     0.014 A 
ATOM     32  C   UNL A   1      35.468  29.207  28.782  1.00  0.00     0.010 A 
ATOM     33  C   UNL A   1      36.258  31.475  28.466  1.00  0.00     0.010 A 
ATOM     34  C   UNL A   1      36.449  30.191  28.990  1.00  0.00    -0.014 A 
BRANCH  34  35
ATOM     35  C   UNL A   1      37.667  29.912  29.787  1.00  0.00     0.031 A 
ATOM     36  C   UNL A   1      38.738  29.021  29.220  1.00  0.00     0.074 A 
ATOM     37  C   UNL A   1      37.774  30.409  31.033  1.00  0.00     0.049 A 
ATOM     38  N   UNL A   1      39.836  28.591  29.783  1.00  0.00    -0.248 NA
ATOM     39  C   UNL A   1      38.529  28.518  27.852  1.00  0.00     0.031 C 
ATOM     40  C   UNL A   1      36.776  31.251  31.697  1.00  0.00     0.029 A 
ATOM     41  N   UNL A   1      38.772  30.281  31.965  1.00  0.00    -0.354 N 
ATOM     42  C   UNL A   1      40.438  27.759  28.847  1.00  0.00     0.074 A 
ATOM     43  C   UNL A   1      39.552  27.691  27.707  1.00  0.00     0.031 C 
ATOM     44  C   UNL A   1      37.229  31.596  32.913  1.00  0.00     0.029 A 
ATOM     45  C   UNL A   1      38.526  30.963  33.133  1.00  0.00     0.049 A 
ATOM     46  H   UNL A   1      39.587  29.751  31.813  1.00  0.00     0.167 HD
ATOM     47  C   UNL A   1      41.637  27.132  28.921  1.00  0.00     0.034 A 
ATOM     48  C   UNL A   1      39.259  31.063  34.260  1.00  0.00     0.034 A 
ATOM     49  C   UNL A   1      42.521  27.240  30.053  1.00  0.00     0.049 A 
ATOM     50  C   UNL A   1      40.580  30.347  34.329  1.00  0.00     0.074 A 
ATOM     51  C   UNL A   1      43.786  26.706  30.208  1.00  0.00     0.029 A 
ATOM     52  N   UNL A   1      42.229  27.927  31.225  1.00  0.00    -0.354 N 
ATOM     53  N   UNL A   1      41.154  29.591  33.421  1.00  0.00    -0.248 NA
ATOM     54  C   UNL A   1      41.353  30.494  35.568  1.00  0.00     0.031 C 
ATOM     55  C   UNL A   1      44.232  27.011  31.497  1.00  0.00     0.029 A 
ATOM     56  C   UNL A   1      43.275  27.797  32.122  1.00  0.00     0.049 A 
ATOM     57  H   UNL A   1      41.399  28.430  31.393  1.00  0.00     0.167 HD
ATOM     58  C   UNL A   1      42.362  29.183  33.974  1.00  0.00     0.074 A 
ATOM     59  C   UNL A   1      42.439  29.784  35.292  1.00  0.00     0.031 C 
ATOM     60  C   UNL A   1      43.322  28.387  33.440  1.00  0.00     0.034 A 
BRANCH  47  61
ATOM     61  C   UNL A   1      42.048  26.269  27.757  1.00  0.00     0.023 A 
ATOM     62  C   UNL A   1      41.668  24.919  27.669  1.00  0.00     0.031 A 
ATOM     63  C   UNL A   1      42.837  26.801  26.723  1.00  0.00     0.131 A 
ATOM     64  C   UNL A   1      42.122  24.132  26.599  1.00  0.00     0.055 A 
ATOM     65  C   UNL A   1      43.226  26.033  25.624  1.00  0.00     0.041 A 
ATOM     66  F   UNL A   1      43.249  28.079  26.766  1.00  0.00    -0.206 F 
ATOM     67  C   UNL A   1      42.878  24.686  25.564  1.00  0.00     0.022 A 
BRANCH  64  68
ATOM     68  S   UNL A   1      41.797  22.348  26.635  1.00  0.00     0.124 S 
ATOM     69  O   UNL A   1      42.405  21.914  25.380  1.00  0.00    -0.237 OA
ATOM     70  O   UNL A   1      42.477  21.926  27.854  1.00  0.00    -0.237 OA
ATOM     71  O   UNL A   1      40.339  22.267  26.675  1.00  0.00    -0.744 OA
ENDBRANCH  64  68
ENDBRANCH  47  61
BRANCH  48  72
ATOM     72  C   UNL A   1      38.751  31.873  35.401  1.00  0.00     0.023 A 
ATOM     73  C   UNL A   1      38.153  31.260  36.511  1.00  0.00     0.031 A 
ATOM     74  C   UNL A   1      38.900  33.271  35.414  1.00  0.00     0.131 A 
ATOM     75  C   UNL A   1      37.715  32.046  37.589  1.00  0.00     0.055 A 
ATOM     76  C   UNL A   1      38.494  34.045  36.502  1.00  0.00     0.041 A 
ATOM     77  F   UNL A   1      39.482  33.901  34.380  1.00  0.00    -0.206 F 
ATOM     78  C   UNL A   1      37.894  33.431  37.598  1.00  0.00     0.022 A 
BRANCH  75  79
ATOM     79  S   UNL A   1      36.899  31.231  38.989  1.00  0.00     0.124 S 
ATOM     80  O   UNL A   1      35.665  32.000  39.103  1.00  0.00    -0.237 OA
ATOM     81  O   UNL A   1      36.761  29.861  38.507  1.00  0.00    -0.237 OA
ATOM     82  O   UNL A   1      37.849  31.408  40.086  1.00  0.00    -0.744 OA
ENDBRANCH  75  79
ENDBRANCH  48  72
BRANCH  60  83
ATOM     83  C   UNL A   1      44.548  28.123  34.273  1.00  0.00     0.023 A 
ATOM     84  C   UNL A   1      45.654  28.990  34.240  1.00  0.00     0.031 A 
ATOM     85  C   UNL A   1      44.584  27.028  35.154  1.00  0.00     0.131 A 
ATOM     86  C   UNL A   1      46.763  28.732  35.057  1.00  0.00     0.055 A 
ATOM     87  C   UNL A   1      45.669  26.805  36.001  1.00  0.00     0.041 A 
ATOM     88  F   UNL A   1      43.550  26.174  35.224  1.00  0.00    -0.206 F 
ATOM     89  C   UNL A   1      46.769  27.656  35.951  1.00  0.00     0.022 A 
BRANCH  86  90
ATOM     90  S   UNL A   1      48.219  29.802  34.912  1.00  0.00     0.124 S 
ATOM     91  O   UNL A   1      49.273  28.838  34.613  1.00  0.00    -0.237 OA
ATOM     92  O   UNL A   1      47.845  30.697  33.821  1.00  0.00    -0.237 OA
ATOM     93  O   UNL A   1      48.311  30.436  36.226  1.00  0.00    -0.744 OA
ENDBRANCH  86  90
ENDBRANCH  60  83
ENDBRANCH  34  35
ENDBRANCH  26  29
ENDBRANCH   1  25
TORSDOF 14
ENDMDL
