MODEL 1
REMARK VINA RESULT:     -12.1      0.000      0.000
REMARK SMILES O=C(NCCCNC(=O)[C@@H]1CCC(=O)N1C(=O)/C=C/c1ccccc1)c1ccc(-c2c3nc(c(-c4cc(S(=O)(=O)[O-])ccc4F)c4ccc([nH]4)c(-c4cc(S(=O)(=O)[O-])ccc4F)c4nc(c(-c5cc(S(=O)(=O)[O-])ccc5F)c5ccc2[nH]5)C=C4)C=C3)cc1
REMARK SMILES IDX 5 1 4 2 3 3 1 4 2 5 26 7 27 8 88 9 28 10 87 11 29 12 30 13
REMARK SMILES IDX 31 14 81 15 32 16 86 17 80 18 82 19 33 20 85 21 79 22 78 23
REMARK SMILES IDX 34 25 66 26 46 27 65 28 47 29 50 30 64 31 83 32 48 33 49 34
REMARK SMILES IDX 63 36 84 37 51 38 35 39 36 40 44 41 37 42 43 43 45 44 42 45
REMARK SMILES IDX 38 46 39 47 40 48 41 49 67 50 68 51 76 52 69 53 75 54 77 55
REMARK SMILES IDX 74 56 70 57 71 58 72 59 73 60 52 61 53 62 61 63 54 64 60 65
REMARK SMILES IDX 62 66 59 67 55 68 56 69 57 70 58 71 6 72 7 73 8 74 9 76
REMARK SMILES IDX 10 77 11 78 15 79 12 80 13 81 14 82 16 83 17 84 18 85 19 86
REMARK SMILES IDX 20 87 21 88 25 89 22 90 24 91 23 92
REMARK H PARENT 3 6 82 24 50 35 7 75
REMARK Flexibility Score: inf
ROOT
ATOM      1  C   UNL A   1      36.108  22.412  23.761  1.00  0.00     0.042 C 
ENDROOT
BRANCH   1   2
ATOM      2  C   UNL A   1      36.461  22.228  25.231  1.00  0.00     0.118 C 
BRANCH   2   3
ATOM      3  N   UNL A   1      37.338  21.086  25.460  1.00  0.00    -0.352 N 
ATOM      4  O   UNL A   1      39.270  19.999  25.857  1.00  0.00    -0.269 OA
ATOM      5  C   UNL A   1      38.641  21.053  25.893  1.00  0.00     0.251 C 
ATOM      6  H   UNL A   1      36.934  20.207  25.279  1.00  0.00     0.163 HD
BRANCH   5   7
ATOM      7  C   UNL A   1      39.288  22.289  26.381  1.00  0.00     0.039 A 
ATOM      8  C   UNL A   1      38.833  23.540  25.961  1.00  0.00     0.014 A 
ATOM      9  C   UNL A   1      40.358  22.194  27.275  1.00  0.00     0.014 A 
ATOM     10  C   UNL A   1      39.543  24.683  26.304  1.00  0.00     0.010 A 
ATOM     11  C   UNL A   1      41.010  23.356  27.699  1.00  0.00     0.010 A 
ATOM     12  C   UNL A   1      40.629  24.607  27.191  1.00  0.00    -0.014 A 
BRANCH  12  13
ATOM     13  C   UNL A   1      41.313  25.858  27.606  1.00  0.00     0.031 A 
ATOM     14  C   UNL A   1      42.726  26.147  27.184  1.00  0.00     0.074 A 
ATOM     15  C   UNL A   1      40.629  26.752  28.345  1.00  0.00     0.049 A 
ATOM     16  N   UNL A   1      43.468  27.193  27.443  1.00  0.00    -0.248 NA
ATOM     17  C   UNL A   1      43.398  25.120  26.375  1.00  0.00     0.031 C 
ATOM     18  C   UNL A   1      39.251  26.575  28.814  1.00  0.00     0.029 A 
ATOM     19  N   UNL A   1      40.982  27.989  28.816  1.00  0.00    -0.354 N 
ATOM     20  C   UNL A   1      44.701  26.948  26.847  1.00  0.00     0.074 A 
ATOM     21  C   UNL A   1      44.614  25.631  26.248  1.00  0.00     0.031 C 
ATOM     22  C   UNL A   1      38.859  27.684  29.455  1.00  0.00     0.029 A 
ATOM     23  C   UNL A   1      39.975  28.619  29.510  1.00  0.00     0.049 A 
ATOM     24  H   UNL A   1      41.869  28.389  28.670  1.00  0.00     0.167 HD
ATOM     25  C   UNL A   1      45.795  27.750  26.799  1.00  0.00     0.034 A 
ATOM     26  C   UNL A   1      39.957  29.808  30.140  1.00  0.00     0.034 A 
ATOM     27  C   UNL A   1      45.858  29.059  27.409  1.00  0.00     0.049 A 
ATOM     28  C   UNL A   1      41.197  30.657  30.115  1.00  0.00     0.074 A 
ATOM     29  C   UNL A   1      46.901  29.969  27.396  1.00  0.00     0.029 A 
ATOM     30  N   UNL A   1      44.838  29.641  28.153  1.00  0.00    -0.354 N 
ATOM     31  N   UNL A   1      42.350  30.417  29.536  1.00  0.00    -0.248 NA
ATOM     32  C   UNL A   1      41.131  31.936  30.829  1.00  0.00     0.031 C 
ATOM     33  C   UNL A   1      46.540  31.064  28.190  1.00  0.00     0.029 A 
ATOM     34  C   UNL A   1      45.241  30.880  28.634  1.00  0.00     0.049 A 
ATOM     35  H   UNL A   1      43.956  29.234  28.317  1.00  0.00     0.167 HD
ATOM     36  C   UNL A   1      43.144  31.528  29.800  1.00  0.00     0.074 A 
ATOM     37  C   UNL A   1      42.328  32.443  30.576  1.00  0.00     0.031 C 
ATOM     38  C   UNL A   1      44.427  31.771  29.429  1.00  0.00     0.034 A 
BRANCH  25  39
ATOM     39  C   UNL A   1      47.024  27.202  26.106  1.00  0.00     0.023 A 
ATOM     40  C   UNL A   1      47.981  26.432  26.792  1.00  0.00     0.031 A 
ATOM     41  C   UNL A   1      47.269  27.495  24.753  1.00  0.00     0.131 A 
ATOM     42  C   UNL A   1      49.174  26.059  26.151  1.00  0.00     0.055 A 
ATOM     43  C   UNL A   1      48.416  27.047  24.096  1.00  0.00     0.041 A 
ATOM     44  F   UNL A   1      46.403  28.241  24.048  1.00  0.00    -0.206 F 
ATOM     45  C   UNL A   1      49.387  26.340  24.800  1.00  0.00     0.022 A 
BRANCH  42  46
ATOM     46  S   UNL A   1      50.512  25.354  27.153  1.00  0.00     0.124 S 
ATOM     47  O   UNL A   1      49.826  24.261  27.839  1.00  0.00    -0.237 OA
ATOM     48  O   UNL A   1      51.488  24.961  26.144  1.00  0.00    -0.237 OA
ATOM     49  O   UNL A   1      50.915  26.461  28.017  1.00  0.00    -0.744 OA
ENDBRANCH  42  46
ENDBRANCH  25  39
BRANCH  26  50
ATOM     50  C   UNL A   1      38.731  30.247  30.860  1.00  0.00     0.023 A 
ATOM     51  C   UNL A   1      37.733  30.986  30.207  1.00  0.00     0.031 A 
ATOM     52  C   UNL A   1      38.540  29.930  32.218  1.00  0.00     0.131 A 
ATOM     53  C   UNL A   1      36.599  31.405  30.919  1.00  0.00     0.055 A 
ATOM     54  C   UNL A   1      37.388  30.308  32.907  1.00  0.00     0.041 A 
ATOM     55  F   UNL A   1      39.462  29.219  32.885  1.00  0.00    -0.206 F 
ATOM     56  C   UNL A   1      36.412  31.058  32.260  1.00  0.00     0.022 A 
BRANCH  53  57
ATOM     57  S   UNL A   1      35.388  32.459  30.078  1.00  0.00     0.124 S 
ATOM     58  O   UNL A   1      36.202  33.612  29.708  1.00  0.00    -0.237 OA
ATOM     59  O   UNL A   1      34.951  31.604  28.979  1.00  0.00    -0.237 OA
ATOM     60  O   UNL A   1      34.381  32.710  31.107  1.00  0.00    -0.744 OA
ENDBRANCH  53  57
ENDBRANCH  26  50
BRANCH  38  61
ATOM     61  C   UNL A   1      45.007  33.104  29.835  1.00  0.00     0.023 A 
ATOM     62  C   UNL A   1      44.892  34.241  29.017  1.00  0.00     0.031 A 
ATOM     63  C   UNL A   1      45.712  33.228  31.045  1.00  0.00     0.131 A 
ATOM     64  C   UNL A   1      45.524  35.437  29.390  1.00  0.00     0.055 A 
ATOM     65  C   UNL A   1      46.288  34.436  31.440  1.00  0.00     0.041 A 
ATOM     66  F   UNL A   1      45.858  32.173  31.862  1.00  0.00    -0.206 F 
ATOM     67  C   UNL A   1      46.207  35.546  30.603  1.00  0.00     0.022 A 
BRANCH  64  68
ATOM     68  S   UNL A   1      45.528  36.823  28.219  1.00  0.00     0.124 S 
ATOM     69  O   UNL A   1      46.328  36.289  27.120  1.00  0.00    -0.237 OA
ATOM     70  O   UNL A   1      44.107  37.003  27.944  1.00  0.00    -0.237 OA
ATOM     71  O   UNL A   1      46.156  37.907  28.972  1.00  0.00    -0.744 OA
ENDBRANCH  64  68
ENDBRANCH  38  61
ENDBRANCH  12  13
ENDBRANCH   5   7
ENDBRANCH   2   3
ENDBRANCH   1   2
BRANCH   1  72
ATOM     72  C   UNL A   1      34.942  23.360  23.536  1.00  0.00     0.117 C 
BRANCH  72  73
ATOM     73  N   UNL A   1      34.890  24.407  24.544  1.00  0.00    -0.354 N 
ATOM     74  C   UNL A   1      33.810  25.032  25.089  1.00  0.00     0.243 C 
ATOM     75  H   UNL A   1      35.765  24.708  24.881  1.00  0.00     0.163 HD
ATOM     76  O   UNL A   1      34.002  25.775  26.056  1.00  0.00    -0.273 OA
BRANCH  74  77
ATOM     77  C   UNL A   1      32.398  24.747  24.557  1.00  0.00     0.183 C 
ATOM     78  C   UNL A   1      31.723  26.066  24.191  1.00  0.00     0.046 C 
ATOM     79  N   UNL A   1      31.591  24.203  25.641  1.00  0.00    -0.266 N 
ATOM     80  C   UNL A   1      30.289  25.874  24.622  1.00  0.00     0.103 C 
ATOM     81  C   UNL A   1      30.409  24.943  25.798  1.00  0.00     0.230 C 
ATOM     82  O   UNL A   1      29.557  24.852  26.669  1.00  0.00    -0.274 OA
BRANCH  79  83
ATOM     83  C   UNL A   1      31.928  22.968  26.175  1.00  0.00     0.253 C 
ATOM     84  O   UNL A   1      32.143  22.781  27.372  1.00  0.00    -0.269 OA
BRANCH  83  85
ATOM     85  C   UNL A   1      32.004  21.792  25.284  1.00  0.00     0.072 C 
ATOM     86  C   UNL A   1      33.041  20.945  25.333  1.00  0.00     0.014 C 
BRANCH  86  87
ATOM     87  C   UNL A   1      33.179  19.716  24.535  1.00  0.00    -0.025 A 
ATOM     88  C   UNL A   1      34.273  18.877  24.795  1.00  0.00     0.008 A 
ATOM     89  C   UNL A   1      32.277  19.335  23.532  1.00  0.00     0.008 A 
ATOM     90  C   UNL A   1      34.463  17.696  24.075  1.00  0.00     0.001 A 
ATOM     91  C   UNL A   1      32.466  18.154  22.809  1.00  0.00     0.001 A 
ATOM     92  C   UNL A   1      33.559  17.335  23.080  1.00  0.00     0.000 A 
ENDBRANCH  86  87
ENDBRANCH  83  85
ENDBRANCH  79  83
ENDBRANCH  74  77
ENDBRANCH  72  73
ENDBRANCH   1  72
TORSDOF 16
ENDMDL
MODEL 2
REMARK VINA RESULT:     -12.0      1.644      1.834
REMARK SMILES O=C(NCCCNC(=O)[C@@H]1CCC(=O)N1C(=O)/C=C/c1ccccc1)c1ccc(-c2c3nc(c(-c4cc(S(=O)(=O)[O-])ccc4F)c4ccc([nH]4)c(-c4cc(S(=O)(=O)[O-])ccc4F)c4nc(c(-c5cc(S(=O)(=O)[O-])ccc5F)c5ccc2[nH]5)C=C4)C=C3)cc1
REMARK SMILES IDX 5 1 4 2 3 3 1 4 2 5 26 7 27 8 88 9 28 10 87 11 29 12 30 13
REMARK SMILES IDX 31 14 81 15 32 16 86 17 80 18 82 19 33 20 85 21 79 22 78 23
REMARK SMILES IDX 34 25 66 26 46 27 65 28 47 29 50 30 64 31 83 32 48 33 49 34
REMARK SMILES IDX 63 36 84 37 51 38 35 39 36 40 44 41 37 42 43 43 45 44 42 45
REMARK SMILES IDX 38 46 39 47 40 48 41 49 67 50 68 51 76 52 69 53 75 54 77 55
REMARK SMILES IDX 74 56 70 57 71 58 72 59 73 60 52 61 53 62 61 63 54 64 60 65
REMARK SMILES IDX 62 66 59 67 55 68 56 69 57 70 58 71 6 72 7 73 8 74 9 76
REMARK SMILES IDX 10 77 11 78 15 79 12 80 13 81 14 82 16 83 17 84 18 85 19 86
REMARK SMILES IDX 20 87 21 88 25 89 22 90 24 91 23 92
REMARK H PARENT 3 6 82 24 50 35 7 75
REMARK Flexibility Score: inf
ROOT
ATOM      1  C   UNL A   1      36.332  21.811  24.118  1.00  0.00     0.042 C 
ENDROOT
BRANCH   1   2
ATOM      2  C   UNL A   1      36.943  21.883  25.511  1.00  0.00     0.118 C 
BRANCH   2   3
ATOM      3  N   UNL A   1      37.932  20.838  25.747  1.00  0.00    -0.352 N 
ATOM      4  O   UNL A   1      39.971  19.954  26.108  1.00  0.00    -0.269 OA
ATOM      5  C   UNL A   1      39.246  20.944  26.131  1.00  0.00     0.251 C 
ATOM      6  H   UNL A   1      37.608  19.918  25.611  1.00  0.00     0.163 HD
BRANCH   5   7
ATOM      7  C   UNL A   1      39.787  22.253  26.554  1.00  0.00     0.039 A 
ATOM      8  C   UNL A   1      39.285  23.437  26.010  1.00  0.00     0.014 A 
ATOM      9  C   UNL A   1      40.806  22.297  27.509  1.00  0.00     0.014 A 
ATOM     10  C   UNL A   1      39.903  24.646  26.298  1.00  0.00     0.010 A 
ATOM     11  C   UNL A   1      41.361  23.527  27.873  1.00  0.00     0.010 A 
ATOM     12  C   UNL A   1      40.937  24.708  27.246  1.00  0.00    -0.014 A 
BRANCH  12  13
ATOM     13  C   UNL A   1      41.519  26.028  27.596  1.00  0.00     0.031 A 
ATOM     14  C   UNL A   1      42.890  26.423  27.121  1.00  0.00     0.074 A 
ATOM     15  C   UNL A   1      40.780  26.887  28.323  1.00  0.00     0.049 A 
ATOM     16  N   UNL A   1      43.543  27.539  27.321  1.00  0.00    -0.248 NA
ATOM     17  C   UNL A   1      43.627  25.429  26.329  1.00  0.00     0.031 C 
ATOM     18  C   UNL A   1      39.436  26.609  28.839  1.00  0.00     0.029 A 
ATOM     19  N   UNL A   1      41.034  28.167  28.739  1.00  0.00    -0.354 N 
ATOM     20  C   UNL A   1      44.776  27.380  26.697  1.00  0.00     0.074 A 
ATOM     21  C   UNL A   1      44.790  26.039  26.147  1.00  0.00     0.031 C 
ATOM     22  C   UNL A   1      38.964  27.703  29.452  1.00  0.00     0.029 A 
ATOM     23  C   UNL A   1      39.995  28.733  29.441  1.00  0.00     0.049 A 
ATOM     24  H   UNL A   1      41.879  28.638  28.553  1.00  0.00     0.167 HD
ATOM     25  C   UNL A   1      45.794  28.271  26.587  1.00  0.00     0.034 A 
ATOM     26  C   UNL A   1      39.889  29.939  30.029  1.00  0.00     0.034 A 
ATOM     27  C   UNL A   1      45.758  29.603  27.148  1.00  0.00     0.049 A 
ATOM     28  C   UNL A   1      41.049  30.891  29.936  1.00  0.00     0.074 A 
ATOM     29  C   UNL A   1      46.716  30.600  27.073  1.00  0.00     0.029 A 
ATOM     30  N   UNL A   1      44.711  30.122  27.903  1.00  0.00    -0.354 N 
ATOM     31  N   UNL A   1      42.203  30.730  29.332  1.00  0.00    -0.248 NA
ATOM     32  C   UNL A   1      40.890  32.186  30.606  1.00  0.00     0.031 C 
ATOM     33  C   UNL A   1      46.281  31.688  27.837  1.00  0.00     0.029 A 
ATOM     34  C   UNL A   1      45.016  31.409  28.327  1.00  0.00     0.049 A 
ATOM     35  H   UNL A   1      43.873  29.647  28.107  1.00  0.00     0.167 HD
ATOM     36  C   UNL A   1      42.902  31.915  29.532  1.00  0.00     0.074 A 
ATOM     37  C   UNL A   1      42.031  32.785  30.299  1.00  0.00     0.031 C 
ATOM     38  C   UNL A   1      44.149  32.255  29.114  1.00  0.00     0.034 A 
BRANCH  25  39
ATOM     39  C   UNL A   1      47.047  27.807  25.878  1.00  0.00     0.023 A 
ATOM     40  C   UNL A   1      47.270  28.071  24.514  1.00  0.00     0.031 A 
ATOM     41  C   UNL A   1      48.013  27.047  26.562  1.00  0.00     0.131 A 
ATOM     42  C   UNL A   1      48.377  27.507  23.860  1.00  0.00     0.055 A 
ATOM     43  C   UNL A   1      49.157  26.562  25.927  1.00  0.00     0.041 A 
ATOM     44  F   UNL A   1      47.849  26.745  27.860  1.00  0.00    -0.206 F 
ATOM     45  C   UNL A   1      49.336  26.774  24.563  1.00  0.00     0.022 A 
BRANCH  42  46
ATOM     46  S   UNL A   1      48.454  27.600  22.050  1.00  0.00     0.124 S 
ATOM     47  O   UNL A   1      48.621  26.194  21.687  1.00  0.00    -0.237 OA
ATOM     48  O   UNL A   1      47.168  28.197  21.709  1.00  0.00    -0.237 OA
ATOM     49  O   UNL A   1      49.622  28.441  21.798  1.00  0.00    -0.744 OA
ENDBRANCH  42  46
ENDBRANCH  25  39
BRANCH  26  50
ATOM     50  C   UNL A   1      38.649  30.297  30.769  1.00  0.00     0.023 A 
ATOM     51  C   UNL A   1      37.645  31.071  30.169  1.00  0.00     0.031 A 
ATOM     52  C   UNL A   1      38.451  29.864  32.094  1.00  0.00     0.131 A 
ATOM     53  C   UNL A   1      36.498  31.411  30.901  1.00  0.00     0.055 A 
ATOM     54  C   UNL A   1      37.286  30.165  32.800  1.00  0.00     0.041 A 
ATOM     55  F   UNL A   1      39.379  29.114  32.710  1.00  0.00    -0.206 F 
ATOM     56  C   UNL A   1      36.304  30.951  32.207  1.00  0.00     0.022 A 
BRANCH  53  57
ATOM     57  S   UNL A   1      35.277  32.513  30.138  1.00  0.00     0.124 S 
ATOM     58  O   UNL A   1      36.106  33.642  29.734  1.00  0.00    -0.237 OA
ATOM     59  O   UNL A   1      34.752  31.683  29.058  1.00  0.00    -0.237 OA
ATOM     60  O   UNL A   1      34.337  32.785  31.223  1.00  0.00    -0.744 OA
ENDBRANCH  53  57
ENDBRANCH  26  50
BRANCH  38  61
ATOM     61  C   UNL A   1      44.619  33.648  29.455  1.00  0.00     0.023 A 
ATOM     62  C   UNL A   1      44.398  34.735  28.593  1.00  0.00     0.031 A 
ATOM     63  C   UNL A   1      45.328  33.882  30.647  1.00  0.00     0.131 A 
ATOM     64  C   UNL A   1      44.932  35.995  28.906  1.00  0.00     0.055 A 
ATOM     65  C   UNL A   1      45.805  35.149  30.982  1.00  0.00     0.041 A 
ATOM     66  F   UNL A   1      45.573  32.878  31.504  1.00  0.00    -0.206 F 
ATOM     67  C   UNL A   1      45.620  36.212  30.102  1.00  0.00     0.022 A 
BRANCH  64  68
ATOM     68  S   UNL A   1      44.804  37.326  27.679  1.00  0.00     0.124 S 
ATOM     69  O   UNL A   1      46.197  37.741  27.535  1.00  0.00    -0.237 OA
ATOM     70  O   UNL A   1      44.222  36.637  26.532  1.00  0.00    -0.237 OA
ATOM     71  O   UNL A   1      43.929  38.304  28.323  1.00  0.00    -0.744 OA
ENDBRANCH  64  68
ENDBRANCH  38  61
ENDBRANCH  12  13
ENDBRANCH   5   7
ENDBRANCH   2   3
ENDBRANCH   1   2
BRANCH   1  72
ATOM     72  C   UNL A   1      36.098  23.175  23.492  1.00  0.00     0.117 C 
BRANCH  72  73
ATOM     73  N   UNL A   1      35.531  24.120  24.442  1.00  0.00    -0.354 N 
ATOM     74  C   UNL A   1      34.316  24.735  24.432  1.00  0.00     0.243 C 
ATOM     75  H   UNL A   1      36.112  24.347  25.204  1.00  0.00     0.163 HD
ATOM     76  O   UNL A   1      33.985  25.370  25.438  1.00  0.00    -0.273 OA
BRANCH  74  77
ATOM     77  C   UNL A   1      33.370  24.566  23.234  1.00  0.00     0.183 C 
ATOM     78  C   UNL A   1      33.213  25.908  22.525  1.00  0.00     0.046 C 
ATOM     79  N   UNL A   1      32.038  24.249  23.732  1.00  0.00    -0.266 N 
ATOM     80  C   UNL A   1      31.758  25.941  22.124  1.00  0.00     0.103 C 
ATOM     81  C   UNL A   1      31.089  25.140  23.208  1.00  0.00     0.230 C 
ATOM     82  O   UNL A   1      29.905  25.251  23.489  1.00  0.00    -0.274 OA
BRANCH  79  83
ATOM     83  C   UNL A   1      31.839  23.049  24.400  1.00  0.00     0.253 C 
ATOM     84  O   UNL A   1      31.121  22.936  25.393  1.00  0.00    -0.269 OA
BRANCH  83  85
ATOM     85  C   UNL A   1      32.481  21.822  23.888  1.00  0.00     0.072 C 
ATOM     86  C   UNL A   1      32.417  20.666  24.564  1.00  0.00     0.014 C 
BRANCH  86  87
ATOM     87  C   UNL A   1      32.967  19.378  24.111  1.00  0.00    -0.025 A 
ATOM     88  C   UNL A   1      34.199  18.964  24.637  1.00  0.00     0.008 A 
ATOM     89  C   UNL A   1      32.327  18.543  23.185  1.00  0.00     0.008 A 
ATOM     90  C   UNL A   1      34.777  17.753  24.249  1.00  0.00     0.001 A 
ATOM     91  C   UNL A   1      32.904  17.331  22.795  1.00  0.00     0.001 A 
ATOM     92  C   UNL A   1      34.129  16.936  23.327  1.00  0.00     0.000 A 
ENDBRANCH  86  87
ENDBRANCH  83  85
ENDBRANCH  79  83
ENDBRANCH  74  77
ENDBRANCH  72  73
ENDBRANCH   1  72
TORSDOF 16
ENDMDL
MODEL 3
REMARK VINA RESULT:     -12.0      4.698     10.059
REMARK SMILES O=C(NCCCNC(=O)[C@@H]1CCC(=O)N1C(=O)/C=C/c1ccccc1)c1ccc(-c2c3nc(c(-c4cc(S(=O)(=O)[O-])ccc4F)c4ccc([nH]4)c(-c4cc(S(=O)(=O)[O-])ccc4F)c4nc(c(-c5cc(S(=O)(=O)[O-])ccc5F)c5ccc2[nH]5)C=C4)C=C3)cc1
REMARK SMILES IDX 5 1 4 2 3 3 1 4 2 5 26 7 27 8 88 9 28 10 87 11 29 12 30 13
REMARK SMILES IDX 31 14 81 15 32 16 86 17 80 18 82 19 33 20 85 21 79 22 78 23
REMARK SMILES IDX 34 25 66 26 46 27 65 28 47 29 50 30 64 31 83 32 48 33 49 34
REMARK SMILES IDX 63 36 84 37 51 38 35 39 36 40 44 41 37 42 43 43 45 44 42 45
REMARK SMILES IDX 38 46 39 47 40 48 41 49 67 50 68 51 76 52 69 53 75 54 77 55
REMARK SMILES IDX 74 56 70 57 71 58 72 59 73 60 52 61 53 62 61 63 54 64 60 65
REMARK SMILES IDX 62 66 59 67 55 68 56 69 57 70 58 71 6 72 7 73 8 74 9 76
REMARK SMILES IDX 10 77 11 78 15 79 12 80 13 81 14 82 16 83 17 84 18 85 19 86
REMARK SMILES IDX 20 87 21 88 25 89 22 90 24 91 23 92
REMARK H PARENT 3 6 82 24 50 35 7 75
REMARK Flexibility Score: inf
ROOT
ATOM      1  C   UNL A   1      32.066  28.225  26.186  1.00  0.00     0.042 C 
ENDROOT
BRANCH   1   2
ATOM      2  C   UNL A   1      33.018  29.307  25.695  1.00  0.00     0.118 C 
BRANCH   2   3
ATOM      3  N   UNL A   1      32.604  30.645  26.096  1.00  0.00    -0.352 N 
ATOM      4  O   UNL A   1      32.533  32.502  27.368  1.00  0.00    -0.269 OA
ATOM      5  C   UNL A   1      33.130  31.477  27.054  1.00  0.00     0.251 C 
ATOM      6  H   UNL A   1      31.832  31.008  25.604  1.00  0.00     0.163 HD
BRANCH   5   7
ATOM      7  C   UNL A   1      34.403  31.125  27.718  1.00  0.00     0.039 A 
ATOM      8  C   UNL A   1      34.602  29.844  28.237  1.00  0.00     0.014 A 
ATOM      9  C   UNL A   1      35.412  32.087  27.817  1.00  0.00     0.014 A 
ATOM     10  C   UNL A   1      35.736  29.573  28.991  1.00  0.00     0.010 A 
ATOM     11  C   UNL A   1      36.598  31.779  28.491  1.00  0.00     0.010 A 
ATOM     12  C   UNL A   1      36.755  30.531  29.112  1.00  0.00    -0.014 A 
BRANCH  12  13
ATOM     13  C   UNL A   1      37.993  30.179  29.852  1.00  0.00     0.031 A 
ATOM     14  C   UNL A   1      38.241  30.696  31.242  1.00  0.00     0.074 A 
ATOM     15  C   UNL A   1      38.883  29.356  29.267  1.00  0.00     0.049 A 
ATOM     16  N   UNL A   1      39.258  30.477  32.036  1.00  0.00    -0.248 NA
ATOM     17  C   UNL A   1      37.217  31.586  31.808  1.00  0.00     0.031 C 
ATOM     18  C   UNL A   1      38.746  28.794  27.919  1.00  0.00     0.029 A 
ATOM     19  N   UNL A   1      40.061  28.829  29.725  1.00  0.00    -0.354 N 
ATOM     20  C   UNL A   1      39.010  31.214  33.189  1.00  0.00     0.074 A 
ATOM     21  C   UNL A   1      37.763  31.918  32.970  1.00  0.00     0.031 C 
ATOM     22  C   UNL A   1      39.768  27.961  27.683  1.00  0.00     0.029 A 
ATOM     23  C   UNL A   1      40.671  27.984  28.827  1.00  0.00     0.049 A 
ATOM     24  H   UNL A   1      40.435  29.035  30.613  1.00  0.00     0.167 HD
ATOM     25  C   UNL A   1      39.751  31.287  34.325  1.00  0.00     0.034 A 
ATOM     26  C   UNL A   1      41.838  27.318  28.904  1.00  0.00     0.034 A 
ATOM     27  C   UNL A   1      40.995  30.577  34.518  1.00  0.00     0.049 A 
ATOM     28  C   UNL A   1      42.665  27.454  30.152  1.00  0.00     0.074 A 
ATOM     29  C   UNL A   1      41.811  30.552  35.636  1.00  0.00     0.029 A 
ATOM     30  N   UNL A   1      41.612  29.775  33.564  1.00  0.00    -0.354 N 
ATOM     31  N   UNL A   1      42.411  28.144  31.240  1.00  0.00    -0.248 NA
ATOM     32  C   UNL A   1      43.935  26.722  30.181  1.00  0.00     0.031 C 
ATOM     33  C   UNL A   1      42.951  29.798  35.333  1.00  0.00     0.029 A 
ATOM     34  C   UNL A   1      42.814  29.282  34.056  1.00  0.00     0.049 A 
ATOM     35  H   UNL A   1      41.250  29.584  32.669  1.00  0.00     0.167 HD
ATOM     36  C   UNL A   1      43.484  27.911  32.093  1.00  0.00     0.074 A 
ATOM     37  C   UNL A   1      44.376  27.004  31.398  1.00  0.00     0.031 C 
ATOM     38  C   UNL A   1      43.707  28.399  33.341  1.00  0.00     0.034 A 
BRANCH  25  39
ATOM     39  C   UNL A   1      39.253  32.208  35.417  1.00  0.00     0.023 A 
ATOM     40  C   UNL A   1      39.657  33.554  35.495  1.00  0.00     0.031 A 
ATOM     41  C   UNL A   1      38.401  31.723  36.425  1.00  0.00     0.131 A 
ATOM     42  C   UNL A   1      39.284  34.338  36.598  1.00  0.00     0.055 A 
ATOM     43  C   UNL A   1      37.962  32.533  37.474  1.00  0.00     0.041 A 
ATOM     44  F   UNL A   1      37.995  30.443  36.419  1.00  0.00    -0.206 F 
ATOM     45  C   UNL A   1      38.419  33.843  37.576  1.00  0.00     0.022 A 
BRANCH  42  46
ATOM     46  S   UNL A   1      40.082  35.951  36.825  1.00  0.00     0.124 S 
ATOM     47  O   UNL A   1      39.756  36.624  35.568  1.00  0.00    -0.237 OA
ATOM     48  O   UNL A   1      39.418  36.468  38.015  1.00  0.00    -0.237 OA
ATOM     49  O   UNL A   1      41.495  35.616  36.991  1.00  0.00    -0.744 OA
ENDBRANCH  42  46
ENDBRANCH  25  39
BRANCH  26  50
ATOM     50  C   UNL A   1      42.295  26.486  27.759  1.00  0.00     0.023 A 
ATOM     51  C   UNL A   1      41.884  25.151  27.624  1.00  0.00     0.031 A 
ATOM     52  C   UNL A   1      43.150  27.019  26.776  1.00  0.00     0.131 A 
ATOM     53  C   UNL A   1      42.350  24.385  26.545  1.00  0.00     0.055 A 
ATOM     54  C   UNL A   1      43.571  26.267  25.680  1.00  0.00     0.041 A 
ATOM     55  F   UNL A   1      43.564  28.294  26.856  1.00  0.00    -0.206 F 
ATOM     56  C   UNL A   1      43.178  24.938  25.564  1.00  0.00     0.022 A 
BRANCH  53  57
ATOM     57  S   UNL A   1      41.898  22.631  26.468  1.00  0.00     0.124 S 
ATOM     58  O   UNL A   1      42.555  22.209  25.237  1.00  0.00    -0.237 OA
ATOM     59  O   UNL A   1      42.467  22.116  27.709  1.00  0.00    -0.237 OA
ATOM     60  O   UNL A   1      40.438  22.657  26.419  1.00  0.00    -0.744 OA
ENDBRANCH  53  57
ENDBRANCH  26  50
BRANCH  38  61
ATOM     61  C   UNL A   1      44.957  27.921  34.040  1.00  0.00     0.023 A 
ATOM     62  C   UNL A   1      44.962  26.763  34.836  1.00  0.00     0.031 A 
ATOM     63  C   UNL A   1      46.151  28.656  33.932  1.00  0.00     0.131 A 
ATOM     64  C   UNL A   1      46.122  26.405  35.541  1.00  0.00     0.055 A 
ATOM     65  C   UNL A   1      47.318  28.263  34.587  1.00  0.00     0.041 A 
ATOM     66  F   UNL A   1      46.200  29.774  33.190  1.00  0.00    -0.206 F 
ATOM     67  C   UNL A   1      47.304  27.139  35.409  1.00  0.00     0.022 A 
BRANCH  64  68
ATOM     68  S   UNL A   1      46.038  25.025  36.714  1.00  0.00     0.124 S 
ATOM     69  O   UNL A   1      44.792  25.305  37.423  1.00  0.00    -0.237 OA
ATOM     70  O   UNL A   1      46.021  23.864  35.830  1.00  0.00    -0.237 OA
ATOM     71  O   UNL A   1      47.253  25.178  37.512  1.00  0.00    -0.744 OA
ENDBRANCH  64  68
ENDBRANCH  38  61
ENDBRANCH  12  13
ENDBRANCH   5   7
ENDBRANCH   2   3
ENDBRANCH   1   2
BRANCH   1  72
ATOM     72  C   UNL A   1      32.734  26.873  26.373  1.00  0.00     0.117 C 
BRANCH  72  73
ATOM     73  N   UNL A   1      31.808  25.875  26.885  1.00  0.00    -0.354 N 
ATOM     74  C   UNL A   1      31.627  24.582  26.499  1.00  0.00     0.243 C 
ATOM     75  H   UNL A   1      31.226  26.181  27.618  1.00  0.00     0.163 HD
ATOM     76  O   UNL A   1      30.895  23.871  27.195  1.00  0.00    -0.273 OA
BRANCH  74  77
ATOM     77  C   UNL A   1      32.378  24.022  25.282  1.00  0.00     0.183 C 
ATOM     78  C   UNL A   1      33.880  24.181  25.503  1.00  0.00     0.046 C 
ATOM     79  N   UNL A   1      32.080  24.856  24.126  1.00  0.00    -0.266 N 
ATOM     80  C   UNL A   1      34.411  24.552  24.139  1.00  0.00     0.103 C 
ATOM     81  C   UNL A   1      33.264  25.305  23.520  1.00  0.00     0.230 C 
ATOM     82  O   UNL A   1      33.404  26.106  22.609  1.00  0.00    -0.274 OA
BRANCH  79  83
ATOM     83  C   UNL A   1      30.780  24.894  23.642  1.00  0.00     0.253 C 
ATOM     84  O   UNL A   1      30.240  23.945  23.074  1.00  0.00    -0.269 OA
BRANCH  83  85
ATOM     85  C   UNL A   1      29.970  26.112  23.841  1.00  0.00     0.072 C 
ATOM     86  C   UNL A   1      30.194  27.224  23.126  1.00  0.00     0.014 C 
BRANCH  86  87
ATOM     87  C   UNL A   1      29.405  28.464  23.204  1.00  0.00    -0.025 A 
ATOM     88  C   UNL A   1      28.027  28.388  22.958  1.00  0.00     0.008 A 
ATOM     89  C   UNL A   1      29.956  29.716  23.513  1.00  0.00     0.008 A 
ATOM     90  C   UNL A   1      27.221  29.528  23.017  1.00  0.00     0.001 A 
ATOM     91  C   UNL A   1      29.151  30.857  23.571  1.00  0.00     0.001 A 
ATOM     92  C   UNL A   1      27.785  30.763  23.322  1.00  0.00     0.000 A 
ENDBRANCH  86  87
ENDBRANCH  83  85
ENDBRANCH  79  83
ENDBRANCH  74  77
ENDBRANCH  72  73
ENDBRANCH   1  72
TORSDOF 16
ENDMDL
