MODEL 1
REMARK VINA RESULT:     -12.4      0.000      0.000
REMARK SMILES CC[NH2+][C@@]1(C(=O)NCCCNC(=O)c2ccc(-c3c4nc(c(-c5cc(S(=O)(=O)[O-])ccc5F)c5ccc([nH]5)c(-c5cc(S(=O)(=O)[O-])ccc5F)c5nc(c(-c6cc(S(=O)(=O)[O-])ccc6F)c6ccc3[nH]6)C=C5)C=C4)cc2)CC[C@H]([NH+]2CCC(C(C)(C)C)CC2)C1
REMARK SMILES IDX 9 1 8 2 7 3 5 4 6 5 4 7 77 8 90 9 78 10 79 11 3 12 2 15 1 16
REMARK SMILES IDX 80 17 81 18 89 19 82 21 88 22 83 23 84 24 85 25 86 26 87 27
REMARK SMILES IDX 10 28 11 29 12 30 13 32 14 33 15 34 76 35 16 36 75 37 17 38
REMARK SMILES IDX 18 39 19 40 69 41 20 42 74 43 68 44 70 45 21 46 73 47 67 48
REMARK SMILES IDX 66 49 22 51 54 52 34 53 53 54 35 55 38 56 52 57 71 58 36 59
REMARK SMILES IDX 37 60 51 62 72 63 39 64 23 65 24 66 32 67 25 68 31 69 33 70
REMARK SMILES IDX 30 71 26 72 27 73 28 74 29 75 55 76 56 77 64 78 57 79 63 80
REMARK SMILES IDX 65 81 62 82 58 83 59 84 60 85 61 86 40 87 41 88 49 89 42 90
REMARK SMILES IDX 48 91 50 92 47 93 43 94 44 95 45 96 46 97
REMARK H PARENT 7 6 3 13 3 14 80 20 11 31 70 50 38 61
REMARK Flexibility Score: inf
ROOT
ATOM      1  C   UNL A   1      36.579  21.940  23.850  1.00  0.00     0.042 C 
ENDROOT
BRANCH   1   2
ATOM      2  C   UNL A   1      35.879  23.288  23.617  1.00  0.00     0.118 C 
BRANCH   2   3
ATOM      3  N   UNL A   1      34.442  23.213  23.958  1.00  0.00    -0.351 N 
ATOM      4  C   UNL A   1      33.612  24.326  23.971  1.00  0.00     0.281 C 
ATOM      5  O   UNL A   1      33.875  25.303  23.264  1.00  0.00    -0.268 OA
ATOM      6  H   UNL A   1      34.056  22.336  24.185  1.00  0.00     0.163 HD
BRANCH   4   7
ATOM      7  C   UNL A   1      32.283  24.284  24.870  1.00  0.00     0.181 C 
ATOM      8  C   UNL A   1      31.008  24.104  23.985  1.00  0.00     0.085 C 
ATOM      9  C   UNL A   1      31.906  25.542  25.693  1.00  0.00     0.144 C 
ATOM     10  C   UNL A   1      30.189  25.405  24.003  1.00  0.00     0.072 C 
ATOM     11  C   UNL A   1      30.957  26.441  24.822  1.00  0.00     0.191 C 
BRANCH   7  12
ATOM     12  N   UNL A   1      32.333  23.026  25.661  1.00  0.00    -0.334 N 
ATOM     13  H   UNL A   1      31.494  22.490  25.437  1.00  0.00     0.347 HD
ATOM     14  H   UNL A   1      33.215  22.588  25.396  1.00  0.00     0.347 HD
BRANCH  12  15
ATOM     15  C   UNL A   1      32.400  23.143  27.106  1.00  0.00     0.257 C 
ATOM     16  C   UNL A   1      33.554  22.266  27.583  1.00  0.00     0.071 C 
ENDBRANCH  12  15
ENDBRANCH   7  12
BRANCH  11  17
ATOM     17  N   UNL A   1      31.561  27.585  24.117  1.00  0.00    -0.332 N 
ATOM     18  C   UNL A   1      31.564  28.924  24.704  1.00  0.00     0.262 C 
ATOM     19  C   UNL A   1      31.283  27.713  22.716  1.00  0.00     0.262 C 
ATOM     20  H   UNL A   1      32.504  27.227  24.269  1.00  0.00     0.348 HD
ATOM     21  C   UNL A   1      30.404  29.883  24.306  1.00  0.00     0.066 C 
ATOM     22  C   UNL A   1      29.893  28.249  22.470  1.00  0.00     0.066 C 
ATOM     23  C   UNL A   1      29.785  29.696  22.890  1.00  0.00     0.005 C 
BRANCH  23  24
ATOM     24  C   UNL A   1      28.309  30.226  22.699  1.00  0.00    -0.035 C 
ATOM     25  C   UNL A   1      28.112  30.594  21.222  1.00  0.00     0.011 C 
ATOM     26  C   UNL A   1      27.253  29.140  23.049  1.00  0.00     0.011 C 
ATOM     27  C   UNL A   1      27.980  31.448  23.582  1.00  0.00     0.011 C 
ENDBRANCH  23  24
ENDBRANCH  11  17
ENDBRANCH   4   7
ENDBRANCH   2   3
ENDBRANCH   1   2
BRANCH   1  28
ATOM     28  C   UNL A   1      36.976  21.588  25.281  1.00  0.00     0.118 C 
BRANCH  28  29
ATOM     29  N   UNL A   1      38.076  20.637  25.462  1.00  0.00    -0.352 N 
ATOM     30  C   UNL A   1      39.303  20.789  26.099  1.00  0.00     0.251 C 
ATOM     31  H   UNL A   1      37.922  19.747  25.070  1.00  0.00     0.163 HD
ATOM     32  O   UNL A   1      40.076  19.830  26.149  1.00  0.00    -0.269 OA
BRANCH  30  33
ATOM     33  C   UNL A   1      39.722  22.099  26.665  1.00  0.00     0.039 A 
ATOM     34  C   UNL A   1      40.770  22.178  27.592  1.00  0.00     0.014 A 
ATOM     35  C   UNL A   1      39.121  23.273  26.232  1.00  0.00     0.014 A 
ATOM     36  C   UNL A   1      41.284  23.431  27.965  1.00  0.00     0.010 A 
ATOM     37  C   UNL A   1      39.751  24.488  26.444  1.00  0.00     0.010 A 
ATOM     38  C   UNL A   1      40.825  24.598  27.337  1.00  0.00    -0.014 A 
BRANCH  38  39
ATOM     39  C   UNL A   1      41.379  25.959  27.604  1.00  0.00     0.031 A 
ATOM     40  C   UNL A   1      42.771  26.296  27.112  1.00  0.00     0.074 A 
ATOM     41  C   UNL A   1      40.714  26.832  28.386  1.00  0.00     0.049 A 
ATOM     42  N   UNL A   1      43.541  27.312  27.411  1.00  0.00    -0.248 NA
ATOM     43  C   UNL A   1      43.413  25.305  26.236  1.00  0.00     0.031 C 
ATOM     44  C   UNL A   1      39.396  26.605  28.986  1.00  0.00     0.029 A 
ATOM     45  N   UNL A   1      41.058  28.088  28.822  1.00  0.00    -0.354 N 
ATOM     46  C   UNL A   1      44.768  27.039  26.810  1.00  0.00     0.074 A 
ATOM     47  C   UNL A   1      44.670  25.713  26.247  1.00  0.00     0.031 C 
ATOM     48  C   UNL A   1      39.019  27.707  29.655  1.00  0.00     0.029 A 
ATOM     49  C   UNL A   1      40.089  28.696  29.588  1.00  0.00     0.049 A 
ATOM     50  H   UNL A   1      41.918  28.515  28.607  1.00  0.00     0.167 HD
ATOM     51  C   UNL A   1      45.858  27.839  26.688  1.00  0.00     0.034 A 
ATOM     52  C   UNL A   1      40.068  29.912  30.168  1.00  0.00     0.034 A 
ATOM     53  C   UNL A   1      45.900  29.184  27.203  1.00  0.00     0.049 A 
ATOM     54  C   UNL A   1      41.274  30.803  30.008  1.00  0.00     0.074 A 
ATOM     55  C   UNL A   1      46.900  30.130  27.076  1.00  0.00     0.029 A 
ATOM     56  N   UNL A   1      44.882  29.778  27.942  1.00  0.00    -0.354 N 
ATOM     57  N   UNL A   1      42.407  30.558  29.390  1.00  0.00    -0.248 NA
ATOM     58  C   UNL A   1      41.193  32.137  30.613  1.00  0.00     0.031 C 
ATOM     59  C   UNL A   1      46.517  31.267  27.796  1.00  0.00     0.029 A 
ATOM     60  C   UNL A   1      45.242  31.065  28.302  1.00  0.00     0.049 A 
ATOM     61  H   UNL A   1      44.028  29.345  28.175  1.00  0.00     0.167 HD
ATOM     62  C   UNL A   1      43.163  31.722  29.506  1.00  0.00     0.074 A 
ATOM     63  C   UNL A   1      42.348  32.670  30.239  1.00  0.00     0.031 C 
ATOM     64  C   UNL A   1      44.413  31.987  29.044  1.00  0.00     0.034 A 
BRANCH  51  65
ATOM     65  C   UNL A   1      47.068  27.263  25.980  1.00  0.00     0.023 A 
ATOM     66  C   UNL A   1      48.014  26.471  26.657  1.00  0.00     0.031 A 
ATOM     67  C   UNL A   1      47.331  27.579  24.635  1.00  0.00     0.131 A 
ATOM     68  C   UNL A   1      49.231  26.144  26.040  1.00  0.00     0.055 A 
ATOM     69  C   UNL A   1      48.494  27.148  23.989  1.00  0.00     0.041 A 
ATOM     70  F   UNL A   1      46.482  28.343  23.931  1.00  0.00    -0.206 F 
ATOM     71  C   UNL A   1      49.465  26.450  24.699  1.00  0.00     0.022 A 
BRANCH  68  72
ATOM     72  S   UNL A   1      50.580  25.513  27.080  1.00  0.00     0.124 S 
ATOM     73  O   UNL A   1      50.765  26.618  28.019  1.00  0.00    -0.237 OA
ATOM     74  O   UNL A   1      50.008  24.293  27.634  1.00  0.00    -0.237 OA
ATOM     75  O   UNL A   1      51.678  25.319  26.135  1.00  0.00    -0.744 OA
ENDBRANCH  68  72
ENDBRANCH  51  65
BRANCH  52  76
ATOM     76  C   UNL A   1      38.860  30.374  30.913  1.00  0.00     0.023 A 
ATOM     77  C   UNL A   1      37.808  31.020  30.242  1.00  0.00     0.031 A 
ATOM     78  C   UNL A   1      38.731  30.178  32.299  1.00  0.00     0.131 A 
ATOM     79  C   UNL A   1      36.690  31.473  30.958  1.00  0.00     0.055 A 
ATOM     80  C   UNL A   1      37.594  30.588  33.001  1.00  0.00     0.041 A 
ATOM     81  F   UNL A   1      39.702  29.561  32.991  1.00  0.00    -0.206 F 
ATOM     82  C   UNL A   1      36.569  31.248  32.331  1.00  0.00     0.022 A 
BRANCH  79  83
ATOM     83  S   UNL A   1      35.417  32.421  30.078  1.00  0.00     0.124 S 
ATOM     84  O   UNL A   1      36.127  33.656  29.768  1.00  0.00    -0.237 OA
ATOM     85  O   UNL A   1      35.119  31.549  28.946  1.00  0.00    -0.237 OA
ATOM     86  O   UNL A   1      34.345  32.548  31.062  1.00  0.00    -0.744 OA
ENDBRANCH  79  83
ENDBRANCH  52  76
BRANCH  64  87
ATOM     87  C   UNL A   1      44.950  33.376  29.286  1.00  0.00     0.023 A 
ATOM     88  C   UNL A   1      44.762  34.413  28.357  1.00  0.00     0.031 A 
ATOM     89  C   UNL A   1      45.660  33.663  30.466  1.00  0.00     0.131 A 
ATOM     90  C   UNL A   1      45.330  35.672  28.595  1.00  0.00     0.055 A 
ATOM     91  C   UNL A   1      46.160  34.937  30.730  1.00  0.00     0.041 A 
ATOM     92  F   UNL A   1      45.870  32.708  31.386  1.00  0.00    -0.206 F 
ATOM     93  C   UNL A   1      46.009  35.947  29.785  1.00  0.00     0.022 A 
BRANCH  90  94
ATOM     94  S   UNL A   1      45.260  36.918  27.280  1.00  0.00     0.124 S 
ATOM     95  O   UNL A   1      43.839  36.919  26.941  1.00  0.00    -0.237 OA
ATOM     96  O   UNL A   1      45.755  38.113  27.955  1.00  0.00    -0.237 OA
ATOM     97  O   UNL A   1      46.143  36.377  26.248  1.00  0.00    -0.744 OA
ENDBRANCH  90  94
ENDBRANCH  64  87
ENDBRANCH  38  39
ENDBRANCH  30  33
ENDBRANCH  28  29
ENDBRANCH   1  28
TORSDOF 17
ENDMDL
MODEL 2
REMARK VINA RESULT:     -12.3      1.594      7.643
REMARK SMILES CC[NH2+][C@@]1(C(=O)NCCCNC(=O)c2ccc(-c3c4nc(c(-c5cc(S(=O)(=O)[O-])ccc5F)c5ccc([nH]5)c(-c5cc(S(=O)(=O)[O-])ccc5F)c5nc(c(-c6cc(S(=O)(=O)[O-])ccc6F)c6ccc3[nH]6)C=C5)C=C4)cc2)CC[C@H]([NH+]2CCC(C(C)(C)C)CC2)C1
REMARK SMILES IDX 9 1 8 2 7 3 5 4 6 5 4 7 77 8 90 9 78 10 79 11 3 12 2 15 1 16
REMARK SMILES IDX 80 17 81 18 89 19 82 21 88 22 83 23 84 24 85 25 86 26 87 27
REMARK SMILES IDX 10 28 11 29 12 30 13 32 14 33 15 34 76 35 16 36 75 37 17 38
REMARK SMILES IDX 18 39 19 40 69 41 20 42 74 43 68 44 70 45 21 46 73 47 67 48
REMARK SMILES IDX 66 49 22 51 54 52 34 53 53 54 35 55 38 56 52 57 71 58 36 59
REMARK SMILES IDX 37 60 51 62 72 63 39 64 23 65 24 66 32 67 25 68 31 69 33 70
REMARK SMILES IDX 30 71 26 72 27 73 28 74 29 75 55 76 56 77 64 78 57 79 63 80
REMARK SMILES IDX 65 81 62 82 58 83 59 84 60 85 61 86 40 87 41 88 49 89 42 90
REMARK SMILES IDX 48 91 50 92 47 93 43 94 44 95 45 96 46 97
REMARK H PARENT 7 6 3 13 3 14 80 20 11 31 70 50 38 61
REMARK Flexibility Score: inf
ROOT
ATOM      1  C   UNL A   1      35.403  21.888  24.302  1.00  0.00     0.042 C 
ENDROOT
BRANCH   1   2
ATOM      2  C   UNL A   1      35.077  23.189  23.553  1.00  0.00     0.118 C 
BRANCH   2   3
ATOM      3  N   UNL A   1      33.689  23.627  23.816  1.00  0.00    -0.351 N 
ATOM      4  C   UNL A   1      33.373  24.614  24.741  1.00  0.00     0.281 C 
ATOM      5  O   UNL A   1      34.201  25.485  25.024  1.00  0.00    -0.268 OA
ATOM      6  H   UNL A   1      32.957  23.202  23.315  1.00  0.00     0.163 HD
BRANCH   4   7
ATOM      7  C   UNL A   1      31.899  24.629  25.377  1.00  0.00     0.181 C 
ATOM      8  C   UNL A   1      30.814  24.340  24.291  1.00  0.00     0.085 C 
ATOM      9  C   UNL A   1      31.372  25.951  25.990  1.00  0.00     0.144 C 
ATOM     10  C   UNL A   1      30.002  25.620  24.032  1.00  0.00     0.072 C 
ATOM     11  C   UNL A   1      30.600  26.744  24.875  1.00  0.00     0.191 C 
BRANCH   7  12
ATOM     12  N   UNL A   1      31.805  23.453  26.281  1.00  0.00    -0.334 N 
ATOM     13  H   UNL A   1      32.642  22.887  26.136  1.00  0.00     0.347 HD
ATOM     14  H   UNL A   1      31.703  23.850  27.215  1.00  0.00     0.347 HD
BRANCH  12  15
ATOM     15  C   UNL A   1      30.657  22.577  26.127  1.00  0.00     0.257 C 
ATOM     16  C   UNL A   1      29.679  22.903  27.251  1.00  0.00     0.071 C 
ENDBRANCH  12  15
ENDBRANCH   7  12
BRANCH  11  17
ATOM     17  N   UNL A   1      31.322  27.829  24.188  1.00  0.00    -0.332 N 
ATOM     18  C   UNL A   1      31.375  29.180  24.745  1.00  0.00     0.262 C 
ATOM     19  C   UNL A   1      31.145  27.938  22.769  1.00  0.00     0.262 C 
ATOM     20  H   UNL A   1      32.228  27.415  24.410  1.00  0.00     0.348 HD
ATOM     21  C   UNL A   1      30.308  30.200  24.251  1.00  0.00     0.066 C 
ATOM     22  C   UNL A   1      29.812  28.555  22.420  1.00  0.00     0.066 C 
ATOM     23  C   UNL A   1      29.771  30.017  22.801  1.00  0.00     0.005 C 
BRANCH  23  24
ATOM     24  C   UNL A   1      28.348  30.635  22.501  1.00  0.00    -0.035 C 
ATOM     25  C   UNL A   1      27.278  29.687  23.059  1.00  0.00     0.011 C 
ATOM     26  C   UNL A   1      28.155  32.011  23.197  1.00  0.00     0.011 C 
ATOM     27  C   UNL A   1      28.091  30.872  20.997  1.00  0.00     0.011 C 
ENDBRANCH  23  24
ENDBRANCH  11  17
ENDBRANCH   4   7
ENDBRANCH   2   3
ENDBRANCH   1   2
BRANCH   1  28
ATOM     28  C   UNL A   1      36.481  21.948  25.382  1.00  0.00     0.118 C 
BRANCH  28  29
ATOM     29  N   UNL A   1      37.514  20.909  25.362  1.00  0.00    -0.352 N 
ATOM     30  C   UNL A   1      38.811  20.918  25.864  1.00  0.00     0.251 C 
ATOM     31  H   UNL A   1      37.247  20.069  24.923  1.00  0.00     0.163 HD
ATOM     32  O   UNL A   1      39.505  19.905  25.751  1.00  0.00    -0.269 OA
BRANCH  30  33
ATOM     33  C   UNL A   1      39.394  22.142  26.476  1.00  0.00     0.039 A 
ATOM     34  C   UNL A   1      40.467  22.055  27.372  1.00  0.00     0.014 A 
ATOM     35  C   UNL A   1      38.921  23.397  26.117  1.00  0.00     0.014 A 
ATOM     36  C   UNL A   1      41.132  23.221  27.787  1.00  0.00     0.010 A 
ATOM     37  C   UNL A   1      39.693  24.520  26.365  1.00  0.00     0.010 A 
ATOM     38  C   UNL A   1      40.794  24.462  27.228  1.00  0.00    -0.014 A 
BRANCH  38  39
ATOM     39  C   UNL A   1      41.510  25.735  27.540  1.00  0.00     0.031 A 
ATOM     40  C   UNL A   1      40.797  26.803  28.343  1.00  0.00     0.074 A 
ATOM     41  C   UNL A   1      42.720  25.994  27.005  1.00  0.00     0.049 A 
ATOM     42  N   UNL A   1      41.120  28.055  28.543  1.00  0.00    -0.248 NA
ATOM     43  C   UNL A   1      39.497  26.428  28.921  1.00  0.00     0.031 C 
ATOM     44  C   UNL A   1      43.487  25.081  26.152  1.00  0.00     0.029 A 
ATOM     45  N   UNL A   1      43.518  27.109  27.090  1.00  0.00    -0.354 N 
ATOM     46  C   UNL A   1      40.035  28.619  29.211  1.00  0.00     0.074 A 
ATOM     47  C   UNL A   1      39.006  27.607  29.260  1.00  0.00     0.031 C 
ATOM     48  C   UNL A   1      44.666  25.646  25.848  1.00  0.00     0.029 A 
ATOM     49  C   UNL A   1      44.719  26.984  26.427  1.00  0.00     0.049 A 
ATOM     50  H   UNL A   1      43.256  27.921  27.579  1.00  0.00     0.167 HD
ATOM     51  C   UNL A   1      39.923  29.846  29.779  1.00  0.00     0.034 A 
ATOM     52  C   UNL A   1      45.743  27.850  26.305  1.00  0.00     0.034 A 
ATOM     53  C   UNL A   1      40.994  30.810  29.771  1.00  0.00     0.049 A 
ATOM     54  C   UNL A   1      45.621  29.203  26.959  1.00  0.00     0.074 A 
ATOM     55  C   UNL A   1      41.049  32.050  30.379  1.00  0.00     0.029 A 
ATOM     56  N   UNL A   1      42.211  30.632  29.121  1.00  0.00    -0.354 N 
ATOM     57  N   UNL A   1      44.612  29.706  27.636  1.00  0.00    -0.248 NA
ATOM     58  C   UNL A   1      46.776  30.100  26.844  1.00  0.00     0.031 C 
ATOM     59  C   UNL A   1      42.267  32.649  30.040  1.00  0.00     0.029 A 
ATOM     60  C   UNL A   1      43.010  31.749  29.290  1.00  0.00     0.049 A 
ATOM     61  H   UNL A   1      42.466  29.826  28.615  1.00  0.00     0.167 HD
ATOM     62  C   UNL A   1      45.027  30.967  28.054  1.00  0.00     0.074 A 
ATOM     63  C   UNL A   1      46.381  31.139  27.564  1.00  0.00     0.031 C 
ATOM     64  C   UNL A   1      44.355  31.899  28.781  1.00  0.00     0.034 A 
BRANCH  51  65
ATOM     65  C   UNL A   1      38.603  30.191  30.439  1.00  0.00     0.023 A 
ATOM     66  C   UNL A   1      37.611  30.932  29.769  1.00  0.00     0.031 A 
ATOM     67  C   UNL A   1      38.361  29.853  31.782  1.00  0.00     0.131 A 
ATOM     68  C   UNL A   1      36.504  31.427  30.473  1.00  0.00     0.055 A 
ATOM     69  C   UNL A   1      37.196  30.250  32.446  1.00  0.00     0.041 A 
ATOM     70  F   UNL A   1      39.268  29.160  32.489  1.00  0.00    -0.206 F 
ATOM     71  C   UNL A   1      36.272  31.065  31.800  1.00  0.00     0.022 A 
BRANCH  68  72
ATOM     72  S   UNL A   1      35.498  32.723  29.693  1.00  0.00     0.124 S 
ATOM     73  O   UNL A   1      36.494  33.411  28.873  1.00  0.00    -0.237 OA
ATOM     74  O   UNL A   1      34.496  31.953  28.970  1.00  0.00    -0.237 OA
ATOM     75  O   UNL A   1      34.997  33.496  30.828  1.00  0.00    -0.744 OA
ENDBRANCH  68  72
ENDBRANCH  51  65
BRANCH  52  76
ATOM     76  C   UNL A   1      46.983  27.457  25.572  1.00  0.00     0.023 A 
ATOM     77  C   UNL A   1      47.140  27.773  24.212  1.00  0.00     0.031 A 
ATOM     78  C   UNL A   1      48.027  26.765  26.209  1.00  0.00     0.131 A 
ATOM     79  C   UNL A   1      48.298  27.374  23.527  1.00  0.00     0.055 A 
ATOM     80  C   UNL A   1      49.199  26.413  25.536  1.00  0.00     0.041 A 
ATOM     81  F   UNL A   1      47.934  26.443  27.509  1.00  0.00    -0.206 F 
ATOM     82  C   UNL A   1      49.336  26.709  24.183  1.00  0.00     0.022 A 
BRANCH  79  83
ATOM     83  S   UNL A   1      48.404  27.684  21.742  1.00  0.00     0.124 S 
ATOM     84  O   UNL A   1      48.655  26.344  21.222  1.00  0.00    -0.237 OA
ATOM     85  O   UNL A   1      47.089  28.249  21.453  1.00  0.00    -0.237 OA
ATOM     86  O   UNL A   1      49.520  28.619  21.623  1.00  0.00    -0.744 OA
ENDBRANCH  79  83
ENDBRANCH  52  76
BRANCH  64  87
ATOM     87  C   UNL A   1      45.098  33.166  29.122  1.00  0.00     0.023 A 
ATOM     88  C   UNL A   1      45.059  34.294  28.286  1.00  0.00     0.031 A 
ATOM     89  C   UNL A   1      45.856  33.242  30.305  1.00  0.00     0.131 A 
ATOM     90  C   UNL A   1      45.814  35.429  28.613  1.00  0.00     0.055 A 
ATOM     91  C   UNL A   1      46.547  34.400  30.660  1.00  0.00     0.041 A 
ATOM     92  F   UNL A   1      45.930  32.193  31.139  1.00  0.00    -0.206 F 
ATOM     93  C   UNL A   1      46.541  35.497  29.805  1.00  0.00     0.022 A 
BRANCH  90  94
ATOM     94  S   UNL A   1      45.919  36.777  27.406  1.00  0.00     0.124 S 
ATOM     95  O   UNL A   1      46.167  36.051  26.163  1.00  0.00    -0.237 OA
ATOM     96  O   UNL A   1      44.608  37.407  27.525  1.00  0.00    -0.237 OA
ATOM     97  O   UNL A   1      47.039  37.583  27.887  1.00  0.00    -0.744 OA
ENDBRANCH  90  94
ENDBRANCH  64  87
ENDBRANCH  38  39
ENDBRANCH  30  33
ENDBRANCH  28  29
ENDBRANCH   1  28
TORSDOF 17
ENDMDL
MODEL 3
REMARK VINA RESULT:     -12.3      1.572      1.957
REMARK SMILES CC[NH2+][C@@]1(C(=O)NCCCNC(=O)c2ccc(-c3c4nc(c(-c5cc(S(=O)(=O)[O-])ccc5F)c5ccc([nH]5)c(-c5cc(S(=O)(=O)[O-])ccc5F)c5nc(c(-c6cc(S(=O)(=O)[O-])ccc6F)c6ccc3[nH]6)C=C5)C=C4)cc2)CC[C@H]([NH+]2CCC(C(C)(C)C)CC2)C1
REMARK SMILES IDX 9 1 8 2 7 3 5 4 6 5 4 7 77 8 90 9 78 10 79 11 3 12 2 15 1 16
REMARK SMILES IDX 80 17 81 18 89 19 82 21 88 22 83 23 84 24 85 25 86 26 87 27
REMARK SMILES IDX 10 28 11 29 12 30 13 32 14 33 15 34 76 35 16 36 75 37 17 38
REMARK SMILES IDX 18 39 19 40 69 41 20 42 74 43 68 44 70 45 21 46 73 47 67 48
REMARK SMILES IDX 66 49 22 51 54 52 34 53 53 54 35 55 38 56 52 57 71 58 36 59
REMARK SMILES IDX 37 60 51 62 72 63 39 64 23 65 24 66 32 67 25 68 31 69 33 70
REMARK SMILES IDX 30 71 26 72 27 73 28 74 29 75 55 76 56 77 64 78 57 79 63 80
REMARK SMILES IDX 65 81 62 82 58 83 59 84 60 85 61 86 40 87 41 88 49 89 42 90
REMARK SMILES IDX 48 91 50 92 47 93 43 94 44 95 45 96 46 97
REMARK H PARENT 7 6 3 13 3 14 80 20 11 31 70 50 38 61
REMARK Flexibility Score: inf
ROOT
ATOM      1  C   UNL A   1      36.081  21.956  24.361  1.00  0.00     0.042 C 
ENDROOT
BRANCH   1   2
ATOM      2  C   UNL A   1      35.538  22.959  23.331  1.00  0.00     0.118 C 
BRANCH   2   3
ATOM      3  N   UNL A   1      34.131  23.312  23.614  1.00  0.00    -0.351 N 
ATOM      4  C   UNL A   1      33.769  24.282  24.539  1.00  0.00     0.281 C 
ATOM      5  O   UNL A   1      34.545  25.204  24.805  1.00  0.00    -0.268 OA
ATOM      6  H   UNL A   1      33.419  22.839  23.127  1.00  0.00     0.163 HD
BRANCH   4   7
ATOM      7  C   UNL A   1      32.307  24.209  25.198  1.00  0.00     0.181 C 
ATOM      8  C   UNL A   1      31.219  23.889  24.123  1.00  0.00     0.085 C 
ATOM      9  C   UNL A   1      31.724  25.490  25.848  1.00  0.00     0.144 C 
ATOM     10  C   UNL A   1      30.340  25.130  23.904  1.00  0.00     0.072 C 
ATOM     11  C   UNL A   1      30.895  26.266  24.762  1.00  0.00     0.191 C 
BRANCH   7  12
ATOM     12  N   UNL A   1      32.286  23.011  26.078  1.00  0.00    -0.334 N 
ATOM     13  H   UNL A   1      31.342  22.926  26.457  1.00  0.00     0.347 HD
ATOM     14  H   UNL A   1      32.587  22.243  25.478  1.00  0.00     0.347 HD
BRANCH  12  15
ATOM     15  C   UNL A   1      33.208  22.985  27.199  1.00  0.00     0.257 C 
ATOM     16  C   UNL A   1      33.774  21.572  27.292  1.00  0.00     0.071 C 
ENDBRANCH  12  15
ENDBRANCH   7  12
BRANCH  11  17
ATOM     17  N   UNL A   1      31.550  27.400  24.087  1.00  0.00    -0.332 N 
ATOM     18  C   UNL A   1      31.588  28.729  24.697  1.00  0.00     0.262 C 
ATOM     19  C   UNL A   1      31.302  27.560  22.684  1.00  0.00     0.262 C 
ATOM     20  H   UNL A   1      32.477  27.007  24.250  1.00  0.00     0.348 HD
ATOM     21  C   UNL A   1      30.469  29.733  24.295  1.00  0.00     0.066 C 
ATOM     22  C   UNL A   1      29.936  28.147  22.424  1.00  0.00     0.066 C 
ATOM     23  C   UNL A   1      29.869  29.591  22.866  1.00  0.00     0.005 C 
BRANCH  23  24
ATOM     24  C   UNL A   1      28.415  30.174  22.658  1.00  0.00    -0.035 C 
ATOM     25  C   UNL A   1      27.397  29.103  23.074  1.00  0.00     0.011 C 
ATOM     26  C   UNL A   1      28.160  31.423  23.546  1.00  0.00     0.011 C 
ATOM     27  C   UNL A   1      28.136  30.612  21.205  1.00  0.00     0.011 C 
ENDBRANCH  23  24
ENDBRANCH  11  17
ENDBRANCH   4   7
ENDBRANCH   2   3
ENDBRANCH   1   2
BRANCH   1  28
ATOM     28  C   UNL A   1      37.171  22.442  25.313  1.00  0.00     0.118 C 
BRANCH  28  29
ATOM     29  N   UNL A   1      38.318  21.556  25.533  1.00  0.00    -0.352 N 
ATOM     30  C   UNL A   1      39.495  21.767  26.242  1.00  0.00     0.251 C 
ATOM     31  H   UNL A   1      38.243  20.669  25.112  1.00  0.00     0.163 HD
ATOM     32  O   UNL A   1      40.324  20.857  26.313  1.00  0.00    -0.269 OA
BRANCH  30  33
ATOM     33  C   UNL A   1      39.799  23.085  26.861  1.00  0.00     0.039 A 
ATOM     34  C   UNL A   1      40.732  23.192  27.901  1.00  0.00     0.014 A 
ATOM     35  C   UNL A   1      39.206  24.242  26.372  1.00  0.00     0.014 A 
ATOM     36  C   UNL A   1      41.153  24.459  28.339  1.00  0.00     0.010 A 
ATOM     37  C   UNL A   1      39.762  25.477  26.662  1.00  0.00     0.010 A 
ATOM     38  C   UNL A   1      40.723  25.616  27.671  1.00  0.00    -0.014 A 
BRANCH  38  39
ATOM     39  C   UNL A   1      41.193  26.992  28.009  1.00  0.00     0.031 A 
ATOM     40  C   UNL A   1      42.618  27.385  27.684  1.00  0.00     0.074 A 
ATOM     41  C   UNL A   1      40.409  27.833  28.714  1.00  0.00     0.049 A 
ATOM     42  N   UNL A   1      43.310  28.424  28.076  1.00  0.00    -0.248 NA
ATOM     43  C   UNL A   1      43.394  26.426  26.882  1.00  0.00     0.031 C 
ATOM     44  C   UNL A   1      39.040  27.552  29.156  1.00  0.00     0.029 A 
ATOM     45  N   UNL A   1      40.654  29.096  29.195  1.00  0.00    -0.354 N 
ATOM     46  C   UNL A   1      44.607  28.203  27.619  1.00  0.00     0.074 A 
ATOM     47  C   UNL A   1      44.625  26.880  27.041  1.00  0.00     0.031 C 
ATOM     48  C   UNL A   1      38.547  28.633  29.783  1.00  0.00     0.029 A 
ATOM     49  C   UNL A   1      39.580  29.660  29.847  1.00  0.00     0.049 A 
ATOM     50  H   UNL A   1      41.516  29.556  29.083  1.00  0.00     0.167 HD
ATOM     51  C   UNL A   1      45.674  29.042  27.630  1.00  0.00     0.034 A 
ATOM     52  C   UNL A   1      39.448  30.869  30.427  1.00  0.00     0.034 A 
ATOM     53  C   UNL A   1      45.606  30.383  28.154  1.00  0.00     0.049 A 
ATOM     54  C   UNL A   1      40.630  31.805  30.414  1.00  0.00     0.074 A 
ATOM     55  C   UNL A   1      46.578  31.366  28.150  1.00  0.00     0.029 A 
ATOM     56  N   UNL A   1      44.488  30.932  28.774  1.00  0.00    -0.354 N 
ATOM     57  N   UNL A   1      41.835  31.607  29.930  1.00  0.00    -0.248 NA
ATOM     58  C   UNL A   1      40.431  33.129  31.014  1.00  0.00     0.031 C 
ATOM     59  C   UNL A   1      46.073  32.481  28.827  1.00  0.00     0.029 A 
ATOM     60  C   UNL A   1      44.756  32.228  29.180  1.00  0.00     0.049 A 
ATOM     61  H   UNL A   1      43.630  30.466  28.903  1.00  0.00     0.167 HD
ATOM     62  C   UNL A   1      42.529  32.796  30.140  1.00  0.00     0.074 A 
ATOM     63  C   UNL A   1      41.600  33.707  30.780  1.00  0.00     0.031 C 
ATOM     64  C   UNL A   1      43.814  33.112  29.828  1.00  0.00     0.034 A 
BRANCH  51  65
ATOM     65  C   UNL A   1      46.979  28.519  27.063  1.00  0.00     0.023 A 
ATOM     66  C   UNL A   1      47.208  28.451  25.675  1.00  0.00     0.031 A 
ATOM     67  C   UNL A   1      47.973  27.999  27.910  1.00  0.00     0.131 A 
ATOM     68  C   UNL A   1      48.321  27.758  25.177  1.00  0.00     0.055 A 
ATOM     69  C   UNL A   1      49.139  27.414  27.407  1.00  0.00     0.041 A 
ATOM     70  F   UNL A   1      47.816  28.015  29.242  1.00  0.00    -0.206 F 
ATOM     71  C   UNL A   1      49.306  27.265  26.034  1.00  0.00     0.022 A 
BRANCH  68  72
ATOM     72  S   UNL A   1      48.345  27.320  23.415  1.00  0.00     0.124 S 
ATOM     73  O   UNL A   1      48.126  25.875  23.471  1.00  0.00    -0.237 OA
ATOM     74  O   UNL A   1      47.246  28.112  22.878  1.00  0.00    -0.237 OA
ATOM     75  O   UNL A   1      49.680  27.723  22.980  1.00  0.00    -0.744 OA
ENDBRANCH  68  72
ENDBRANCH  51  65
BRANCH  52  76
ATOM     76  C   UNL A   1      38.146  31.279  31.031  1.00  0.00     0.023 A 
ATOM     77  C   UNL A   1      37.172  31.932  30.256  1.00  0.00     0.031 A 
ATOM     78  C   UNL A   1      37.848  31.026  32.381  1.00  0.00     0.131 A 
ATOM     79  C   UNL A   1      35.963  32.336  30.842  1.00  0.00     0.055 A 
ATOM     80  C   UNL A   1      36.623  31.388  32.948  1.00  0.00     0.041 A 
ATOM     81  F   UNL A   1      38.738  30.400  33.167  1.00  0.00    -0.206 F 
ATOM     82  C   UNL A   1      35.675  32.055  32.179  1.00  0.00     0.022 A 
BRANCH  79  83
ATOM     83  S   UNL A   1      34.789  33.294  29.843  1.00  0.00     0.124 S 
ATOM     84  O   UNL A   1      33.935  33.881  30.869  1.00  0.00    -0.237 OA
ATOM     85  O   UNL A   1      35.672  34.217  29.137  1.00  0.00    -0.237 OA
ATOM     86  O   UNL A   1      34.150  32.283  29.003  1.00  0.00    -0.744 OA
ENDBRANCH  79  83
ENDBRANCH  52  76
BRANCH  64  87
ATOM     87  C   UNL A   1      44.267  34.516  30.138  1.00  0.00     0.023 A 
ATOM     88  C   UNL A   1      44.048  35.578  29.245  1.00  0.00     0.031 A 
ATOM     89  C   UNL A   1      44.927  34.793  31.349  1.00  0.00     0.131 A 
ATOM     90  C   UNL A   1      44.539  36.855  29.548  1.00  0.00     0.055 A 
ATOM     91  C   UNL A   1      45.350  36.081  31.676  1.00  0.00     0.041 A 
ATOM     92  F   UNL A   1      45.164  33.815  32.238  1.00  0.00    -0.206 F 
ATOM     93  C   UNL A   1      45.170  37.118  30.767  1.00  0.00     0.022 A 
BRANCH  90  94
ATOM     94  S   UNL A   1      44.437  38.147  28.280  1.00  0.00     0.124 S 
ATOM     95  O   UNL A   1      45.365  39.150  28.796  1.00  0.00    -0.237 OA
ATOM     96  O   UNL A   1      44.868  37.440  27.078  1.00  0.00    -0.237 OA
ATOM     97  O   UNL A   1      43.028  38.536  28.299  1.00  0.00    -0.744 OA
ENDBRANCH  90  94
ENDBRANCH  64  87
ENDBRANCH  38  39
ENDBRANCH  30  33
ENDBRANCH  28  29
ENDBRANCH   1  28
TORSDOF 17
ENDMDL
