MODEL 1
REMARK VINA RESULT:     -14.3      0.000      0.000
REMARK SMILES Cc1ccc(NC(=O)c2cnn3c2NC2=C(C(=O)CCC2)[C@H]3c2ccc(C(=O)NCCCNC(=O)c3ccc(-c4c5nc(c(-c6cc(S(=O)(=O)[O-])ccc6F)c6ccc([nH]6)c(-c6cc(S(=O)(=O)[O-])ccc6F)c6nc(c(-c7cc(S(=O)(=O)[O-])ccc7F)c7ccc4[nH]7)C=C6)C=C5)cc3)cc2)cc1
REMARK SMILES IDX 31 1 30 2 29 3 27 4 28 5 26 7 23 8 24 9 100 10 25 11 99 12
REMARK SMILES IDX 22 13 9 14 10 15 13 16 11 17 12 18 14 19 15 20 16 22 21 23
REMARK SMILES IDX 17 24 20 25 18 26 19 27 7 28 6 29 8 31 5 32 1 33 2 34 3 35
REMARK SMILES IDX 102 36 4 37 101 38 32 39 33 40 34 41 35 43 36 44 37 45 98 46
REMARK SMILES IDX 38 47 97 48 39 49 40 50 41 51 91 52 42 53 96 54 90 55 92 56
REMARK SMILES IDX 43 57 95 58 89 59 88 60 44 62 76 63 56 64 75 65 57 66 60 67
REMARK SMILES IDX 74 68 93 69 58 70 59 71 73 73 94 74 61 75 45 76 46 77 54 78
REMARK SMILES IDX 47 79 53 80 55 81 52 82 48 83 49 84 50 85 51 86 77 87 78 88
REMARK SMILES IDX 86 89 79 90 85 91 87 92 84 93 80 94 81 95 82 96 83 97 62 98
REMARK SMILES IDX 63 99 71 100 64 101 70 102 72 103 69 104 65 105 66 106
REMARK SMILES IDX 67 107 68 108
REMARK H PARENT 29 6 14 21 6 30 33 42 92 61 60 72
REMARK Flexibility Score: inf
ROOT
ATOM      1  C   UNL A   1      34.483  33.897  27.992  1.00  0.00     0.042 C 
ENDROOT
BRANCH   1   2
ATOM      2  C   UNL A   1      33.892  32.503  27.777  1.00  0.00     0.118 C 
BRANCH   2   3
ATOM      3  N   UNL A   1      34.923  31.471  27.706  1.00  0.00    -0.352 N 
ATOM      4  C   UNL A   1      34.896  30.158  27.292  1.00  0.00     0.251 C 
ATOM      5  O   UNL A   1      35.957  29.541  27.199  1.00  0.00    -0.269 OA
ATOM      6  H   UNL A   1      35.809  31.772  28.013  1.00  0.00     0.163 HD
BRANCH   4   7
ATOM      7  C   UNL A   1      33.643  29.450  26.892  1.00  0.00     0.039 A 
ATOM      8  C   UNL A   1      31.419  27.809  26.224  1.00  0.00    -0.019 A 
ATOM      9  C   UNL A   1      31.832  27.946  27.560  1.00  0.00     0.007 A 
ATOM     10  C   UNL A   1      31.992  28.689  25.288  1.00  0.00     0.007 A 
ATOM     11  C   UNL A   1      32.938  28.748  27.883  1.00  0.00     0.014 A 
ATOM     12  C   UNL A   1      33.105  29.475  25.610  1.00  0.00     0.014 A 
BRANCH   8  13
ATOM     13  C   UNL A   1      30.537  26.601  25.773  1.00  0.00     0.175 C 
ATOM     14  C   UNL A   1      32.083  25.808  22.642  1.00  0.00     0.102 A 
ATOM     15  C   UNL A   1      30.740  26.141  22.291  1.00  0.00     0.151 A 
ATOM     16  C   UNL A   1      32.024  25.679  24.011  1.00  0.00     0.142 A 
ATOM     17  N   UNL A   1      29.973  26.449  23.344  1.00  0.00    -0.178 NA
ATOM     18  N   UNL A   1      30.825  26.275  24.368  1.00  0.00    -0.237 N 
ATOM     19  N   UNL A   1      32.803  25.172  25.016  1.00  0.00    -0.343 N 
ATOM     20  C   UNL A   1      32.192  24.821  26.231  1.00  0.00     0.026 C 
ATOM     21  H   UNL A   1      33.773  25.055  24.890  1.00  0.00     0.168 HD
ATOM     22  C   UNL A   1      30.966  25.339  26.495  1.00  0.00     0.044 C 
ATOM     23  C   UNL A   1      32.720  23.667  27.036  1.00  0.00     0.055 C 
ATOM     24  C   UNL A   1      29.946  24.315  26.831  1.00  0.00     0.163 C 
ATOM     25  C   UNL A   1      31.672  22.568  27.243  1.00  0.00     0.014 C 
ATOM     26  O   UNL A   1      28.804  24.636  27.143  1.00  0.00    -0.294 OA
ATOM     27  C   UNL A   1      30.348  22.874  26.554  1.00  0.00     0.081 C 
BRANCH  14  28
ATOM     28  C   UNL A   1      33.217  25.567  21.779  1.00  0.00     0.261 C 
ATOM     29  N   UNL A   1      33.975  24.424  21.955  1.00  0.00    -0.322 N 
ATOM     30  H   UNL A   1      34.856  24.455  21.515  1.00  0.00     0.170 HD
ATOM     31  O   UNL A   1      33.560  26.390  20.930  1.00  0.00    -0.269 OA
BRANCH  29  32
ATOM     32  C   UNL A   1      33.720  23.222  22.649  1.00  0.00     0.041 A 
ATOM     33  C   UNL A   1      32.942  19.741  25.095  1.00  0.00     0.044 C 
ATOM     34  C   UNL A   1      33.249  20.918  24.218  1.00  0.00    -0.051 A 
ATOM     35  C   UNL A   1      32.345  21.299  23.228  1.00  0.00     0.005 A 
ATOM     36  C   UNL A   1      34.415  21.669  24.386  1.00  0.00     0.005 A 
ATOM     37  C   UNL A   1      32.602  22.417  22.430  1.00  0.00     0.026 A 
ATOM     38  C   UNL A   1      34.654  22.805  23.600  1.00  0.00     0.026 A 
ENDBRANCH  29  32
ENDBRANCH  14  28
ENDBRANCH   8  13
ENDBRANCH   4   7
ENDBRANCH   2   3
ENDBRANCH   1   2
BRANCH   1  39
ATOM     39  C   UNL A   1      34.950  34.173  29.421  1.00  0.00     0.118 C 
BRANCH  39  40
ATOM     40  N   UNL A   1      33.859  34.617  30.293  1.00  0.00    -0.352 N 
ATOM     41  C   UNL A   1      33.743  34.521  31.672  1.00  0.00     0.251 C 
ATOM     42  H   UNL A   1      33.099  35.044  29.835  1.00  0.00     0.163 HD
ATOM     43  O   UNL A   1      32.776  34.935  32.280  1.00  0.00    -0.269 OA
BRANCH  41  44
ATOM     44  C   UNL A   1      34.911  33.997  32.413  1.00  0.00     0.039 A 
ATOM     45  C   UNL A   1      36.035  34.827  32.487  1.00  0.00     0.014 A 
ATOM     46  C   UNL A   1      34.988  32.644  32.726  1.00  0.00     0.014 A 
ATOM     47  C   UNL A   1      37.290  34.248  32.630  1.00  0.00     0.010 A 
ATOM     48  C   UNL A   1      36.241  32.060  32.784  1.00  0.00     0.010 A 
ATOM     49  C   UNL A   1      37.389  32.855  32.655  1.00  0.00    -0.014 A 
BRANCH  49  50
ATOM     50  C   UNL A   1      38.636  32.165  32.335  1.00  0.00     0.031 A 
ATOM     51  C   UNL A   1      38.644  30.887  31.599  1.00  0.00     0.074 A 
ATOM     52  C   UNL A   1      39.818  32.704  32.711  1.00  0.00     0.049 A 
ATOM     53  N   UNL A   1      39.558  29.983  31.733  1.00  0.00    -0.248 NA
ATOM     54  C   UNL A   1      37.586  30.506  30.674  1.00  0.00     0.031 C 
ATOM     55  C   UNL A   1      41.153  32.290  32.291  1.00  0.00     0.029 A 
ATOM     56  N   UNL A   1      40.043  33.592  33.761  1.00  0.00    -0.354 N 
ATOM     57  C   UNL A   1      39.384  29.066  30.725  1.00  0.00     0.074 A 
ATOM     58  C   UNL A   1      38.101  29.393  30.142  1.00  0.00     0.031 C 
ATOM     59  C   UNL A   1      42.041  32.697  33.210  1.00  0.00     0.029 A 
ATOM     60  C   UNL A   1      41.296  33.274  34.312  1.00  0.00     0.049 A 
ATOM     61  H   UNL A   1      39.438  34.307  34.061  1.00  0.00     0.167 HD
ATOM     62  C   UNL A   1      40.403  28.222  30.391  1.00  0.00     0.034 A 
ATOM     63  C   UNL A   1      41.430  32.931  35.625  1.00  0.00     0.034 A 
ATOM     64  C   UNL A   1      41.581  28.418  31.236  1.00  0.00     0.049 A 
ATOM     65  C   UNL A   1      42.027  31.560  35.837  1.00  0.00     0.074 A 
ATOM     66  C   UNL A   1      42.788  29.068  31.032  1.00  0.00     0.029 A 
ATOM     67  N   UNL A   1      41.520  28.128  32.595  1.00  0.00    -0.354 N 
ATOM     68  N   UNL A   1      42.125  30.648  34.910  1.00  0.00    -0.248 NA
ATOM     69  C   UNL A   1      42.539  31.101  37.122  1.00  0.00     0.031 C 
ATOM     70  C   UNL A   1      43.446  29.185  32.283  1.00  0.00     0.029 A 
ATOM     71  C   UNL A   1      42.650  28.588  33.246  1.00  0.00     0.049 A 
ATOM     72  H   UNL A   1      40.775  27.658  33.034  1.00  0.00     0.167 HD
ATOM     73  C   UNL A   1      42.667  29.501  35.440  1.00  0.00     0.074 A 
ATOM     74  C   UNL A   1      42.931  29.850  36.825  1.00  0.00     0.031 C 
ATOM     75  C   UNL A   1      42.831  28.373  34.679  1.00  0.00     0.034 A 
BRANCH  62  76
ATOM     76  C   UNL A   1      40.438  27.445  29.092  1.00  0.00     0.023 A 
ATOM     77  C   UNL A   1      41.376  27.792  28.097  1.00  0.00     0.031 A 
ATOM     78  C   UNL A   1      39.562  26.397  28.754  1.00  0.00     0.131 A 
ATOM     79  C   UNL A   1      41.339  27.212  26.816  1.00  0.00     0.055 A 
ATOM     80  C   UNL A   1      39.479  25.865  27.461  1.00  0.00     0.041 A 
ATOM     81  F   UNL A   1      38.785  25.811  29.677  1.00  0.00    -0.206 F 
ATOM     82  C   UNL A   1      40.359  26.285  26.475  1.00  0.00     0.022 A 
BRANCH  79  83
ATOM     83  S   UNL A   1      42.600  27.680  25.598  1.00  0.00     0.124 S 
ATOM     84  O   UNL A   1      43.769  27.923  26.436  1.00  0.00    -0.237 OA
ATOM     85  O   UNL A   1      42.652  26.500  24.741  1.00  0.00    -0.237 OA
ATOM     86  O   UNL A   1      42.036  28.873  24.967  1.00  0.00    -0.744 OA
ENDBRANCH  79  83
ENDBRANCH  62  76
BRANCH  63  87
ATOM     87  C   UNL A   1      40.444  33.602  36.516  1.00  0.00     0.023 A 
ATOM     88  C   UNL A   1      39.280  32.875  36.847  1.00  0.00     0.031 A 
ATOM     89  C   UNL A   1      40.787  34.694  37.322  1.00  0.00     0.131 A 
ATOM     90  C   UNL A   1      38.599  33.133  38.043  1.00  0.00     0.055 A 
ATOM     91  C   UNL A   1      40.059  34.996  38.481  1.00  0.00     0.041 A 
ATOM     92  F   UNL A   1      41.899  35.404  37.076  1.00  0.00    -0.206 F 
ATOM     93  C   UNL A   1      38.990  34.188  38.871  1.00  0.00     0.022 A 
BRANCH  90  94
ATOM     94  S   UNL A   1      37.387  31.919  38.645  1.00  0.00     0.124 S 
ATOM     95  O   UNL A   1      37.905  31.599  39.970  1.00  0.00    -0.237 OA
ATOM     96  O   UNL A   1      36.129  32.662  38.613  1.00  0.00    -0.237 OA
ATOM     97  O   UNL A   1      37.462  30.844  37.658  1.00  0.00    -0.744 OA
ENDBRANCH  90  94
ENDBRANCH  63  87
BRANCH  75  98
ATOM     98  C   UNL A   1      43.250  26.988  35.159  1.00  0.00     0.023 A 
ATOM     99  C   UNL A   1      44.552  26.650  35.554  1.00  0.00     0.031 A 
ATOM    100  C   UNL A   1      42.299  25.939  35.281  1.00  0.00     0.131 A 
ATOM    101  C   UNL A   1      44.882  25.345  35.977  1.00  0.00     0.055 A 
ATOM    102  C   UNL A   1      42.615  24.661  35.754  1.00  0.00     0.041 A 
ATOM    103  F   UNL A   1      41.009  26.108  34.960  1.00  0.00    -0.206 F 
ATOM    104  C   UNL A   1      43.919  24.351  36.096  1.00  0.00     0.022 A 
BRANCH 101 105
ATOM    105  S   UNL A   1      46.622  24.973  36.329  1.00  0.00     0.124 S 
ATOM    106  O   UNL A   1      47.316  25.913  35.453  1.00  0.00    -0.237 OA
ATOM    107  O   UNL A   1      46.718  25.252  37.758  1.00  0.00    -0.237 OA
ATOM    108  O   UNL A   1      46.757  23.565  35.960  1.00  0.00    -0.744 OA
ENDBRANCH 101 105
ENDBRANCH  75  98
ENDBRANCH  49  50
ENDBRANCH  41  44
ENDBRANCH  39  40
ENDBRANCH   1  39
TORSDOF 16
ENDMDL
MODEL 2
REMARK VINA RESULT:     -14.3      5.314     10.893
REMARK SMILES Cc1ccc(NC(=O)c2cnn3c2NC2=C(C(=O)CCC2)[C@H]3c2ccc(C(=O)NCCCNC(=O)c3ccc(-c4c5nc(c(-c6cc(S(=O)(=O)[O-])ccc6F)c6ccc([nH]6)c(-c6cc(S(=O)(=O)[O-])ccc6F)c6nc(c(-c7cc(S(=O)(=O)[O-])ccc7F)c7ccc4[nH]7)C=C6)C=C5)cc3)cc2)cc1
REMARK SMILES IDX 31 1 30 2 29 3 27 4 28 5 26 7 23 8 24 9 100 10 25 11 99 12
REMARK SMILES IDX 22 13 9 14 10 15 13 16 11 17 12 18 14 19 15 20 16 22 21 23
REMARK SMILES IDX 17 24 20 25 18 26 19 27 7 28 6 29 8 31 5 32 1 33 2 34 3 35
REMARK SMILES IDX 102 36 4 37 101 38 32 39 33 40 34 41 35 43 36 44 37 45 98 46
REMARK SMILES IDX 38 47 97 48 39 49 40 50 41 51 91 52 42 53 96 54 90 55 92 56
REMARK SMILES IDX 43 57 95 58 89 59 88 60 44 62 76 63 56 64 75 65 57 66 60 67
REMARK SMILES IDX 74 68 93 69 58 70 59 71 73 73 94 74 61 75 45 76 46 77 54 78
REMARK SMILES IDX 47 79 53 80 55 81 52 82 48 83 49 84 50 85 51 86 77 87 78 88
REMARK SMILES IDX 86 89 79 90 85 91 87 92 84 93 80 94 81 95 82 96 83 97 62 98
REMARK SMILES IDX 63 99 71 100 64 101 70 102 72 103 69 104 65 105 66 106
REMARK SMILES IDX 67 107 68 108
REMARK H PARENT 29 6 14 21 6 30 33 42 92 61 60 72
REMARK Flexibility Score: inf
ROOT
ATOM      1  C   UNL A   1      41.172  22.646  26.098  1.00  0.00     0.042 C 
ENDROOT
BRANCH   1   2
ATOM      2  C   UNL A   1      39.772  22.215  26.534  1.00  0.00     0.118 C 
BRANCH   2   3
ATOM      3  N   UNL A   1      39.451  20.858  26.098  1.00  0.00    -0.352 N 
ATOM      4  C   UNL A   1      38.432  20.348  25.326  1.00  0.00     0.251 C 
ATOM      5  O   UNL A   1      38.477  19.165  24.986  1.00  0.00    -0.269 OA
ATOM      6  H   UNL A   1      40.086  20.177  26.417  1.00  0.00     0.163 HD
BRANCH   4   7
ATOM      7  C   UNL A   1      37.290  21.170  24.826  1.00  0.00     0.039 A 
ATOM      8  C   UNL A   1      34.981  22.441  23.758  1.00  0.00    -0.019 A 
ATOM      9  C   UNL A   1      34.873  21.556  24.844  1.00  0.00     0.007 A 
ATOM     10  C   UNL A   1      36.277  22.843  23.391  1.00  0.00     0.007 A 
ATOM     11  C   UNL A   1      36.015  20.922  25.361  1.00  0.00     0.014 A 
ATOM     12  C   UNL A   1      37.413  22.197  23.896  1.00  0.00     0.014 A 
BRANCH   8  13
ATOM     13  C   UNL A   1      33.740  22.783  22.873  1.00  0.00     0.175 C 
ATOM     14  C   UNL A   1      31.266  23.309  25.407  1.00  0.00     0.102 A 
ATOM     15  C   UNL A   1      30.752  22.218  24.643  1.00  0.00     0.151 A 
ATOM     16  C   UNL A   1      32.289  23.787  24.620  1.00  0.00     0.142 A 
ATOM     17  N   UNL A   1      31.532  21.875  23.610  1.00  0.00    -0.178 NA
ATOM     18  N   UNL A   1      32.525  22.777  23.701  1.00  0.00    -0.237 N 
ATOM     19  N   UNL A   1      33.075  24.904  24.547  1.00  0.00    -0.343 N 
ATOM     20  C   UNL A   1      33.697  25.214  23.326  1.00  0.00     0.026 C 
ATOM     21  H   UNL A   1      33.202  25.482  25.335  1.00  0.00     0.168 HD
ATOM     22  C   UNL A   1      33.809  24.223  22.406  1.00  0.00     0.044 C 
ATOM     23  C   UNL A   1      33.918  26.647  22.933  1.00  0.00     0.055 C 
ATOM     24  C   UNL A   1      33.257  24.580  21.075  1.00  0.00     0.163 C 
ATOM     25  C   UNL A   1      33.214  27.010  21.620  1.00  0.00     0.014 C 
ATOM     26  O   UNL A   1      33.333  23.805  20.128  1.00  0.00    -0.294 OA
ATOM     27  C   UNL A   1      32.420  25.850  21.033  1.00  0.00     0.081 C 
BRANCH  14  28
ATOM     28  C   UNL A   1      30.783  23.853  26.656  1.00  0.00     0.261 C 
ATOM     29  N   UNL A   1      30.566  25.215  26.766  1.00  0.00    -0.322 N 
ATOM     30  H   UNL A   1      30.488  25.535  27.694  1.00  0.00     0.170 HD
ATOM     31  O   UNL A   1      30.620  23.137  27.645  1.00  0.00    -0.269 OA
BRANCH  29  32
ATOM     32  C   UNL A   1      30.437  26.230  25.794  1.00  0.00     0.041 A 
ATOM     33  C   UNL A   1      30.404  29.283  22.731  1.00  0.00     0.044 C 
ATOM     34  C   UNL A   1      30.387  28.259  23.827  1.00  0.00    -0.051 A 
ATOM     35  C   UNL A   1      29.528  27.165  23.739  1.00  0.00     0.005 A 
ATOM     36  C   UNL A   1      31.238  28.357  24.931  1.00  0.00     0.005 A 
ATOM     37  C   UNL A   1      29.531  26.185  24.734  1.00  0.00     0.026 A 
ATOM     38  C   UNL A   1      31.254  27.356  25.913  1.00  0.00     0.026 A 
ENDBRANCH  29  32
ENDBRANCH  14  28
ENDBRANCH   8  13
ENDBRANCH   4   7
ENDBRANCH   2   3
ENDBRANCH   1   2
BRANCH   1  39
ATOM     39  C   UNL A   1      42.300  21.755  26.618  1.00  0.00     0.118 C 
BRANCH  39  40
ATOM     40  N   UNL A   1      43.014  21.066  25.539  1.00  0.00    -0.352 N 
ATOM     41  C   UNL A   1      44.151  21.458  24.849  1.00  0.00     0.251 C 
ATOM     42  H   UNL A   1      42.632  20.201  25.265  1.00  0.00     0.163 HD
ATOM     43  O   UNL A   1      44.649  20.785  23.968  1.00  0.00    -0.269 OA
BRANCH  41  44
ATOM     44  C   UNL A   1      44.829  22.690  25.307  1.00  0.00     0.039 A 
ATOM     45  C   UNL A   1      45.451  22.639  26.559  1.00  0.00     0.014 A 
ATOM     46  C   UNL A   1      44.576  23.902  24.672  1.00  0.00     0.014 A 
ATOM     47  C   UNL A   1      45.589  23.813  27.290  1.00  0.00     0.010 A 
ATOM     48  C   UNL A   1      44.637  25.057  25.431  1.00  0.00     0.010 A 
ATOM     49  C   UNL A   1      45.067  24.997  26.764  1.00  0.00    -0.014 A 
BRANCH  49  50
ATOM     50  C   UNL A   1      44.745  26.142  27.613  1.00  0.00     0.031 A 
ATOM     51  C   UNL A   1      43.403  26.755  27.606  1.00  0.00     0.074 A 
ATOM     52  C   UNL A   1      45.688  26.655  28.434  1.00  0.00     0.049 A 
ATOM     53  N   UNL A   1      43.178  27.999  27.869  1.00  0.00    -0.248 NA
ATOM     54  C   UNL A   1      42.201  26.011  27.256  1.00  0.00     0.031 C 
ATOM     55  C   UNL A   1      45.495  27.630  29.504  1.00  0.00     0.029 A 
ATOM     56  N   UNL A   1      47.071  26.571  28.287  1.00  0.00    -0.354 N 
ATOM     57  C   UNL A   1      41.821  28.152  28.018  1.00  0.00     0.074 A 
ATOM     58  C   UNL A   1      41.253  26.906  27.552  1.00  0.00     0.031 C 
ATOM     59  C   UNL A   1      46.662  28.246  29.744  1.00  0.00     0.029 A 
ATOM     60  C   UNL A   1      47.614  27.779  28.753  1.00  0.00     0.049 A 
ATOM     61  H   UNL A   1      47.574  25.807  27.923  1.00  0.00     0.167 HD
ATOM     62  C   UNL A   1      41.328  29.253  28.656  1.00  0.00     0.034 A 
ATOM     63  C   UNL A   1      48.374  28.576  27.950  1.00  0.00     0.034 A 
ATOM     64  C   UNL A   1      42.388  30.170  29.076  1.00  0.00     0.049 A 
ATOM     65  C   UNL A   1      47.820  29.969  27.773  1.00  0.00     0.074 A 
ATOM     66  C   UNL A   1      42.992  30.412  30.299  1.00  0.00     0.029 A 
ATOM     67  N   UNL A   1      43.161  30.823  28.123  1.00  0.00    -0.354 N 
ATOM     68  N   UNL A   1      46.599  30.319  28.072  1.00  0.00    -0.248 NA
ATOM     69  C   UNL A   1      48.592  31.073  27.218  1.00  0.00     0.031 C 
ATOM     70  C   UNL A   1      44.149  31.202  30.072  1.00  0.00     0.029 A 
ATOM     71  C   UNL A   1      44.238  31.457  28.715  1.00  0.00     0.049 A 
ATOM     72  H   UNL A   1      42.969  30.833  27.157  1.00  0.00     0.167 HD
ATOM     73  C   UNL A   1      46.400  31.639  27.746  1.00  0.00     0.074 A 
ATOM     74  C   UNL A   1      47.691  32.070  27.237  1.00  0.00     0.031 C 
ATOM     75  C   UNL A   1      45.179  32.239  27.919  1.00  0.00     0.034 A 
BRANCH  62  76
ATOM     76  C   UNL A   1      39.909  29.335  29.179  1.00  0.00     0.023 A 
ATOM     77  C   UNL A   1      39.681  29.385  30.571  1.00  0.00     0.031 A 
ATOM     78  C   UNL A   1      38.752  29.325  28.380  1.00  0.00     0.131 A 
ATOM     79  C   UNL A   1      38.383  29.296  31.107  1.00  0.00     0.055 A 
ATOM     80  C   UNL A   1      37.464  29.170  28.910  1.00  0.00     0.041 A 
ATOM     81  F   UNL A   1      38.817  29.516  27.054  1.00  0.00    -0.206 F 
ATOM     82  C   UNL A   1      37.274  29.136  30.283  1.00  0.00     0.022 A 
BRANCH  79  83
ATOM     83  S   UNL A   1      38.162  29.403  32.905  1.00  0.00     0.124 S 
ATOM     84  O   UNL A   1      37.435  28.174  33.205  1.00  0.00    -0.237 OA
ATOM     85  O   UNL A   1      39.539  29.472  33.380  1.00  0.00    -0.237 OA
ATOM     86  O   UNL A   1      37.389  30.633  33.079  1.00  0.00    -0.744 OA
ENDBRANCH  79  83
ENDBRANCH  62  76
BRANCH  63  87
ATOM     87  C   UNL A   1      49.167  27.817  26.944  1.00  0.00     0.023 A 
ATOM     88  C   UNL A   1      48.540  27.539  25.710  1.00  0.00     0.031 A 
ATOM     89  C   UNL A   1      50.563  27.726  27.006  1.00  0.00     0.131 A 
ATOM     90  C   UNL A   1      49.305  27.356  24.551  1.00  0.00     0.055 A 
ATOM     91  C   UNL A   1      51.325  27.470  25.857  1.00  0.00     0.041 A 
ATOM     92  F   UNL A   1      51.217  28.009  28.142  1.00  0.00    -0.206 F 
ATOM     93  C   UNL A   1      50.700  27.330  24.616  1.00  0.00     0.022 A 
BRANCH  90  94
ATOM     94  S   UNL A   1      48.482  27.435  22.932  1.00  0.00     0.124 S 
ATOM     95  O   UNL A   1      47.198  28.037  23.268  1.00  0.00    -0.237 OA
ATOM     96  O   UNL A   1      49.388  28.263  22.140  1.00  0.00    -0.237 OA
ATOM     97  O   UNL A   1      48.435  26.038  22.505  1.00  0.00    -0.744 OA
ENDBRANCH  90  94
ENDBRANCH  63  87
BRANCH  75  98
ATOM     98  C   UNL A   1      44.758  33.627  27.449  1.00  0.00     0.023 A 
ATOM     99  C   UNL A   1      45.051  34.815  28.133  1.00  0.00     0.031 A 
ATOM    100  C   UNL A   1      44.061  33.802  26.223  1.00  0.00     0.131 A 
ATOM    101  C   UNL A   1      44.621  36.071  27.655  1.00  0.00     0.055 A 
ATOM    102  C   UNL A   1      43.685  35.052  25.720  1.00  0.00     0.041 A 
ATOM    103  F   UNL A   1      43.723  32.766  25.443  1.00  0.00    -0.206 F 
ATOM    104  C   UNL A   1      43.953  36.200  26.443  1.00  0.00     0.022 A 
BRANCH 101 105
ATOM    105  S   UNL A   1      44.926  37.531  28.686  1.00  0.00     0.124 S 
ATOM    106  O   UNL A   1      46.322  37.342  29.072  1.00  0.00    -0.237 OA
ATOM    107  O   UNL A   1      44.669  38.627  27.758  1.00  0.00    -0.237 OA
ATOM    108  O   UNL A   1      43.957  37.396  29.773  1.00  0.00    -0.744 OA
ENDBRANCH 101 105
ENDBRANCH  75  98
ENDBRANCH  49  50
ENDBRANCH  41  44
ENDBRANCH  39  40
ENDBRANCH   1  39
TORSDOF 16
ENDMDL
MODEL 3
REMARK VINA RESULT:     -13.9      5.230     10.626
REMARK SMILES Cc1ccc(NC(=O)c2cnn3c2NC2=C(C(=O)CCC2)[C@H]3c2ccc(C(=O)NCCCNC(=O)c3ccc(-c4c5nc(c(-c6cc(S(=O)(=O)[O-])ccc6F)c6ccc([nH]6)c(-c6cc(S(=O)(=O)[O-])ccc6F)c6nc(c(-c7cc(S(=O)(=O)[O-])ccc7F)c7ccc4[nH]7)C=C6)C=C5)cc3)cc2)cc1
REMARK SMILES IDX 31 1 30 2 29 3 27 4 28 5 26 7 23 8 24 9 100 10 25 11 99 12
REMARK SMILES IDX 22 13 9 14 10 15 13 16 11 17 12 18 14 19 15 20 16 22 21 23
REMARK SMILES IDX 17 24 20 25 18 26 19 27 7 28 6 29 8 31 5 32 1 33 2 34 3 35
REMARK SMILES IDX 102 36 4 37 101 38 32 39 33 40 34 41 35 43 36 44 37 45 98 46
REMARK SMILES IDX 38 47 97 48 39 49 40 50 41 51 91 52 42 53 96 54 90 55 92 56
REMARK SMILES IDX 43 57 95 58 89 59 88 60 44 62 76 63 56 64 75 65 57 66 60 67
REMARK SMILES IDX 74 68 93 69 58 70 59 71 73 73 94 74 61 75 45 76 46 77 54 78
REMARK SMILES IDX 47 79 53 80 55 81 52 82 48 83 49 84 50 85 51 86 77 87 78 88
REMARK SMILES IDX 86 89 79 90 85 91 87 92 84 93 80 94 81 95 82 96 83 97 62 98
REMARK SMILES IDX 63 99 71 100 64 101 70 102 72 103 69 104 65 105 66 106
REMARK SMILES IDX 67 107 68 108
REMARK H PARENT 29 6 14 21 6 30 33 42 92 61 60 72
REMARK Flexibility Score: inf
ROOT
ATOM      1  C   UNL A   1      41.237  22.723  26.846  1.00  0.00     0.042 C 
ENDROOT
BRANCH   1   2
ATOM      2  C   UNL A   1      39.743  22.461  26.656  1.00  0.00     0.118 C 
BRANCH   2   3
ATOM      3  N   UNL A   1      39.472  21.091  26.228  1.00  0.00    -0.352 N 
ATOM      4  C   UNL A   1      38.480  20.541  25.447  1.00  0.00     0.251 C 
ATOM      5  O   UNL A   1      38.569  19.357  25.119  1.00  0.00    -0.269 OA
ATOM      6  H   UNL A   1      40.124  20.434  26.563  1.00  0.00     0.163 HD
BRANCH   4   7
ATOM      7  C   UNL A   1      37.320  21.321  24.923  1.00  0.00     0.039 A 
ATOM      8  C   UNL A   1      34.988  22.507  23.808  1.00  0.00    -0.019 A 
ATOM      9  C   UNL A   1      34.892  21.621  24.894  1.00  0.00     0.007 A 
ATOM     10  C   UNL A   1      36.277  22.955  23.466  1.00  0.00     0.007 A 
ATOM     11  C   UNL A   1      36.045  21.029  25.434  1.00  0.00     0.014 A 
ATOM     12  C   UNL A   1      37.425  22.350  23.993  1.00  0.00     0.014 A 
BRANCH   8  13
ATOM     13  C   UNL A   1      33.754  22.804  22.898  1.00  0.00     0.175 C 
ATOM     14  C   UNL A   1      31.224  23.295  25.385  1.00  0.00     0.102 A 
ATOM     15  C   UNL A   1      30.753  22.180  24.627  1.00  0.00     0.151 A 
ATOM     16  C   UNL A   1      32.247  23.790  24.608  1.00  0.00     0.142 A 
ATOM     17  N   UNL A   1      31.560  21.846  23.611  1.00  0.00    -0.178 NA
ATOM     18  N   UNL A   1      32.526  22.775  23.706  1.00  0.00    -0.237 N 
ATOM     19  N   UNL A   1      33.004  24.928  24.533  1.00  0.00    -0.343 N 
ATOM     20  C   UNL A   1      33.637  25.238  23.318  1.00  0.00     0.026 C 
ATOM     21  H   UNL A   1      33.102  25.519  25.315  1.00  0.00     0.168 HD
ATOM     22  C   UNL A   1      33.791  24.239  22.413  1.00  0.00     0.044 C 
ATOM     23  C   UNL A   1      33.825  26.671  22.909  1.00  0.00     0.055 C 
ATOM     24  C   UNL A   1      33.252  24.563  21.069  1.00  0.00     0.163 C 
ATOM     25  C   UNL A   1      33.134  26.998  21.580  1.00  0.00     0.014 C 
ATOM     26  O   UNL A   1      33.365  23.778  20.134  1.00  0.00    -0.294 OA
ATOM     27  C   UNL A   1      32.382  25.809  20.996  1.00  0.00     0.081 C 
BRANCH  14  28
ATOM     28  C   UNL A   1      30.706  23.842  26.618  1.00  0.00     0.261 C 
ATOM     29  N   UNL A   1      30.450  25.199  26.706  1.00  0.00    -0.322 N 
ATOM     30  H   UNL A   1      30.349  25.529  27.628  1.00  0.00     0.170 HD
ATOM     31  O   UNL A   1      30.546  23.135  27.614  1.00  0.00    -0.269 OA
BRANCH  29  32
ATOM     32  C   UNL A   1      30.310  26.196  25.719  1.00  0.00     0.041 A 
ATOM     33  C   UNL A   1      30.242  29.202  22.609  1.00  0.00     0.044 C 
ATOM     34  C   UNL A   1      30.236  28.195  23.720  1.00  0.00    -0.051 A 
ATOM     35  C   UNL A   1      29.392  27.088  23.648  1.00  0.00     0.005 A 
ATOM     36  C   UNL A   1      31.084  28.321  24.824  1.00  0.00     0.005 A 
ATOM     37  C   UNL A   1      29.406  26.123  24.658  1.00  0.00     0.026 A 
ATOM     38  C   UNL A   1      31.112  27.335  25.821  1.00  0.00     0.026 A 
ENDBRANCH  29  32
ENDBRANCH  14  28
ENDBRANCH   8  13
ENDBRANCH   4   7
ENDBRANCH   2   3
ENDBRANCH   1   2
BRANCH   1  39
ATOM     39  C   UNL A   1      42.002  22.997  25.552  1.00  0.00     0.118 C 
BRANCH  39  40
ATOM     40  N   UNL A   1      42.893  21.895  25.182  1.00  0.00    -0.352 N 
ATOM     41  C   UNL A   1      44.258  21.762  25.389  1.00  0.00     0.251 C 
ATOM     42  H   UNL A   1      42.462  21.139  24.720  1.00  0.00     0.163 HD
ATOM     43  O   UNL A   1      44.885  20.784  25.032  1.00  0.00    -0.269 OA
BRANCH  41  44
ATOM     44  C   UNL A   1      44.926  22.815  26.185  1.00  0.00     0.039 A 
ATOM     45  C   UNL A   1      44.918  22.655  27.575  1.00  0.00     0.014 A 
ATOM     46  C   UNL A   1      45.249  24.033  25.597  1.00  0.00     0.014 A 
ATOM     47  C   UNL A   1      44.983  23.785  28.382  1.00  0.00     0.010 A 
ATOM     48  C   UNL A   1      45.230  25.164  26.395  1.00  0.00     0.010 A 
ATOM     49  C   UNL A   1      45.017  25.043  27.776  1.00  0.00    -0.014 A 
BRANCH  49  50
ATOM     50  C   UNL A   1      44.623  26.254  28.491  1.00  0.00     0.031 A 
ATOM     51  C   UNL A   1      43.243  26.772  28.430  1.00  0.00     0.074 A 
ATOM     52  C   UNL A   1      45.533  26.921  29.234  1.00  0.00     0.049 A 
ATOM     53  N   UNL A   1      42.935  28.020  28.550  1.00  0.00    -0.248 NA
ATOM     54  C   UNL A   1      42.092  25.914  28.184  1.00  0.00     0.031 C 
ATOM     55  C   UNL A   1      45.281  27.999  30.186  1.00  0.00     0.029 A 
ATOM     56  N   UNL A   1      46.918  26.912  29.079  1.00  0.00    -0.354 N 
ATOM     57  C   UNL A   1      41.572  28.099  28.699  1.00  0.00     0.074 A 
ATOM     58  C   UNL A   1      41.087  26.772  28.387  1.00  0.00     0.031 C 
ATOM     59  C   UNL A   1      46.404  28.715  30.338  1.00  0.00     0.029 A 
ATOM     60  C   UNL A   1      47.380  28.200  29.396  1.00  0.00     0.049 A 
ATOM     61  H   UNL A   1      47.470  26.146  28.800  1.00  0.00     0.167 HD
ATOM     62  C   UNL A   1      41.009  29.231  29.212  1.00  0.00     0.034 A 
ATOM     63  C   UNL A   1      48.081  28.947  28.496  1.00  0.00     0.034 A 
ATOM     64  C   UNL A   1      42.007  30.259  29.508  1.00  0.00     0.049 A 
ATOM     65  C   UNL A   1      47.432  30.270  28.166  1.00  0.00     0.074 A 
ATOM     66  C   UNL A   1      42.599  30.682  30.687  1.00  0.00     0.029 A 
ATOM     67  N   UNL A   1      42.729  30.847  28.476  1.00  0.00    -0.354 N 
ATOM     68  N   UNL A   1      46.193  30.571  28.439  1.00  0.00    -0.248 NA
ATOM     69  C   UNL A   1      48.126  31.351  27.476  1.00  0.00     0.031 C 
ATOM     70  C   UNL A   1      43.699  31.516  30.355  1.00  0.00     0.029 A 
ATOM     71  C   UNL A   1      43.763  31.616  28.976  1.00  0.00     0.049 A 
ATOM     72  H   UNL A   1      42.531  30.732  27.518  1.00  0.00     0.167 HD
ATOM     73  C   UNL A   1      45.903  31.828  27.965  1.00  0.00     0.074 A 
ATOM     74  C   UNL A   1      47.159  32.281  27.392  1.00  0.00     0.031 C 
ATOM     75  C   UNL A   1      44.646  32.361  28.083  1.00  0.00     0.034 A 
BRANCH  62  76
ATOM     76  C   UNL A   1      39.590  29.279  29.740  1.00  0.00     0.023 A 
ATOM     77  C   UNL A   1      38.647  30.133  29.129  1.00  0.00     0.031 A 
ATOM     78  C   UNL A   1      39.117  28.556  30.850  1.00  0.00     0.131 A 
ATOM     79  C   UNL A   1      37.370  30.334  29.684  1.00  0.00     0.055 A 
ATOM     80  C   UNL A   1      37.872  28.804  31.443  1.00  0.00     0.041 A 
ATOM     81  F   UNL A   1      39.822  27.544  31.378  1.00  0.00    -0.206 F 
ATOM     82  C   UNL A   1      36.995  29.712  30.870  1.00  0.00     0.022 A 
BRANCH  79  83
ATOM     83  S   UNL A   1      36.196  31.419  28.825  1.00  0.00     0.124 S 
ATOM     84  O   UNL A   1      35.163  31.625  29.835  1.00  0.00    -0.237 OA
ATOM     85  O   UNL A   1      37.025  32.575  28.503  1.00  0.00    -0.237 OA
ATOM     86  O   UNL A   1      35.779  30.621  27.672  1.00  0.00    -0.744 OA
ENDBRANCH  79  83
ENDBRANCH  62  76
BRANCH  63  87
ATOM     87  C   UNL A   1      48.918  28.131  27.574  1.00  0.00     0.023 A 
ATOM     88  C   UNL A   1      48.332  27.743  26.349  1.00  0.00     0.031 A 
ATOM     89  C   UNL A   1      50.313  28.078  27.680  1.00  0.00     0.131 A 
ATOM     90  C   UNL A   1      49.134  27.489  25.229  1.00  0.00     0.055 A 
ATOM     91  C   UNL A   1      51.112  27.751  26.576  1.00  0.00     0.041 A 
ATOM     92  F   UNL A   1      50.929  28.463  28.808  1.00  0.00    -0.206 F 
ATOM     93  C   UNL A   1      50.526  27.500  25.334  1.00  0.00     0.022 A 
BRANCH  90  94
ATOM     94  S   UNL A   1      48.355  27.421  23.587  1.00  0.00     0.124 S 
ATOM     95  O   UNL A   1      48.193  25.987  23.382  1.00  0.00    -0.237 OA
ATOM     96  O   UNL A   1      47.122  28.184  23.775  1.00  0.00    -0.237 OA
ATOM     97  O   UNL A   1      49.329  28.081  22.720  1.00  0.00    -0.744 OA
ENDBRANCH  90  94
ENDBRANCH  63  87
BRANCH  75  98
ATOM     98  C   UNL A   1      44.129  33.654  27.461  1.00  0.00     0.023 A 
ATOM     99  C   UNL A   1      44.027  34.874  28.145  1.00  0.00     0.031 A 
ATOM    100  C   UNL A   1      43.753  33.705  26.092  1.00  0.00     0.131 A 
ATOM    101  C   UNL A   1      43.527  36.034  27.518  1.00  0.00     0.055 A 
ATOM    102  C   UNL A   1      43.311  34.870  25.455  1.00  0.00     0.041 A 
ATOM    103  F   UNL A   1      43.810  32.627  25.297  1.00  0.00    -0.206 F 
ATOM    104  C   UNL A   1      43.183  36.046  26.172  1.00  0.00     0.022 A 
BRANCH 101 105
ATOM    105  S   UNL A   1      43.301  37.524  28.528  1.00  0.00     0.124 S 
ATOM    106  O   UNL A   1      41.870  37.778  28.374  1.00  0.00    -0.237 OA
ATOM    107  O   UNL A   1      43.724  37.073  29.849  1.00  0.00    -0.237 OA
ATOM    108  O   UNL A   1      44.178  38.508  27.896  1.00  0.00    -0.744 OA
ENDBRANCH 101 105
ENDBRANCH  75  98
ENDBRANCH  49  50
ENDBRANCH  41  44
ENDBRANCH  39  40
ENDBRANCH   1  39
TORSDOF 16
ENDMDL
