MODEL 1
REMARK VINA RESULT:     -12.9      0.000      0.000
REMARK SMILES O=C(NCCCNC(=O)c1[nH]ncc1C[N@H+]1CCC[C@H](C(=O)c2ccc3ccccc3c2)C1)c1ccc(-c2c3nc(c(-c4cc(S(=O)(=O)[O-])ccc4F)c4ccc([nH]4)c(-c4cc(S(=O)(=O)[O-])ccc4F)c4nc(c(-c5cc(S(=O)(=O)[O-])ccc5F)c5ccc2[nH]5)C=C4)C=C3)cc1
REMARK SMILES IDX 5 1 4 2 3 3 1 4 2 5 34 7 35 8 96 9 36 10 95 11 37 12 38 13
REMARK SMILES IDX 39 14 89 15 40 16 94 17 88 18 90 19 41 20 93 21 87 22 86 23
REMARK SMILES IDX 42 25 74 26 54 27 73 28 55 29 58 30 72 31 91 32 56 33 57 34
REMARK SMILES IDX 71 36 92 37 59 38 43 39 44 40 52 41 45 42 51 43 53 44 50 45
REMARK SMILES IDX 46 46 47 47 48 48 49 49 75 50 76 51 84 52 77 53 83 54 85 55
REMARK SMILES IDX 82 56 78 57 79 58 80 59 81 60 60 61 61 62 69 63 62 64 68 65
REMARK SMILES IDX 70 66 67 67 63 68 64 69 65 70 66 71 6 72 7 73 8 74 9 76
REMARK SMILES IDX 10 77 11 78 14 79 12 80 13 82 15 83 16 84 17 85 33 86 18 88
REMARK SMILES IDX 20 89 19 90 21 91 22 92 23 93 24 94 32 95 25 96 31 97 26 98
REMARK SMILES IDX 30 99 27 100 29 101 28 102
REMARK H PARENT 3 6 90 24 58 35 7 75 11 81 16 87
REMARK Flexibility Score: inf
ROOT
ATOM      1  C   UNL A   1      31.401  32.279  26.585  1.00  0.00     0.042 C 
ENDROOT
BRANCH   1   2
ATOM      2  C   UNL A   1      32.727  32.687  27.217  1.00  0.00     0.118 C 
BRANCH   2   3
ATOM      3  N   UNL A   1      32.715  34.056  27.714  1.00  0.00    -0.352 N 
ATOM      4  O   UNL A   1      33.052  35.764  29.126  1.00  0.00    -0.269 OA
ATOM      5  C   UNL A   1      33.389  34.639  28.759  1.00  0.00     0.251 C 
ATOM      6  H   UNL A   1      32.124  34.666  27.217  1.00  0.00     0.163 HD
BRANCH   5   7
ATOM      7  C   UNL A   1      34.496  33.940  29.455  1.00  0.00     0.039 A 
ATOM      8  C   UNL A   1      34.254  32.914  30.369  1.00  0.00     0.014 A 
ATOM      9  C   UNL A   1      35.816  34.271  29.122  1.00  0.00     0.014 A 
ATOM     10  C   UNL A   1      35.316  32.314  31.044  1.00  0.00     0.010 A 
ATOM     11  C   UNL A   1      36.885  33.616  29.744  1.00  0.00     0.010 A 
ATOM     12  C   UNL A   1      36.644  32.652  30.733  1.00  0.00    -0.014 A 
BRANCH  12  13
ATOM     13  C   UNL A   1      37.755  31.951  31.426  1.00  0.00     0.031 A 
ATOM     14  C   UNL A   1      38.543  30.872  30.733  1.00  0.00     0.074 A 
ATOM     15  C   UNL A   1      38.077  32.318  32.681  1.00  0.00     0.049 A 
ATOM     16  N   UNL A   1      39.568  30.187  31.174  1.00  0.00    -0.248 NA
ATOM     17  C   UNL A   1      38.114  30.505  29.376  1.00  0.00     0.031 C 
ATOM     18  C   UNL A   1      37.369  33.329  33.473  1.00  0.00     0.029 A 
ATOM     19  N   UNL A   1      39.094  31.906  33.503  1.00  0.00    -0.354 N 
ATOM     20  C   UNL A   1      39.890  29.288  30.164  1.00  0.00     0.074 A 
ATOM     21  C   UNL A   1      38.941  29.507  29.092  1.00  0.00     0.031 C 
ATOM     22  C   UNL A   1      38.005  33.494  34.643  1.00  0.00     0.029 A 
ATOM     23  C   UNL A   1      39.140  32.579  34.700  1.00  0.00     0.049 A 
ATOM     24  H   UNL A   1      39.730  31.195  33.259  1.00  0.00     0.167 HD
ATOM     25  C   UNL A   1      40.887  28.369  30.131  1.00  0.00     0.034 A 
ATOM     26  C   UNL A   1      39.999  32.473  35.731  1.00  0.00     0.034 A 
ATOM     27  C   UNL A   1      41.849  28.174  31.187  1.00  0.00     0.049 A 
ATOM     28  C   UNL A   1      41.117  31.478  35.654  1.00  0.00     0.074 A 
ATOM     29  C   UNL A   1      42.930  27.309  31.227  1.00  0.00     0.029 A 
ATOM     30  N   UNL A   1      41.846  28.858  32.395  1.00  0.00    -0.354 N 
ATOM     31  N   UNL A   1      41.407  30.639  34.688  1.00  0.00    -0.248 NA
ATOM     32  C   UNL A   1      42.016  31.407  36.813  1.00  0.00     0.031 C 
ATOM     33  C   UNL A   1      43.560  27.445  32.471  1.00  0.00     0.029 A 
ATOM     34  C   UNL A   1      42.892  28.420  33.194  1.00  0.00     0.049 A 
ATOM     35  H   UNL A   1      41.197  29.553  32.649  1.00  0.00     0.167 HD
ATOM     36  C   UNL A   1      42.513  29.926  35.131  1.00  0.00     0.074 A 
ATOM     37  C   UNL A   1      42.854  30.451  36.439  1.00  0.00     0.031 C 
ATOM     38  C   UNL A   1      43.186  28.925  34.512  1.00  0.00     0.034 A 
BRANCH  25  39
ATOM     39  C   UNL A   1      40.948  27.473  28.921  1.00  0.00     0.023 A 
ATOM     40  C   UNL A   1      41.921  27.650  27.924  1.00  0.00     0.031 A 
ATOM     41  C   UNL A   1      39.993  26.455  28.749  1.00  0.00     0.131 A 
ATOM     42  C   UNL A   1      41.883  26.858  26.765  1.00  0.00     0.055 A 
ATOM     43  C   UNL A   1      39.993  25.633  27.621  1.00  0.00     0.041 A 
ATOM     44  F   UNL A   1      39.032  26.259  29.665  1.00  0.00    -0.206 F 
ATOM     45  C   UNL A   1      40.934  25.840  26.616  1.00  0.00     0.022 A 
BRANCH  42  46
ATOM     46  S   UNL A   1      43.016  27.254  25.405  1.00  0.00     0.124 S 
ATOM     47  O   UNL A   1      43.204  25.945  24.783  1.00  0.00    -0.237 OA
ATOM     48  O   UNL A   1      42.252  28.225  24.630  1.00  0.00    -0.237 OA
ATOM     49  O   UNL A   1      44.194  27.787  26.086  1.00  0.00    -0.744 OA
ENDBRANCH  42  46
ENDBRANCH  25  39
BRANCH  26  50
ATOM     50  C   UNL A   1      39.809  33.321  36.935  1.00  0.00     0.023 A 
ATOM     51  C   UNL A   1      39.098  32.840  38.049  1.00  0.00     0.031 A 
ATOM     52  C   UNL A   1      40.360  34.616  36.986  1.00  0.00     0.131 A 
ATOM     53  C   UNL A   1      38.946  33.660  39.178  1.00  0.00     0.055 A 
ATOM     54  C   UNL A   1      40.221  35.422  38.116  1.00  0.00     0.041 A 
ATOM     55  F   UNL A   1      41.059  35.101  35.946  1.00  0.00    -0.206 F 
ATOM     56  C   UNL A   1      39.508  34.944  39.218  1.00  0.00     0.022 A 
BRANCH  53  57
ATOM     57  S   UNL A   1      37.994  33.019  40.596  1.00  0.00     0.124 S 
ATOM     58  O   UNL A   1      38.310  33.987  41.641  1.00  0.00    -0.237 OA
ATOM     59  O   UNL A   1      36.627  33.052  40.086  1.00  0.00    -0.237 OA
ATOM     60  O   UNL A   1      38.545  31.682  40.800  1.00  0.00    -0.744 OA
ENDBRANCH  53  57
ENDBRANCH  26  50
BRANCH  38  61
ATOM     61  C   UNL A   1      44.343  28.337  35.267  1.00  0.00     0.023 A 
ATOM     62  C   UNL A   1      45.624  28.913  35.183  1.00  0.00     0.031 A 
ATOM     63  C   UNL A   1      44.175  27.175  36.037  1.00  0.00     0.131 A 
ATOM     64  C   UNL A   1      46.705  28.299  35.831  1.00  0.00     0.055 A 
ATOM     65  C   UNL A   1      45.247  26.583  36.705  1.00  0.00     0.041 A 
ATOM     66  F   UNL A   1      42.969  26.591  36.139  1.00  0.00    -0.206 F 
ATOM     67  C   UNL A   1      46.522  27.141  36.597  1.00  0.00     0.022 A 
BRANCH  64  68
ATOM     68  S   UNL A   1      48.366  29.003  35.618  1.00  0.00     0.124 S 
ATOM     69  O   UNL A   1      48.656  28.688  34.223  1.00  0.00    -0.237 OA
ATOM     70  O   UNL A   1      48.153  30.415  35.922  1.00  0.00    -0.237 OA
ATOM     71  O   UNL A   1      49.174  28.278  36.597  1.00  0.00    -0.744 OA
ENDBRANCH  64  68
ENDBRANCH  38  61
ENDBRANCH  12  13
ENDBRANCH   5   7
ENDBRANCH   2   3
ENDBRANCH   1   2
BRANCH   1  72
ATOM     72  C   UNL A   1      31.393  30.875  25.991  1.00  0.00     0.118 C 
BRANCH  72  73
ATOM     73  N   UNL A   1      32.320  29.979  26.670  1.00  0.00    -0.351 N 
ATOM     74  C   UNL A   1      32.988  28.882  26.192  1.00  0.00     0.269 C 
ATOM     75  H   UNL A   1      32.493  30.194  27.614  1.00  0.00     0.163 HD
ATOM     76  O   UNL A   1      33.494  28.110  27.002  1.00  0.00    -0.268 OA
BRANCH  74  77
ATOM     77  C   UNL A   1      33.052  28.647  24.778  1.00  0.00     0.131 A 
ATOM     78  N   UNL A   1      33.994  29.255  23.993  1.00  0.00    -0.272 N 
ATOM     79  C   UNL A   1      32.235  27.942  23.900  1.00  0.00     0.057 A 
ATOM     80  N   UNL A   1      33.929  28.910  22.698  1.00  0.00    -0.183 NA
ATOM     81  H   UNL A   1      34.660  29.888  24.347  1.00  0.00     0.190 HD
ATOM     82  C   UNL A   1      32.870  28.101  22.645  1.00  0.00     0.145 A 
BRANCH  79  83
ATOM     83  C   UNL A   1      30.988  27.181  24.216  1.00  0.00     0.303 C 
BRANCH  83  84
ATOM     84  N   UNL A   1      31.204  25.830  24.735  1.00  0.00    -0.330 N 
ATOM     85  C   UNL A   1      31.009  25.691  26.178  1.00  0.00     0.262 C 
ATOM     86  C   UNL A   1      30.539  24.777  23.974  1.00  0.00     0.274 C 
ATOM     87  H   UNL A   1      32.203  25.684  24.586  1.00  0.00     0.348 HD
ATOM     88  C   UNL A   1      31.623  24.381  26.663  1.00  0.00     0.062 C 
ATOM     89  C   UNL A   1      31.069  23.391  24.356  1.00  0.00     0.116 C 
ATOM     90  C   UNL A   1      31.133  23.168  25.871  1.00  0.00     0.023 C 
BRANCH  89  91
ATOM     91  C   UNL A   1      32.351  23.020  23.607  1.00  0.00     0.171 C 
ATOM     92  O   UNL A   1      32.855  23.772  22.772  1.00  0.00    -0.294 OA
BRANCH  91  93
ATOM     93  C   UNL A   1      33.029  21.733  23.864  1.00  0.00     0.019 A 
ATOM     94  C   UNL A   1      34.170  21.708  24.666  1.00  0.00     0.012 A 
ATOM     95  C   UNL A   1      32.464  20.546  23.389  1.00  0.00     0.020 A 
ATOM     96  C   UNL A   1      34.789  20.488  24.944  1.00  0.00     0.009 A 
ATOM     97  C   UNL A   1      33.072  19.311  23.673  1.00  0.00    -0.018 A 
ATOM     98  C   UNL A   1      34.254  19.284  24.454  1.00  0.00    -0.018 A 
ATOM     99  C   UNL A   1      32.530  18.100  23.207  1.00  0.00     0.009 A 
ATOM    100  C   UNL A   1      34.864  18.050  24.735  1.00  0.00     0.009 A 
ATOM    101  C   UNL A   1      33.148  16.881  23.498  1.00  0.00     0.001 A 
ATOM    102  C   UNL A   1      34.314  16.858  24.260  1.00  0.00     0.001 A 
ENDBRANCH  91  93
ENDBRANCH  89  91
ENDBRANCH  83  84
ENDBRANCH  79  83
ENDBRANCH  74  77
ENDBRANCH  72  73
ENDBRANCH   1  72
TORSDOF 17
ENDMDL
MODEL 2
REMARK VINA RESULT:     -12.8      2.070      7.601
REMARK SMILES O=C(NCCCNC(=O)c1[nH]ncc1C[N@H+]1CCC[C@H](C(=O)c2ccc3ccccc3c2)C1)c1ccc(-c2c3nc(c(-c4cc(S(=O)(=O)[O-])ccc4F)c4ccc([nH]4)c(-c4cc(S(=O)(=O)[O-])ccc4F)c4nc(c(-c5cc(S(=O)(=O)[O-])ccc5F)c5ccc2[nH]5)C=C4)C=C3)cc1
REMARK SMILES IDX 5 1 4 2 3 3 1 4 2 5 34 7 35 8 96 9 36 10 95 11 37 12 38 13
REMARK SMILES IDX 39 14 89 15 40 16 94 17 88 18 90 19 41 20 93 21 87 22 86 23
REMARK SMILES IDX 42 25 74 26 54 27 73 28 55 29 58 30 72 31 91 32 56 33 57 34
REMARK SMILES IDX 71 36 92 37 59 38 43 39 44 40 52 41 45 42 51 43 53 44 50 45
REMARK SMILES IDX 46 46 47 47 48 48 49 49 75 50 76 51 84 52 77 53 83 54 85 55
REMARK SMILES IDX 82 56 78 57 79 58 80 59 81 60 60 61 61 62 69 63 62 64 68 65
REMARK SMILES IDX 70 66 67 67 63 68 64 69 65 70 66 71 6 72 7 73 8 74 9 76
REMARK SMILES IDX 10 77 11 78 14 79 12 80 13 82 15 83 16 84 17 85 33 86 18 88
REMARK SMILES IDX 20 89 19 90 21 91 22 92 23 93 24 94 32 95 25 96 31 97 26 98
REMARK SMILES IDX 30 99 27 100 29 101 28 102
REMARK H PARENT 3 6 90 24 58 35 7 75 11 81 16 87
REMARK Flexibility Score: inf
ROOT
ATOM      1  C   UNL A   1      31.402  31.915  26.459  1.00  0.00     0.042 C 
ENDROOT
BRANCH   1   2
ATOM      2  C   UNL A   1      32.737  32.407  27.008  1.00  0.00     0.118 C 
BRANCH   2   3
ATOM      3  N   UNL A   1      32.641  33.727  27.616  1.00  0.00    -0.352 N 
ATOM      4  O   UNL A   1      32.916  35.342  29.147  1.00  0.00    -0.269 OA
ATOM      5  C   UNL A   1      33.322  34.282  28.673  1.00  0.00     0.251 C 
ATOM      6  H   UNL A   1      31.978  34.322  27.200  1.00  0.00     0.163 HD
BRANCH   5   7
ATOM      7  C   UNL A   1      34.517  33.625  29.256  1.00  0.00     0.039 A 
ATOM      8  C   UNL A   1      34.410  32.491  30.061  1.00  0.00     0.014 A 
ATOM      9  C   UNL A   1      35.785  34.118  28.921  1.00  0.00     0.014 A 
ATOM     10  C   UNL A   1      35.551  31.932  30.635  1.00  0.00     0.010 A 
ATOM     11  C   UNL A   1      36.935  33.510  29.437  1.00  0.00     0.010 A 
ATOM     12  C   UNL A   1      36.827  32.429  30.323  1.00  0.00    -0.014 A 
BRANCH  12  13
ATOM     13  C   UNL A   1      38.026  31.772  30.903  1.00  0.00     0.031 A 
ATOM     14  C   UNL A   1      38.472  32.071  32.308  1.00  0.00     0.074 A 
ATOM     15  C   UNL A   1      38.697  30.869  30.162  1.00  0.00     0.049 A 
ATOM     16  N   UNL A   1      39.469  31.559  32.984  1.00  0.00    -0.248 NA
ATOM     17  C   UNL A   1      37.708  33.089  33.044  1.00  0.00     0.031 C 
ATOM     18  C   UNL A   1      38.384  30.514  28.775  1.00  0.00     0.029 A 
ATOM     19  N   UNL A   1      39.763  30.066  30.477  1.00  0.00    -0.354 N 
ATOM     20  C   UNL A   1      39.474  32.210  34.212  1.00  0.00     0.074 A 
ATOM     21  C   UNL A   1      38.385  33.166  34.181  1.00  0.00     0.031 C 
ATOM     22  C   UNL A   1      39.206  29.530  28.377  1.00  0.00     0.029 A 
ATOM     23  C   UNL A   1      40.123  29.209  29.465  1.00  0.00     0.049 A 
ATOM     24  H   UNL A   1      40.228  30.101  31.345  1.00  0.00     0.167 HD
ATOM     25  C   UNL A   1      40.304  32.026  35.269  1.00  0.00     0.034 A 
ATOM     26  C   UNL A   1      41.085  28.269  29.415  1.00  0.00     0.034 A 
ATOM     27  C   UNL A   1      41.366  31.053  35.308  1.00  0.00     0.049 A 
ATOM     28  C   UNL A   1      41.965  28.055  30.611  1.00  0.00     0.074 A 
ATOM     29  C   UNL A   1      42.227  30.749  36.351  1.00  0.00     0.029 A 
ATOM     30  N   UNL A   1      41.715  30.221  34.253  1.00  0.00    -0.354 N 
ATOM     31  N   UNL A   1      41.950  28.680  31.764  1.00  0.00    -0.248 NA
ATOM     32  C   UNL A   1      42.998  27.019  30.491  1.00  0.00     0.031 C 
ATOM     33  C   UNL A   1      43.117  29.759  35.915  1.00  0.00     0.029 A 
ATOM     34  C   UNL A   1      42.790  29.420  34.612  1.00  0.00     0.049 A 
ATOM     35  H   UNL A   1      41.267  30.201  33.378  1.00  0.00     0.167 HD
ATOM     36  C   UNL A   1      42.985  28.123  32.504  1.00  0.00     0.074 A 
ATOM     37  C   UNL A   1      43.587  27.096  31.676  1.00  0.00     0.031 C 
ATOM     38  C   UNL A   1      43.403  28.435  33.756  1.00  0.00     0.034 A 
BRANCH  25  39
ATOM     39  C   UNL A   1      40.113  32.938  36.453  1.00  0.00     0.023 A 
ATOM     40  C   UNL A   1      39.322  32.562  37.551  1.00  0.00     0.031 A 
ATOM     41  C   UNL A   1      40.701  34.216  36.459  1.00  0.00     0.131 A 
ATOM     42  C   UNL A   1      39.090  33.480  38.588  1.00  0.00     0.055 A 
ATOM     43  C   UNL A   1      40.513  35.104  37.520  1.00  0.00     0.041 A 
ATOM     44  F   UNL A   1      41.449  34.628  35.424  1.00  0.00    -0.206 F 
ATOM     45  C   UNL A   1      39.694  34.742  38.586  1.00  0.00     0.022 A 
BRANCH  42  46
ATOM     46  S   UNL A   1      37.895  33.044  39.881  1.00  0.00     0.124 S 
ATOM     47  O   UNL A   1      37.900  34.247  40.710  1.00  0.00    -0.237 OA
ATOM     48  O   UNL A   1      36.676  32.801  39.117  1.00  0.00    -0.237 OA
ATOM     49  O   UNL A   1      38.484  31.862  40.508  1.00  0.00    -0.744 OA
ENDBRANCH  42  46
ENDBRANCH  25  39
BRANCH  26  50
ATOM     50  C   UNL A   1      41.278  27.480  28.172  1.00  0.00     0.023 A 
ATOM     51  C   UNL A   1      40.900  26.127  28.113  1.00  0.00     0.031 A 
ATOM     52  C   UNL A   1      41.826  28.086  27.025  1.00  0.00     0.131 A 
ATOM     53  C   UNL A   1      41.084  25.411  26.920  1.00  0.00     0.055 A 
ATOM     54  C   UNL A   1      41.991  27.376  25.836  1.00  0.00     0.041 A 
ATOM     55  F   UNL A   1      42.182  29.381  27.042  1.00  0.00    -0.206 F 
ATOM     56  C   UNL A   1      41.622  26.030  25.782  1.00  0.00     0.022 A 
BRANCH  53  57
ATOM     57  S   UNL A   1      40.611  23.649  26.881  1.00  0.00     0.124 S 
ATOM     58  O   UNL A   1      40.903  23.221  28.244  1.00  0.00    -0.237 OA
ATOM     59  O   UNL A   1      39.198  23.720  26.521  1.00  0.00    -0.237 OA
ATOM     60  O   UNL A   1      41.482  23.086  25.852  1.00  0.00    -0.744 OA
ENDBRANCH  53  57
ENDBRANCH  26  50
BRANCH  38  61
ATOM     61  C   UNL A   1      44.575  27.656  34.278  1.00  0.00     0.023 A 
ATOM     62  C   UNL A   1      44.382  26.489  35.039  1.00  0.00     0.031 A 
ATOM     63  C   UNL A   1      45.887  28.105  34.051  1.00  0.00     0.131 A 
ATOM     64  C   UNL A   1      45.490  25.825  35.584  1.00  0.00     0.055 A 
ATOM     65  C   UNL A   1      46.988  27.425  34.570  1.00  0.00     0.041 A 
ATOM     66  F   UNL A   1      46.114  29.217  33.333  1.00  0.00    -0.206 F 
ATOM     67  C   UNL A   1      46.792  26.283  35.348  1.00  0.00     0.022 A 
BRANCH  64  68
ATOM     68  S   UNL A   1      45.205  24.382  36.651  1.00  0.00     0.124 S 
ATOM     69  O   UNL A   1      46.531  24.152  37.216  1.00  0.00    -0.237 OA
ATOM     70  O   UNL A   1      44.192  24.871  37.581  1.00  0.00    -0.237 OA
ATOM     71  O   UNL A   1      44.742  23.354  35.721  1.00  0.00    -0.744 OA
ENDBRANCH  64  68
ENDBRANCH  38  61
ENDBRANCH  12  13
ENDBRANCH   5   7
ENDBRANCH   2   3
ENDBRANCH   1   2
BRANCH   1  72
ATOM     72  C   UNL A   1      31.386  30.440  26.075  1.00  0.00     0.118 C 
BRANCH  72  73
ATOM     73  N   UNL A   1      32.496  30.081  25.203  1.00  0.00    -0.351 N 
ATOM     74  C   UNL A   1      32.507  29.310  24.069  1.00  0.00     0.269 C 
ATOM     75  H   UNL A   1      33.370  30.448  25.466  1.00  0.00     0.163 HD
ATOM     76  O   UNL A   1      33.588  28.905  23.651  1.00  0.00    -0.268 OA
BRANCH  74  77
ATOM     77  C   UNL A   1      31.270  28.974  23.425  1.00  0.00     0.131 A 
ATOM     78  N   UNL A   1      30.657  29.837  22.558  1.00  0.00    -0.272 N 
ATOM     79  C   UNL A   1      30.400  27.897  23.556  1.00  0.00     0.057 A 
ATOM     80  N   UNL A   1      29.520  29.359  22.026  1.00  0.00    -0.183 NA
ATOM     81  H   UNL A   1      31.016  30.728  22.343  1.00  0.00     0.190 HD
ATOM     82  C   UNL A   1      29.374  28.175  22.621  1.00  0.00     0.145 A 
BRANCH  79  83
ATOM     83  C   UNL A   1      30.530  26.715  24.462  1.00  0.00     0.303 C 
BRANCH  83  84
ATOM     84  N   UNL A   1      31.559  25.749  24.072  1.00  0.00    -0.330 N 
ATOM     85  C   UNL A   1      31.952  25.808  22.665  1.00  0.00     0.262 C 
ATOM     86  C   UNL A   1      32.706  25.693  24.973  1.00  0.00     0.274 C 
ATOM     87  H   UNL A   1      31.084  24.853  24.180  1.00  0.00     0.348 HD
ATOM     88  C   UNL A   1      32.714  24.543  22.283  1.00  0.00     0.062 C 
ATOM     89  C   UNL A   1      33.566  24.454  24.707  1.00  0.00     0.116 C 
ATOM     90  C   UNL A   1      33.885  24.251  23.222  1.00  0.00     0.023 C 
BRANCH  89  91
ATOM     91  C   UNL A   1      33.040  23.204  25.418  1.00  0.00     0.171 C 
ATOM     92  O   UNL A   1      32.149  23.266  26.264  1.00  0.00    -0.294 OA
BRANCH  91  93
ATOM     93  C   UNL A   1      33.595  21.870  25.107  1.00  0.00     0.019 A 
ATOM     94  C   UNL A   1      34.888  21.553  25.519  1.00  0.00     0.012 A 
ATOM     95  C   UNL A   1      32.783  20.908  24.497  1.00  0.00     0.020 A 
ATOM     96  C   UNL A   1      35.400  20.280  25.263  1.00  0.00     0.009 A 
ATOM     97  C   UNL A   1      33.284  19.619  24.245  1.00  0.00    -0.018 A 
ATOM     98  C   UNL A   1      34.613  19.305  24.625  1.00  0.00    -0.018 A 
ATOM     99  C   UNL A   1      32.495  18.631  23.630  1.00  0.00     0.009 A 
ATOM    100  C   UNL A   1      35.115  18.018  24.371  1.00  0.00     0.009 A 
ATOM    101  C   UNL A   1      33.009  17.355  23.387  1.00  0.00     0.001 A 
ATOM    102  C   UNL A   1      34.318  17.051  23.755  1.00  0.00     0.001 A 
ENDBRANCH  91  93
ENDBRANCH  89  91
ENDBRANCH  83  84
ENDBRANCH  79  83
ENDBRANCH  74  77
ENDBRANCH  72  73
ENDBRANCH   1  72
TORSDOF 17
ENDMDL
MODEL 3
REMARK VINA RESULT:     -12.8      1.587      2.301
REMARK SMILES O=C(NCCCNC(=O)c1[nH]ncc1C[N@H+]1CCC[C@H](C(=O)c2ccc3ccccc3c2)C1)c1ccc(-c2c3nc(c(-c4cc(S(=O)(=O)[O-])ccc4F)c4ccc([nH]4)c(-c4cc(S(=O)(=O)[O-])ccc4F)c4nc(c(-c5cc(S(=O)(=O)[O-])ccc5F)c5ccc2[nH]5)C=C4)C=C3)cc1
REMARK SMILES IDX 5 1 4 2 3 3 1 4 2 5 34 7 35 8 96 9 36 10 95 11 37 12 38 13
REMARK SMILES IDX 39 14 89 15 40 16 94 17 88 18 90 19 41 20 93 21 87 22 86 23
REMARK SMILES IDX 42 25 74 26 54 27 73 28 55 29 58 30 72 31 91 32 56 33 57 34
REMARK SMILES IDX 71 36 92 37 59 38 43 39 44 40 52 41 45 42 51 43 53 44 50 45
REMARK SMILES IDX 46 46 47 47 48 48 49 49 75 50 76 51 84 52 77 53 83 54 85 55
REMARK SMILES IDX 82 56 78 57 79 58 80 59 81 60 60 61 61 62 69 63 62 64 68 65
REMARK SMILES IDX 70 66 67 67 63 68 64 69 65 70 66 71 6 72 7 73 8 74 9 76
REMARK SMILES IDX 10 77 11 78 14 79 12 80 13 82 15 83 16 84 17 85 33 86 18 88
REMARK SMILES IDX 20 89 19 90 21 91 22 92 23 93 24 94 32 95 25 96 31 97 26 98
REMARK SMILES IDX 30 99 27 100 29 101 28 102
REMARK H PARENT 3 6 90 24 58 35 7 75 11 81 16 87
REMARK Flexibility Score: inf
ROOT
ATOM      1  C   UNL A   1      31.271  32.071  26.570  1.00  0.00     0.042 C 
ENDROOT
BRANCH   1   2
ATOM      2  C   UNL A   1      32.599  32.467  27.205  1.00  0.00     0.118 C 
BRANCH   2   3
ATOM      3  N   UNL A   1      32.652  33.877  27.565  1.00  0.00    -0.352 N 
ATOM      4  O   UNL A   1      33.098  35.699  28.791  1.00  0.00    -0.269 OA
ATOM      5  C   UNL A   1      33.383  34.533  28.526  1.00  0.00     0.251 C 
ATOM      6  H   UNL A   1      32.065  34.457  27.030  1.00  0.00     0.163 HD
BRANCH   5   7
ATOM      7  C   UNL A   1      34.489  33.862  29.251  1.00  0.00     0.039 A 
ATOM      8  C   UNL A   1      34.248  32.851  30.181  1.00  0.00     0.014 A 
ATOM      9  C   UNL A   1      35.809  34.206  28.930  1.00  0.00     0.014 A 
ATOM     10  C   UNL A   1      35.309  32.280  30.883  1.00  0.00     0.010 A 
ATOM     11  C   UNL A   1      36.877  33.578  29.580  1.00  0.00     0.010 A 
ATOM     12  C   UNL A   1      36.636  32.630  30.585  1.00  0.00    -0.014 A 
BRANCH  12  13
ATOM     13  C   UNL A   1      37.746  31.958  31.307  1.00  0.00     0.031 A 
ATOM     14  C   UNL A   1      38.562  30.881  30.645  1.00  0.00     0.074 A 
ATOM     15  C   UNL A   1      38.042  32.352  32.561  1.00  0.00     0.049 A 
ATOM     16  N   UNL A   1      39.590  30.219  31.114  1.00  0.00    -0.248 NA
ATOM     17  C   UNL A   1      38.162  30.485  29.288  1.00  0.00     0.031 C 
ATOM     18  C   UNL A   1      37.305  33.364  33.324  1.00  0.00     0.029 A 
ATOM     19  N   UNL A   1      39.052  31.969  33.406  1.00  0.00    -0.354 N 
ATOM     20  C   UNL A   1      39.943  29.309  30.125  1.00  0.00     0.074 A 
ATOM     21  C   UNL A   1      39.008  29.496  29.034  1.00  0.00     0.031 C 
ATOM     22  C   UNL A   1      37.919  33.558  34.502  1.00  0.00     0.029 A 
ATOM     23  C   UNL A   1      39.067  32.662  34.592  1.00  0.00     0.049 A 
ATOM     24  H   UNL A   1      39.703  31.264  33.184  1.00  0.00     0.167 HD
ATOM     25  C   UNL A   1      40.954  28.405  30.123  1.00  0.00     0.034 A 
ATOM     26  C   UNL A   1      39.911  32.587  35.638  1.00  0.00     0.034 A 
ATOM     27  C   UNL A   1      41.902  28.244  31.198  1.00  0.00     0.049 A 
ATOM     28  C   UNL A   1      41.046  31.608  35.596  1.00  0.00     0.074 A 
ATOM     29  C   UNL A   1      42.996  27.396  31.269  1.00  0.00     0.029 A 
ATOM     30  N   UNL A   1      41.869  28.947  32.393  1.00  0.00    -0.354 N 
ATOM     31  N   UNL A   1      41.364  30.758  34.649  1.00  0.00    -0.248 NA
ATOM     32  C   UNL A   1      41.927  31.571  36.770  1.00  0.00     0.031 C 
ATOM     33  C   UNL A   1      43.603  27.563  32.521  1.00  0.00     0.029 A 
ATOM     34  C   UNL A   1      42.908  28.539  33.217  1.00  0.00     0.049 A 
ATOM     35  H   UNL A   1      41.205  29.636  32.625  1.00  0.00     0.167 HD
ATOM     36  C   UNL A   1      42.474  30.071  35.121  1.00  0.00     0.074 A 
ATOM     37  C   UNL A   1      42.785  30.622  36.426  1.00  0.00     0.031 C 
ATOM     38  C   UNL A   1      43.173  29.070  34.530  1.00  0.00     0.034 A 
BRANCH  25  39
ATOM     39  C   UNL A   1      41.050  27.491  28.930  1.00  0.00     0.023 A 
ATOM     40  C   UNL A   1      42.043  27.660  27.951  1.00  0.00     0.031 A 
ATOM     41  C   UNL A   1      40.107  26.463  28.753  1.00  0.00     0.131 A 
ATOM     42  C   UNL A   1      42.036  26.849  26.805  1.00  0.00     0.055 A 
ATOM     43  C   UNL A   1      40.138  25.622  27.639  1.00  0.00     0.041 A 
ATOM     44  F   UNL A   1      39.126  26.274  29.650  1.00  0.00    -0.206 F 
ATOM     45  C   UNL A   1      41.099  25.821  26.651  1.00  0.00     0.022 A 
BRANCH  42  46
ATOM     46  S   UNL A   1      43.197  27.232  25.464  1.00  0.00     0.124 S 
ATOM     47  O   UNL A   1      44.270  27.912  26.184  1.00  0.00    -0.237 OA
ATOM     48  O   UNL A   1      43.519  25.911  24.938  1.00  0.00    -0.237 OA
ATOM     49  O   UNL A   1      42.417  28.087  24.571  1.00  0.00    -0.744 OA
ENDBRANCH  42  46
ENDBRANCH  25  39
BRANCH  26  50
ATOM     50  C   UNL A   1      39.688  33.451  36.825  1.00  0.00     0.023 A 
ATOM     51  C   UNL A   1      39.022  32.957  37.960  1.00  0.00     0.031 A 
ATOM     52  C   UNL A   1      40.163  34.777  36.837  1.00  0.00     0.131 A 
ATOM     53  C   UNL A   1      38.837  33.794  39.071  1.00  0.00     0.055 A 
ATOM     54  C   UNL A   1      39.993  35.601  37.950  1.00  0.00     0.041 A 
ATOM     55  F   UNL A   1      40.819  35.276  35.776  1.00  0.00    -0.206 F 
ATOM     56  C   UNL A   1      39.324  35.110  39.073  1.00  0.00     0.022 A 
BRANCH  53  57
ATOM     57  S   UNL A   1      37.943  33.134  40.519  1.00  0.00     0.124 S 
ATOM     58  O   UNL A   1      36.603  32.922  39.983  1.00  0.00    -0.237 OA
ATOM     59  O   UNL A   1      38.708  31.929  40.826  1.00  0.00    -0.237 OA
ATOM     60  O   UNL A   1      38.057  34.205  41.506  1.00  0.00    -0.744 OA
ENDBRANCH  53  57
ENDBRANCH  26  50
BRANCH  38  61
ATOM     61  C   UNL A   1      44.326  28.514  35.314  1.00  0.00     0.023 A 
ATOM     62  C   UNL A   1      44.119  27.540  36.308  1.00  0.00     0.031 A 
ATOM     63  C   UNL A   1      45.630  28.990  35.097  1.00  0.00     0.131 A 
ATOM     64  C   UNL A   1      45.201  27.097  37.082  1.00  0.00     0.055 A 
ATOM     65  C   UNL A   1      46.709  28.525  35.848  1.00  0.00     0.041 A 
ATOM     66  F   UNL A   1      45.870  29.923  34.160  1.00  0.00    -0.206 F 
ATOM     67  C   UNL A   1      46.495  27.579  36.853  1.00  0.00     0.022 A 
BRANCH  64  68
ATOM     68  S   UNL A   1      44.885  25.920  38.429  1.00  0.00     0.124 S 
ATOM     69  O   UNL A   1      43.544  26.299  38.861  1.00  0.00    -0.237 OA
ATOM     70  O   UNL A   1      44.997  24.630  37.755  1.00  0.00    -0.237 OA
ATOM     71  O   UNL A   1      45.949  26.207  39.391  1.00  0.00    -0.744 OA
ENDBRANCH  64  68
ENDBRANCH  38  61
ENDBRANCH  12  13
ENDBRANCH   5   7
ENDBRANCH   2   3
ENDBRANCH   1   2
BRANCH   1  72
ATOM     72  C   UNL A   1      31.335  30.816  25.707  1.00  0.00     0.118 C 
BRANCH  72  73
ATOM     73  N   UNL A   1      32.684  30.276  25.611  1.00  0.00    -0.351 N 
ATOM     74  C   UNL A   1      33.151  29.022  25.912  1.00  0.00     0.269 C 
ATOM     75  H   UNL A   1      33.364  30.906  25.280  1.00  0.00     0.163 HD
ATOM     76  O   UNL A   1      34.362  28.865  26.027  1.00  0.00    -0.268 OA
BRANCH  74  77
ATOM     77  C   UNL A   1      32.222  27.947  26.113  1.00  0.00     0.131 A 
ATOM     78  N   UNL A   1      31.574  27.775  27.306  1.00  0.00    -0.272 N 
ATOM     79  C   UNL A   1      31.850  26.861  25.327  1.00  0.00     0.057 A 
ATOM     80  N   UNL A   1      30.723  26.736  27.319  1.00  0.00    -0.183 NA
ATOM     81  H   UNL A   1      31.717  28.361  28.084  1.00  0.00     0.190 HD
ATOM     82  C   UNL A   1      30.882  26.191  26.112  1.00  0.00     0.145 A 
BRANCH  79  83
ATOM     83  C   UNL A   1      32.348  26.499  23.965  1.00  0.00     0.303 C 
BRANCH  83  84
ATOM     84  N   UNL A   1      33.273  25.364  23.928  1.00  0.00    -0.330 N 
ATOM     85  C   UNL A   1      33.883  25.115  22.623  1.00  0.00     0.262 C 
ATOM     86  C   UNL A   1      34.246  25.343  25.017  1.00  0.00     0.274 C 
ATOM     87  H   UNL A   1      32.661  24.565  24.094  1.00  0.00     0.348 HD
ATOM     88  C   UNL A   1      34.502  23.721  22.595  1.00  0.00     0.062 C 
ATOM     89  C   UNL A   1      34.946  23.984  25.114  1.00  0.00     0.116 C 
ATOM     90  C   UNL A   1      35.458  23.473  23.763  1.00  0.00     0.023 C 
BRANCH  89  91
ATOM     91  C   UNL A   1      34.139  22.957  25.913  1.00  0.00     0.171 C 
ATOM     92  O   UNL A   1      33.832  23.148  27.090  1.00  0.00    -0.294 OA
BRANCH  91  93
ATOM     93  C   UNL A   1      33.702  21.691  25.290  1.00  0.00     0.019 A 
ATOM     94  C   UNL A   1      32.474  21.639  24.632  1.00  0.00     0.012 A 
ATOM     95  C   UNL A   1      34.567  20.592  25.276  1.00  0.00     0.020 A 
ATOM     96  C   UNL A   1      32.077  20.455  24.007  1.00  0.00     0.009 A 
ATOM     97  C   UNL A   1      34.183  19.399  24.639  1.00  0.00    -0.018 A 
ATOM     98  C   UNL A   1      32.918  19.329  24.005  1.00  0.00    -0.018 A 
ATOM     99  C   UNL A   1      35.029  18.276  24.611  1.00  0.00     0.009 A 
ATOM    100  C   UNL A   1      32.532  18.136  23.371  1.00  0.00     0.009 A 
ATOM    101  C   UNL A   1      34.631  17.098  23.973  1.00  0.00     0.001 A 
ATOM    102  C   UNL A   1      33.383  17.029  23.357  1.00  0.00     0.001 A 
ENDBRANCH  91  93
ENDBRANCH  89  91
ENDBRANCH  83  84
ENDBRANCH  79  83
ENDBRANCH  74  77
ENDBRANCH  72  73
ENDBRANCH   1  72
TORSDOF 17
ENDMDL
