MODEL 1
REMARK VINA RESULT:     -12.3      0.000      0.000
REMARK SMILES C[C@H]1[C@@H](C(=O)NCCCNC(=O)c2ccc(-c3c4nc(c(-c5cc(S(=O)(=O)[O-])ccc5F)c5ccc([nH]5)c(-c5cc(S(=O)(=O)[O-])ccc5F)c5nc(c(-c6cc(S(=O)(=O)[O-])ccc6F)c6ccc3[nH]6)C=C5)C=C4)cc2)CCN1C(=O)/C=C/c1cccc(F)c1
REMARK SMILES IDX 8 1 7 2 6 3 4 4 5 5 3 7 1 8 2 9 78 10 76 11 77 12 79 13
REMARK SMILES IDX 80 14 81 15 82 16 83 17 84 18 89 19 85 20 87 21 86 22 88 23
REMARK SMILES IDX 9 24 10 25 11 26 12 28 13 29 14 30 75 31 15 32 74 33 16 34
REMARK SMILES IDX 17 35 18 36 68 37 19 38 73 39 67 40 69 41 20 42 72 43 66 44
REMARK SMILES IDX 65 45 21 47 53 48 33 49 52 50 34 51 37 52 51 53 70 54 35 55
REMARK SMILES IDX 36 56 50 58 71 59 38 60 22 61 23 62 31 63 24 64 30 65 32 66
REMARK SMILES IDX 29 67 25 68 26 69 27 70 28 71 54 72 55 73 63 74 56 75 62 76
REMARK SMILES IDX 64 77 61 78 57 79 58 80 59 81 60 82 39 83 40 84 48 85 41 86
REMARK SMILES IDX 47 87 49 88 46 89 42 90 43 91 44 92 45 93
REMARK H PARENT 6 6 10 27 69 46 37 57
REMARK Flexibility Score: inf
ROOT
ATOM      1  C   UNL A   1      33.286  29.392  25.660  1.00  0.00     0.042 C 
ENDROOT
BRANCH   1   2
ATOM      2  C   UNL A   1      32.397  29.363  24.411  1.00  0.00     0.117 C 
BRANCH   2   3
ATOM      3  N   UNL A   1      33.123  28.878  23.245  1.00  0.00    -0.356 N 
ATOM      4  C   UNL A   1      33.189  27.655  22.648  1.00  0.00     0.225 C 
ATOM      5  O   UNL A   1      33.967  27.553  21.697  1.00  0.00    -0.275 OA
ATOM      6  H   UNL A   1      33.673  29.565  22.804  1.00  0.00     0.163 HD
BRANCH   4   7
ATOM      7  C   UNL A   1      32.268  26.505  23.058  1.00  0.00     0.102 C 
ATOM      8  C   UNL A   1      33.962  25.882  24.966  1.00  0.00     0.032 C 
ATOM      9  C   UNL A   1      32.600  25.673  24.318  1.00  0.00     0.094 C 
ATOM     10  N   UNL A   1      32.484  24.273  23.908  1.00  0.00    -0.336 N 
ATOM     11  C   UNL A   1      32.098  25.448  21.935  1.00  0.00     0.037 C 
ATOM     12  C   UNL A   1      32.699  24.167  22.486  1.00  0.00     0.121 C 
BRANCH  10  13
ATOM     13  C   UNL A   1      32.447  23.150  24.716  1.00  0.00     0.246 C 
ATOM     14  O   UNL A   1      31.828  23.095  25.774  1.00  0.00    -0.270 OA
BRANCH  13  15
ATOM     15  C   UNL A   1      33.080  21.911  24.181  1.00  0.00     0.072 C 
ATOM     16  C   UNL A   1      32.451  20.726  24.180  1.00  0.00     0.014 C 
BRANCH  16  17
ATOM     17  C   UNL A   1      33.066  19.414  23.901  1.00  0.00    -0.023 A 
ATOM     18  C   UNL A   1      32.438  18.577  22.959  1.00  0.00     0.008 A 
ATOM     19  C   UNL A   1      34.187  18.918  24.578  1.00  0.00     0.047 A 
ATOM     20  C   UNL A   1      32.917  17.289  22.697  1.00  0.00     0.004 A 
ATOM     21  C   UNL A   1      34.658  17.634  24.308  1.00  0.00     0.123 A 
ATOM     22  C   UNL A   1      34.035  16.816  23.376  1.00  0.00     0.039 A 
ATOM     23  F   UNL A   1      35.727  17.175  24.971  1.00  0.00    -0.207 F 
ENDBRANCH  16  17
ENDBRANCH  13  15
ENDBRANCH  10  13
ENDBRANCH   4   7
ENDBRANCH   2   3
ENDBRANCH   1   2
BRANCH   1  24
ATOM     24  C   UNL A   1      32.627  29.950  26.913  1.00  0.00     0.118 C 
BRANCH  24  25
ATOM     25  N   UNL A   1      32.769  31.388  27.000  1.00  0.00    -0.352 N 
ATOM     26  C   UNL A   1      33.703  32.166  27.642  1.00  0.00     0.251 C 
ATOM     27  H   UNL A   1      32.079  31.896  26.515  1.00  0.00     0.163 HD
ATOM     28  O   UNL A   1      33.432  33.356  27.807  1.00  0.00    -0.269 OA
BRANCH  26  29
ATOM     29  C   UNL A   1      34.998  31.631  28.151  1.00  0.00     0.039 A 
ATOM     30  C   UNL A   1      35.006  30.345  28.705  1.00  0.00     0.014 A 
ATOM     31  C   UNL A   1      36.173  32.386  28.202  1.00  0.00     0.014 A 
ATOM     32  C   UNL A   1      36.172  29.820  29.280  1.00  0.00     0.010 A 
ATOM     33  C   UNL A   1      37.362  31.826  28.685  1.00  0.00     0.010 A 
ATOM     34  C   UNL A   1      37.371  30.548  29.261  1.00  0.00    -0.014 A 
BRANCH  34  35
ATOM     35  C   UNL A   1      38.611  30.006  29.892  1.00  0.00     0.031 A 
ATOM     36  C   UNL A   1      39.042  30.480  31.260  1.00  0.00     0.074 A 
ATOM     37  C   UNL A   1      39.367  29.104  29.232  1.00  0.00     0.049 A 
ATOM     38  N   UNL A   1      40.103  30.156  31.957  1.00  0.00    -0.248 NA
ATOM     39  C   UNL A   1      38.180  31.474  31.916  1.00  0.00     0.031 C 
ATOM     40  C   UNL A   1      39.089  28.593  27.889  1.00  0.00     0.029 A 
ATOM     41  N   UNL A   1      40.522  28.458  29.599  1.00  0.00    -0.354 N 
ATOM     42  C   UNL A   1      40.041  30.913  33.125  1.00  0.00     0.074 A 
ATOM     43  C   UNL A   1      38.877  31.765  33.004  1.00  0.00     0.031 C 
ATOM     44  C   UNL A   1      40.030  27.693  27.558  1.00  0.00     0.029 A 
ATOM     45  C   UNL A   1      41.001  27.593  28.642  1.00  0.00     0.049 A 
ATOM     46  H   UNL A   1      40.967  28.601  30.466  1.00  0.00     0.167 HD
ATOM     47  C   UNL A   1      40.858  30.884  34.209  1.00  0.00     0.034 A 
ATOM     48  C   UNL A   1      42.099  26.811  28.633  1.00  0.00     0.034 A 
ATOM     49  C   UNL A   1      42.009  30.020  34.325  1.00  0.00     0.049 A 
ATOM     50  C   UNL A   1      42.999  26.797  29.842  1.00  0.00     0.074 A 
ATOM     51  C   UNL A   1      42.878  29.877  35.395  1.00  0.00     0.029 A 
ATOM     52  N   UNL A   1      42.458  29.153  33.336  1.00  0.00    -0.354 N 
ATOM     53  N   UNL A   1      42.898  27.488  30.956  1.00  0.00    -0.248 NA
ATOM     54  C   UNL A   1      44.149  25.887  29.801  1.00  0.00     0.031 C 
ATOM     55  C   UNL A   1      43.883  28.974  35.028  1.00  0.00     0.029 A 
ATOM     56  C   UNL A   1      43.602  28.494  33.759  1.00  0.00     0.049 A 
ATOM     57  H   UNL A   1      42.025  29.026  32.461  1.00  0.00     0.167 HD
ATOM     58  C   UNL A   1      43.961  27.076  31.755  1.00  0.00     0.074 A 
ATOM     59  C   UNL A   1      44.673  26.060  31.006  1.00  0.00     0.031 C 
ATOM     60  C   UNL A   1      44.317  27.498  32.996  1.00  0.00     0.034 A 
BRANCH  47  61
ATOM     61  C   UNL A   1      40.541  31.834  35.344  1.00  0.00     0.023 A 
ATOM     62  C   UNL A   1      39.507  31.570  36.260  1.00  0.00     0.031 A 
ATOM     63  C   UNL A   1      41.255  33.036  35.494  1.00  0.00     0.131 A 
ATOM     64  C   UNL A   1      39.159  32.529  37.225  1.00  0.00     0.055 A 
ATOM     65  C   UNL A   1      40.962  33.947  36.513  1.00  0.00     0.041 A 
ATOM     66  F   UNL A   1      42.242  33.357  34.642  1.00  0.00    -0.206 F 
ATOM     67  C   UNL A   1      39.897  33.705  37.374  1.00  0.00     0.022 A 
BRANCH  64  68
ATOM     68  S   UNL A   1      37.631  32.288  38.174  1.00  0.00     0.124 S 
ATOM     69  O   UNL A   1      38.057  32.677  39.517  1.00  0.00    -0.237 OA
ATOM     70  O   UNL A   1      36.702  33.198  37.510  1.00  0.00    -0.237 OA
ATOM     71  O   UNL A   1      37.343  30.868  38.006  1.00  0.00    -0.744 OA
ENDBRANCH  64  68
ENDBRANCH  47  61
BRANCH  48  72
ATOM     72  C   UNL A   1      42.421  25.981  27.436  1.00  0.00     0.023 A 
ATOM     73  C   UNL A   1      42.029  24.634  27.355  1.00  0.00     0.031 A 
ATOM     74  C   UNL A   1      43.159  26.517  26.364  1.00  0.00     0.131 A 
ATOM     75  C   UNL A   1      42.413  23.858  26.250  1.00  0.00     0.055 A 
ATOM     76  C   UNL A   1      43.493  25.756  25.243  1.00  0.00     0.041 A 
ATOM     77  F   UNL A   1      43.555  27.799  26.388  1.00  0.00    -0.206 F 
ATOM     78  C   UNL A   1      43.129  24.414  25.187  1.00  0.00     0.022 A 
BRANCH  75  79
ATOM     79  S   UNL A   1      42.027  22.086  26.255  1.00  0.00     0.124 S 
ATOM     80  O   UNL A   1      42.867  21.594  25.171  1.00  0.00    -0.237 OA
ATOM     81  O   UNL A   1      42.425  21.693  27.604  1.00  0.00    -0.237 OA
ATOM     82  O   UNL A   1      40.589  22.049  25.998  1.00  0.00    -0.744 OA
ENDBRANCH  75  79
ENDBRANCH  48  72
BRANCH  60  83
ATOM     83  C   UNL A   1      45.516  26.830  33.626  1.00  0.00     0.023 A 
ATOM     84  C   UNL A   1      45.392  25.656  34.391  1.00  0.00     0.031 A 
ATOM     85  C   UNL A   1      46.797  27.392  33.484  1.00  0.00     0.131 A 
ATOM     86  C   UNL A   1      46.515  25.121  35.039  1.00  0.00     0.055 A 
ATOM     87  C   UNL A   1      47.922  26.818  34.079  1.00  0.00     0.041 A 
ATOM     88  F   UNL A   1      46.977  28.512  32.766  1.00  0.00    -0.206 F 
ATOM     89  C   UNL A   1      47.782  25.685  34.875  1.00  0.00     0.022 A 
BRANCH  86  90
ATOM     90  S   UNL A   1      46.279  23.741  36.193  1.00  0.00     0.124 S 
ATOM     91  O   UNL A   1      46.933  22.643  35.490  1.00  0.00    -0.237 OA
ATOM     92  O   UNL A   1      46.953  24.221  37.395  1.00  0.00    -0.237 OA
ATOM     93  O   UNL A   1      44.825  23.629  36.301  1.00  0.00    -0.744 OA
ENDBRANCH  86  90
ENDBRANCH  60  83
ENDBRANCH  34  35
ENDBRANCH  26  29
ENDBRANCH  24  25
ENDBRANCH   1  24
TORSDOF 16
ENDMDL
MODEL 2
REMARK VINA RESULT:     -12.3      2.574      8.160
REMARK SMILES C[C@H]1[C@@H](C(=O)NCCCNC(=O)c2ccc(-c3c4nc(c(-c5cc(S(=O)(=O)[O-])ccc5F)c5ccc([nH]5)c(-c5cc(S(=O)(=O)[O-])ccc5F)c5nc(c(-c6cc(S(=O)(=O)[O-])ccc6F)c6ccc3[nH]6)C=C5)C=C4)cc2)CCN1C(=O)/C=C/c1cccc(F)c1
REMARK SMILES IDX 8 1 7 2 6 3 4 4 5 5 3 7 1 8 2 9 78 10 76 11 77 12 79 13
REMARK SMILES IDX 80 14 81 15 82 16 83 17 84 18 89 19 85 20 87 21 86 22 88 23
REMARK SMILES IDX 9 24 10 25 11 26 12 28 13 29 14 30 75 31 15 32 74 33 16 34
REMARK SMILES IDX 17 35 18 36 68 37 19 38 73 39 67 40 69 41 20 42 72 43 66 44
REMARK SMILES IDX 65 45 21 47 53 48 33 49 52 50 34 51 37 52 51 53 70 54 35 55
REMARK SMILES IDX 36 56 50 58 71 59 38 60 22 61 23 62 31 63 24 64 30 65 32 66
REMARK SMILES IDX 29 67 25 68 26 69 27 70 28 71 54 72 55 73 63 74 56 75 62 76
REMARK SMILES IDX 64 77 61 78 57 79 58 80 59 81 60 82 39 83 40 84 48 85 41 86
REMARK SMILES IDX 47 87 49 88 46 89 42 90 43 91 44 92 45 93
REMARK H PARENT 6 6 10 27 69 46 37 57
REMARK Flexibility Score: inf
ROOT
ATOM      1  C   UNL A   1      31.353  32.226  26.419  1.00  0.00     0.042 C 
ENDROOT
BRANCH   1   2
ATOM      2  C   UNL A   1      31.110  30.725  26.225  1.00  0.00     0.117 C 
BRANCH   2   3
ATOM      3  N   UNL A   1      31.578  30.268  24.923  1.00  0.00    -0.356 N 
ATOM      4  C   UNL A   1      31.616  29.036  24.342  1.00  0.00     0.225 C 
ATOM      5  O   UNL A   1      32.149  28.973  23.232  1.00  0.00    -0.275 OA
ATOM      6  H   UNL A   1      31.936  30.987  24.354  1.00  0.00     0.163 HD
BRANCH   4   7
ATOM      7  C   UNL A   1      30.938  27.822  24.976  1.00  0.00     0.102 C 
ATOM      8  C   UNL A   1      33.187  27.258  26.209  1.00  0.00     0.032 C 
ATOM      9  C   UNL A   1      31.701  26.982  26.025  1.00  0.00     0.094 C 
ATOM     10  N   UNL A   1      31.531  25.587  25.614  1.00  0.00    -0.336 N 
ATOM     11  C   UNL A   1      30.468  26.783  23.923  1.00  0.00     0.037 C 
ATOM     12  C   UNL A   1      31.279  25.530  24.195  1.00  0.00     0.121 C 
BRANCH  10  13
ATOM     13  C   UNL A   1      31.814  24.444  26.342  1.00  0.00     0.246 C 
ATOM     14  O   UNL A   1      31.114  24.034  27.262  1.00  0.00    -0.270 OA
BRANCH  13  15
ATOM     15  C   UNL A   1      32.955  23.609  25.870  1.00  0.00     0.072 C 
ATOM     16  C   UNL A   1      34.061  23.424  26.606  1.00  0.00     0.014 C 
BRANCH  16  17
ATOM     17  C   UNL A   1      35.327  22.824  26.141  1.00  0.00    -0.023 A 
ATOM     18  C   UNL A   1      36.436  23.673  25.966  1.00  0.00     0.008 A 
ATOM     19  C   UNL A   1      35.466  21.477  25.782  1.00  0.00     0.047 A 
ATOM     20  C   UNL A   1      37.647  23.192  25.456  1.00  0.00     0.004 A 
ATOM     21  C   UNL A   1      36.677  21.007  25.277  1.00  0.00     0.123 A 
ATOM     22  C   UNL A   1      37.767  21.850  25.110  1.00  0.00     0.039 A 
ATOM     23  F   UNL A   1      36.788  19.718  24.934  1.00  0.00    -0.207 F 
ENDBRANCH  16  17
ENDBRANCH  13  15
ENDBRANCH  10  13
ENDBRANCH   4   7
ENDBRANCH   2   3
ENDBRANCH   1   2
BRANCH   1  24
ATOM     24  C   UNL A   1      32.690  32.591  27.049  1.00  0.00     0.118 C 
BRANCH  24  25
ATOM     25  N   UNL A   1      32.666  33.920  27.624  1.00  0.00    -0.352 N 
ATOM     26  C   UNL A   1      33.349  34.454  28.691  1.00  0.00     0.251 C 
ATOM     27  H   UNL A   1      32.057  34.548  27.174  1.00  0.00     0.163 HD
ATOM     28  O   UNL A   1      32.931  35.515  29.157  1.00  0.00    -0.269 OA
BRANCH  26  29
ATOM     29  C   UNL A   1      34.541  33.802  29.304  1.00  0.00     0.039 A 
ATOM     30  C   UNL A   1      34.327  32.745  30.198  1.00  0.00     0.014 A 
ATOM     31  C   UNL A   1      35.848  34.263  29.118  1.00  0.00     0.014 A 
ATOM     32  C   UNL A   1      35.401  32.150  30.873  1.00  0.00     0.010 A 
ATOM     33  C   UNL A   1      36.930  33.604  29.715  1.00  0.00     0.010 A 
ATOM     34  C   UNL A   1      36.720  32.561  30.626  1.00  0.00    -0.014 A 
BRANCH  34  35
ATOM     35  C   UNL A   1      37.867  31.948  31.359  1.00  0.00     0.031 A 
ATOM     36  C   UNL A   1      38.684  30.849  30.719  1.00  0.00     0.074 A 
ATOM     37  C   UNL A   1      38.169  32.359  32.608  1.00  0.00     0.049 A 
ATOM     38  N   UNL A   1      39.692  30.169  31.208  1.00  0.00    -0.248 NA
ATOM     39  C   UNL A   1      38.292  30.441  29.362  1.00  0.00     0.031 C 
ATOM     40  C   UNL A   1      37.438  33.381  33.359  1.00  0.00     0.029 A 
ATOM     41  N   UNL A   1      39.167  31.968  33.467  1.00  0.00    -0.354 N 
ATOM     42  C   UNL A   1      40.045  29.248  30.224  1.00  0.00     0.074 A 
ATOM     43  C   UNL A   1      39.094  29.410  29.145  1.00  0.00     0.031 C 
ATOM     44  C   UNL A   1      38.028  33.556  34.553  1.00  0.00     0.029 A 
ATOM     45  C   UNL A   1      39.152  32.632  34.673  1.00  0.00     0.049 A 
ATOM     46  H   UNL A   1      39.831  31.277  33.243  1.00  0.00     0.167 HD
ATOM     47  C   UNL A   1      41.080  28.369  30.206  1.00  0.00     0.034 A 
ATOM     48  C   UNL A   1      39.946  32.510  35.755  1.00  0.00     0.034 A 
ATOM     49  C   UNL A   1      42.032  28.226  31.282  1.00  0.00     0.049 A 
ATOM     50  C   UNL A   1      41.086  31.524  35.720  1.00  0.00     0.074 A 
ATOM     51  C   UNL A   1      43.142  27.401  31.350  1.00  0.00     0.029 A 
ATOM     52  N   UNL A   1      41.986  28.922  32.484  1.00  0.00    -0.354 N 
ATOM     53  N   UNL A   1      41.431  30.693  34.762  1.00  0.00    -0.248 NA
ATOM     54  C   UNL A   1      41.952  31.471  36.903  1.00  0.00     0.031 C 
ATOM     55  C   UNL A   1      43.727  27.551  32.613  1.00  0.00     0.029 A 
ATOM     56  C   UNL A   1      43.030  28.526  33.308  1.00  0.00     0.049 A 
ATOM     57  H   UNL A   1      41.310  29.598  32.718  1.00  0.00     0.167 HD
ATOM     58  C   UNL A   1      42.568  30.035  35.222  1.00  0.00     0.074 A 
ATOM     59  C   UNL A   1      42.864  30.586  36.530  1.00  0.00     0.031 C 
ATOM     60  C   UNL A   1      43.304  29.066  34.619  1.00  0.00     0.034 A 
BRANCH  47  61
ATOM     61  C   UNL A   1      41.217  27.481  28.988  1.00  0.00     0.023 A 
ATOM     62  C   UNL A   1      42.203  27.715  28.012  1.00  0.00     0.031 A 
ATOM     63  C   UNL A   1      40.331  26.410  28.778  1.00  0.00     0.131 A 
ATOM     64  C   UNL A   1      42.224  26.949  26.836  1.00  0.00     0.055 A 
ATOM     65  C   UNL A   1      40.413  25.594  27.646  1.00  0.00     0.041 A 
ATOM     66  F   UNL A   1      39.356  26.145  29.662  1.00  0.00    -0.206 F 
ATOM     67  C   UNL A   1      41.352  25.873  26.658  1.00  0.00     0.022 A 
BRANCH  64  68
ATOM     68  S   UNL A   1      43.300  27.480  25.475  1.00  0.00     0.124 S 
ATOM     69  O   UNL A   1      44.213  28.391  26.162  1.00  0.00    -0.237 OA
ATOM     70  O   UNL A   1      43.878  26.219  25.020  1.00  0.00    -0.237 OA
ATOM     71  O   UNL A   1      42.381  28.119  24.539  1.00  0.00    -0.744 OA
ENDBRANCH  64  68
ENDBRANCH  47  61
BRANCH  48  72
ATOM     72  C   UNL A   1      39.691  33.334  36.972  1.00  0.00     0.023 A 
ATOM     73  C   UNL A   1      38.946  32.829  38.051  1.00  0.00     0.031 A 
ATOM     74  C   UNL A   1      40.163  34.657  37.060  1.00  0.00     0.131 A 
ATOM     75  C   UNL A   1      38.658  33.655  39.150  1.00  0.00     0.055 A 
ATOM     76  C   UNL A   1      39.919  35.456  38.177  1.00  0.00     0.041 A 
ATOM     77  F   UNL A   1      40.884  35.187  36.059  1.00  0.00    -0.206 F 
ATOM     78  C   UNL A   1      39.151  34.960  39.227  1.00  0.00     0.022 A 
BRANCH  75  79
ATOM     79  S   UNL A   1      37.561  33.023  40.449  1.00  0.00     0.124 S 
ATOM     80  O   UNL A   1      36.327  32.787  39.709  1.00  0.00    -0.237 OA
ATOM     81  O   UNL A   1      38.277  31.833  40.897  1.00  0.00    -0.237 OA
ATOM     82  O   UNL A   1      37.511  34.117  41.416  1.00  0.00    -0.744 OA
ENDBRANCH  75  79
ENDBRANCH  48  72
BRANCH  60  83
ATOM     83  C   UNL A   1      44.518  28.567  35.365  1.00  0.00     0.023 A 
ATOM     84  C   UNL A   1      44.418  27.586  36.368  1.00  0.00     0.031 A 
ATOM     85  C   UNL A   1      45.789  29.101  35.090  1.00  0.00     0.131 A 
ATOM     86  C   UNL A   1      45.555  27.220  37.104  1.00  0.00     0.055 A 
ATOM     87  C   UNL A   1      46.928  28.686  35.782  1.00  0.00     0.041 A 
ATOM     88  F   UNL A   1      45.945  30.042  34.144  1.00  0.00    -0.206 F 
ATOM     89  C   UNL A   1      46.812  27.751  36.807  1.00  0.00     0.022 A 
BRANCH  86  90
ATOM     90  S   UNL A   1      45.350  26.120  38.532  1.00  0.00     0.124 S 
ATOM     91  O   UNL A   1      43.991  26.431  38.962  1.00  0.00    -0.237 OA
ATOM     92  O   UNL A   1      45.546  24.800  37.940  1.00  0.00    -0.237 OA
ATOM     93  O   UNL A   1      46.403  26.549  39.450  1.00  0.00    -0.744 OA
ENDBRANCH  86  90
ENDBRANCH  60  83
ENDBRANCH  34  35
ENDBRANCH  26  29
ENDBRANCH  24  25
ENDBRANCH   1  24
TORSDOF 16
ENDMDL
MODEL 3
REMARK VINA RESULT:     -12.3      1.526      1.824
REMARK SMILES C[C@H]1[C@@H](C(=O)NCCCNC(=O)c2ccc(-c3c4nc(c(-c5cc(S(=O)(=O)[O-])ccc5F)c5ccc([nH]5)c(-c5cc(S(=O)(=O)[O-])ccc5F)c5nc(c(-c6cc(S(=O)(=O)[O-])ccc6F)c6ccc3[nH]6)C=C5)C=C4)cc2)CCN1C(=O)/C=C/c1cccc(F)c1
REMARK SMILES IDX 8 1 7 2 6 3 4 4 5 5 3 7 1 8 2 9 78 10 76 11 77 12 79 13
REMARK SMILES IDX 80 14 81 15 82 16 83 17 84 18 89 19 85 20 87 21 86 22 88 23
REMARK SMILES IDX 9 24 10 25 11 26 12 28 13 29 14 30 75 31 15 32 74 33 16 34
REMARK SMILES IDX 17 35 18 36 68 37 19 38 73 39 67 40 69 41 20 42 72 43 66 44
REMARK SMILES IDX 65 45 21 47 53 48 33 49 52 50 34 51 37 52 51 53 70 54 35 55
REMARK SMILES IDX 36 56 50 58 71 59 38 60 22 61 23 62 31 63 24 64 30 65 32 66
REMARK SMILES IDX 29 67 25 68 26 69 27 70 28 71 54 72 55 73 63 74 56 75 62 76
REMARK SMILES IDX 64 77 61 78 57 79 58 80 59 81 60 82 39 83 40 84 48 85 41 86
REMARK SMILES IDX 47 87 49 88 46 89 42 90 43 91 44 92 45 93
REMARK H PARENT 6 6 10 27 69 46 37 57
REMARK Flexibility Score: inf
ROOT
ATOM      1  C   UNL A   1      33.517  29.204  24.510  1.00  0.00     0.042 C 
ENDROOT
BRANCH   1   2
ATOM      2  C   UNL A   1      32.692  29.185  23.218  1.00  0.00     0.117 C 
BRANCH   2   3
ATOM      3  N   UNL A   1      33.131  28.130  22.315  1.00  0.00    -0.356 N 
ATOM      4  C   UNL A   1      33.010  26.774  22.362  1.00  0.00     0.225 C 
ATOM      5  O   UNL A   1      33.564  26.146  21.456  1.00  0.00    -0.275 OA
ATOM      6  H   UNL A   1      33.606  28.460  21.519  1.00  0.00     0.163 HD
BRANCH   4   7
ATOM      7  C   UNL A   1      32.145  26.074  23.409  1.00  0.00     0.102 C 
ATOM      8  C   UNL A   1      34.327  25.122  24.519  1.00  0.00     0.032 C 
ATOM      9  C   UNL A   1      32.820  25.330  24.584  1.00  0.00     0.094 C 
ATOM     10  N   UNL A   1      32.167  24.021  24.650  1.00  0.00    -0.336 N 
ATOM     11  C   UNL A   1      31.189  25.021  22.788  1.00  0.00     0.037 C 
ATOM     12  C   UNL A   1      31.632  23.684  23.354  1.00  0.00     0.121 C 
BRANCH  10  13
ATOM     13  C   UNL A   1      32.241  23.084  25.665  1.00  0.00     0.246 C 
ATOM     14  O   UNL A   1      32.212  23.370  26.858  1.00  0.00    -0.270 OA
BRANCH  13  15
ATOM     15  C   UNL A   1      32.206  21.649  25.263  1.00  0.00     0.072 C 
ATOM     16  C   UNL A   1      33.321  20.947  25.009  1.00  0.00     0.014 C 
BRANCH  16  17
ATOM     17  C   UNL A   1      33.387  19.613  24.381  1.00  0.00    -0.023 A 
ATOM     18  C   UNL A   1      34.463  18.774  24.725  1.00  0.00     0.008 A 
ATOM     19  C   UNL A   1      32.492  19.168  23.400  1.00  0.00     0.047 A 
ATOM     20  C   UNL A   1      34.636  17.526  24.115  1.00  0.00     0.004 A 
ATOM     21  C   UNL A   1      32.671  17.922  22.800  1.00  0.00     0.123 A 
ATOM     22  C   UNL A   1      33.733  17.099  23.147  1.00  0.00     0.039 A 
ATOM     23  F   UNL A   1      31.808  17.517  21.860  1.00  0.00    -0.207 F 
ENDBRANCH  16  17
ENDBRANCH  13  15
ENDBRANCH  10  13
ENDBRANCH   4   7
ENDBRANCH   2   3
ENDBRANCH   1   2
BRANCH   1  24
ATOM     24  C   UNL A   1      32.710  29.348  25.793  1.00  0.00     0.118 C 
BRANCH  24  25
ATOM     25  N   UNL A   1      32.543  30.736  26.169  1.00  0.00    -0.352 N 
ATOM     26  C   UNL A   1      33.215  31.511  27.084  1.00  0.00     0.251 C 
ATOM     27  H   UNL A   1      31.826  31.205  25.685  1.00  0.00     0.163 HD
ATOM     28  O   UNL A   1      32.688  32.571  27.424  1.00  0.00    -0.269 OA
BRANCH  26  29
ATOM     29  C   UNL A   1      34.523  31.117  27.681  1.00  0.00     0.039 A 
ATOM     30  C   UNL A   1      34.638  29.831  28.224  1.00  0.00     0.014 A 
ATOM     31  C   UNL A   1      35.598  31.999  27.825  1.00  0.00     0.014 A 
ATOM     32  C   UNL A   1      35.811  29.432  28.877  1.00  0.00     0.010 A 
ATOM     33  C   UNL A   1      36.805  31.569  28.388  1.00  0.00     0.010 A 
ATOM     34  C   UNL A   1      36.918  30.291  28.952  1.00  0.00    -0.014 A 
BRANCH  34  35
ATOM     35  C   UNL A   1      38.164  29.882  29.666  1.00  0.00     0.031 A 
ATOM     36  C   UNL A   1      38.469  30.426  31.043  1.00  0.00     0.074 A 
ATOM     37  C   UNL A   1      39.036  29.039  29.077  1.00  0.00     0.049 A 
ATOM     38  N   UNL A   1      39.513  30.219  31.807  1.00  0.00    -0.248 NA
ATOM     39  C   UNL A   1      37.482  31.350  31.620  1.00  0.00     0.031 C 
ATOM     40  C   UNL A   1      38.886  28.472  27.735  1.00  0.00     0.029 A 
ATOM     41  N   UNL A   1      40.223  28.512  29.527  1.00  0.00    -0.354 N 
ATOM     42  C   UNL A   1      39.313  30.994  32.947  1.00  0.00     0.074 A 
ATOM     43  C   UNL A   1      38.086  31.731  32.736  1.00  0.00     0.031 C 
ATOM     44  C   UNL A   1      39.922  27.656  27.484  1.00  0.00     0.029 A 
ATOM     45  C   UNL A   1      40.834  27.672  28.624  1.00  0.00     0.049 A 
ATOM     46  H   UNL A   1      40.601  28.716  30.412  1.00  0.00     0.167 HD
ATOM     47  C   UNL A   1      40.065  31.068  34.076  1.00  0.00     0.034 A 
ATOM     48  C   UNL A   1      41.998  26.996  28.698  1.00  0.00     0.034 A 
ATOM     49  C   UNL A   1      41.282  30.318  34.281  1.00  0.00     0.049 A 
ATOM     50  C   UNL A   1      42.822  27.095  29.956  1.00  0.00     0.074 A 
ATOM     51  C   UNL A   1      42.095  30.281  35.401  1.00  0.00     0.029 A 
ATOM     52  N   UNL A   1      41.865  29.472  33.344  1.00  0.00    -0.354 N 
ATOM     53  N   UNL A   1      42.594  27.799  31.042  1.00  0.00    -0.248 NA
ATOM     54  C   UNL A   1      44.052  26.295  30.006  1.00  0.00     0.031 C 
ATOM     55  C   UNL A   1      43.200  29.468  35.118  1.00  0.00     0.029 A 
ATOM     56  C   UNL A   1      43.038  28.933  33.850  1.00  0.00     0.049 A 
ATOM     57  H   UNL A   1      41.497  29.285  32.451  1.00  0.00     0.167 HD
ATOM     58  C   UNL A   1      43.642  27.508  31.911  1.00  0.00     0.074 A 
ATOM     59  C   UNL A   1      44.486  26.545  31.232  1.00  0.00     0.031 C 
ATOM     60  C   UNL A   1      43.885  27.990  33.157  1.00  0.00     0.034 A 
BRANCH  47  61
ATOM     61  C   UNL A   1      39.596  32.011  35.163  1.00  0.00     0.023 A 
ATOM     62  C   UNL A   1      40.084  33.326  35.259  1.00  0.00     0.031 A 
ATOM     63  C   UNL A   1      38.679  31.582  36.137  1.00  0.00     0.131 A 
ATOM     64  C   UNL A   1      39.723  34.133  36.349  1.00  0.00     0.055 A 
ATOM     65  C   UNL A   1      38.254  32.420  37.172  1.00  0.00     0.041 A 
ATOM     66  F   UNL A   1      38.189  30.332  36.114  1.00  0.00    -0.206 F 
ATOM     67  C   UNL A   1      38.790  33.699  37.292  1.00  0.00     0.022 A 
BRANCH  64  68
ATOM     68  S   UNL A   1      40.610  35.696  36.603  1.00  0.00     0.124 S 
ATOM     69  O   UNL A   1      39.739  36.643  35.910  1.00  0.00    -0.237 OA
ATOM     70  O   UNL A   1      40.644  35.806  38.058  1.00  0.00    -0.237 OA
ATOM     71  O   UNL A   1      41.901  35.465  35.964  1.00  0.00    -0.744 OA
ENDBRANCH  64  68
ENDBRANCH  47  61
BRANCH  48  72
ATOM     72  C   UNL A   1      42.464  26.171  27.546  1.00  0.00     0.023 A 
ATOM     73  C   UNL A   1      42.085  24.825  27.412  1.00  0.00     0.031 A 
ATOM     74  C   UNL A   1      43.326  26.712  26.575  1.00  0.00     0.131 A 
ATOM     75  C   UNL A   1      42.602  24.054  26.358  1.00  0.00     0.055 A 
ATOM     76  C   UNL A   1      43.795  25.956  25.499  1.00  0.00     0.041 A 
ATOM     77  F   UNL A   1      43.716  27.995  26.652  1.00  0.00    -0.206 F 
ATOM     78  C   UNL A   1      43.442  24.614  25.393  1.00  0.00     0.022 A 
BRANCH  75  79
ATOM     79  S   UNL A   1      42.219  22.282  26.309  1.00  0.00     0.124 S 
ATOM     80  O   UNL A   1      42.704  21.835  27.609  1.00  0.00    -0.237 OA
ATOM     81  O   UNL A   1      40.770  22.290  26.133  1.00  0.00    -0.237 OA
ATOM     82  O   UNL A   1      42.980  21.801  25.158  1.00  0.00    -0.744 OA
ENDBRANCH  75  79
ENDBRANCH  48  72
BRANCH  60  83
ATOM     83  C   UNL A   1      45.101  27.452  33.872  1.00  0.00     0.023 A 
ATOM     84  C   UNL A   1      45.032  26.311  34.692  1.00  0.00     0.031 A 
ATOM     85  C   UNL A   1      46.340  28.106  33.755  1.00  0.00     0.131 A 
ATOM     86  C   UNL A   1      46.162  25.900  35.416  1.00  0.00     0.055 A 
ATOM     87  C   UNL A   1      47.477  27.654  34.427  1.00  0.00     0.041 A 
ATOM     88  F   UNL A   1      46.466  29.200  32.987  1.00  0.00    -0.206 F 
ATOM     89  C   UNL A   1      47.388  26.554  35.276  1.00  0.00     0.022 A 
BRANCH  86  90
ATOM     90  S   UNL A   1      45.979  24.565  36.630  1.00  0.00     0.124 S 
ATOM     91  O   UNL A   1      47.237  23.843  36.479  1.00  0.00    -0.237 OA
ATOM     92  O   UNL A   1      45.812  25.300  37.879  1.00  0.00    -0.237 OA
ATOM     93  O   UNL A   1      44.793  23.844  36.172  1.00  0.00    -0.744 OA
ENDBRANCH  86  90
ENDBRANCH  60  83
ENDBRANCH  34  35
ENDBRANCH  26  29
ENDBRANCH  24  25
ENDBRANCH   1  24
TORSDOF 16
ENDMDL
