MODEL 1
REMARK VINA RESULT:     -11.6      0.000      0.000
REMARK SMILES COc1cc2c(cc1OC)-c1c(c(C(=O)Nc3ccc(C(=O)NCCCNC(=O)c4ccc(-c5c6nc(c(-c7cc(S(=O)(=O)[O-])ccc7F)c7ccc([nH]7)c(-c7cc(S(=O)(=O)[O-])ccc7F)c7nc(c(-c8cc(S(=O)(=O)[O-])ccc8F)c8ccc5[nH]8)C=C7)C=C6)cc4)cc3)nn1-c1ccc(F)cc1)C2
REMARK SMILES IDX 25 1 24 2 23 3 21 4 22 5 20 7 17 8 18 9 94 10 19 11 93 12
REMARK SMILES IDX 16 13 14 14 15 15 13 17 3 18 4 19 8 20 5 21 7 22 6 23 104 24
REMARK SMILES IDX 11 25 12 26 96 27 95 28 2 29 1 30 9 31 10 32 97 33 98 34
REMARK SMILES IDX 103 35 99 36 102 37 100 38 101 39 26 40 27 41 28 42 29 44
REMARK SMILES IDX 30 45 31 46 92 47 32 48 91 49 33 50 34 51 35 52 85 53 36 54
REMARK SMILES IDX 90 55 84 56 86 57 37 58 89 59 83 60 82 61 38 63 70 64 50 65
REMARK SMILES IDX 69 66 51 67 54 68 68 69 87 70 52 71 53 72 67 74 88 75 55 76
REMARK SMILES IDX 39 77 40 78 48 79 41 80 47 81 49 82 46 83 42 84 43 85 44 86
REMARK SMILES IDX 45 87 71 88 72 89 80 90 73 91 79 92 81 93 78 94 74 95 75 96
REMARK SMILES IDX 76 97 77 98 56 99 57 100 65 101 58 102 64 103 66 104 63 105
REMARK SMILES IDX 59 106 60 107 61 108 62 109
REMARK H PARENT 23 6 16 16 27 43 86 62 54 73
REMARK Flexibility Score: inf
ROOT
ATOM      1  C   UNL A   1      35.794  34.245  31.284  1.00  0.00     0.042 C 
ENDROOT
BRANCH   1   2
ATOM      2  C   UNL A   1      36.693  34.346  32.513  1.00  0.00     0.118 C 
BRANCH   2   3
ATOM      3  N   UNL A   1      37.685  33.293  32.640  1.00  0.00    -0.352 N 
ATOM      4  C   UNL A   1      39.029  33.202  32.357  1.00  0.00     0.251 C 
ATOM      5  O   UNL A   1      39.609  32.217  32.826  1.00  0.00    -0.269 OA
ATOM      6  H   UNL A   1      37.315  32.459  33.010  1.00  0.00     0.163 HD
BRANCH   4   7
ATOM      7  C   UNL A   1      39.792  34.082  31.408  1.00  0.00     0.039 A 
ATOM      8  C   UNL A   1      41.511  34.690  29.286  1.00  0.00     0.041 A 
ATOM      9  C   UNL A   1      42.050  34.431  30.535  1.00  0.00     0.027 A 
ATOM     10  C   UNL A   1      40.153  34.977  29.190  1.00  0.00     0.027 A 
ATOM     11  C   UNL A   1      41.186  34.136  31.600  1.00  0.00     0.016 A 
ATOM     12  C   UNL A   1      39.297  34.680  30.256  1.00  0.00     0.016 A 
BRANCH   8  13
ATOM     13  N   UNL A   1      42.255  34.693  28.113  1.00  0.00    -0.321 N 
ATOM     14  C   UNL A   1      42.638  35.689  27.239  1.00  0.00     0.276 C 
ATOM     15  O   UNL A   1      43.006  35.278  26.130  1.00  0.00    -0.267 OA
ATOM     16  H   UNL A   1      42.574  33.800  27.851  1.00  0.00     0.170 HD
BRANCH  14  17
ATOM     17  C   UNL A   1      42.778  37.134  27.596  1.00  0.00     0.155 A 
ATOM     18  C   UNL A   1      43.558  41.100  32.014  1.00  0.00     0.161 A 
ATOM     19  C   UNL A   1      43.751  39.721  31.845  1.00  0.00     0.055 A 
ATOM     20  C   UNL A   1      43.372  41.951  30.904  1.00  0.00     0.161 A 
ATOM     21  C   UNL A   1      43.688  39.202  30.557  1.00  0.00    -0.030 A 
ATOM     22  C   UNL A   1      43.268  41.412  29.620  1.00  0.00     0.061 A 
ATOM     23  C   UNL A   1      43.441  40.052  29.463  1.00  0.00     0.008 A 
ATOM     24  C   UNL A   1      43.668  37.713  30.168  1.00  0.00     0.076 C 
ATOM     25  C   UNL A   1      43.240  39.173  28.357  1.00  0.00     0.079 A 
ATOM     26  C   UNL A   1      43.243  37.853  28.738  1.00  0.00     0.016 A 
ATOM     27  N   UNL A   1      42.883  39.247  27.056  1.00  0.00    -0.232 N 
ATOM     28  N   UNL A   1      42.452  38.039  26.622  1.00  0.00    -0.162 NA
BRANCH  18  29
ATOM     29  O   UNL A   1      43.550  41.573  33.302  1.00  0.00    -0.493 OA
ATOM     30  C   UNL A   1      42.305  42.218  33.590  1.00  0.00     0.278 C 
ENDBRANCH  18  29
BRANCH  20  31
ATOM     31  O   UNL A   1      43.188  43.309  30.959  1.00  0.00    -0.493 OA
ATOM     32  C   UNL A   1      44.384  44.072  31.090  1.00  0.00     0.278 C 
ENDBRANCH  20  31
BRANCH  27  33
ATOM     33  C   UNL A   1      42.903  40.394  26.235  1.00  0.00     0.065 A 
ATOM     34  C   UNL A   1      44.102  41.080  26.026  1.00  0.00     0.031 A 
ATOM     35  C   UNL A   1      41.727  40.793  25.575  1.00  0.00     0.031 A 
ATOM     36  C   UNL A   1      44.141  42.096  25.068  1.00  0.00     0.041 A 
ATOM     37  C   UNL A   1      41.770  41.825  24.642  1.00  0.00     0.041 A 
ATOM     38  C   UNL A   1      42.983  42.450  24.379  1.00  0.00     0.123 A 
ATOM     39  F   UNL A   1      43.037  43.402  23.438  1.00  0.00    -0.207 F 
ENDBRANCH  27  33
ENDBRANCH  14  17
ENDBRANCH   8  13
ENDBRANCH   4   7
ENDBRANCH   2   3
ENDBRANCH   1   2
BRANCH   1  40
ATOM     40  C   UNL A   1      34.845  33.051  31.220  1.00  0.00     0.118 C 
BRANCH  40  41
ATOM     41  N   UNL A   1      34.334  32.735  29.904  1.00  0.00    -0.352 N 
ATOM     42  C   UNL A   1      34.701  31.902  28.886  1.00  0.00     0.251 C 
ATOM     43  H   UNL A   1      33.521  33.247  29.689  1.00  0.00     0.163 HD
ATOM     44  O   UNL A   1      33.881  31.811  27.967  1.00  0.00    -0.269 OA
BRANCH  42  45
ATOM     45  C   UNL A   1      35.998  31.180  28.765  1.00  0.00     0.039 A 
ATOM     46  C   UNL A   1      36.161  29.813  28.543  1.00  0.00     0.014 A 
ATOM     47  C   UNL A   1      37.148  31.963  28.986  1.00  0.00     0.014 A 
ATOM     48  C   UNL A   1      37.418  29.222  28.682  1.00  0.00     0.010 A 
ATOM     49  C   UNL A   1      38.406  31.385  29.094  1.00  0.00     0.010 A 
ATOM     50  C   UNL A   1      38.530  30.002  29.013  1.00  0.00    -0.014 A 
BRANCH  50  51
ATOM     51  C   UNL A   1      39.819  29.344  29.219  1.00  0.00     0.031 A 
ATOM     52  C   UNL A   1      40.159  29.008  30.632  1.00  0.00     0.074 A 
ATOM     53  C   UNL A   1      40.594  28.920  28.198  1.00  0.00     0.049 A 
ATOM     54  N   UNL A   1      41.155  29.417  31.351  1.00  0.00    -0.248 NA
ATOM     55  C   UNL A   1      39.194  28.177  31.366  1.00  0.00     0.031 C 
ATOM     56  C   UNL A   1      40.253  28.856  26.772  1.00  0.00     0.029 A 
ATOM     57  N   UNL A   1      41.825  28.340  28.242  1.00  0.00    -0.354 N 
ATOM     58  C   UNL A   1      41.045  28.755  32.579  1.00  0.00     0.074 A 
ATOM     59  C   UNL A   1      39.746  28.130  32.578  1.00  0.00     0.031 C 
ATOM     60  C   UNL A   1      41.144  28.062  26.136  1.00  0.00     0.029 A 
ATOM     61  C   UNL A   1      42.196  27.698  27.068  1.00  0.00     0.049 A 
ATOM     62  H   UNL A   1      42.404  28.372  29.039  1.00  0.00     0.167 HD
ATOM     63  C   UNL A   1      42.096  28.617  33.439  1.00  0.00     0.034 A 
ATOM     64  C   UNL A   1      43.250  26.862  26.894  1.00  0.00     0.034 A 
ATOM     65  C   UNL A   1      43.162  29.522  33.117  1.00  0.00     0.049 A 
ATOM     66  C   UNL A   1      44.196  27.068  28.015  1.00  0.00     0.074 A 
ATOM     67  C   UNL A   1      43.308  30.895  33.108  1.00  0.00     0.029 A 
ATOM     68  N   UNL A   1      44.228  29.029  32.407  1.00  0.00    -0.354 N 
ATOM     69  N   UNL A   1      44.906  28.146  28.191  1.00  0.00    -0.248 NA
ATOM     70  C   UNL A   1      44.037  26.222  29.188  1.00  0.00     0.031 C 
ATOM     71  C   UNL A   1      44.162  31.165  32.001  1.00  0.00     0.029 A 
ATOM     72  C   UNL A   1      44.528  29.943  31.431  1.00  0.00     0.049 A 
ATOM     73  H   UNL A   1      44.692  28.176  32.569  1.00  0.00     0.167 HD
ATOM     74  C   UNL A   1      44.899  28.344  29.563  1.00  0.00     0.074 A 
ATOM     75  C   UNL A   1      44.445  27.075  30.129  1.00  0.00     0.031 C 
ATOM     76  C   UNL A   1      44.991  29.596  30.102  1.00  0.00     0.034 A 
BRANCH  63  77
ATOM     77  C   UNL A   1      42.281  27.454  34.390  1.00  0.00     0.023 A 
ATOM     78  C   UNL A   1      43.060  26.326  34.075  1.00  0.00     0.031 A 
ATOM     79  C   UNL A   1      41.864  27.546  35.736  1.00  0.00     0.131 A 
ATOM     80  C   UNL A   1      43.381  25.355  35.033  1.00  0.00     0.055 A 
ATOM     81  C   UNL A   1      42.242  26.612  36.712  1.00  0.00     0.041 A 
ATOM     82  F   UNL A   1      41.121  28.580  36.162  1.00  0.00    -0.206 F 
ATOM     83  C   UNL A   1      43.006  25.507  36.362  1.00  0.00     0.022 A 
BRANCH  80  84
ATOM     84  S   UNL A   1      44.309  23.871  34.553  1.00  0.00     0.124 S 
ATOM     85  O   UNL A   1      45.142  23.646  35.729  1.00  0.00    -0.237 OA
ATOM     86  O   UNL A   1      43.234  22.904  34.342  1.00  0.00    -0.237 OA
ATOM     87  O   UNL A   1      45.010  24.286  33.342  1.00  0.00    -0.744 OA
ENDBRANCH  80  84
ENDBRANCH  63  77
BRANCH  64  88
ATOM     88  C   UNL A   1      43.237  25.596  26.125  1.00  0.00     0.023 A 
ATOM     89  C   UNL A   1      42.331  24.579  26.484  1.00  0.00     0.031 A 
ATOM     90  C   UNL A   1      44.297  25.247  25.272  1.00  0.00     0.131 A 
ATOM     91  C   UNL A   1      42.527  23.264  26.042  1.00  0.00     0.055 A 
ATOM     92  C   UNL A   1      44.480  23.935  24.817  1.00  0.00     0.041 A 
ATOM     93  F   UNL A   1      45.217  26.160  24.923  1.00  0.00    -0.206 F 
ATOM     94  C   UNL A   1      43.600  22.933  25.215  1.00  0.00     0.022 A 
BRANCH  91  95
ATOM     95  S   UNL A   1      41.429  21.941  26.620  1.00  0.00     0.124 S 
ATOM     96  O   UNL A   1      41.859  21.773  28.010  1.00  0.00    -0.237 OA
ATOM     97  O   UNL A   1      40.112  22.554  26.444  1.00  0.00    -0.237 OA
ATOM     98  O   UNL A   1      41.736  20.828  25.741  1.00  0.00    -0.744 OA
ENDBRANCH  91  95
ENDBRANCH  64  88
BRANCH  76  99
ATOM     99  C   UNL A   1      45.341  30.761  29.200  1.00  0.00     0.023 A 
ATOM    100  C   UNL A   1      46.661  31.242  29.251  1.00  0.00     0.031 A 
ATOM    101  C   UNL A   1      44.395  31.541  28.507  1.00  0.00     0.131 A 
ATOM    102  C   UNL A   1      46.989  32.475  28.678  1.00  0.00     0.055 A 
ATOM    103  C   UNL A   1      44.744  32.736  27.868  1.00  0.00     0.041 A 
ATOM    104  F   UNL A   1      43.093  31.227  28.501  1.00  0.00    -0.206 F 
ATOM    105  C   UNL A   1      46.043  33.219  27.969  1.00  0.00     0.022 A 
BRANCH 102 106
ATOM    106  S   UNL A   1      48.608  33.227  28.990  1.00  0.00     0.124 S 
ATOM    107  O   UNL A   1      48.738  34.156  27.873  1.00  0.00    -0.237 OA
ATOM    108  O   UNL A   1      48.410  33.846  30.300  1.00  0.00    -0.237 OA
ATOM    109  O   UNL A   1      49.531  32.096  28.976  1.00  0.00    -0.744 OA
ENDBRANCH 102 106
ENDBRANCH  76  99
ENDBRANCH  50  51
ENDBRANCH  42  45
ENDBRANCH  40  41
ENDBRANCH   1  40
TORSDOF 18
ENDMDL
MODEL 2
REMARK VINA RESULT:     -11.3      4.907     10.633
REMARK SMILES COc1cc2c(cc1OC)-c1c(c(C(=O)Nc3ccc(C(=O)NCCCNC(=O)c4ccc(-c5c6nc(c(-c7cc(S(=O)(=O)[O-])ccc7F)c7ccc([nH]7)c(-c7cc(S(=O)(=O)[O-])ccc7F)c7nc(c(-c8cc(S(=O)(=O)[O-])ccc8F)c8ccc5[nH]8)C=C7)C=C6)cc4)cc3)nn1-c1ccc(F)cc1)C2
REMARK SMILES IDX 25 1 24 2 23 3 21 4 22 5 20 7 17 8 18 9 94 10 19 11 93 12
REMARK SMILES IDX 16 13 14 14 15 15 13 17 3 18 4 19 8 20 5 21 7 22 6 23 104 24
REMARK SMILES IDX 11 25 12 26 96 27 95 28 2 29 1 30 9 31 10 32 97 33 98 34
REMARK SMILES IDX 103 35 99 36 102 37 100 38 101 39 26 40 27 41 28 42 29 44
REMARK SMILES IDX 30 45 31 46 92 47 32 48 91 49 33 50 34 51 35 52 85 53 36 54
REMARK SMILES IDX 90 55 84 56 86 57 37 58 89 59 83 60 82 61 38 63 70 64 50 65
REMARK SMILES IDX 69 66 51 67 54 68 68 69 87 70 52 71 53 72 67 74 88 75 55 76
REMARK SMILES IDX 39 77 40 78 48 79 41 80 47 81 49 82 46 83 42 84 43 85 44 86
REMARK SMILES IDX 45 87 71 88 72 89 80 90 73 91 79 92 81 93 78 94 74 95 75 96
REMARK SMILES IDX 76 97 77 98 56 99 57 100 65 101 58 102 64 103 66 104 63 105
REMARK SMILES IDX 59 106 60 107 61 108 62 109
REMARK H PARENT 23 6 16 16 27 43 86 62 54 73
REMARK Flexibility Score: inf
ROOT
ATOM      1  C   UNL A   1      39.136  22.092  26.165  1.00  0.00     0.042 C 
ENDROOT
BRANCH   1   2
ATOM      2  C   UNL A   1      39.335  23.512  26.688  1.00  0.00     0.118 C 
BRANCH   2   3
ATOM      3  N   UNL A   1      40.473  24.221  26.129  1.00  0.00    -0.352 N 
ATOM      4  C   UNL A   1      41.011  25.473  26.320  1.00  0.00     0.251 C 
ATOM      5  O   UNL A   1      42.138  25.649  25.846  1.00  0.00    -0.269 OA
ATOM      6  H   UNL A   1      40.968  23.689  25.466  1.00  0.00     0.163 HD
BRANCH   4   7
ATOM      7  C   UNL A   1      40.294  26.665  26.890  1.00  0.00     0.039 A 
ATOM      8  C   UNL A   1      39.837  28.787  28.654  1.00  0.00     0.041 A 
ATOM      9  C   UNL A   1      39.400  27.520  28.999  1.00  0.00     0.027 A 
ATOM     10  C   UNL A   1      40.173  29.041  27.328  1.00  0.00     0.027 A 
ATOM     11  C   UNL A   1      39.621  26.458  28.109  1.00  0.00     0.016 A 
ATOM     12  C   UNL A   1      40.393  27.977  26.445  1.00  0.00     0.016 A 
BRANCH   8  13
ATOM     13  N   UNL A   1      39.948  29.836  29.559  1.00  0.00    -0.321 N 
ATOM     14  C   UNL A   1      39.245  31.008  29.739  1.00  0.00     0.276 C 
ATOM     15  O   UNL A   1      39.834  31.854  30.425  1.00  0.00    -0.267 OA
ATOM     16  H   UNL A   1      40.681  29.717  30.205  1.00  0.00     0.170 HD
BRANCH  14  17
ATOM     17  C   UNL A   1      37.829  31.231  29.311  1.00  0.00     0.155 A 
ATOM     18  C   UNL A   1      33.246  29.172  26.054  1.00  0.00     0.161 A 
ATOM     19  C   UNL A   1      34.438  28.645  26.572  1.00  0.00     0.055 A 
ATOM     20  C   UNL A   1      32.728  30.398  26.522  1.00  0.00     0.161 A 
ATOM     21  C   UNL A   1      35.134  29.395  27.514  1.00  0.00    -0.030 A 
ATOM     22  C   UNL A   1      33.458  31.162  27.436  1.00  0.00     0.061 A 
ATOM     23  C   UNL A   1      34.639  30.645  27.928  1.00  0.00     0.008 A 
ATOM     24  C   UNL A   1      36.546  29.107  28.055  1.00  0.00     0.076 C 
ATOM     25  C   UNL A   1      35.686  31.208  28.718  1.00  0.00     0.079 A 
ATOM     26  C   UNL A   1      36.814  30.425  28.713  1.00  0.00     0.016 A 
ATOM     27  N   UNL A   1      35.967  32.369  29.347  1.00  0.00    -0.232 N 
ATOM     28  N   UNL A   1      37.297  32.464  29.577  1.00  0.00    -0.162 NA
BRANCH  18  29
ATOM     29  O   UNL A   1      32.621  28.445  25.072  1.00  0.00    -0.493 OA
ATOM     30  C   UNL A   1      33.170  27.126  25.001  1.00  0.00     0.278 C 
ENDBRANCH  18  29
BRANCH  20  31
ATOM     31  O   UNL A   1      31.569  30.993  26.092  1.00  0.00    -0.493 OA
ATOM     32  C   UNL A   1      31.366  32.322  26.562  1.00  0.00     0.278 C 
ENDBRANCH  20  31
BRANCH  27  33
ATOM     33  C   UNL A   1      35.054  33.384  29.704  1.00  0.00     0.065 A 
ATOM     34  C   UNL A   1      34.731  33.590  31.047  1.00  0.00     0.031 A 
ATOM     35  C   UNL A   1      34.532  34.227  28.706  1.00  0.00     0.031 A 
ATOM     36  C   UNL A   1      33.975  34.712  31.397  1.00  0.00     0.041 A 
ATOM     37  C   UNL A   1      33.756  35.327  29.062  1.00  0.00     0.041 A 
ATOM     38  C   UNL A   1      33.506  35.572  30.407  1.00  0.00     0.123 A 
ATOM     39  F   UNL A   1      32.811  36.664  30.754  1.00  0.00    -0.207 F 
ENDBRANCH  27  33
ENDBRANCH  14  17
ENDBRANCH   8  13
ENDBRANCH   4   7
ENDBRANCH   2   3
ENDBRANCH   1   2
BRANCH   1  40
ATOM     40  C   UNL A   1      40.108  21.029  26.670  1.00  0.00     0.118 C 
BRANCH  40  41
ATOM     41  N   UNL A   1      41.326  20.887  25.902  1.00  0.00    -0.352 N 
ATOM     42  C   UNL A   1      42.639  21.213  26.080  1.00  0.00     0.251 C 
ATOM     43  H   UNL A   1      41.167  20.445  25.036  1.00  0.00     0.163 HD
ATOM     44  O   UNL A   1      43.408  20.761  25.225  1.00  0.00    -0.269 OA
BRANCH  42  45
ATOM     45  C   UNL A   1      43.188  22.102  27.141  1.00  0.00     0.039 A 
ATOM     46  C   UNL A   1      42.527  22.499  28.304  1.00  0.00     0.014 A 
ATOM     47  C   UNL A   1      44.460  22.646  26.876  1.00  0.00     0.014 A 
ATOM     48  C   UNL A   1      43.056  23.515  29.101  1.00  0.00     0.010 A 
ATOM     49  C   UNL A   1      45.005  23.635  27.684  1.00  0.00     0.010 A 
ATOM     50  C   UNL A   1      44.268  24.121  28.758  1.00  0.00    -0.014 A 
BRANCH  50  51
ATOM     51  C   UNL A   1      44.761  25.229  29.575  1.00  0.00     0.031 A 
ATOM     52  C   UNL A   1      44.816  26.559  28.901  1.00  0.00     0.074 A 
ATOM     53  C   UNL A   1      45.006  25.109  30.897  1.00  0.00     0.049 A 
ATOM     54  N   UNL A   1      45.841  27.318  28.677  1.00  0.00    -0.248 NA
ATOM     55  C   UNL A   1      43.564  27.056  28.313  1.00  0.00     0.031 C 
ATOM     56  C   UNL A   1      44.676  23.984  31.778  1.00  0.00     0.029 A 
ATOM     57  N   UNL A   1      45.506  26.035  31.762  1.00  0.00    -0.354 N 
ATOM     58  C   UNL A   1      45.341  28.477  28.074  1.00  0.00     0.074 A 
ATOM     59  C   UNL A   1      43.967  28.192  27.744  1.00  0.00     0.031 C 
ATOM     60  C   UNL A   1      44.763  24.385  33.066  1.00  0.00     0.029 A 
ATOM     61  C   UNL A   1      45.304  25.732  33.102  1.00  0.00     0.049 A 
ATOM     62  H   UNL A   1      45.971  26.850  31.463  1.00  0.00     0.167 HD
ATOM     63  C   UNL A   1      46.034  29.653  28.048  1.00  0.00     0.034 A 
ATOM     64  C   UNL A   1      45.493  26.557  34.161  1.00  0.00     0.034 A 
ATOM     65  C   UNL A   1      47.422  29.452  28.356  1.00  0.00     0.049 A 
ATOM     66  C   UNL A   1      46.353  27.681  33.726  1.00  0.00     0.074 A 
ATOM     67  C   UNL A   1      48.468  28.784  27.753  1.00  0.00     0.029 A 
ATOM     68  N   UNL A   1      47.840  29.726  29.634  1.00  0.00    -0.354 N 
ATOM     69  N   UNL A   1      47.614  27.568  33.416  1.00  0.00    -0.248 NA
ATOM     70  C   UNL A   1      45.690  28.877  33.230  1.00  0.00     0.031 C 
ATOM     71  C   UNL A   1      49.245  28.272  28.831  1.00  0.00     0.029 A 
ATOM     72  C   UNL A   1      48.658  28.698  30.025  1.00  0.00     0.049 A 
ATOM     73  H   UNL A   1      47.597  30.514  30.171  1.00  0.00     0.167 HD
ATOM     74  C   UNL A   1      47.782  28.420  32.335  1.00  0.00     0.074 A 
ATOM     75  C   UNL A   1      46.597  29.275  32.337  1.00  0.00     0.031 C 
ATOM     76  C   UNL A   1      48.722  28.173  31.375  1.00  0.00     0.034 A 
BRANCH  63  77
ATOM     77  C   UNL A   1      45.398  31.027  28.038  1.00  0.00     0.023 A 
ATOM     78  C   UNL A   1      45.292  31.811  26.875  1.00  0.00     0.031 A 
ATOM     79  C   UNL A   1      44.674  31.497  29.156  1.00  0.00     0.131 A 
ATOM     80  C   UNL A   1      44.530  32.987  26.840  1.00  0.00     0.055 A 
ATOM     81  C   UNL A   1      43.856  32.636  29.103  1.00  0.00     0.041 A 
ATOM     82  F   UNL A   1      44.689  30.832  30.321  1.00  0.00    -0.206 F 
ATOM     83  C   UNL A   1      43.781  33.389  27.939  1.00  0.00     0.022 A 
BRANCH  80  84
ATOM     84  S   UNL A   1      44.501  34.012  25.343  1.00  0.00     0.124 S 
ATOM     85  O   UNL A   1      43.571  35.069  25.723  1.00  0.00    -0.237 OA
ATOM     86  O   UNL A   1      45.903  34.410  25.230  1.00  0.00    -0.237 OA
ATOM     87  O   UNL A   1      44.037  33.091  24.310  1.00  0.00    -0.744 OA
ENDBRANCH  80  84
ENDBRANCH  63  77
BRANCH  64  88
ATOM     88  C   UNL A   1      44.595  26.687  35.333  1.00  0.00     0.023 A 
ATOM     89  C   UNL A   1      45.120  26.517  36.627  1.00  0.00     0.031 A 
ATOM     90  C   UNL A   1      43.198  26.651  35.190  1.00  0.00     0.131 A 
ATOM     91  C   UNL A   1      44.270  26.268  37.713  1.00  0.00     0.055 A 
ATOM     92  C   UNL A   1      42.349  26.419  36.280  1.00  0.00     0.041 A 
ATOM     93  F   UNL A   1      42.634  26.767  33.977  1.00  0.00    -0.206 F 
ATOM     94  C   UNL A   1      42.887  26.211  37.547  1.00  0.00     0.022 A 
BRANCH  91  95
ATOM     95  S   UNL A   1      44.968  25.919  39.350  1.00  0.00     0.124 S 
ATOM     96  O   UNL A   1      44.076  26.677  40.231  1.00  0.00    -0.237 OA
ATOM     97  O   UNL A   1      44.830  24.464  39.424  1.00  0.00    -0.237 OA
ATOM     98  O   UNL A   1      46.325  26.426  39.263  1.00  0.00    -0.744 OA
ENDBRANCH  91  95
ENDBRANCH  64  88
BRANCH  76  99
ATOM     99  C   UNL A   1      49.750  27.087  31.613  1.00  0.00     0.023 A 
ATOM    100  C   UNL A   1      51.030  27.493  32.030  1.00  0.00     0.031 A 
ATOM    101  C   UNL A   1      49.593  25.745  31.219  1.00  0.00     0.131 A 
ATOM    102  C   UNL A   1      52.104  26.597  31.994  1.00  0.00     0.055 A 
ATOM    103  C   UNL A   1      50.653  24.832  31.259  1.00  0.00     0.041 A 
ATOM    104  F   UNL A   1      48.445  25.294  30.699  1.00  0.00    -0.206 F 
ATOM    105  C   UNL A   1      51.922  25.262  31.629  1.00  0.00     0.022 A 
BRANCH 102 106
ATOM    106  S   UNL A   1      53.797  27.189  32.251  1.00  0.00     0.124 S 
ATOM    107  O   UNL A   1      54.559  25.945  32.272  1.00  0.00    -0.237 OA
ATOM    108  O   UNL A   1      54.008  28.033  31.075  1.00  0.00    -0.237 OA
ATOM    109  O   UNL A   1      53.732  27.906  33.520  1.00  0.00    -0.744 OA
ENDBRANCH 102 106
ENDBRANCH  76  99
ENDBRANCH  50  51
ENDBRANCH  42  45
ENDBRANCH  40  41
ENDBRANCH   1  40
TORSDOF 18
ENDMDL
MODEL 3
REMARK VINA RESULT:     -11.2      2.164      3.776
REMARK SMILES COc1cc2c(cc1OC)-c1c(c(C(=O)Nc3ccc(C(=O)NCCCNC(=O)c4ccc(-c5c6nc(c(-c7cc(S(=O)(=O)[O-])ccc7F)c7ccc([nH]7)c(-c7cc(S(=O)(=O)[O-])ccc7F)c7nc(c(-c8cc(S(=O)(=O)[O-])ccc8F)c8ccc5[nH]8)C=C7)C=C6)cc4)cc3)nn1-c1ccc(F)cc1)C2
REMARK SMILES IDX 25 1 24 2 23 3 21 4 22 5 20 7 17 8 18 9 94 10 19 11 93 12
REMARK SMILES IDX 16 13 14 14 15 15 13 17 3 18 4 19 8 20 5 21 7 22 6 23 104 24
REMARK SMILES IDX 11 25 12 26 96 27 95 28 2 29 1 30 9 31 10 32 97 33 98 34
REMARK SMILES IDX 103 35 99 36 102 37 100 38 101 39 26 40 27 41 28 42 29 44
REMARK SMILES IDX 30 45 31 46 92 47 32 48 91 49 33 50 34 51 35 52 85 53 36 54
REMARK SMILES IDX 90 55 84 56 86 57 37 58 89 59 83 60 82 61 38 63 70 64 50 65
REMARK SMILES IDX 69 66 51 67 54 68 68 69 87 70 52 71 53 72 67 74 88 75 55 76
REMARK SMILES IDX 39 77 40 78 48 79 41 80 47 81 49 82 46 83 42 84 43 85 44 86
REMARK SMILES IDX 45 87 71 88 72 89 80 90 73 91 79 92 81 93 78 94 74 95 75 96
REMARK SMILES IDX 76 97 77 98 56 99 57 100 65 101 58 102 64 103 66 104 63 105
REMARK SMILES IDX 59 106 60 107 61 108 62 109
REMARK H PARENT 23 6 16 16 27 43 86 62 54 73
REMARK Flexibility Score: inf
ROOT
ATOM      1  C   UNL A   1      34.488  33.897  32.586  1.00  0.00     0.042 C 
ENDROOT
BRANCH   1   2
ATOM      2  C   UNL A   1      35.699  34.675  33.094  1.00  0.00     0.118 C 
BRANCH   2   3
ATOM      3  N   UNL A   1      36.732  34.923  32.103  1.00  0.00    -0.352 N 
ATOM      4  C   UNL A   1      38.055  34.565  31.987  1.00  0.00     0.251 C 
ATOM      5  O   UNL A   1      38.564  34.753  30.877  1.00  0.00    -0.269 OA
ATOM      6  H   UNL A   1      36.415  35.470  31.348  1.00  0.00     0.163 HD
BRANCH   4   7
ATOM      7  C   UNL A   1      38.956  34.138  33.110  1.00  0.00     0.039 A 
ATOM      8  C   UNL A   1      41.383  33.646  34.412  1.00  0.00     0.041 A 
ATOM      9  C   UNL A   1      40.863  32.678  33.571  1.00  0.00     0.027 A 
ATOM     10  C   UNL A   1      40.547  34.667  34.854  1.00  0.00     0.027 A 
ATOM     11  C   UNL A   1      39.641  32.922  32.926  1.00  0.00     0.016 A 
ATOM     12  C   UNL A   1      39.330  34.906  34.206  1.00  0.00     0.016 A 
BRANCH   8  13
ATOM     13  N   UNL A   1      42.699  33.652  34.858  1.00  0.00    -0.321 N 
ATOM     14  C   UNL A   1      43.893  34.024  34.278  1.00  0.00     0.276 C 
ATOM     15  O   UNL A   1      44.897  33.578  34.849  1.00  0.00    -0.267 OA
ATOM     16  H   UNL A   1      42.799  33.322  35.781  1.00  0.00     0.170 HD
BRANCH  14  17
ATOM     17  C   UNL A   1      44.031  35.009  33.161  1.00  0.00     0.155 A 
ATOM     18  C   UNL A   1      42.890  36.172  27.399  1.00  0.00     0.161 A 
ATOM     19  C   UNL A   1      42.406  35.281  28.368  1.00  0.00     0.055 A 
ATOM     20  C   UNL A   1      43.661  37.297  27.764  1.00  0.00     0.161 A 
ATOM     21  C   UNL A   1      42.759  35.497  29.695  1.00  0.00    -0.030 A 
ATOM     22  C   UNL A   1      44.045  37.478  29.095  1.00  0.00     0.061 A 
ATOM     23  C   UNL A   1      43.579  36.588  30.040  1.00  0.00     0.008 A 
ATOM     24  C   UNL A   1      42.512  34.543  30.878  1.00  0.00     0.076 C 
ATOM     25  C   UNL A   1      43.901  36.381  31.415  1.00  0.00     0.079 A 
ATOM     26  C   UNL A   1      43.417  35.184  31.885  1.00  0.00     0.016 A 
ATOM     27  N   UNL A   1      44.682  36.936  32.367  1.00  0.00    -0.232 N 
ATOM     28  N   UNL A   1      44.896  36.050  33.368  1.00  0.00    -0.162 NA
BRANCH  18  29
ATOM     29  O   UNL A   1      42.587  35.892  26.091  1.00  0.00    -0.493 OA
ATOM     30  C   UNL A   1      43.293  34.727  25.654  1.00  0.00     0.278 C 
ENDBRANCH  18  29
BRANCH  20  31
ATOM     31  O   UNL A   1      44.170  38.232  26.900  1.00  0.00    -0.493 OA
ATOM     32  C   UNL A   1      43.335  39.366  26.682  1.00  0.00     0.278 C 
ENDBRANCH  20  31
BRANCH  27  33
ATOM     33  C   UNL A   1      45.248  38.228  32.353  1.00  0.00     0.065 A 
ATOM     34  C   UNL A   1      44.558  39.296  32.930  1.00  0.00     0.031 A 
ATOM     35  C   UNL A   1      46.537  38.413  31.821  1.00  0.00     0.031 A 
ATOM     36  C   UNL A   1      45.210  40.524  33.074  1.00  0.00     0.041 A 
ATOM     37  C   UNL A   1      47.168  39.648  31.944  1.00  0.00     0.041 A 
ATOM     38  C   UNL A   1      46.507  40.684  32.593  1.00  0.00     0.123 A 
ATOM     39  F   UNL A   1      47.137  41.855  32.765  1.00  0.00    -0.207 F 
ENDBRANCH  27  33
ENDBRANCH  14  17
ENDBRANCH   8  13
ENDBRANCH   4   7
ENDBRANCH   2   3
ENDBRANCH   1   2
BRANCH   1  40
ATOM     40  C   UNL A   1      34.769  32.598  31.836  1.00  0.00     0.118 C 
BRANCH  40  41
ATOM     41  N   UNL A   1      34.358  32.581  30.449  1.00  0.00    -0.352 N 
ATOM     42  C   UNL A   1      34.777  31.951  29.312  1.00  0.00     0.251 C 
ATOM     43  H   UNL A   1      33.587  33.170  30.284  1.00  0.00     0.163 HD
ATOM     44  O   UNL A   1      34.034  32.093  28.336  1.00  0.00    -0.269 OA
BRANCH  42  45
ATOM     45  C   UNL A   1      36.051  31.198  29.143  1.00  0.00     0.039 A 
ATOM     46  C   UNL A   1      36.171  29.829  28.907  1.00  0.00     0.014 A 
ATOM     47  C   UNL A   1      37.227  31.951  29.330  1.00  0.00     0.014 A 
ATOM     48  C   UNL A   1      37.416  29.206  29.000  1.00  0.00     0.010 A 
ATOM     49  C   UNL A   1      38.472  31.340  29.392  1.00  0.00     0.010 A 
ATOM     50  C   UNL A   1      38.558  29.955  29.297  1.00  0.00    -0.014 A 
BRANCH  50  51
ATOM     51  C   UNL A   1      39.837  29.264  29.455  1.00  0.00     0.031 A 
ATOM     52  C   UNL A   1      40.188  28.857  30.847  1.00  0.00     0.074 A 
ATOM     53  C   UNL A   1      40.589  28.871  28.406  1.00  0.00     0.049 A 
ATOM     54  N   UNL A   1      41.202  29.214  31.570  1.00  0.00    -0.248 NA
ATOM     55  C   UNL A   1      39.216  28.012  31.557  1.00  0.00     0.031 C 
ATOM     56  C   UNL A   1      40.228  28.878  26.984  1.00  0.00     0.029 A 
ATOM     57  N   UNL A   1      41.809  28.265  28.407  1.00  0.00    -0.354 N 
ATOM     58  C   UNL A   1      41.094  28.499  32.768  1.00  0.00     0.074 A 
ATOM     59  C   UNL A   1      39.783  27.900  32.757  1.00  0.00     0.031 C 
ATOM     60  C   UNL A   1      41.095  28.097  26.300  1.00  0.00     0.029 A 
ATOM     61  C   UNL A   1      42.152  27.670  27.200  1.00  0.00     0.049 A 
ATOM     62  H   UNL A   1      42.399  28.250  29.196  1.00  0.00     0.167 HD
ATOM     63  C   UNL A   1      42.153  28.302  33.607  1.00  0.00     0.034 A 
ATOM     64  C   UNL A   1      43.186  26.822  26.974  1.00  0.00     0.034 A 
ATOM     65  C   UNL A   1      43.233  29.200  33.310  1.00  0.00     0.049 A 
ATOM     66  C   UNL A   1      44.151  26.960  28.089  1.00  0.00     0.074 A 
ATOM     67  C   UNL A   1      43.406  30.568  33.361  1.00  0.00     0.029 A 
ATOM     68  N   UNL A   1      44.280  28.718  32.564  1.00  0.00    -0.354 N 
ATOM     69  N   UNL A   1      44.885  28.014  28.304  1.00  0.00    -0.248 NA
ATOM     70  C   UNL A   1      43.990  26.065  29.225  1.00  0.00     0.031 C 
ATOM     71  C   UNL A   1      44.251  30.872  32.256  1.00  0.00     0.029 A 
ATOM     72  C   UNL A   1      44.585  29.669  31.627  1.00  0.00     0.049 A 
ATOM     73  H   UNL A   1      44.729  27.850  32.681  1.00  0.00     0.167 HD
ATOM     74  C   UNL A   1      44.900  28.150  29.684  1.00  0.00     0.074 A 
ATOM     75  C   UNL A   1      44.427  26.866  30.198  1.00  0.00     0.031 C 
ATOM     76  C   UNL A   1      45.024  29.375  30.276  1.00  0.00     0.034 A 
BRANCH  63  77
ATOM     77  C   UNL A   1      42.328  27.094  34.502  1.00  0.00     0.023 A 
ATOM     78  C   UNL A   1      43.067  25.959  34.119  1.00  0.00     0.031 A 
ATOM     79  C   UNL A   1      41.944  27.138  35.860  1.00  0.00     0.131 A 
ATOM     80  C   UNL A   1      43.383  24.939  35.026  1.00  0.00     0.055 A 
ATOM     81  C   UNL A   1      42.319  26.151  36.785  1.00  0.00     0.041 A 
ATOM     82  F   UNL A   1      41.241  28.172  36.349  1.00  0.00    -0.206 F 
ATOM     83  C   UNL A   1      43.043  25.043  36.369  1.00  0.00     0.022 A 
BRANCH  80  84
ATOM     84  S   UNL A   1      44.258  23.453  34.460  1.00  0.00     0.124 S 
ATOM     85  O   UNL A   1      45.453  24.024  33.851  1.00  0.00    -0.237 OA
ATOM     86  O   UNL A   1      44.465  22.735  35.716  1.00  0.00    -0.237 OA
ATOM     87  O   UNL A   1      43.308  22.829  33.545  1.00  0.00    -0.744 OA
ENDBRANCH  80  84
ENDBRANCH  63  77
BRANCH  64  88
ATOM     88  C   UNL A   1      43.137  25.593  26.148  1.00  0.00     0.023 A 
ATOM     89  C   UNL A   1      42.264  24.551  26.513  1.00  0.00     0.031 A 
ATOM     90  C   UNL A   1      44.147  25.296  25.218  1.00  0.00     0.131 A 
ATOM     91  C   UNL A   1      42.444  23.260  26.000  1.00  0.00     0.055 A 
ATOM     92  C   UNL A   1      44.313  24.009  24.692  1.00  0.00     0.041 A 
ATOM     93  F   UNL A   1      45.036  26.235  24.858  1.00  0.00    -0.206 F 
ATOM     94  C   UNL A   1      43.468  22.980  25.096  1.00  0.00     0.022 A 
BRANCH  91  95
ATOM     95  S   UNL A   1      41.395  21.899  26.580  1.00  0.00     0.124 S 
ATOM     96  O   UNL A   1      40.058  22.355  26.191  1.00  0.00    -0.237 OA
ATOM     97  O   UNL A   1      41.919  20.773  25.805  1.00  0.00    -0.237 OA
ATOM     98  O   UNL A   1      41.641  21.857  28.009  1.00  0.00    -0.744 OA
ENDBRANCH  91  95
ENDBRANCH  64  88
BRANCH  76  99
ATOM     99  C   UNL A   1      45.385  30.572  29.423  1.00  0.00     0.023 A 
ATOM    100  C   UNL A   1      46.730  30.981  29.424  1.00  0.00     0.031 A 
ATOM    101  C   UNL A   1      44.445  31.439  28.833  1.00  0.00     0.131 A 
ATOM    102  C   UNL A   1      47.091  32.229  28.903  1.00  0.00     0.055 A 
ATOM    103  C   UNL A   1      44.823  32.651  28.243  1.00  0.00     0.041 A 
ATOM    104  F   UNL A   1      43.130  31.192  28.885  1.00  0.00    -0.206 F 
ATOM    105  C   UNL A   1      46.149  33.061  28.295  1.00  0.00     0.022 A 
BRANCH 102 106
ATOM    106  S   UNL A   1      48.763  32.877  29.162  1.00  0.00     0.124 S 
ATOM    107  O   UNL A   1      49.450  32.455  27.946  1.00  0.00    -0.237 OA
ATOM    108  O   UNL A   1      48.520  34.314  29.278  1.00  0.00    -0.237 OA
ATOM    109  O   UNL A   1      49.208  32.227  30.391  1.00  0.00    -0.744 OA
ENDBRANCH 102 106
ENDBRANCH  76  99
ENDBRANCH  50  51
ENDBRANCH  42  45
ENDBRANCH  40  41
ENDBRANCH   1  40
TORSDOF 18
ENDMDL
