MODEL 1
REMARK VINA RESULT:     -11.4      0.000      0.000
REMARK SMILES C[C@@H](O)[C@@H](NC(=O)CSc1ccncc1)C(=O)NCCCNC(=O)c1ccc(-c2c3nc(c(-c4cc(S(=O)(=O)[O-])ccc4F)c4ccc([nH]4)c(-c4cc(S(=O)(=O)[O-])ccc4F)c4nc(c(-c5cc(S(=O)(=O)[O-])ccc5F)c5ccc2[nH]5)C=C4)C=C3)cc1
REMARK SMILES IDX 19 1 18 2 16 3 17 4 4 6 2 7 1 8 3 9 5 11 6 12 7 14 8 15 9 16
REMARK SMILES IDX 10 17 11 18 15 19 12 20 14 21 13 22 20 23 21 24 22 25 23 26
REMARK SMILES IDX 24 28 25 29 26 30 87 31 27 32 86 33 28 34 29 35 30 36 80 37
REMARK SMILES IDX 31 38 85 39 79 40 81 41 32 42 84 43 78 44 77 45 33 47 65 48
REMARK SMILES IDX 45 49 64 50 46 51 49 52 63 53 82 54 47 55 48 56 62 58 83 59
REMARK SMILES IDX 50 60 34 61 35 62 43 63 36 64 42 65 44 66 41 67 37 68 38 69
REMARK SMILES IDX 39 70 40 71 66 72 67 73 75 74 68 75 74 76 76 77 73 78 69 79
REMARK SMILES IDX 70 80 71 81 72 82 51 83 52 84 60 85 53 86 59 87 61 88 58 89
REMARK SMILES IDX 54 90 55 91 56 92 57 93
REMARK H PARENT 18 5 3 10 5 13 22 27 81 46 49 57
REMARK Flexibility Score: inf
ROOT
ATOM      1  C   UNL A   1      31.861  30.052  26.159  1.00  0.00     0.117 C 
ENDROOT
BRANCH   1   2
ATOM      2  N   UNL A   1      32.797  29.956  25.059  1.00  0.00    -0.354 N 
ATOM      3  C   UNL A   1      32.970  28.903  24.209  1.00  0.00     0.245 C 
ATOM      4  O   UNL A   1      33.535  29.115  23.133  1.00  0.00    -0.273 OA
ATOM      5  H   UNL A   1      33.373  30.739  24.907  1.00  0.00     0.163 HD
BRANCH   3   6
ATOM      6  C   UNL A   1      32.499  27.490  24.598  1.00  0.00     0.200 C 
BRANCH   6   7
ATOM      7  C   UNL A   1      33.398  27.024  25.796  1.00  0.00     0.143 C 
ATOM      8  C   UNL A   1      33.861  25.574  25.709  1.00  0.00     0.041 C 
BRANCH   7   9
ATOM      9  O   UNL A   1      34.580  27.826  25.877  1.00  0.00    -0.391 OA
ATOM     10  H   UNL A   1      34.468  28.497  26.569  1.00  0.00     0.211 HD
ENDBRANCH   7   9
ENDBRANCH   6   7
BRANCH   6  11
ATOM     11  N   UNL A   1      31.058  27.332  24.909  1.00  0.00    -0.341 N 
ATOM     12  C   UNL A   1      29.977  27.129  24.100  1.00  0.00     0.231 C 
ATOM     13  H   UNL A   1      30.841  27.382  25.868  1.00  0.00     0.164 HD
ATOM     14  O   UNL A   1      29.136  26.329  24.521  1.00  0.00    -0.274 OA
BRANCH  12  15
ATOM     15  C   UNL A   1      29.745  27.942  22.841  1.00  0.00     0.174 C 
BRANCH  15  16
ATOM     16  S   UNL A   1      28.027  28.633  22.760  1.00  0.00    -0.116 SA
BRANCH  16  17
ATOM     17  C   UNL A   1      28.190  30.395  22.463  1.00  0.00     0.011 A 
ATOM     18  C   UNL A   1      28.045  30.864  21.155  1.00  0.00     0.035 A 
ATOM     19  C   UNL A   1      28.338  31.343  23.475  1.00  0.00     0.035 A 
ATOM     20  C   UNL A   1      28.094  32.232  20.916  1.00  0.00     0.112 A 
ATOM     21  C   UNL A   1      28.392  32.689  23.138  1.00  0.00     0.112 A 
ATOM     22  N   UNL A   1      28.285  33.154  21.880  1.00  0.00    -0.265 NA
ENDBRANCH  16  17
ENDBRANCH  15  16
ENDBRANCH  12  15
ENDBRANCH   6  11
ENDBRANCH   3   6
ENDBRANCH   1   2
BRANCH   1  23
ATOM     23  C   UNL A   1      31.590  31.466  26.607  1.00  0.00     0.042 C 
BRANCH  23  24
ATOM     24  C   UNL A   1      32.832  32.152  27.149  1.00  0.00     0.118 C 
BRANCH  24  25
ATOM     25  N   UNL A   1      32.585  33.515  27.617  1.00  0.00    -0.352 N 
ATOM     26  C   UNL A   1      33.253  34.253  28.568  1.00  0.00     0.251 C 
ATOM     27  H   UNL A   1      31.826  33.973  27.188  1.00  0.00     0.163 HD
ATOM     28  O   UNL A   1      32.822  35.338  28.932  1.00  0.00    -0.269 OA
BRANCH  26  29
ATOM     29  C   UNL A   1      34.487  33.705  29.153  1.00  0.00     0.039 A 
ATOM     30  C   UNL A   1      35.716  34.306  28.875  1.00  0.00     0.014 A 
ATOM     31  C   UNL A   1      34.406  32.607  30.011  1.00  0.00     0.014 A 
ATOM     32  C   UNL A   1      36.863  33.838  29.513  1.00  0.00     0.010 A 
ATOM     33  C   UNL A   1      35.522  32.228  30.735  1.00  0.00     0.010 A 
ATOM     34  C   UNL A   1      36.766  32.819  30.473  1.00  0.00    -0.014 A 
BRANCH  34  35
ATOM     35  C   UNL A   1      37.951  32.293  31.190  1.00  0.00     0.031 A 
ATOM     36  C   UNL A   1      38.737  31.175  30.562  1.00  0.00     0.074 A 
ATOM     37  C   UNL A   1      38.235  32.729  32.431  1.00  0.00     0.049 A 
ATOM     38  N   UNL A   1      39.679  30.430  31.077  1.00  0.00    -0.248 NA
ATOM     39  C   UNL A   1      38.366  30.809  29.185  1.00  0.00     0.031 C 
ATOM     40  C   UNL A   1      37.502  33.775  33.148  1.00  0.00     0.029 A 
ATOM     41  N   UNL A   1      39.199  32.329  33.320  1.00  0.00    -0.354 N 
ATOM     42  C   UNL A   1      39.979  29.481  30.103  1.00  0.00     0.074 A 
ATOM     43  C   UNL A   1      39.070  29.704  29.002  1.00  0.00     0.031 C 
ATOM     44  C   UNL A   1      38.050  33.939  34.363  1.00  0.00     0.029 A 
ATOM     45  C   UNL A   1      39.132  32.976  34.531  1.00  0.00     0.049 A 
ATOM     46  H   UNL A   1      39.874  31.644  33.110  1.00  0.00     0.167 HD
ATOM     47  C   UNL A   1      40.943  28.528  30.122  1.00  0.00     0.034 A 
ATOM     48  C   UNL A   1      39.845  32.789  35.659  1.00  0.00     0.034 A 
ATOM     49  C   UNL A   1      41.852  28.355  31.229  1.00  0.00     0.049 A 
ATOM     50  C   UNL A   1      40.922  31.736  35.659  1.00  0.00     0.074 A 
ATOM     51  C   UNL A   1      42.924  27.490  31.338  1.00  0.00     0.029 A 
ATOM     52  N   UNL A   1      41.785  29.059  32.428  1.00  0.00    -0.354 N 
ATOM     53  N   UNL A   1      41.245  30.886  34.709  1.00  0.00    -0.248 NA
ATOM     54  C   UNL A   1      41.738  31.625  36.873  1.00  0.00     0.031 C 
ATOM     55  C   UNL A   1      43.454  27.612  32.627  1.00  0.00     0.029 A 
ATOM     56  C   UNL A   1      42.772  28.619  33.295  1.00  0.00     0.049 A 
ATOM     57  H   UNL A   1      41.133  29.768  32.630  1.00  0.00     0.167 HD
ATOM     58  C   UNL A   1      42.320  30.153  35.205  1.00  0.00     0.074 A 
ATOM     59  C   UNL A   1      42.597  30.677  36.528  1.00  0.00     0.031 C 
ATOM     60  C   UNL A   1      43.017  29.143  34.621  1.00  0.00     0.034 A 
BRANCH  47  61
ATOM     61  C   UNL A   1      41.023  27.591  28.937  1.00  0.00     0.023 A 
ATOM     62  C   UNL A   1      42.039  27.696  27.970  1.00  0.00     0.031 A 
ATOM     63  C   UNL A   1      40.029  26.616  28.734  1.00  0.00     0.131 A 
ATOM     64  C   UNL A   1      41.981  26.922  26.800  1.00  0.00     0.055 A 
ATOM     65  C   UNL A   1      40.034  25.778  27.617  1.00  0.00     0.041 A 
ATOM     66  F   UNL A   1      39.018  26.478  29.606  1.00  0.00    -0.206 F 
ATOM     67  C   UNL A   1      41.001  25.943  26.631  1.00  0.00     0.022 A 
BRANCH  64  68
ATOM     68  S   UNL A   1      43.089  27.346  25.427  1.00  0.00     0.124 S 
ATOM     69  O   UNL A   1      44.194  27.993  26.131  1.00  0.00    -0.237 OA
ATOM     70  O   UNL A   1      43.379  26.042  24.843  1.00  0.00    -0.237 OA
ATOM     71  O   UNL A   1      42.282  28.239  24.598  1.00  0.00    -0.744 OA
ENDBRANCH  64  68
ENDBRANCH  47  61
BRANCH  48  72
ATOM     72  C   UNL A   1      39.548  33.603  36.872  1.00  0.00     0.023 A 
ATOM     73  C   UNL A   1      38.947  33.032  38.004  1.00  0.00     0.031 A 
ATOM     74  C   UNL A   1      39.874  34.971  36.918  1.00  0.00     0.131 A 
ATOM     75  C   UNL A   1      38.664  33.830  39.125  1.00  0.00     0.055 A 
ATOM     76  C   UNL A   1      39.635  35.750  38.052  1.00  0.00     0.041 A 
ATOM     77  F   UNL A   1      40.458  35.566  35.866  1.00  0.00    -0.206 F 
ATOM     78  C   UNL A   1      39.019  35.181  39.162  1.00  0.00     0.022 A 
BRANCH  75  79
ATOM     79  S   UNL A   1      37.771  33.090  40.519  1.00  0.00     0.124 S 
ATOM     80  O   UNL A   1      38.184  33.946  41.625  1.00  0.00    -0.237 OA
ATOM     81  O   UNL A   1      36.383  33.217  40.092  1.00  0.00    -0.237 OA
ATOM     82  O   UNL A   1      38.285  31.721  40.563  1.00  0.00    -0.744 OA
ENDBRANCH  75  79
ENDBRANCH  48  72
BRANCH  60  83
ATOM     83  C   UNL A   1      44.170  28.567  35.406  1.00  0.00     0.023 A 
ATOM     84  C   UNL A   1      43.994  27.500  36.303  1.00  0.00     0.031 A 
ATOM     85  C   UNL A   1      45.462  29.102  35.258  1.00  0.00     0.131 A 
ATOM     86  C   UNL A   1      45.080  27.044  37.065  1.00  0.00     0.055 A 
ATOM     87  C   UNL A   1      46.553  28.595  35.965  1.00  0.00     0.041 A 
ATOM     88  F   UNL A   1      45.687  30.125  34.418  1.00  0.00    -0.206 F 
ATOM     89  C   UNL A   1      46.362  27.570  36.886  1.00  0.00     0.022 A 
BRANCH  86  90
ATOM     90  S   UNL A   1      44.772  25.829  38.376  1.00  0.00     0.124 S 
ATOM     91  O   UNL A   1      43.715  26.478  39.146  1.00  0.00    -0.237 OA
ATOM     92  O   UNL A   1      44.376  24.646  37.619  1.00  0.00    -0.237 OA
ATOM     93  O   UNL A   1      46.061  25.726  39.057  1.00  0.00    -0.744 OA
ENDBRANCH  86  90
ENDBRANCH  60  83
ENDBRANCH  34  35
ENDBRANCH  26  29
ENDBRANCH  24  25
ENDBRANCH  23  24
ENDBRANCH   1  23
TORSDOF 19
ENDMDL
MODEL 2
REMARK VINA RESULT:     -11.2      3.932      9.420
REMARK SMILES C[C@@H](O)[C@@H](NC(=O)CSc1ccncc1)C(=O)NCCCNC(=O)c1ccc(-c2c3nc(c(-c4cc(S(=O)(=O)[O-])ccc4F)c4ccc([nH]4)c(-c4cc(S(=O)(=O)[O-])ccc4F)c4nc(c(-c5cc(S(=O)(=O)[O-])ccc5F)c5ccc2[nH]5)C=C4)C=C3)cc1
REMARK SMILES IDX 19 1 18 2 16 3 17 4 4 6 2 7 1 8 3 9 5 11 6 12 7 14 8 15 9 16
REMARK SMILES IDX 10 17 11 18 15 19 12 20 14 21 13 22 20 23 21 24 22 25 23 26
REMARK SMILES IDX 24 28 25 29 26 30 87 31 27 32 86 33 28 34 29 35 30 36 80 37
REMARK SMILES IDX 31 38 85 39 79 40 81 41 32 42 84 43 78 44 77 45 33 47 65 48
REMARK SMILES IDX 45 49 64 50 46 51 49 52 63 53 82 54 47 55 48 56 62 58 83 59
REMARK SMILES IDX 50 60 34 61 35 62 43 63 36 64 42 65 44 66 41 67 37 68 38 69
REMARK SMILES IDX 39 70 40 71 66 72 67 73 75 74 68 75 74 76 76 77 73 78 69 79
REMARK SMILES IDX 70 80 71 81 72 82 51 83 52 84 60 85 53 86 59 87 61 88 58 89
REMARK SMILES IDX 54 90 55 91 56 92 57 93
REMARK H PARENT 18 5 3 10 5 13 22 27 81 46 49 57
REMARK Flexibility Score: inf
ROOT
ATOM      1  C   UNL A   1      33.197  29.070  24.842  1.00  0.00     0.117 C 
ENDROOT
BRANCH   1   2
ATOM      2  N   UNL A   1      33.896  28.884  23.588  1.00  0.00    -0.354 N 
ATOM      3  C   UNL A   1      33.682  27.910  22.657  1.00  0.00     0.245 C 
ATOM      4  O   UNL A   1      34.100  28.101  21.512  1.00  0.00    -0.273 OA
ATOM      5  H   UNL A   1      34.605  29.535  23.383  1.00  0.00     0.163 HD
BRANCH   3   6
ATOM      6  C   UNL A   1      32.966  26.601  23.037  1.00  0.00     0.200 C 
BRANCH   6   7
ATOM      7  C   UNL A   1      31.594  26.596  22.279  1.00  0.00     0.143 C 
ATOM      8  C   UNL A   1      30.734  27.831  22.523  1.00  0.00     0.041 C 
BRANCH   7   9
ATOM      9  O   UNL A   1      31.801  26.515  20.866  1.00  0.00    -0.391 OA
ATOM     10  H   UNL A   1      30.970  26.269  20.431  1.00  0.00     0.211 HD
ENDBRANCH   7   9
ENDBRANCH   6   7
BRANCH   6  11
ATOM     11  N   UNL A   1      33.717  25.342  22.808  1.00  0.00    -0.341 N 
ATOM     12  C   UNL A   1      33.333  24.034  22.893  1.00  0.00     0.231 C 
ATOM     13  H   UNL A   1      34.658  25.472  22.550  1.00  0.00     0.164 HD
ATOM     14  O   UNL A   1      33.774  23.289  22.012  1.00  0.00    -0.274 OA
BRANCH  12  15
ATOM     15  C   UNL A   1      32.544  23.497  24.072  1.00  0.00     0.174 C 
BRANCH  15  16
ATOM     16  S   UNL A   1      33.340  23.910  25.693  1.00  0.00    -0.116 SA
BRANCH  16  17
ATOM     17  C   UNL A   1      35.000  23.231  25.643  1.00  0.00     0.011 A 
ATOM     18  C   UNL A   1      35.150  21.860  25.410  1.00  0.00     0.035 A 
ATOM     19  C   UNL A   1      36.158  24.004  25.705  1.00  0.00     0.035 A 
ATOM     20  C   UNL A   1      36.428  21.329  25.293  1.00  0.00     0.112 A 
ATOM     21  C   UNL A   1      37.394  23.382  25.593  1.00  0.00     0.112 A 
ATOM     22  N   UNL A   1      37.555  22.060  25.399  1.00  0.00    -0.265 NA
ENDBRANCH  16  17
ENDBRANCH  15  16
ENDBRANCH  12  15
ENDBRANCH   6  11
ENDBRANCH   3   6
ENDBRANCH   1   2
BRANCH   1  23
ATOM     23  C   UNL A   1      33.858  28.389  26.014  1.00  0.00     0.042 C 
BRANCH  23  24
ATOM     24  C   UNL A   1      33.374  28.929  27.349  1.00  0.00     0.118 C 
BRANCH  24  25
ATOM     25  N   UNL A   1      33.498  30.381  27.466  1.00  0.00    -0.352 N 
ATOM     26  C   UNL A   1      34.519  31.136  27.998  1.00  0.00     0.251 C 
ATOM     27  H   UNL A   1      32.736  30.896  27.112  1.00  0.00     0.163 HD
ATOM     28  O   UNL A   1      34.393  32.345  28.136  1.00  0.00    -0.269 OA
BRANCH  26  29
ATOM     29  C   UNL A   1      35.758  30.461  28.414  1.00  0.00     0.039 A 
ATOM     30  C   UNL A   1      36.917  30.601  27.649  1.00  0.00     0.014 A 
ATOM     31  C   UNL A   1      35.766  29.716  29.594  1.00  0.00     0.014 A 
ATOM     32  C   UNL A   1      38.107  30.038  28.106  1.00  0.00     0.010 A 
ATOM     33  C   UNL A   1      36.970  29.268  30.106  1.00  0.00     0.010 A 
ATOM     34  C   UNL A   1      38.147  29.398  29.355  1.00  0.00    -0.014 A 
BRANCH  34  35
ATOM     35  C   UNL A   1      39.387  28.794  29.895  1.00  0.00     0.031 A 
ATOM     36  C   UNL A   1      40.086  29.480  31.037  1.00  0.00     0.074 A 
ATOM     37  C   UNL A   1      39.932  27.723  29.290  1.00  0.00     0.049 A 
ATOM     38  N   UNL A   1      41.269  29.255  31.542  1.00  0.00    -0.248 NA
ATOM     39  C   UNL A   1      39.376  30.615  31.650  1.00  0.00     0.031 C 
ATOM     40  C   UNL A   1      39.357  27.014  28.144  1.00  0.00     0.029 A 
ATOM     41  N   UNL A   1      41.106  27.059  29.537  1.00  0.00    -0.354 N 
ATOM     42  C   UNL A   1      41.462  30.247  32.500  1.00  0.00     0.074 A 
ATOM     43  C   UNL A   1      40.305  31.113  32.450  1.00  0.00     0.031 C 
ATOM     44  C   UNL A   1      40.176  26.010  27.795  1.00  0.00     0.029 A 
ATOM     45  C   UNL A   1      41.356  26.038  28.652  1.00  0.00     0.049 A 
ATOM     46  H   UNL A   1      41.711  27.292  30.278  1.00  0.00     0.167 HD
ATOM     47  C   UNL A   1      42.501  30.404  33.356  1.00  0.00     0.034 A 
ATOM     48  C   UNL A   1      42.432  25.235  28.529  1.00  0.00     0.034 A 
ATOM     49  C   UNL A   1      43.625  29.500  33.396  1.00  0.00     0.049 A 
ATOM     50  C   UNL A   1      43.571  25.412  29.498  1.00  0.00     0.074 A 
ATOM     51  C   UNL A   1      44.696  29.494  34.271  1.00  0.00     0.029 A 
ATOM     52  N   UNL A   1      43.827  28.445  32.513  1.00  0.00    -0.354 N 
ATOM     53  N   UNL A   1      43.717  26.312  30.446  1.00  0.00    -0.248 NA
ATOM     54  C   UNL A   1      44.682  24.460  29.392  1.00  0.00     0.031 C 
ATOM     55  C   UNL A   1      45.583  28.491  33.866  1.00  0.00     0.029 A 
ATOM     56  C   UNL A   1      45.025  27.808  32.795  1.00  0.00     0.049 A 
ATOM     57  H   UNL A   1      43.209  28.188  31.791  1.00  0.00     0.167 HD
ATOM     58  C   UNL A   1      44.929  26.019  31.065  1.00  0.00     0.074 A 
ATOM     59  C   UNL A   1      45.460  24.849  30.393  1.00  0.00     0.031 C 
ATOM     60  C   UNL A   1      45.545  26.654  32.096  1.00  0.00     0.034 A 
BRANCH  47  61
ATOM     61  C   UNL A   1      42.476  31.607  34.273  1.00  0.00     0.023 A 
ATOM     62  C   UNL A   1      41.797  31.593  35.506  1.00  0.00     0.031 A 
ATOM     63  C   UNL A   1      43.087  32.811  33.880  1.00  0.00     0.131 A 
ATOM     64  C   UNL A   1      41.655  32.777  36.244  1.00  0.00     0.055 A 
ATOM     65  C   UNL A   1      43.028  33.961  34.670  1.00  0.00     0.041 A 
ATOM     66  F   UNL A   1      43.730  32.901  32.705  1.00  0.00    -0.206 F 
ATOM     67  C   UNL A   1      42.290  33.955  35.850  1.00  0.00     0.022 A 
BRANCH  64  68
ATOM     68  S   UNL A   1      40.474  32.800  37.623  1.00  0.00     0.124 S 
ATOM     69  O   UNL A   1      40.057  34.201  37.629  1.00  0.00    -0.237 OA
ATOM     70  O   UNL A   1      39.469  31.836  37.192  1.00  0.00    -0.237 OA
ATOM     71  O   UNL A   1      41.281  32.394  38.772  1.00  0.00    -0.744 OA
ENDBRANCH  64  68
ENDBRANCH  47  61
BRANCH  48  72
ATOM     72  C   UNL A   1      42.480  24.215  27.443  1.00  0.00     0.023 A 
ATOM     73  C   UNL A   1      41.901  22.948  27.606  1.00  0.00     0.031 A 
ATOM     74  C   UNL A   1      43.104  24.502  26.214  1.00  0.00     0.131 A 
ATOM     75  C   UNL A   1      41.980  22.003  26.570  1.00  0.00     0.055 A 
ATOM     76  C   UNL A   1      43.137  23.577  25.170  1.00  0.00     0.041 A 
ATOM     77  F   UNL A   1      43.666  25.702  26.002  1.00  0.00    -0.206 F 
ATOM     78  C   UNL A   1      42.579  22.315  25.347  1.00  0.00     0.022 A 
BRANCH  75  79
ATOM     79  S   UNL A   1      41.334  20.333  26.862  1.00  0.00     0.124 S 
ATOM     80  O   UNL A   1      42.519  19.513  26.640  1.00  0.00    -0.237 OA
ATOM     81  O   UNL A   1      40.866  20.426  28.240  1.00  0.00    -0.237 OA
ATOM     82  O   UNL A   1      40.281  20.196  25.857  1.00  0.00    -0.744 OA
ENDBRANCH  75  79
ENDBRANCH  48  72
BRANCH  60  83
ATOM     83  C   UNL A   1      46.850  26.066  32.577  1.00  0.00     0.023 A 
ATOM     84  C   UNL A   1      48.084  26.465  32.036  1.00  0.00     0.031 A 
ATOM     85  C   UNL A   1      46.855  25.086  33.585  1.00  0.00     0.131 A 
ATOM     86  C   UNL A   1      49.266  25.841  32.462  1.00  0.00     0.055 A 
ATOM     87  C   UNL A   1      48.040  24.522  34.057  1.00  0.00     0.041 A 
ATOM     88  F   UNL A   1      45.704  24.664  34.134  1.00  0.00    -0.206 F 
ATOM     89  C   UNL A   1      49.254  24.888  33.483  1.00  0.00     0.022 A 
BRANCH  86  90
ATOM     90  S   UNL A   1      50.809  26.211  31.583  1.00  0.00     0.124 S 
ATOM     91  O   UNL A   1      51.770  26.282  32.679  1.00  0.00    -0.237 OA
ATOM     92  O   UNL A   1      50.942  25.066  30.689  1.00  0.00    -0.237 OA
ATOM     93  O   UNL A   1      50.528  27.484  30.921  1.00  0.00    -0.744 OA
ENDBRANCH  86  90
ENDBRANCH  60  83
ENDBRANCH  34  35
ENDBRANCH  26  29
ENDBRANCH  24  25
ENDBRANCH  23  24
ENDBRANCH   1  23
TORSDOF 19
ENDMDL
MODEL 3
REMARK VINA RESULT:     -11.0      2.352      4.056
REMARK SMILES C[C@@H](O)[C@@H](NC(=O)CSc1ccncc1)C(=O)NCCCNC(=O)c1ccc(-c2c3nc(c(-c4cc(S(=O)(=O)[O-])ccc4F)c4ccc([nH]4)c(-c4cc(S(=O)(=O)[O-])ccc4F)c4nc(c(-c5cc(S(=O)(=O)[O-])ccc5F)c5ccc2[nH]5)C=C4)C=C3)cc1
REMARK SMILES IDX 19 1 18 2 16 3 17 4 4 6 2 7 1 8 3 9 5 11 6 12 7 14 8 15 9 16
REMARK SMILES IDX 10 17 11 18 15 19 12 20 14 21 13 22 20 23 21 24 22 25 23 26
REMARK SMILES IDX 24 28 25 29 26 30 87 31 27 32 86 33 28 34 29 35 30 36 80 37
REMARK SMILES IDX 31 38 85 39 79 40 81 41 32 42 84 43 78 44 77 45 33 47 65 48
REMARK SMILES IDX 45 49 64 50 46 51 49 52 63 53 82 54 47 55 48 56 62 58 83 59
REMARK SMILES IDX 50 60 34 61 35 62 43 63 36 64 42 65 44 66 41 67 37 68 38 69
REMARK SMILES IDX 39 70 40 71 66 72 67 73 75 74 68 75 74 76 76 77 73 78 69 79
REMARK SMILES IDX 70 80 71 81 72 82 51 83 52 84 60 85 53 86 59 87 61 88 58 89
REMARK SMILES IDX 54 90 55 91 56 92 57 93
REMARK H PARENT 18 5 3 10 5 13 22 27 81 46 49 57
REMARK Flexibility Score: inf
ROOT
ATOM      1  C   UNL A   1      31.820  29.576  25.113  1.00  0.00     0.117 C 
ENDROOT
BRANCH   1   2
ATOM      2  N   UNL A   1      31.422  29.471  23.724  1.00  0.00    -0.354 N 
ATOM      3  C   UNL A   1      31.080  28.339  23.044  1.00  0.00     0.245 C 
ATOM      4  O   UNL A   1      30.434  28.463  22.001  1.00  0.00    -0.273 OA
ATOM      5  H   UNL A   1      31.395  30.311  23.214  1.00  0.00     0.163 HD
BRANCH   3   6
ATOM      6  C   UNL A   1      31.515  26.952  23.553  1.00  0.00     0.200 C 
BRANCH   6   7
ATOM      7  C   UNL A   1      30.229  26.245  24.105  1.00  0.00     0.143 C 
ATOM      8  C   UNL A   1      30.262  25.954  25.601  1.00  0.00     0.041 C 
BRANCH   7   9
ATOM      9  O   UNL A   1      29.073  27.054  23.872  1.00  0.00    -0.391 OA
ATOM     10  H   UNL A   1      29.190  27.557  23.051  1.00  0.00     0.211 HD
ENDBRANCH   7   9
ENDBRANCH   6   7
BRANCH   6  11
ATOM     11  N   UNL A   1      32.239  26.087  22.590  1.00  0.00    -0.341 N 
ATOM     12  C   UNL A   1      33.017  24.980  22.778  1.00  0.00     0.231 C 
ATOM     13  H   UNL A   1      32.141  26.358  21.648  1.00  0.00     0.164 HD
ATOM     14  O   UNL A   1      32.865  24.074  21.953  1.00  0.00    -0.274 OA
BRANCH  12  15
ATOM     15  C   UNL A   1      34.102  24.925  23.836  1.00  0.00     0.174 C 
BRANCH  15  16
ATOM     16  S   UNL A   1      33.511  24.134  25.404  1.00  0.00    -0.116 SA
BRANCH  16  17
ATOM     17  C   UNL A   1      33.602  22.359  25.155  1.00  0.00     0.011 A 
ATOM     18  C   UNL A   1      32.461  21.695  24.695  1.00  0.00     0.035 A 
ATOM     19  C   UNL A   1      34.774  21.616  25.280  1.00  0.00     0.035 A 
ATOM     20  C   UNL A   1      32.533  20.334  24.424  1.00  0.00     0.112 A 
ATOM     21  C   UNL A   1      34.746  20.255  25.002  1.00  0.00     0.112 A 
ATOM     22  N   UNL A   1      33.649  19.596  24.588  1.00  0.00    -0.265 NA
ENDBRANCH  16  17
ENDBRANCH  15  16
ENDBRANCH  12  15
ENDBRANCH   6  11
ENDBRANCH   3   6
ENDBRANCH   1   2
BRANCH   1  23
ATOM     23  C   UNL A   1      31.334  30.831  25.792  1.00  0.00     0.042 C 
BRANCH  23  24
ATOM     24  C   UNL A   1      32.337  31.375  26.794  1.00  0.00     0.118 C 
BRANCH  24  25
ATOM     25  N   UNL A   1      32.156  32.797  27.083  1.00  0.00    -0.352 N 
ATOM     26  C   UNL A   1      32.908  33.637  27.873  1.00  0.00     0.251 C 
ATOM     27  H   UNL A   1      31.379  33.216  26.646  1.00  0.00     0.163 HD
ATOM     28  O   UNL A   1      32.530  34.775  28.110  1.00  0.00    -0.269 OA
BRANCH  26  29
ATOM     29  C   UNL A   1      34.168  33.134  28.444  1.00  0.00     0.039 A 
ATOM     30  C   UNL A   1      35.342  33.875  28.297  1.00  0.00     0.014 A 
ATOM     31  C   UNL A   1      34.163  31.936  29.159  1.00  0.00     0.014 A 
ATOM     32  C   UNL A   1      36.506  33.437  28.927  1.00  0.00     0.010 A 
ATOM     33  C   UNL A   1      35.284  31.572  29.883  1.00  0.00     0.010 A 
ATOM     34  C   UNL A   1      36.474  32.302  29.751  1.00  0.00    -0.014 A 
BRANCH  34  35
ATOM     35  C   UNL A   1      37.678  31.800  30.454  1.00  0.00     0.031 A 
ATOM     36  C   UNL A   1      38.530  30.763  29.774  1.00  0.00     0.074 A 
ATOM     37  C   UNL A   1      37.926  32.181  31.719  1.00  0.00     0.049 A 
ATOM     38  N   UNL A   1      39.505  30.041  30.259  1.00  0.00    -0.248 NA
ATOM     39  C   UNL A   1      38.193  30.455  28.375  1.00  0.00     0.031 C 
ATOM     40  C   UNL A   1      37.131  33.145  32.484  1.00  0.00     0.029 A 
ATOM     41  N   UNL A   1      38.901  31.784  32.597  1.00  0.00    -0.354 N 
ATOM     42  C   UNL A   1      39.866  29.165  29.239  1.00  0.00     0.074 A 
ATOM     43  C   UNL A   1      38.957  29.401  28.140  1.00  0.00     0.031 C 
ATOM     44  C   UNL A   1      37.657  33.270  33.713  1.00  0.00     0.029 A 
ATOM     45  C   UNL A   1      38.787  32.357  33.842  1.00  0.00     0.049 A 
ATOM     46  H   UNL A   1      39.615  31.149  32.359  1.00  0.00     0.167 HD
ATOM     47  C   UNL A   1      40.879  28.265  29.218  1.00  0.00     0.034 A 
ATOM     48  C   UNL A   1      39.499  32.147  34.967  1.00  0.00     0.034 A 
ATOM     49  C   UNL A   1      41.785  28.080  30.326  1.00  0.00     0.049 A 
ATOM     50  C   UNL A   1      40.630  31.154  34.923  1.00  0.00     0.074 A 
ATOM     51  C   UNL A   1      42.901  27.268  30.400  1.00  0.00     0.029 A 
ATOM     52  N   UNL A   1      41.669  28.711  31.560  1.00  0.00    -0.354 N 
ATOM     53  N   UNL A   1      41.009  30.376  33.932  1.00  0.00    -0.248 NA
ATOM     54  C   UNL A   1      41.439  31.019  36.139  1.00  0.00     0.031 C 
ATOM     55  C   UNL A   1      43.411  27.346  31.701  1.00  0.00     0.029 A 
ATOM     56  C   UNL A   1      42.669  28.276  32.414  1.00  0.00     0.049 A 
ATOM     57  H   UNL A   1      40.977  29.372  31.792  1.00  0.00     0.167 HD
ATOM     58  C   UNL A   1      42.116  29.675  34.400  1.00  0.00     0.074 A 
ATOM     59  C   UNL A   1      42.352  30.139  35.754  1.00  0.00     0.031 C 
ATOM     60  C   UNL A   1      42.872  28.738  33.770  1.00  0.00     0.034 A 
BRANCH  47  61
ATOM     61  C   UNL A   1      41.021  27.402  27.984  1.00  0.00     0.023 A 
ATOM     62  C   UNL A   1      40.612  26.056  27.962  1.00  0.00     0.031 A 
ATOM     63  C   UNL A   1      41.634  27.914  26.826  1.00  0.00     0.131 A 
ATOM     64  C   UNL A   1      40.915  25.245  26.858  1.00  0.00     0.055 A 
ATOM     65  C   UNL A   1      41.842  27.128  25.691  1.00  0.00     0.041 A 
ATOM     66  F   UNL A   1      42.070  29.183  26.787  1.00  0.00    -0.206 F 
ATOM     67  C   UNL A   1      41.502  25.779  25.710  1.00  0.00     0.022 A 
BRANCH  64  68
ATOM     68  S   UNL A   1      40.705  23.450  27.019  1.00  0.00     0.124 S 
ATOM     69  O   UNL A   1      39.265  23.304  26.819  1.00  0.00    -0.237 OA
ATOM     70  O   UNL A   1      41.554  22.936  25.952  1.00  0.00    -0.237 OA
ATOM     71  O   UNL A   1      41.167  23.171  28.378  1.00  0.00    -0.744 OA
ENDBRANCH  64  68
ENDBRANCH  47  61
BRANCH  48  72
ATOM     72  C   UNL A   1      39.146  32.875  36.219  1.00  0.00     0.023 A 
ATOM     73  C   UNL A   1      38.290  32.308  37.175  1.00  0.00     0.031 A 
ATOM     74  C   UNL A   1      39.675  34.152  36.482  1.00  0.00     0.131 A 
ATOM     75  C   UNL A   1      37.963  33.028  38.336  1.00  0.00     0.055 A 
ATOM     76  C   UNL A   1      39.386  34.843  37.660  1.00  0.00     0.041 A 
ATOM     77  F   UNL A   1      40.506  34.737  35.605  1.00  0.00    -0.206 F 
ATOM     78  C   UNL A   1      38.519  34.284  38.593  1.00  0.00     0.022 A 
BRANCH  75  79
ATOM     79  S   UNL A   1      36.754  32.321  39.488  1.00  0.00     0.124 S 
ATOM     80  O   UNL A   1      37.109  30.907  39.462  1.00  0.00    -0.237 OA
ATOM     81  O   UNL A   1      37.056  33.036  40.722  1.00  0.00    -0.237 OA
ATOM     82  O   UNL A   1      35.468  32.653  38.876  1.00  0.00    -0.744 OA
ENDBRANCH  75  79
ENDBRANCH  48  72
BRANCH  60  83
ATOM     83  C   UNL A   1      44.047  28.181  34.537  1.00  0.00     0.023 A 
ATOM     84  C   UNL A   1      43.918  27.065  35.380  1.00  0.00     0.031 A 
ATOM     85  C   UNL A   1      45.312  28.785  34.427  1.00  0.00     0.131 A 
ATOM     86  C   UNL A   1      45.019  26.626  36.129  1.00  0.00     0.055 A 
ATOM     87  C   UNL A   1      46.422  28.298  35.118  1.00  0.00     0.041 A 
ATOM     88  F   UNL A   1      45.492  29.857  33.639  1.00  0.00    -0.206 F 
ATOM     89  C   UNL A   1      46.275  27.221  35.987  1.00  0.00     0.022 A 
BRANCH  86  90
ATOM     90  S   UNL A   1      44.762  25.335  37.377  1.00  0.00     0.124 S 
ATOM     91  O   UNL A   1      43.977  26.041  38.384  1.00  0.00    -0.237 OA
ATOM     92  O   UNL A   1      44.054  24.306  36.621  1.00  0.00    -0.237 OA
ATOM     93  O   UNL A   1      46.119  24.979  37.786  1.00  0.00    -0.744 OA
ENDBRANCH  86  90
ENDBRANCH  60  83
ENDBRANCH  34  35
ENDBRANCH  26  29
ENDBRANCH  24  25
ENDBRANCH  23  24
ENDBRANCH   1  23
TORSDOF 19
ENDMDL
