MODEL 1
REMARK VINA RESULT:     -11.9      0.000      0.000
REMARK SMILES O=C(NCCCNC(=O)c1ccc(COc2cccc(Cl)c2Cl)o1)c1ccc(-c2c3nc(c(-c4cc(S(=O)(=O)[O-])ccc4F)c4ccc([nH]4)c(-c4cc(S(=O)(=O)[O-])ccc4F)c4nc(c(-c5cc(S(=O)(=O)[O-])ccc5F)c5ccc2[nH]5)C=C4)C=C3)cc1
REMARK SMILES IDX 5 1 4 2 3 3 1 4 2 5 25 7 26 8 87 9 27 10 86 11 28 12 29 13
REMARK SMILES IDX 30 14 80 15 31 16 85 17 79 18 81 19 32 20 84 21 78 22 77 23
REMARK SMILES IDX 33 25 65 26 45 27 64 28 46 29 49 30 63 31 82 32 47 33 48 34
REMARK SMILES IDX 62 36 83 37 50 38 34 39 35 40 43 41 36 42 42 43 44 44 41 45
REMARK SMILES IDX 37 46 38 47 39 48 40 49 66 50 67 51 75 52 68 53 74 54 76 55
REMARK SMILES IDX 73 56 69 57 70 58 71 59 72 60 51 61 52 62 60 63 53 64 59 65
REMARK SMILES IDX 61 66 58 67 54 68 55 69 56 70 57 71 6 72 7 73 8 74 9 76
REMARK SMILES IDX 10 77 11 78 24 79 12 80 13 81 14 82 15 83 16 84 17 85 22 86
REMARK SMILES IDX 18 87 20 88 23 89 19 90 21 91
REMARK H PARENT 3 6 81 24 49 35 7 75
REMARK Flexibility Score: inf
ROOT
ATOM      1  C   UNL A   1      34.731  22.207  26.655  1.00  0.00     0.042 C 
ENDROOT
BRANCH   1   2
ATOM      2  C   UNL A   1      35.969  22.527  25.823  1.00  0.00     0.118 C 
BRANCH   2   3
ATOM      3  N   UNL A   1      36.903  21.409  25.768  1.00  0.00    -0.352 N 
ATOM      4  O   UNL A   1      38.874  20.355  25.560  1.00  0.00    -0.269 OA
ATOM      5  C   UNL A   1      38.274  21.385  25.862  1.00  0.00     0.251 C 
ATOM      6  H   UNL A   1      36.484  20.527  25.643  1.00  0.00     0.163 HD
BRANCH   5   7
ATOM      7  C   UNL A   1      39.029  22.575  26.316  1.00  0.00     0.039 A 
ATOM      8  C   UNL A   1      38.682  23.855  25.881  1.00  0.00     0.014 A 
ATOM      9  C   UNL A   1      40.064  22.415  27.246  1.00  0.00     0.014 A 
ATOM     10  C   UNL A   1      39.450  24.949  26.262  1.00  0.00     0.010 A 
ATOM     11  C   UNL A   1      40.782  23.529  27.696  1.00  0.00     0.010 A 
ATOM     12  C   UNL A   1      40.498  24.804  27.185  1.00  0.00    -0.014 A 
BRANCH  12  13
ATOM     13  C   UNL A   1      41.230  26.020  27.628  1.00  0.00     0.031 A 
ATOM     14  C   UNL A   1      42.605  26.335  27.108  1.00  0.00     0.074 A 
ATOM     15  C   UNL A   1      40.602  26.879  28.454  1.00  0.00     0.049 A 
ATOM     16  N   UNL A   1      43.337  27.401  27.311  1.00  0.00    -0.248 NA
ATOM     17  C   UNL A   1      43.248  25.317  26.265  1.00  0.00     0.031 C 
ATOM     18  C   UNL A   1      39.280  26.658  29.048  1.00  0.00     0.029 A 
ATOM     19  N   UNL A   1      40.963  28.122  28.904  1.00  0.00    -0.354 N 
ATOM     20  C   UNL A   1      44.531  27.182  26.632  1.00  0.00     0.074 A 
ATOM     21  C   UNL A   1      44.434  25.864  26.037  1.00  0.00     0.031 C 
ATOM     22  C   UNL A   1      38.913  27.755  29.726  1.00  0.00     0.029 A 
ATOM     23  C   UNL A   1      39.988  28.739  29.652  1.00  0.00     0.049 A 
ATOM     24  H   UNL A   1      41.837  28.534  28.709  1.00  0.00     0.167 HD
ATOM     25  C   UNL A   1      45.603  28.005  26.511  1.00  0.00     0.034 A 
ATOM     26  C   UNL A   1      39.956  29.962  30.213  1.00  0.00     0.034 A 
ATOM     27  C   UNL A   1      45.683  29.318  27.108  1.00  0.00     0.049 A 
ATOM     28  C   UNL A   1      41.135  30.874  30.022  1.00  0.00     0.074 A 
ATOM     29  C   UNL A   1      46.723  30.231  27.059  1.00  0.00     0.029 A 
ATOM     30  N   UNL A   1      44.677  29.908  27.865  1.00  0.00    -0.354 N 
ATOM     31  N   UNL A   1      42.256  30.646  29.379  1.00  0.00    -0.248 NA
ATOM     32  C   UNL A   1      41.041  32.208  30.627  1.00  0.00     0.031 C 
ATOM     33  C   UNL A   1      46.362  31.353  27.816  1.00  0.00     0.029 A 
ATOM     34  C   UNL A   1      45.077  31.164  28.295  1.00  0.00     0.049 A 
ATOM     35  H   UNL A   1      43.807  29.494  28.065  1.00  0.00     0.167 HD
ATOM     36  C   UNL A   1      43.009  31.806  29.512  1.00  0.00     0.074 A 
ATOM     37  C   UNL A   1      42.195  32.746  30.259  1.00  0.00     0.031 C 
ATOM     38  C   UNL A   1      44.264  32.070  29.070  1.00  0.00     0.034 A 
BRANCH  25  39
ATOM     39  C   UNL A   1      46.787  27.484  25.738  1.00  0.00     0.023 A 
ATOM     40  C   UNL A   1      47.046  27.893  24.418  1.00  0.00     0.031 A 
ATOM     41  C   UNL A   1      47.655  26.541  26.317  1.00  0.00     0.131 A 
ATOM     42  C   UNL A   1      48.106  27.317  23.700  1.00  0.00     0.055 A 
ATOM     43  C   UNL A   1      48.748  26.021  25.621  1.00  0.00     0.041 A 
ATOM     44  F   UNL A   1      47.445  26.098  27.567  1.00  0.00    -0.206 F 
ATOM     45  C   UNL A   1      48.972  26.400  24.301  1.00  0.00     0.022 A 
BRANCH  42  46
ATOM     46  S   UNL A   1      48.268  27.695  21.933  1.00  0.00     0.124 S 
ATOM     47  O   UNL A   1      49.415  28.601  21.929  1.00  0.00    -0.237 OA
ATOM     48  O   UNL A   1      48.491  26.379  21.347  1.00  0.00    -0.237 OA
ATOM     49  O   UNL A   1      46.990  28.319  21.596  1.00  0.00    -0.744 OA
ENDBRANCH  42  46
ENDBRANCH  25  39
BRANCH  26  50
ATOM     50  C   UNL A   1      38.777  30.385  31.015  1.00  0.00     0.023 A 
ATOM     51  C   UNL A   1      37.726  31.112  30.436  1.00  0.00     0.031 A 
ATOM     52  C   UNL A   1      38.691  30.068  32.381  1.00  0.00     0.131 A 
ATOM     53  C   UNL A   1      36.643  31.522  31.229  1.00  0.00     0.055 A 
ATOM     54  C   UNL A   1      37.595  30.445  33.157  1.00  0.00     0.041 A 
ATOM     55  F   UNL A   1      39.668  29.363  32.975  1.00  0.00    -0.206 F 
ATOM     56  C   UNL A   1      36.568  31.185  32.583  1.00  0.00     0.022 A 
BRANCH  53  57
ATOM     57  S   UNL A   1      35.358  32.559  30.480  1.00  0.00     0.124 S 
ATOM     58  O   UNL A   1      34.373  32.641  31.552  1.00  0.00    -0.237 OA
ATOM     59  O   UNL A   1      36.094  33.786  30.189  1.00  0.00    -0.237 OA
ATOM     60  O   UNL A   1      34.942  31.792  29.307  1.00  0.00    -0.744 OA
ENDBRANCH  53  57
ENDBRANCH  26  50
BRANCH  38  61
ATOM     61  C   UNL A   1      44.814  33.431  29.403  1.00  0.00     0.023 A 
ATOM     62  C   UNL A   1      44.647  34.515  28.524  1.00  0.00     0.031 A 
ATOM     63  C   UNL A   1      45.552  33.633  30.581  1.00  0.00     0.131 A 
ATOM     64  C   UNL A   1      45.261  35.743  28.808  1.00  0.00     0.055 A 
ATOM     65  C   UNL A   1      46.122  34.871  30.880  1.00  0.00     0.041 A 
ATOM     66  F   UNL A   1      45.740  32.628  31.450  1.00  0.00    -0.206 F 
ATOM     67  C   UNL A   1      45.990  35.930  29.985  1.00  0.00     0.022 A 
BRANCH  64  68
ATOM     68  S   UNL A   1      45.172  37.066  27.571  1.00  0.00     0.124 S 
ATOM     69  O   UNL A   1      43.819  36.906  27.048  1.00  0.00    -0.237 OA
ATOM     70  O   UNL A   1      45.410  38.260  28.375  1.00  0.00    -0.237 OA
ATOM     71  O   UNL A   1      46.242  36.730  26.632  1.00  0.00    -0.744 OA
ENDBRANCH  64  68
ENDBRANCH  38  61
ENDBRANCH  12  13
ENDBRANCH   5   7
ENDBRANCH   2   3
ENDBRANCH   1   2
BRANCH   1  72
ATOM     72  C   UNL A   1      33.934  21.018  26.132  1.00  0.00     0.118 C 
BRANCH  72  73
ATOM     73  N   UNL A   1      32.506  21.274  26.125  1.00  0.00    -0.349 N 
ATOM     74  C   UNL A   1      31.783  22.255  25.486  1.00  0.00     0.286 C 
ATOM     75  H   UNL A   1      31.970  20.647  26.662  1.00  0.00     0.163 HD
ATOM     76  O   UNL A   1      30.614  22.400  25.853  1.00  0.00    -0.266 OA
BRANCH  74  77
ATOM     77  C   UNL A   1      32.383  23.041  24.429  1.00  0.00     0.191 A 
ATOM     78  C   UNL A   1      32.657  22.796  23.095  1.00  0.00     0.057 A 
ATOM     79  O   UNL A   1      32.686  24.349  24.706  1.00  0.00    -0.452 OA
ATOM     80  C   UNL A   1      33.181  23.991  22.548  1.00  0.00     0.050 A 
ATOM     81  C   UNL A   1      33.156  24.923  23.563  1.00  0.00     0.142 A 
BRANCH  81  82
ATOM     82  C   UNL A   1      33.462  26.377  23.613  1.00  0.00     0.304 C 
BRANCH  82  83
ATOM     83  O   UNL A   1      32.286  27.104  24.022  1.00  0.00    -0.484 OA
BRANCH  83  84
ATOM     84  C   UNL A   1      32.543  27.995  25.035  1.00  0.00     0.140 A 
ATOM     85  C   UNL A   1      33.629  27.722  25.872  1.00  0.00     0.048 A 
ATOM     86  C   UNL A   1      31.816  29.185  25.176  1.00  0.00     0.101 A 
ATOM     87  C   UNL A   1      33.957  28.598  26.904  1.00  0.00     0.005 A 
ATOM     88  C   UNL A   1      32.161  30.069  26.209  1.00  0.00     0.063 A 
ATOM     89  Cl  UNL A   1      30.529  29.542  24.074  1.00  0.00    -0.079 Cl
ATOM     90  C   UNL A   1      33.220  29.768  27.075  1.00  0.00     0.022 A 
ATOM     91  Cl  UNL A   1      31.325  31.561  26.472  1.00  0.00    -0.083 Cl
ENDBRANCH  83  84
ENDBRANCH  82  83
ENDBRANCH  81  82
ENDBRANCH  74  77
ENDBRANCH  72  73
ENDBRANCH   1  72
TORSDOF 16
ENDMDL
MODEL 2
REMARK VINA RESULT:     -11.9      5.323     10.234
REMARK SMILES O=C(NCCCNC(=O)c1ccc(COc2cccc(Cl)c2Cl)o1)c1ccc(-c2c3nc(c(-c4cc(S(=O)(=O)[O-])ccc4F)c4ccc([nH]4)c(-c4cc(S(=O)(=O)[O-])ccc4F)c4nc(c(-c5cc(S(=O)(=O)[O-])ccc5F)c5ccc2[nH]5)C=C4)C=C3)cc1
REMARK SMILES IDX 5 1 4 2 3 3 1 4 2 5 25 7 26 8 87 9 27 10 86 11 28 12 29 13
REMARK SMILES IDX 30 14 80 15 31 16 85 17 79 18 81 19 32 20 84 21 78 22 77 23
REMARK SMILES IDX 33 25 65 26 45 27 64 28 46 29 49 30 63 31 82 32 47 33 48 34
REMARK SMILES IDX 62 36 83 37 50 38 34 39 35 40 43 41 36 42 42 43 44 44 41 45
REMARK SMILES IDX 37 46 38 47 39 48 40 49 66 50 67 51 75 52 68 53 74 54 76 55
REMARK SMILES IDX 73 56 69 57 70 58 71 59 72 60 51 61 52 62 60 63 53 64 59 65
REMARK SMILES IDX 61 66 58 67 54 68 55 69 56 70 57 71 6 72 7 73 8 74 9 76
REMARK SMILES IDX 10 77 11 78 24 79 12 80 13 81 14 82 15 83 16 84 17 85 22 86
REMARK SMILES IDX 18 87 20 88 23 89 19 90 21 91
REMARK H PARENT 3 6 81 24 49 35 7 75
REMARK Flexibility Score: inf
ROOT
ATOM      1  C   UNL A   1      33.438  28.548  24.130  1.00  0.00     0.042 C 
ENDROOT
BRANCH   1   2
ATOM      2  C   UNL A   1      33.808  28.919  25.563  1.00  0.00     0.118 C 
BRANCH   2   3
ATOM      3  N   UNL A   1      33.292  30.229  25.946  1.00  0.00    -0.352 N 
ATOM      4  O   UNL A   1      32.917  32.014  27.253  1.00  0.00    -0.269 OA
ATOM      5  C   UNL A   1      33.640  31.056  26.986  1.00  0.00     0.251 C 
ATOM      6  H   UNL A   1      32.579  30.578  25.363  1.00  0.00     0.163 HD
BRANCH   5   7
ATOM      7  C   UNL A   1      34.863  30.808  27.784  1.00  0.00     0.039 A 
ATOM      8  C   UNL A   1      35.097  29.564  28.371  1.00  0.00     0.014 A 
ATOM      9  C   UNL A   1      35.826  31.819  27.892  1.00  0.00     0.014 A 
ATOM     10  C   UNL A   1      36.215  29.375  29.175  1.00  0.00     0.010 A 
ATOM     11  C   UNL A   1      36.994  31.599  28.632  1.00  0.00     0.010 A 
ATOM     12  C   UNL A   1      37.185  30.383  29.303  1.00  0.00    -0.014 A 
BRANCH  12  13
ATOM     13  C   UNL A   1      38.405  30.098  30.103  1.00  0.00     0.031 A 
ATOM     14  C   UNL A   1      38.554  30.610  31.508  1.00  0.00     0.074 A 
ATOM     15  C   UNL A   1      39.351  29.304  29.564  1.00  0.00     0.049 A 
ATOM     16  N   UNL A   1      39.504  30.367  32.376  1.00  0.00    -0.248 NA
ATOM     17  C   UNL A   1      37.512  31.523  31.999  1.00  0.00     0.031 C 
ATOM     18  C   UNL A   1      39.328  28.779  28.196  1.00  0.00     0.029 A 
ATOM     19  N   UNL A   1      40.489  28.764  30.106  1.00  0.00    -0.354 N 
ATOM     20  C   UNL A   1      39.183  31.104  33.511  1.00  0.00     0.074 A 
ATOM     21  C   UNL A   1      37.965  31.827  33.207  1.00  0.00     0.031 C 
ATOM     22  C   UNL A   1      40.361  27.940  28.029  1.00  0.00     0.029 A 
ATOM     23  C   UNL A   1      41.143  27.901  29.259  1.00  0.00     0.049 A 
ATOM     24  H   UNL A   1      40.806  28.974  31.015  1.00  0.00     0.167 HD
ATOM     25  C   UNL A   1      39.840  31.165  34.697  1.00  0.00     0.034 A 
ATOM     26  C   UNL A   1      42.247  27.154  29.450  1.00  0.00     0.034 A 
ATOM     27  C   UNL A   1      41.053  30.436  34.986  1.00  0.00     0.049 A 
ATOM     28  C   UNL A   1      42.927  27.201  30.789  1.00  0.00     0.074 A 
ATOM     29  C   UNL A   1      41.806  30.432  36.149  1.00  0.00     0.029 A 
ATOM     30  N   UNL A   1      41.690  29.575  34.102  1.00  0.00    -0.354 N 
ATOM     31  N   UNL A   1      42.609  27.907  31.849  1.00  0.00    -0.248 NA
ATOM     32  C   UNL A   1      44.108  26.347  30.958  1.00  0.00     0.031 C 
ATOM     33  C   UNL A   1      42.917  29.601  35.952  1.00  0.00     0.029 A 
ATOM     34  C   UNL A   1      42.830  29.044  34.687  1.00  0.00     0.049 A 
ATOM     35  H   UNL A   1      41.377  29.370  33.191  1.00  0.00     0.167 HD
ATOM     36  C   UNL A   1      43.561  27.591  32.810  1.00  0.00     0.074 A 
ATOM     37  C   UNL A   1      44.438  26.599  32.217  1.00  0.00     0.031 C 
ATOM     38  C   UNL A   1      43.710  28.084  34.065  1.00  0.00     0.034 A 
BRANCH  25  39
ATOM     39  C   UNL A   1      39.277  32.087  35.749  1.00  0.00     0.023 A 
ATOM     40  C   UNL A   1      39.705  33.421  35.868  1.00  0.00     0.031 A 
ATOM     41  C   UNL A   1      38.321  31.618  36.667  1.00  0.00     0.131 A 
ATOM     42  C   UNL A   1      39.224  34.221  36.916  1.00  0.00     0.055 A 
ATOM     43  C   UNL A   1      37.795  32.438  37.668  1.00  0.00     0.041 A 
ATOM     44  F   UNL A   1      37.890  30.347  36.614  1.00  0.00    -0.206 F 
ATOM     45  C   UNL A   1      38.255  33.744  37.804  1.00  0.00     0.022 A 
BRANCH  42  46
ATOM     46  S   UNL A   1      39.967  35.855  37.177  1.00  0.00     0.124 S 
ATOM     47  O   UNL A   1      41.373  35.511  37.381  1.00  0.00    -0.237 OA
ATOM     48  O   UNL A   1      39.653  36.548  35.932  1.00  0.00    -0.237 OA
ATOM     49  O   UNL A   1      39.278  36.361  38.363  1.00  0.00    -0.744 OA
ENDBRANCH  42  46
ENDBRANCH  25  39
BRANCH  26  50
ATOM     50  C   UNL A   1      42.780  26.314  28.344  1.00  0.00     0.023 A 
ATOM     51  C   UNL A   1      43.879  26.730  27.578  1.00  0.00     0.031 A 
ATOM     52  C   UNL A   1      42.186  25.079  28.036  1.00  0.00     0.131 A 
ATOM     53  C   UNL A   1      44.335  25.927  26.521  1.00  0.00     0.055 A 
ATOM     54  C   UNL A   1      42.666  24.266  27.010  1.00  0.00     0.041 A 
ATOM     55  F   UNL A   1      41.139  24.633  28.750  1.00  0.00    -0.206 F 
ATOM     56  C   UNL A   1      43.742  24.695  26.239  1.00  0.00     0.022 A 
BRANCH  53  57
ATOM     57  S   UNL A   1      45.683  26.546  25.477  1.00  0.00     0.124 S 
ATOM     58  O   UNL A   1      45.958  25.393  24.626  1.00  0.00    -0.237 OA
ATOM     59  O   UNL A   1      45.055  27.690  24.824  1.00  0.00    -0.237 OA
ATOM     60  O   UNL A   1      46.733  26.878  26.437  1.00  0.00    -0.744 OA
ENDBRANCH  53  57
ENDBRANCH  26  50
BRANCH  38  61
ATOM     61  C   UNL A   1      44.873  27.549  34.857  1.00  0.00     0.023 A 
ATOM     62  C   UNL A   1      44.731  26.416  35.676  1.00  0.00     0.031 A 
ATOM     63  C   UNL A   1      46.114  28.205  34.832  1.00  0.00     0.131 A 
ATOM     64  C   UNL A   1      45.800  26.003  36.484  1.00  0.00     0.055 A 
ATOM     65  C   UNL A   1      47.189  27.761  35.604  1.00  0.00     0.041 A 
ATOM     66  F   UNL A   1      46.297  29.292  34.067  1.00  0.00    -0.206 F 
ATOM     67  C   UNL A   1      47.030  26.664  36.447  1.00  0.00     0.022 A 
BRANCH  64  68
ATOM     68  S   UNL A   1      45.529  24.646  37.657  1.00  0.00     0.124 S 
ATOM     69  O   UNL A   1      46.763  24.664  38.436  1.00  0.00    -0.237 OA
ATOM     70  O   UNL A   1      44.324  25.077  38.358  1.00  0.00    -0.237 OA
ATOM     71  O   UNL A   1      45.358  23.477  36.796  1.00  0.00    -0.744 OA
ENDBRANCH  64  68
ENDBRANCH  38  61
ENDBRANCH  12  13
ENDBRANCH   5   7
ENDBRANCH   2   3
ENDBRANCH   1   2
BRANCH   1  72
ATOM     72  C   UNL A   1      33.761  27.103  23.770  1.00  0.00     0.118 C 
BRANCH  72  73
ATOM     73  N   UNL A   1      33.470  26.805  22.380  1.00  0.00    -0.349 N 
ATOM     74  C   UNL A   1      32.958  25.664  21.805  1.00  0.00     0.286 C 
ATOM     75  H   UNL A   1      33.669  27.534  21.750  1.00  0.00     0.163 HD
ATOM     76  O   UNL A   1      33.049  25.582  20.577  1.00  0.00    -0.266 OA
BRANCH  74  77
ATOM     77  C   UNL A   1      32.333  24.645  22.621  1.00  0.00     0.191 A 
ATOM     78  C   UNL A   1      31.056  24.478  23.127  1.00  0.00     0.057 A 
ATOM     79  O   UNL A   1      33.073  23.531  22.921  1.00  0.00    -0.452 OA
ATOM     80  C   UNL A   1      31.028  23.229  23.792  1.00  0.00     0.050 A 
ATOM     81  C   UNL A   1      32.277  22.672  23.617  1.00  0.00     0.142 A 
BRANCH  81  82
ATOM     82  C   UNL A   1      32.855  21.347  23.967  1.00  0.00     0.304 C 
BRANCH  82  83
ATOM     83  O   UNL A   1      33.350  21.380  25.320  1.00  0.00    -0.484 OA
BRANCH  83  84
ATOM     84  C   UNL A   1      34.720  21.458  25.378  1.00  0.00     0.140 A 
ATOM     85  C   UNL A   1      35.447  20.328  24.987  1.00  0.00     0.048 A 
ATOM     86  C   UNL A   1      35.380  22.646  25.719  1.00  0.00     0.101 A 
ATOM     87  C   UNL A   1      36.839  20.350  25.001  1.00  0.00     0.005 A 
ATOM     88  C   UNL A   1      36.782  22.665  25.718  1.00  0.00     0.063 A 
ATOM     89  Cl  UNL A   1      34.459  24.057  26.119  1.00  0.00    -0.079 Cl
ATOM     90  C   UNL A   1      37.506  21.517  25.370  1.00  0.00     0.022 A 
ATOM     91  Cl  UNL A   1      37.693  24.078  26.128  1.00  0.00    -0.083 Cl
ENDBRANCH  83  84
ENDBRANCH  82  83
ENDBRANCH  81  82
ENDBRANCH  74  77
ENDBRANCH  72  73
ENDBRANCH   1  72
TORSDOF 16
ENDMDL
MODEL 3
REMARK VINA RESULT:     -11.9      5.277     10.229
REMARK SMILES O=C(NCCCNC(=O)c1ccc(COc2cccc(Cl)c2Cl)o1)c1ccc(-c2c3nc(c(-c4cc(S(=O)(=O)[O-])ccc4F)c4ccc([nH]4)c(-c4cc(S(=O)(=O)[O-])ccc4F)c4nc(c(-c5cc(S(=O)(=O)[O-])ccc5F)c5ccc2[nH]5)C=C4)C=C3)cc1
REMARK SMILES IDX 5 1 4 2 3 3 1 4 2 5 25 7 26 8 87 9 27 10 86 11 28 12 29 13
REMARK SMILES IDX 30 14 80 15 31 16 85 17 79 18 81 19 32 20 84 21 78 22 77 23
REMARK SMILES IDX 33 25 65 26 45 27 64 28 46 29 49 30 63 31 82 32 47 33 48 34
REMARK SMILES IDX 62 36 83 37 50 38 34 39 35 40 43 41 36 42 42 43 44 44 41 45
REMARK SMILES IDX 37 46 38 47 39 48 40 49 66 50 67 51 75 52 68 53 74 54 76 55
REMARK SMILES IDX 73 56 69 57 70 58 71 59 72 60 51 61 52 62 60 63 53 64 59 65
REMARK SMILES IDX 61 66 58 67 54 68 55 69 56 70 57 71 6 72 7 73 8 74 9 76
REMARK SMILES IDX 10 77 11 78 24 79 12 80 13 81 14 82 15 83 16 84 17 85 22 86
REMARK SMILES IDX 18 87 20 88 23 89 19 90 21 91
REMARK H PARENT 3 6 81 24 49 35 7 75
REMARK Flexibility Score: inf
ROOT
ATOM      1  C   UNL A   1      33.274  28.987  23.728  1.00  0.00     0.042 C 
ENDROOT
BRANCH   1   2
ATOM      2  C   UNL A   1      33.103  29.045  25.243  1.00  0.00     0.118 C 
BRANCH   2   3
ATOM      3  N   UNL A   1      32.591  30.335  25.693  1.00  0.00    -0.352 N 
ATOM      4  O   UNL A   1      32.247  32.066  27.078  1.00  0.00    -0.269 OA
ATOM      5  C   UNL A   1      32.968  31.125  26.751  1.00  0.00     0.251 C 
ATOM      6  H   UNL A   1      31.855  30.698  25.149  1.00  0.00     0.163 HD
BRANCH   5   7
ATOM      7  C   UNL A   1      34.220  30.860  27.495  1.00  0.00     0.039 A 
ATOM      8  C   UNL A   1      34.645  29.554  27.743  1.00  0.00     0.014 A 
ATOM      9  C   UNL A   1      35.019  31.938  27.897  1.00  0.00     0.014 A 
ATOM     10  C   UNL A   1      35.784  29.328  28.506  1.00  0.00     0.010 A 
ATOM     11  C   UNL A   1      36.212  31.706  28.591  1.00  0.00     0.010 A 
ATOM     12  C   UNL A   1      36.591  30.398  28.926  1.00  0.00    -0.014 A 
BRANCH  12  13
ATOM     13  C   UNL A   1      37.846  30.096  29.663  1.00  0.00     0.031 A 
ATOM     14  C   UNL A   1      38.049  30.555  31.080  1.00  0.00     0.074 A 
ATOM     15  C   UNL A   1      38.776  29.333  29.056  1.00  0.00     0.049 A 
ATOM     16  N   UNL A   1      39.036  30.290  31.898  1.00  0.00    -0.248 NA
ATOM     17  C   UNL A   1      37.019  31.438  31.648  1.00  0.00     0.031 C 
ATOM     18  C   UNL A   1      38.700  28.860  27.670  1.00  0.00     0.029 A 
ATOM     19  N   UNL A   1      39.940  28.786  29.529  1.00  0.00    -0.354 N 
ATOM     20  C   UNL A   1      38.756  30.980  33.073  1.00  0.00     0.074 A 
ATOM     21  C   UNL A   1      37.520  31.701  32.847  1.00  0.00     0.031 C 
ATOM     22  C   UNL A   1      39.733  28.040  27.428  1.00  0.00     0.029 A 
ATOM     23  C   UNL A   1      40.567  27.963  28.623  1.00  0.00     0.049 A 
ATOM     24  H   UNL A   1      40.293  28.965  30.431  1.00  0.00     0.167 HD
ATOM     25  C   UNL A   1      39.461  31.003  34.232  1.00  0.00     0.034 A 
ATOM     26  C   UNL A   1      41.684  27.222  28.739  1.00  0.00     0.034 A 
ATOM     27  C   UNL A   1      40.692  30.277  34.442  1.00  0.00     0.049 A 
ATOM     28  C   UNL A   1      42.419  27.225  30.050  1.00  0.00     0.074 A 
ATOM     29  C   UNL A   1      41.493  30.237  35.571  1.00  0.00     0.029 A 
ATOM     30  N   UNL A   1      41.300  29.457  33.499  1.00  0.00    -0.354 N 
ATOM     31  N   UNL A   1      42.140  27.887  31.148  1.00  0.00    -0.248 NA
ATOM     32  C   UNL A   1      43.615  26.378  30.137  1.00  0.00     0.031 C 
ATOM     33  C   UNL A   1      42.603  29.426  35.297  1.00  0.00     0.029 A 
ATOM     34  C   UNL A   1      42.468  28.917  34.016  1.00  0.00     0.049 A 
ATOM     35  H   UNL A   1      40.951  29.284  32.595  1.00  0.00     0.167 HD
ATOM     36  C   UNL A   1      43.134  27.545  32.056  1.00  0.00     0.074 A 
ATOM     37  C   UNL A   1      43.994  26.585  31.389  1.00  0.00     0.031 C 
ATOM     38  C   UNL A   1      43.330  27.991  33.322  1.00  0.00     0.034 A 
BRANCH  25  39
ATOM     39  C   UNL A   1      38.934  31.878  35.341  1.00  0.00     0.023 A 
ATOM     40  C   UNL A   1      38.363  31.333  36.504  1.00  0.00     0.031 A 
ATOM     41  C   UNL A   1      38.976  33.279  35.222  1.00  0.00     0.131 A 
ATOM     42  C   UNL A   1      37.801  32.180  37.472  1.00  0.00     0.055 A 
ATOM     43  C   UNL A   1      38.477  34.119  36.219  1.00  0.00     0.041 A 
ATOM     44  F   UNL A   1      39.492  33.855  34.124  1.00  0.00    -0.206 F 
ATOM     45  C   UNL A   1      37.874  33.570  37.348  1.00  0.00     0.022 A 
BRANCH  42  46
ATOM     46  S   UNL A   1      36.870  31.440  38.842  1.00  0.00     0.124 S 
ATOM     47  O   UNL A   1      36.666  30.076  38.358  1.00  0.00    -0.237 OA
ATOM     48  O   UNL A   1      37.788  31.588  39.966  1.00  0.00    -0.237 OA
ATOM     49  O   UNL A   1      35.659  32.255  38.915  1.00  0.00    -0.744 OA
ENDBRANCH  42  46
ENDBRANCH  25  39
BRANCH  26  50
ATOM     50  C   UNL A   1      42.178  26.430  27.581  1.00  0.00     0.023 A 
ATOM     51  C   UNL A   1      41.849  25.075  27.432  1.00  0.00     0.031 A 
ATOM     52  C   UNL A   1      42.996  27.025  26.606  1.00  0.00     0.131 A 
ATOM     53  C   UNL A   1      42.358  24.350  26.343  1.00  0.00     0.055 A 
ATOM     54  C   UNL A   1      43.469  26.311  25.505  1.00  0.00     0.041 A 
ATOM     55  F   UNL A   1      43.328  28.324  26.700  1.00  0.00    -0.206 F 
ATOM     56  C   UNL A   1      43.158  24.961  25.375  1.00  0.00     0.022 A 
BRANCH  53  57
ATOM     57  S   UNL A   1      42.010  22.573  26.241  1.00  0.00     0.124 S 
ATOM     58  O   UNL A   1      42.692  22.202  25.005  1.00  0.00    -0.237 OA
ATOM     59  O   UNL A   1      42.609  22.078  27.477  1.00  0.00    -0.237 OA
ATOM     60  O   UNL A   1      40.551  22.514  26.191  1.00  0.00    -0.744 OA
ENDBRANCH  53  57
ENDBRANCH  26  50
BRANCH  38  61
ATOM     61  C   UNL A   1      44.530  27.439  34.044  1.00  0.00     0.023 A 
ATOM     62  C   UNL A   1      44.437  26.265  34.811  1.00  0.00     0.031 A 
ATOM     63  C   UNL A   1      45.759  28.117  34.005  1.00  0.00     0.131 A 
ATOM     64  C   UNL A   1      45.541  25.833  35.559  1.00  0.00     0.055 A 
ATOM     65  C   UNL A   1      46.869  27.656  34.715  1.00  0.00     0.041 A 
ATOM     66  F   UNL A   1      45.896  29.243  33.288  1.00  0.00    -0.206 F 
ATOM     67  C   UNL A   1      46.759  26.516  35.509  1.00  0.00     0.022 A 
BRANCH  64  68
ATOM     68  S   UNL A   1      45.336  24.417  36.673  1.00  0.00     0.124 S 
ATOM     69  O   UNL A   1      46.717  23.999  36.894  1.00  0.00    -0.237 OA
ATOM     70  O   UNL A   1      44.660  25.018  37.818  1.00  0.00    -0.237 OA
ATOM     71  O   UNL A   1      44.523  23.483  35.895  1.00  0.00    -0.744 OA
ENDBRANCH  64  68
ENDBRANCH  38  61
ENDBRANCH  12  13
ENDBRANCH   5   7
ENDBRANCH   2   3
ENDBRANCH   1   2
BRANCH   1  72
ATOM     72  C   UNL A   1      32.423  27.915  23.058  1.00  0.00     0.118 C 
BRANCH  72  73
ATOM     73  N   UNL A   1      31.002  28.162  23.221  1.00  0.00    -0.349 N 
ATOM     74  C   UNL A   1      29.964  27.280  23.418  1.00  0.00     0.286 C 
ATOM     75  H   UNL A   1      30.740  29.110  23.185  1.00  0.00     0.163 HD
ATOM     76  O   UNL A   1      28.826  27.733  23.268  1.00  0.00    -0.266 OA
BRANCH  74  77
ATOM     77  C   UNL A   1      30.226  25.910  23.803  1.00  0.00     0.191 A 
ATOM     78  C   UNL A   1      30.646  24.788  23.111  1.00  0.00     0.057 A 
ATOM     79  O   UNL A   1      30.153  25.601  25.136  1.00  0.00    -0.452 OA
ATOM     80  C   UNL A   1      30.801  23.745  24.056  1.00  0.00     0.050 A 
ATOM     81  C   UNL A   1      30.513  24.296  25.286  1.00  0.00     0.142 A 
BRANCH  81  82
ATOM     82  C   UNL A   1      30.593  23.772  26.676  1.00  0.00     0.304 C 
BRANCH  82  83
ATOM     83  O   UNL A   1      31.780  24.282  27.316  1.00  0.00    -0.484 OA
BRANCH  83  84
ATOM     84  C   UNL A   1      32.899  23.545  27.015  1.00  0.00     0.140 A 
ATOM     85  C   UNL A   1      32.922  22.210  27.435  1.00  0.00     0.048 A 
ATOM     86  C   UNL A   1      33.940  24.063  26.235  1.00  0.00     0.101 A 
ATOM     87  C   UNL A   1      34.018  21.402  27.143  1.00  0.00     0.005 A 
ATOM     88  C   UNL A   1      35.034  23.239  25.932  1.00  0.00     0.063 A 
ATOM     89  Cl  UNL A   1      33.850  25.693  25.654  1.00  0.00    -0.079 Cl
ATOM     90  C   UNL A   1      35.075  21.917  26.395  1.00  0.00     0.022 A 
ATOM     91  Cl  UNL A   1      36.372  23.784  24.980  1.00  0.00    -0.083 Cl
ENDBRANCH  83  84
ENDBRANCH  82  83
ENDBRANCH  81  82
ENDBRANCH  74  77
ENDBRANCH  72  73
ENDBRANCH   1  72
TORSDOF 16
ENDMDL
