MODEL 1
REMARK VINA RESULT:     -11.2      0.000      0.000
REMARK SMILES O=C(CCc1nc(-c2ccccc2)c(-c2ccccc2)o1)NCCCNC(=O)c1ccc(-c2c3nc(c(-c4cc(S(=O)(=O)[O-])ccc4F)c4ccc([nH]4)c(-c4cc(S(=O)(=O)[O-])ccc4F)c4nc(c(-c5cc(S(=O)(=O)[O-])ccc5F)c5ccc2[nH]5)C=C4)C=C3)cc1
REMARK SMILES IDX 24 1 23 2 22 3 1 4 2 5 3 7 4 8 5 9 6 10 21 11 7 12 14 13
REMARK SMILES IDX 8 14 9 15 13 16 10 17 12 18 11 19 15 20 16 21 20 22 17 23
REMARK SMILES IDX 19 24 18 25 25 26 26 27 27 28 28 30 29 31 30 32 91 33 31 34
REMARK SMILES IDX 90 35 32 36 33 37 34 38 84 39 35 40 89 41 83 42 85 43 36 44
REMARK SMILES IDX 88 45 82 46 81 47 37 49 69 50 49 51 68 52 50 53 53 54 67 55
REMARK SMILES IDX 86 56 51 57 52 58 66 60 87 61 54 62 38 63 39 64 47 65 40 66
REMARK SMILES IDX 46 67 48 68 45 69 41 70 42 71 43 72 44 73 70 74 71 75 79 76
REMARK SMILES IDX 72 77 78 78 80 79 77 80 73 81 74 82 75 83 76 84 55 85 56 86
REMARK SMILES IDX 64 87 57 88 63 89 65 90 62 91 58 92 59 93 60 94 61 95
REMARK H PARENT 22 6 26 29 85 48 53 59
REMARK Flexibility Score: inf
ROOT
ATOM      1  C   UNL A   1      41.734  21.095  26.064  1.00  0.00     0.042 C 
ENDROOT
BRANCH   1   2
ATOM      2  C   UNL A   1      42.256  19.664  26.074  1.00  0.00     0.117 C 
BRANCH   2   3
ATOM      3  N   UNL A   1      43.700  19.603  26.161  1.00  0.00    -0.356 N 
ATOM      4  O   UNL A   1      44.024  18.361  24.254  1.00  0.00    -0.275 OA
ATOM      5  C   UNL A   1      44.475  18.983  25.211  1.00  0.00     0.220 C 
ATOM      6  H   UNL A   1      44.145  20.024  26.932  1.00  0.00     0.163 HD
BRANCH   5   7
ATOM      7  C   UNL A   1      45.964  19.151  25.420  1.00  0.00     0.110 C 
BRANCH   7   8
ATOM      8  C   UNL A   1      46.544  20.162  24.436  1.00  0.00     0.107 C 
BRANCH   8   9
ATOM      9  C   UNL A   1      46.284  21.562  24.867  1.00  0.00     0.196 A 
ATOM     10  N   UNL A   1      46.657  22.681  24.279  1.00  0.00    -0.213 NA
ATOM     11  O   UNL A   1      45.671  21.729  26.079  1.00  0.00    -0.440 OA
ATOM     12  C   UNL A   1      46.246  23.663  25.153  1.00  0.00     0.117 A 
ATOM     13  C   UNL A   1      45.628  23.089  26.249  1.00  0.00     0.162 A 
BRANCH  12  14
ATOM     14  C   UNL A   1      46.472  25.079  24.945  1.00  0.00     0.004 A 
ATOM     15  C   UNL A   1      45.424  26.000  25.090  1.00  0.00     0.010 A 
ATOM     16  C   UNL A   1      47.734  25.542  24.562  1.00  0.00     0.010 A 
ATOM     17  C   UNL A   1      45.629  27.359  24.844  1.00  0.00     0.001 A 
ATOM     18  C   UNL A   1      47.935  26.901  24.303  1.00  0.00     0.001 A 
ATOM     19  C   UNL A   1      46.883  27.808  24.444  1.00  0.00     0.000 A 
ENDBRANCH  12  14
BRANCH  13  20
ATOM     20  C   UNL A   1      44.987  23.581  27.457  1.00  0.00     0.020 A 
ATOM     21  C   UNL A   1      43.610  23.429  27.651  1.00  0.00     0.012 A 
ATOM     22  C   UNL A   1      45.758  24.146  28.483  1.00  0.00     0.012 A 
ATOM     23  C   UNL A   1      43.025  23.784  28.868  1.00  0.00     0.001 A 
ATOM     24  C   UNL A   1      45.170  24.516  29.693  1.00  0.00     0.001 A 
ATOM     25  C   UNL A   1      43.806  24.322  29.890  1.00  0.00     0.000 A 
ENDBRANCH  13  20
ENDBRANCH   8   9
ENDBRANCH   7   8
ENDBRANCH   5   7
ENDBRANCH   2   3
ENDBRANCH   1   2
BRANCH   1  26
ATOM     26  C   UNL A   1      40.564  21.360  27.009  1.00  0.00     0.118 C 
BRANCH  26  27
ATOM     27  N   UNL A   1      39.351  21.765  26.318  1.00  0.00    -0.352 N 
ATOM     28  C   UNL A   1      38.723  22.983  26.264  1.00  0.00     0.251 C 
ATOM     29  H   UNL A   1      38.908  21.049  25.808  1.00  0.00     0.163 HD
ATOM     30  O   UNL A   1      37.621  23.051  25.716  1.00  0.00    -0.269 OA
BRANCH  28  31
ATOM     31  C   UNL A   1      39.321  24.200  26.862  1.00  0.00     0.039 A 
ATOM     32  C   UNL A   1      40.019  25.068  26.014  1.00  0.00     0.014 A 
ATOM     33  C   UNL A   1      39.239  24.491  28.227  1.00  0.00     0.014 A 
ATOM     34  C   UNL A   1      40.564  26.250  26.517  1.00  0.00     0.010 A 
ATOM     35  C   UNL A   1      39.720  25.706  28.716  1.00  0.00     0.010 A 
ATOM     36  C   UNL A   1      40.380  26.601  27.863  1.00  0.00    -0.014 A 
BRANCH  36  37
ATOM     37  C   UNL A   1      40.834  27.924  28.362  1.00  0.00     0.031 A 
ATOM     38  C   UNL A   1      42.292  28.287  28.368  1.00  0.00     0.074 A 
ATOM     39  C   UNL A   1      39.915  28.785  28.841  1.00  0.00     0.049 A 
ATOM     40  N   UNL A   1      42.863  29.405  28.740  1.00  0.00    -0.248 NA
ATOM     41  C   UNL A   1      43.235  27.252  27.918  1.00  0.00     0.031 C 
ATOM     42  C   UNL A   1      38.478  28.513  28.939  1.00  0.00     0.029 A 
ATOM     43  N   UNL A   1      40.043  30.060  29.332  1.00  0.00    -0.354 N 
ATOM     44  C   UNL A   1      44.229  29.211  28.567  1.00  0.00     0.074 A 
ATOM     45  C   UNL A   1      44.402  27.845  28.121  1.00  0.00     0.031 C 
ATOM     46  C   UNL A   1      37.855  29.601  29.417  1.00  0.00     0.029 A 
ATOM     47  C   UNL A   1      38.847  30.631  29.701  1.00  0.00     0.049 A 
ATOM     48  H   UNL A   1      40.909  30.522  29.411  1.00  0.00     0.167 HD
ATOM     49  C   UNL A   1      45.239  30.099  28.744  1.00  0.00     0.034 A 
ATOM     50  C   UNL A   1      38.579  31.849  30.213  1.00  0.00     0.034 A 
ATOM     51  C   UNL A   1      45.042  31.455  29.202  1.00  0.00     0.049 A 
ATOM     52  C   UNL A   1      39.721  32.811  30.417  1.00  0.00     0.074 A 
ATOM     53  C   UNL A   1      45.984  32.454  29.374  1.00  0.00     0.029 A 
ATOM     54  N   UNL A   1      43.818  32.001  29.576  1.00  0.00    -0.354 N 
ATOM     55  N   UNL A   1      41.002  32.637  30.180  1.00  0.00    -0.248 NA
ATOM     56  C   UNL A   1      39.379  34.139  30.935  1.00  0.00     0.031 C 
ATOM     57  C   UNL A   1      45.346  33.572  29.923  1.00  0.00     0.029 A 
ATOM     58  C   UNL A   1      43.988  33.308  30.010  1.00  0.00     0.049 A 
ATOM     59  H   UNL A   1      42.956  31.527  29.540  1.00  0.00     0.167 HD
ATOM     60  C   UNL A   1      41.613  33.849  30.493  1.00  0.00     0.074 A 
ATOM     61  C   UNL A   1      40.554  34.747  30.908  1.00  0.00     0.031 C 
ATOM     62  C   UNL A   1      42.927  34.188  30.441  1.00  0.00     0.034 A 
BRANCH  49  63
ATOM     63  C   UNL A   1      46.646  29.620  28.464  1.00  0.00     0.023 A 
ATOM     64  C   UNL A   1      47.353  28.824  29.384  1.00  0.00     0.031 A 
ATOM     65  C   UNL A   1      47.301  29.978  27.272  1.00  0.00     0.131 A 
ATOM     66  C   UNL A   1      48.690  28.480  29.135  1.00  0.00     0.055 A 
ATOM     67  C   UNL A   1      48.604  29.559  26.990  1.00  0.00     0.041 A 
ATOM     68  F   UNL A   1      46.691  30.756  26.363  1.00  0.00    -0.206 F 
ATOM     69  C   UNL A   1      49.312  28.818  27.932  1.00  0.00     0.022 A 
BRANCH  66  70
ATOM     70  S   UNL A   1      49.651  27.715  30.470  1.00  0.00     0.124 S 
ATOM     71  O   UNL A   1      49.320  28.576  31.603  1.00  0.00    -0.237 OA
ATOM     72  O   UNL A   1      49.109  26.362  30.516  1.00  0.00    -0.237 OA
ATOM     73  O   UNL A   1      51.031  27.818  30.002  1.00  0.00    -0.744 OA
ENDBRANCH  66  70
ENDBRANCH  49  63
BRANCH  50  74
ATOM     74  C   UNL A   1      37.181  32.232  30.563  1.00  0.00     0.023 A 
ATOM     75  C   UNL A   1      36.305  32.744  29.593  1.00  0.00     0.031 A 
ATOM     76  C   UNL A   1      36.712  32.128  31.885  1.00  0.00     0.131 A 
ATOM     77  C   UNL A   1      35.025  33.182  29.967  1.00  0.00     0.055 A 
ATOM     78  C   UNL A   1      35.417  32.509  32.241  1.00  0.00     0.041 A 
ATOM     79  F   UNL A   1      37.505  31.640  32.852  1.00  0.00    -0.206 F 
ATOM     80  C   UNL A   1      34.570  33.055  31.281  1.00  0.00     0.022 A 
BRANCH  77  81
ATOM     81  S   UNL A   1      33.994  34.012  28.726  1.00  0.00     0.124 S 
ATOM     82  O   UNL A   1      34.923  34.992  28.176  1.00  0.00    -0.237 OA
ATOM     83  O   UNL A   1      33.632  32.905  27.845  1.00  0.00    -0.237 OA
ATOM     84  O   UNL A   1      32.895  34.565  29.512  1.00  0.00    -0.744 OA
ENDBRANCH  77  81
ENDBRANCH  50  74
BRANCH  62  85
ATOM     85  C   UNL A   1      43.275  35.613  30.808  1.00  0.00     0.023 A 
ATOM     86  C   UNL A   1      43.361  36.627  29.837  1.00  0.00     0.031 A 
ATOM     87  C   UNL A   1      43.569  35.950  32.141  1.00  0.00     0.131 A 
ATOM     88  C   UNL A   1      43.808  37.906  30.199  1.00  0.00     0.055 A 
ATOM     89  C   UNL A   1      43.940  37.245  32.507  1.00  0.00     0.041 A 
ATOM     90  F   UNL A   1      43.509  35.024  33.111  1.00  0.00    -0.206 F 
ATOM     91  C   UNL A   1      44.080  38.227  31.531  1.00  0.00     0.022 A 
BRANCH  88  92
ATOM     92  S   UNL A   1      44.159  39.107  28.886  1.00  0.00     0.124 S 
ATOM     93  O   UNL A   1      45.368  39.755  29.383  1.00  0.00    -0.237 OA
ATOM     94  O   UNL A   1      44.329  38.249  27.717  1.00  0.00    -0.237 OA
ATOM     95  O   UNL A   1      42.966  39.952  28.865  1.00  0.00    -0.744 OA
ENDBRANCH  88  92
ENDBRANCH  62  85
ENDBRANCH  36  37
ENDBRANCH  28  31
ENDBRANCH  26  27
ENDBRANCH   1  26
TORSDOF 17
ENDMDL
MODEL 2
REMARK VINA RESULT:     -10.7      1.652      7.887
REMARK SMILES O=C(CCc1nc(-c2ccccc2)c(-c2ccccc2)o1)NCCCNC(=O)c1ccc(-c2c3nc(c(-c4cc(S(=O)(=O)[O-])ccc4F)c4ccc([nH]4)c(-c4cc(S(=O)(=O)[O-])ccc4F)c4nc(c(-c5cc(S(=O)(=O)[O-])ccc5F)c5ccc2[nH]5)C=C4)C=C3)cc1
REMARK SMILES IDX 24 1 23 2 22 3 1 4 2 5 3 7 4 8 5 9 6 10 21 11 7 12 14 13
REMARK SMILES IDX 8 14 9 15 13 16 10 17 12 18 11 19 15 20 16 21 20 22 17 23
REMARK SMILES IDX 19 24 18 25 25 26 26 27 27 28 28 30 29 31 30 32 91 33 31 34
REMARK SMILES IDX 90 35 32 36 33 37 34 38 84 39 35 40 89 41 83 42 85 43 36 44
REMARK SMILES IDX 88 45 82 46 81 47 37 49 69 50 49 51 68 52 50 53 53 54 67 55
REMARK SMILES IDX 86 56 51 57 52 58 66 60 87 61 54 62 38 63 39 64 47 65 40 66
REMARK SMILES IDX 46 67 48 68 45 69 41 70 42 71 43 72 44 73 70 74 71 75 79 76
REMARK SMILES IDX 72 77 78 78 80 79 77 80 73 81 74 82 75 83 76 84 55 85 56 86
REMARK SMILES IDX 64 87 57 88 63 89 65 90 62 91 58 92 59 93 60 94 61 95
REMARK H PARENT 22 6 26 29 85 48 53 59
REMARK Flexibility Score: inf
ROOT
ATOM      1  C   UNL A   1      41.590  20.992  26.041  1.00  0.00     0.042 C 
ENDROOT
BRANCH   1   2
ATOM      2  C   UNL A   1      42.129  19.587  26.272  1.00  0.00     0.117 C 
BRANCH   2   3
ATOM      3  N   UNL A   1      43.576  19.542  26.270  1.00  0.00    -0.356 N 
ATOM      4  O   UNL A   1      43.790  18.151  24.451  1.00  0.00    -0.275 OA
ATOM      5  C   UNL A   1      44.295  18.851  25.324  1.00  0.00     0.220 C 
ATOM      6  H   UNL A   1      44.065  20.026  26.974  1.00  0.00     0.163 HD
BRANCH   5   7
ATOM      7  C   UNL A   1      45.793  19.044  25.420  1.00  0.00     0.110 C 
BRANCH   7   8
ATOM      8  C   UNL A   1      46.281  20.058  24.390  1.00  0.00     0.107 C 
BRANCH   8   9
ATOM      9  C   UNL A   1      46.086  21.457  24.858  1.00  0.00     0.196 A 
ATOM     10  N   UNL A   1      46.490  22.573  24.287  1.00  0.00    -0.213 NA
ATOM     11  O   UNL A   1      45.506  21.620  26.087  1.00  0.00    -0.440 OA
ATOM     12  C   UNL A   1      46.137  23.550  25.192  1.00  0.00     0.117 A 
ATOM     13  C   UNL A   1      45.519  22.976  26.288  1.00  0.00     0.162 A 
BRANCH  12  14
ATOM     14  C   UNL A   1      46.414  24.961  25.010  1.00  0.00     0.004 A 
ATOM     15  C   UNL A   1      45.396  25.915  25.153  1.00  0.00     0.010 A 
ATOM     16  C   UNL A   1      47.697  25.386  24.655  1.00  0.00     0.010 A 
ATOM     17  C   UNL A   1      45.650  27.269  24.932  1.00  0.00     0.001 A 
ATOM     18  C   UNL A   1      47.949  26.742  24.421  1.00  0.00     0.001 A 
ATOM     19  C   UNL A   1      46.926  27.681  24.560  1.00  0.00     0.000 A 
ENDBRANCH  12  14
BRANCH  13  20
ATOM     20  C   UNL A   1      44.924  23.464  27.520  1.00  0.00     0.020 A 
ATOM     21  C   UNL A   1      45.706  24.101  28.491  1.00  0.00     0.012 A 
ATOM     22  C   UNL A   1      43.538  23.376  27.716  1.00  0.00     0.012 A 
ATOM     23  C   UNL A   1      45.105  24.684  29.608  1.00  0.00     0.001 A 
ATOM     24  C   UNL A   1      42.941  23.945  28.841  1.00  0.00     0.001 A 
ATOM     25  C   UNL A   1      43.724  24.610  29.780  1.00  0.00     0.000 A 
ENDBRANCH  13  20
ENDBRANCH   8   9
ENDBRANCH   7   8
ENDBRANCH   5   7
ENDBRANCH   2   3
ENDBRANCH   1   2
BRANCH   1  26
ATOM     26  C   UNL A   1      40.491  21.428  27.006  1.00  0.00     0.118 C 
BRANCH  26  27
ATOM     27  N   UNL A   1      39.273  21.850  26.334  1.00  0.00    -0.352 N 
ATOM     28  C   UNL A   1      38.651  23.072  26.306  1.00  0.00     0.251 C 
ATOM     29  H   UNL A   1      38.822  21.145  25.816  1.00  0.00     0.163 HD
ATOM     30  O   UNL A   1      37.543  23.154  25.770  1.00  0.00    -0.269 OA
BRANCH  28  31
ATOM     31  C   UNL A   1      39.260  24.275  26.919  1.00  0.00     0.039 A 
ATOM     32  C   UNL A   1      39.986  25.134  26.087  1.00  0.00     0.014 A 
ATOM     33  C   UNL A   1      39.161  24.562  28.284  1.00  0.00     0.014 A 
ATOM     34  C   UNL A   1      40.542  26.305  26.604  1.00  0.00     0.010 A 
ATOM     35  C   UNL A   1      39.655  25.766  28.786  1.00  0.00     0.010 A 
ATOM     36  C   UNL A   1      40.343  26.654  27.948  1.00  0.00    -0.014 A 
BRANCH  36  37
ATOM     37  C   UNL A   1      40.812  27.966  28.461  1.00  0.00     0.031 A 
ATOM     38  C   UNL A   1      39.840  28.973  29.009  1.00  0.00     0.074 A 
ATOM     39  C   UNL A   1      42.127  28.254  28.396  1.00  0.00     0.049 A 
ATOM     40  N   UNL A   1      40.076  30.153  29.523  1.00  0.00    -0.248 NA
ATOM     41  C   UNL A   1      38.414  28.616  28.952  1.00  0.00     0.031 C 
ATOM     42  C   UNL A   1      43.153  27.374  27.828  1.00  0.00     0.029 A 
ATOM     43  N   UNL A   1      42.831  29.356  28.811  1.00  0.00    -0.354 N 
ATOM     44  C   UNL A   1      38.832  30.680  29.853  1.00  0.00     0.074 A 
ATOM     45  C   UNL A   1      37.843  29.716  29.419  1.00  0.00     0.031 C 
ATOM     46  C   UNL A   1      44.355  27.952  27.968  1.00  0.00     0.029 A 
ATOM     47  C   UNL A   1      44.186  29.259  28.594  1.00  0.00     0.049 A 
ATOM     48  H   UNL A   1      42.406  30.141  29.225  1.00  0.00     0.167 HD
ATOM     49  C   UNL A   1      38.548  31.849  30.481  1.00  0.00     0.034 A 
ATOM     50  C   UNL A   1      45.181  30.125  28.867  1.00  0.00     0.034 A 
ATOM     51  C   UNL A   1      39.553  32.800  30.895  1.00  0.00     0.049 A 
ATOM     52  C   UNL A   1      44.837  31.425  29.549  1.00  0.00     0.074 A 
ATOM     53  C   UNL A   1      39.384  33.993  31.576  1.00  0.00     0.029 A 
ATOM     54  N   UNL A   1      40.917  32.676  30.652  1.00  0.00    -0.354 N 
ATOM     55  N   UNL A   1      43.661  31.878  29.921  1.00  0.00    -0.248 NA
ATOM     56  C   UNL A   1      45.955  32.318  29.866  1.00  0.00     0.031 C 
ATOM     57  C   UNL A   1      40.629  34.624  31.676  1.00  0.00     0.029 A 
ATOM     58  C   UNL A   1      41.593  33.785  31.139  1.00  0.00     0.049 A 
ATOM     59  H   UNL A   1      41.341  31.912  30.198  1.00  0.00     0.167 HD
ATOM     60  C   UNL A   1      43.905  33.098  30.545  1.00  0.00     0.074 A 
ATOM     61  C   UNL A   1      45.342  33.291  30.520  1.00  0.00     0.031 C 
ATOM     62  C   UNL A   1      43.025  33.977  31.090  1.00  0.00     0.034 A 
BRANCH  49  63
ATOM     63  C   UNL A   1      37.091  32.168  30.733  1.00  0.00     0.023 A 
ATOM     64  C   UNL A   1      36.263  32.690  29.722  1.00  0.00     0.031 A 
ATOM     65  C   UNL A   1      36.524  31.971  32.005  1.00  0.00     0.131 A 
ATOM     66  C   UNL A   1      34.944  33.066  30.018  1.00  0.00     0.055 A 
ATOM     67  C   UNL A   1      35.184  32.266  32.270  1.00  0.00     0.041 A 
ATOM     68  F   UNL A   1      37.266  31.499  33.019  1.00  0.00    -0.206 F 
ATOM     69  C   UNL A   1      34.390  32.832  31.277  1.00  0.00     0.022 A 
BRANCH  66  70
ATOM     70  S   UNL A   1      34.011  34.004  28.775  1.00  0.00     0.124 S 
ATOM     71  O   UNL A   1      32.927  34.561  29.580  1.00  0.00    -0.237 OA
ATOM     72  O   UNL A   1      35.001  34.957  28.289  1.00  0.00    -0.237 OA
ATOM     73  O   UNL A   1      33.601  32.984  27.813  1.00  0.00    -0.744 OA
ENDBRANCH  66  70
ENDBRANCH  49  63
BRANCH  50  74
ATOM     74  C   UNL A   1      46.590  29.798  28.505  1.00  0.00     0.023 A 
ATOM     75  C   UNL A   1      47.428  29.111  29.399  1.00  0.00     0.031 A 
ATOM     76  C   UNL A   1      47.134  30.203  27.274  1.00  0.00     0.131 A 
ATOM     77  C   UNL A   1      48.775  28.896  29.071  1.00  0.00     0.055 A 
ATOM     78  C   UNL A   1      48.459  29.934  26.927  1.00  0.00     0.041 A 
ATOM     79  F   UNL A   1      46.377  30.859  26.379  1.00  0.00    -0.206 F 
ATOM     80  C   UNL A   1      49.293  29.290  27.836  1.00  0.00     0.022 A 
BRANCH  77  81
ATOM     81  S   UNL A   1      49.869  28.176  30.327  1.00  0.00     0.124 S 
ATOM     82  O   UNL A   1      50.672  29.329  30.717  1.00  0.00    -0.237 OA
ATOM     83  O   UNL A   1      48.914  27.693  31.319  1.00  0.00    -0.237 OA
ATOM     84  O   UNL A   1      50.587  27.135  29.595  1.00  0.00    -0.744 OA
ENDBRANCH  77  81
ENDBRANCH  50  74
BRANCH  62  85
ATOM     85  C   UNL A   1      43.611  35.210  31.740  1.00  0.00     0.023 A 
ATOM     86  C   UNL A   1      43.939  35.240  33.107  1.00  0.00     0.031 A 
ATOM     87  C   UNL A   1      43.801  36.384  30.991  1.00  0.00     0.131 A 
ATOM     88  C   UNL A   1      44.363  36.439  33.699  1.00  0.00     0.055 A 
ATOM     89  C   UNL A   1      44.296  37.554  31.569  1.00  0.00     0.041 A 
ATOM     90  F   UNL A   1      43.501  36.418  29.683  1.00  0.00    -0.206 F 
ATOM     91  C   UNL A   1      44.561  37.592  32.935  1.00  0.00     0.022 A 
BRANCH  88  92
ATOM     92  S   UNL A   1      44.521  36.508  35.505  1.00  0.00     0.124 S 
ATOM     93  O   UNL A   1      45.951  36.290  35.692  1.00  0.00    -0.237 OA
ATOM     94  O   UNL A   1      44.035  37.850  35.809  1.00  0.00    -0.237 OA
ATOM     95  O   UNL A   1      43.661  35.418  35.966  1.00  0.00    -0.744 OA
ENDBRANCH  88  92
ENDBRANCH  62  85
ENDBRANCH  36  37
ENDBRANCH  28  31
ENDBRANCH  26  27
ENDBRANCH   1  26
TORSDOF 17
ENDMDL
MODEL 3
REMARK VINA RESULT:     -10.6      4.595      7.970
REMARK SMILES O=C(CCc1nc(-c2ccccc2)c(-c2ccccc2)o1)NCCCNC(=O)c1ccc(-c2c3nc(c(-c4cc(S(=O)(=O)[O-])ccc4F)c4ccc([nH]4)c(-c4cc(S(=O)(=O)[O-])ccc4F)c4nc(c(-c5cc(S(=O)(=O)[O-])ccc5F)c5ccc2[nH]5)C=C4)C=C3)cc1
REMARK SMILES IDX 24 1 23 2 22 3 1 4 2 5 3 7 4 8 5 9 6 10 21 11 7 12 14 13
REMARK SMILES IDX 8 14 9 15 13 16 10 17 12 18 11 19 15 20 16 21 20 22 17 23
REMARK SMILES IDX 19 24 18 25 25 26 26 27 27 28 28 30 29 31 30 32 91 33 31 34
REMARK SMILES IDX 90 35 32 36 33 37 34 38 84 39 35 40 89 41 83 42 85 43 36 44
REMARK SMILES IDX 88 45 82 46 81 47 37 49 69 50 49 51 68 52 50 53 53 54 67 55
REMARK SMILES IDX 86 56 51 57 52 58 66 60 87 61 54 62 38 63 39 64 47 65 40 66
REMARK SMILES IDX 46 67 48 68 45 69 41 70 42 71 43 72 44 73 70 74 71 75 79 76
REMARK SMILES IDX 72 77 78 78 80 79 77 80 73 81 74 82 75 83 76 84 55 85 56 86
REMARK SMILES IDX 64 87 57 88 63 89 65 90 62 91 58 92 59 93 60 94 61 95
REMARK H PARENT 22 6 26 29 85 48 53 59
REMARK Flexibility Score: inf
ROOT
ATOM      1  C   UNL A   1      36.675  22.243  24.283  1.00  0.00     0.042 C 
ENDROOT
BRANCH   1   2
ATOM      2  C   UNL A   1      36.008  23.602  24.113  1.00  0.00     0.117 C 
BRANCH   2   3
ATOM      3  N   UNL A   1      34.965  23.586  23.109  1.00  0.00    -0.356 N 
ATOM      4  O   UNL A   1      33.234  23.094  24.541  1.00  0.00    -0.275 OA
ATOM      5  C   UNL A   1      33.643  23.369  23.417  1.00  0.00     0.220 C 
ATOM      6  H   UNL A   1      35.213  23.736  22.169  1.00  0.00     0.163 HD
BRANCH   5   7
ATOM      7  C   UNL A   1      32.700  23.528  22.245  1.00  0.00     0.110 C 
BRANCH   7   8
ATOM      8  C   UNL A   1      32.897  24.879  21.563  1.00  0.00     0.107 C 
BRANCH   8   9
ATOM      9  C   UNL A   1      32.115  25.953  22.233  1.00  0.00     0.196 A 
ATOM     10  N   UNL A   1      31.054  26.592  21.785  1.00  0.00    -0.213 NA
ATOM     11  O   UNL A   1      32.607  26.423  23.421  1.00  0.00    -0.440 OA
ATOM     12  C   UNL A   1      30.811  27.542  22.753  1.00  0.00     0.117 A 
ATOM     13  C   UNL A   1      31.748  27.434  23.765  1.00  0.00     0.162 A 
BRANCH  12  14
ATOM     14  C   UNL A   1      29.743  28.520  22.678  1.00  0.00     0.004 A 
ATOM     15  C   UNL A   1      28.453  28.206  23.128  1.00  0.00     0.010 A 
ATOM     16  C   UNL A   1      29.981  29.780  22.123  1.00  0.00     0.010 A 
ATOM     17  C   UNL A   1      27.413  29.129  23.013  1.00  0.00     0.001 A 
ATOM     18  C   UNL A   1      28.935  30.700  21.996  1.00  0.00     0.001 A 
ATOM     19  C   UNL A   1      27.653  30.374  22.442  1.00  0.00     0.000 A 
ENDBRANCH  12  14
BRANCH  13  20
ATOM     20  C   UNL A   1      31.999  28.112  25.024  1.00  0.00     0.020 A 
ATOM     21  C   UNL A   1      31.425  27.651  26.214  1.00  0.00     0.012 A 
ATOM     22  C   UNL A   1      32.889  29.195  25.076  1.00  0.00     0.012 A 
ATOM     23  C   UNL A   1      31.777  28.227  27.437  1.00  0.00     0.001 A 
ATOM     24  C   UNL A   1      33.227  29.781  26.296  1.00  0.00     0.001 A 
ATOM     25  C   UNL A   1      32.681  29.287  27.477  1.00  0.00     0.000 A 
ENDBRANCH  13  20
ENDBRANCH   8   9
ENDBRANCH   7   8
ENDBRANCH   5   7
ENDBRANCH   2   3
ENDBRANCH   1   2
BRANCH   1  26
ATOM     26  C   UNL A   1      36.965  21.843  25.727  1.00  0.00     0.118 C 
BRANCH  26  27
ATOM     27  N   UNL A   1      38.132  20.988  25.860  1.00  0.00    -0.352 N 
ATOM     28  C   UNL A   1      39.422  21.294  26.212  1.00  0.00     0.251 C 
ATOM     29  H   UNL A   1      37.971  20.036  25.667  1.00  0.00     0.163 HD
ATOM     30  O   UNL A   1      40.279  20.411  26.126  1.00  0.00    -0.269 OA
BRANCH  28  31
ATOM     31  C   UNL A   1      39.811  22.650  26.663  1.00  0.00     0.039 A 
ATOM     32  C   UNL A   1      40.747  22.750  27.698  1.00  0.00     0.014 A 
ATOM     33  C   UNL A   1      39.261  23.815  26.119  1.00  0.00     0.014 A 
ATOM     34  C   UNL A   1      41.181  24.003  28.132  1.00  0.00     0.010 A 
ATOM     35  C   UNL A   1      39.747  25.065  26.502  1.00  0.00     0.010 A 
ATOM     36  C   UNL A   1      40.719  25.171  27.506  1.00  0.00    -0.014 A 
BRANCH  36  37
ATOM     37  C   UNL A   1      41.288  26.493  27.870  1.00  0.00     0.031 A 
ATOM     38  C   UNL A   1      42.706  26.846  27.518  1.00  0.00     0.074 A 
ATOM     39  C   UNL A   1      40.519  27.364  28.553  1.00  0.00     0.049 A 
ATOM     40  N   UNL A   1      43.357  27.961  27.732  1.00  0.00    -0.248 NA
ATOM     41  C   UNL A   1      43.504  25.801  26.859  1.00  0.00     0.031 C 
ATOM     42  C   UNL A   1      39.147  27.103  29.000  1.00  0.00     0.029 A 
ATOM     43  N   UNL A   1      40.770  28.640  28.989  1.00  0.00    -0.354 N 
ATOM     44  C   UNL A   1      44.638  27.757  27.233  1.00  0.00     0.074 A 
ATOM     45  C   UNL A   1      44.690  26.387  26.767  1.00  0.00     0.031 C 
ATOM     46  C   UNL A   1      38.665  28.197  29.607  1.00  0.00     0.029 A 
ATOM     47  C   UNL A   1      39.704  29.222  29.635  1.00  0.00     0.049 A 
ATOM     48  H   UNL A   1      41.631  29.096  28.852  1.00  0.00     0.167 HD
ATOM     49  C   UNL A   1      45.666  28.638  27.152  1.00  0.00     0.034 A 
ATOM     50  C   UNL A   1      39.575  30.444  30.188  1.00  0.00     0.034 A 
ATOM     51  C   UNL A   1      45.594  29.998  27.635  1.00  0.00     0.049 A 
ATOM     52  C   UNL A   1      40.738  31.399  30.100  1.00  0.00     0.074 A 
ATOM     53  C   UNL A   1      46.556  30.991  27.566  1.00  0.00     0.029 A 
ATOM     54  N   UNL A   1      44.502  30.554  28.293  1.00  0.00    -0.354 N 
ATOM     55  N   UNL A   1      41.921  31.214  29.561  1.00  0.00    -0.248 NA
ATOM     56  C   UNL A   1      40.539  32.732  30.678  1.00  0.00     0.031 C 
ATOM     57  C   UNL A   1      46.077  32.117  28.246  1.00  0.00     0.029 A 
ATOM     58  C   UNL A   1      44.780  31.862  28.663  1.00  0.00     0.049 A 
ATOM     59  H   UNL A   1      43.654  30.086  28.471  1.00  0.00     0.167 HD
ATOM     60  C   UNL A   1      42.597  32.423  29.707  1.00  0.00     0.074 A 
ATOM     61  C   UNL A   1      41.676  33.331  30.361  1.00  0.00     0.031 C 
ATOM     62  C   UNL A   1      43.860  32.753  29.334  1.00  0.00     0.034 A 
BRANCH  49  63
ATOM     63  C   UNL A   1      46.960  28.147  26.541  1.00  0.00     0.023 A 
ATOM     64  C   UNL A   1      47.189  28.200  25.155  1.00  0.00     0.031 A 
ATOM     65  C   UNL A   1      47.971  27.600  27.350  1.00  0.00     0.131 A 
ATOM     66  C   UNL A   1      48.359  27.646  24.614  1.00  0.00     0.055 A 
ATOM     67  C   UNL A   1      49.173  27.129  26.814  1.00  0.00     0.041 A 
ATOM     68  F   UNL A   1      47.805  27.499  28.679  1.00  0.00    -0.206 F 
ATOM     69  C   UNL A   1      49.366  27.137  25.436  1.00  0.00     0.022 A 
BRANCH  66  70
ATOM     70  S   UNL A   1      48.480  27.465  22.812  1.00  0.00     0.124 S 
ATOM     71  O   UNL A   1      47.277  28.163  22.365  1.00  0.00    -0.237 OA
ATOM     72  O   UNL A   1      49.748  28.119  22.513  1.00  0.00    -0.237 OA
ATOM     73  O   UNL A   1      48.461  26.018  22.611  1.00  0.00    -0.744 OA
ENDBRANCH  66  70
ENDBRANCH  49  63
BRANCH  50  74
ATOM     74  C   UNL A   1      38.307  30.839  30.866  1.00  0.00     0.023 A 
ATOM     75  C   UNL A   1      37.287  31.504  30.166  1.00  0.00     0.031 A 
ATOM     76  C   UNL A   1      38.111  30.592  32.236  1.00  0.00     0.131 A 
ATOM     77  C   UNL A   1      36.143  31.945  30.848  1.00  0.00     0.055 A 
ATOM     78  C   UNL A   1      36.945  30.980  32.898  1.00  0.00     0.041 A 
ATOM     79  F   UNL A   1      39.051  29.955  32.953  1.00  0.00    -0.206 F 
ATOM     80  C   UNL A   1      35.958  31.675  32.205  1.00  0.00     0.022 A 
BRANCH  77  81
ATOM     81  S   UNL A   1      34.938  32.965  29.953  1.00  0.00     0.124 S 
ATOM     82  O   UNL A   1      34.407  32.014  28.984  1.00  0.00    -0.237 OA
ATOM     83  O   UNL A   1      34.029  33.368  31.021  1.00  0.00    -0.237 OA
ATOM     84  O   UNL A   1      35.753  34.039  29.392  1.00  0.00    -0.744 OA
ENDBRANCH  77  81
ENDBRANCH  50  74
BRANCH  62  85
ATOM     85  C   UNL A   1      44.296  34.176  29.595  1.00  0.00     0.023 A 
ATOM     86  C   UNL A   1      44.150  35.185  28.626  1.00  0.00     0.031 A 
ATOM     87  C   UNL A   1      44.907  34.519  30.815  1.00  0.00     0.131 A 
ATOM     88  C   UNL A   1      44.679  36.463  28.859  1.00  0.00     0.055 A 
ATOM     89  C   UNL A   1      45.363  35.813  31.071  1.00  0.00     0.041 A 
ATOM     90  F   UNL A   1      45.079  33.599  31.776  1.00  0.00    -0.206 F 
ATOM     91  C   UNL A   1      45.268  36.789  30.083  1.00  0.00     0.022 A 
BRANCH  88  92
ATOM     92  S   UNL A   1      44.708  37.654  27.491  1.00  0.00     0.124 S 
ATOM     93  O   UNL A   1      44.926  38.914  28.192  1.00  0.00    -0.237 OA
ATOM     94  O   UNL A   1      45.823  37.172  26.683  1.00  0.00    -0.237 OA
ATOM     95  O   UNL A   1      43.388  37.505  26.879  1.00  0.00    -0.744 OA
ENDBRANCH  88  92
ENDBRANCH  62  85
ENDBRANCH  36  37
ENDBRANCH  28  31
ENDBRANCH  26  27
ENDBRANCH   1  26
TORSDOF 17
ENDMDL
