MODEL 1
REMARK VINA RESULT:     -12.7      0.000      0.000
REMARK SMILES O=C(NCCCNC(=O)c1ccc(-n2cnc3ccccc32)nc1)c1ccc(-c2c3nc(c(-c4cc(S(=O)(=O)[O-])ccc4F)c4ccc([nH]4)c(-c4cc(S(=O)(=O)[O-])ccc4F)c4nc(c(-c5cc(S(=O)(=O)[O-])ccc5F)c5ccc2[nH]5)C=C4)C=C3)cc1
REMARK SMILES IDX 4 1 3 2 1 3 2 4 25 6 26 7 87 8 27 9 86 10 28 11 29 12 30 13
REMARK SMILES IDX 80 14 31 15 85 16 79 17 81 18 32 19 84 20 78 21 77 22 33 24
REMARK SMILES IDX 65 25 45 26 64 27 46 28 49 29 63 30 82 31 47 32 48 33 62 35
REMARK SMILES IDX 83 36 50 37 34 38 35 39 43 40 36 41 42 42 44 43 41 44 37 45
REMARK SMILES IDX 38 46 39 47 40 48 66 49 67 50 75 51 68 52 74 53 76 54 73 55
REMARK SMILES IDX 69 56 70 57 71 58 72 59 51 60 52 61 60 62 53 63 59 64 61 65
REMARK SMILES IDX 58 66 54 67 55 68 56 69 57 70 5 71 6 72 7 73 8 74 9 76 10 77
REMARK SMILES IDX 11 78 24 79 12 80 23 81 13 82 14 83 15 84 22 85 16 86 17 87
REMARK SMILES IDX 21 88 18 89 20 90 19 91
REMARK H PARENT 3 5 81 23 49 34 7 75
REMARK Flexibility Score: inf
ROOT
ATOM      1  C   UNL A   1      33.898  31.084  27.157  1.00  0.00     0.118 C 
ENDROOT
BRANCH   1   2
ATOM      2  N   UNL A   1      33.888  31.875  28.402  1.00  0.00    -0.352 N 
ATOM      3  O   UNL A   1      34.599  32.323  30.524  1.00  0.00    -0.269 OA
ATOM      4  C   UNL A   1      34.834  31.864  29.431  1.00  0.00     0.251 C 
ATOM      5  H   UNL A   1      33.123  32.483  28.524  1.00  0.00     0.163 HD
BRANCH   4   6
ATOM      6  C   UNL A   1      36.151  31.282  29.101  1.00  0.00     0.039 A 
ATOM      7  C   UNL A   1      37.340  32.014  29.121  1.00  0.00     0.014 A 
ATOM      8  C   UNL A   1      36.159  29.906  28.990  1.00  0.00     0.014 A 
ATOM      9  C   UNL A   1      38.546  31.309  29.151  1.00  0.00     0.010 A 
ATOM     10  C   UNL A   1      37.299  29.256  29.356  1.00  0.00     0.010 A 
ATOM     11  C   UNL A   1      38.517  29.914  29.312  1.00  0.00    -0.014 A 
BRANCH  11  12
ATOM     12  C   UNL A   1      39.717  29.099  29.483  1.00  0.00     0.031 A 
ATOM     13  C   UNL A   1      40.062  28.729  30.882  1.00  0.00     0.074 A 
ATOM     14  C   UNL A   1      40.381  28.549  28.438  1.00  0.00     0.049 A 
ATOM     15  N   UNL A   1      41.031  29.199  31.595  1.00  0.00    -0.248 NA
ATOM     16  C   UNL A   1      39.149  27.852  31.626  1.00  0.00     0.031 C 
ATOM     17  C   UNL A   1      40.026  28.540  27.007  1.00  0.00     0.029 A 
ATOM     18  N   UNL A   1      41.489  27.764  28.456  1.00  0.00    -0.354 N 
ATOM     19  C   UNL A   1      40.989  28.516  32.808  1.00  0.00     0.074 A 
ATOM     20  C   UNL A   1      39.708  27.855  32.839  1.00  0.00     0.031 C 
ATOM     21  C   UNL A   1      40.721  27.579  26.364  1.00  0.00     0.029 A 
ATOM     22  C   UNL A   1      41.734  27.088  27.270  1.00  0.00     0.049 A 
ATOM     23  H   UNL A   1      42.070  27.683  29.247  1.00  0.00     0.167 HD
ATOM     24  C   UNL A   1      42.104  28.378  33.586  1.00  0.00     0.034 A 
ATOM     25  C   UNL A   1      42.715  26.189  27.023  1.00  0.00     0.034 A 
ATOM     26  C   UNL A   1      43.168  29.226  33.109  1.00  0.00     0.049 A 
ATOM     27  C   UNL A   1      43.765  26.386  28.048  1.00  0.00     0.074 A 
ATOM     28  C   UNL A   1      43.333  30.589  32.969  1.00  0.00     0.029 A 
ATOM     29  N   UNL A   1      44.123  28.644  32.306  1.00  0.00    -0.354 N 
ATOM     30  N   UNL A   1      44.522  27.447  28.113  1.00  0.00    -0.248 NA
ATOM     31  C   UNL A   1      43.649  25.624  29.280  1.00  0.00     0.031 C 
ATOM     32  C   UNL A   1      44.044  30.748  31.745  1.00  0.00     0.029 A 
ATOM     33  C   UNL A   1      44.347  29.480  31.241  1.00  0.00     0.049 A 
ATOM     34  H   UNL A   1      44.568  27.781  32.468  1.00  0.00     0.167 HD
ATOM     35  C   UNL A   1      44.584  27.744  29.466  1.00  0.00     0.074 A 
ATOM     36  C   UNL A   1      44.130  26.526  30.139  1.00  0.00     0.031 C 
ATOM     37  C   UNL A   1      44.712  29.032  29.908  1.00  0.00     0.034 A 
BRANCH  24  38
ATOM     38  C   UNL A   1      42.355  27.245  34.554  1.00  0.00     0.023 A 
ATOM     39  C   UNL A   1      43.129  26.116  34.235  1.00  0.00     0.031 A 
ATOM     40  C   UNL A   1      41.996  27.373  35.914  1.00  0.00     0.131 A 
ATOM     41  C   UNL A   1      43.512  25.182  35.208  1.00  0.00     0.055 A 
ATOM     42  C   UNL A   1      42.433  26.477  36.899  1.00  0.00     0.041 A 
ATOM     43  F   UNL A   1      41.254  28.408  36.339  1.00  0.00    -0.206 F 
ATOM     44  C   UNL A   1      43.199  25.374  36.548  1.00  0.00     0.022 A 
BRANCH  41  45
ATOM     45  S   UNL A   1      44.448  23.701  34.735  1.00  0.00     0.124 S 
ATOM     46  O   UNL A   1      43.446  22.933  34.005  1.00  0.00    -0.237 OA
ATOM     47  O   UNL A   1      45.520  24.276  33.926  1.00  0.00    -0.237 OA
ATOM     48  O   UNL A   1      44.871  23.143  36.016  1.00  0.00    -0.744 OA
ENDBRANCH  41  45
ENDBRANCH  24  38
BRANCH  25  49
ATOM     49  C   UNL A   1      42.567  24.934  26.257  1.00  0.00     0.023 A 
ATOM     50  C   UNL A   1      41.591  23.993  26.641  1.00  0.00     0.031 A 
ATOM     51  C   UNL A   1      43.564  24.509  25.367  1.00  0.00     0.131 A 
ATOM     52  C   UNL A   1      41.674  22.667  26.203  1.00  0.00     0.055 A 
ATOM     53  C   UNL A   1      43.630  23.188  24.908  1.00  0.00     0.041 A 
ATOM     54  F   UNL A   1      44.535  25.351  24.983  1.00  0.00    -0.206 F 
ATOM     55  C   UNL A   1      42.694  22.254  25.342  1.00  0.00     0.022 A 
BRANCH  52  56
ATOM     56  S   UNL A   1      40.520  21.416  26.833  1.00  0.00     0.124 S 
ATOM     57  O   UNL A   1      40.804  21.428  28.266  1.00  0.00    -0.237 OA
ATOM     58  O   UNL A   1      39.232  21.978  26.442  1.00  0.00    -0.237 OA
ATOM     59  O   UNL A   1      40.919  20.199  26.131  1.00  0.00    -0.744 OA
ENDBRANCH  52  56
ENDBRANCH  25  49
BRANCH  37  60
ATOM     60  C   UNL A   1      45.022  30.128  28.902  1.00  0.00     0.023 A 
ATOM     61  C   UNL A   1      46.376  30.438  28.685  1.00  0.00     0.031 A 
ATOM     62  C   UNL A   1      44.067  31.003  28.347  1.00  0.00     0.131 A 
ATOM     63  C   UNL A   1      46.738  31.597  27.986  1.00  0.00     0.055 A 
ATOM     64  C   UNL A   1      44.433  32.122  27.590  1.00  0.00     0.041 A 
ATOM     65  F   UNL A   1      42.759  30.858  28.581  1.00  0.00    -0.206 F 
ATOM     66  C   UNL A   1      45.775  32.434  27.422  1.00  0.00     0.022 A 
BRANCH  63  67
ATOM     67  S   UNL A   1      48.469  32.129  27.937  1.00  0.00     0.124 S 
ATOM     68  O   UNL A   1      48.341  33.580  27.830  1.00  0.00    -0.237 OA
ATOM     69  O   UNL A   1      48.982  31.640  29.215  1.00  0.00    -0.237 OA
ATOM     70  O   UNL A   1      49.012  31.461  26.759  1.00  0.00    -0.744 OA
ENDBRANCH  63  67
ENDBRANCH  37  60
ENDBRANCH  11  12
ENDBRANCH   4   6
ENDBRANCH   1   2
BRANCH   1  71
ATOM     71  C   UNL A   1      32.937  29.912  27.170  1.00  0.00     0.042 C 
BRANCH  71  72
ATOM     72  C   UNL A   1      32.253  29.719  25.818  1.00  0.00     0.118 C 
BRANCH  72  73
ATOM     73  N   UNL A   1      33.163  29.742  24.675  1.00  0.00    -0.352 N 
ATOM     74  C   UNL A   1      33.651  28.698  23.925  1.00  0.00     0.252 C 
ATOM     75  H   UNL A   1      33.471  30.636  24.402  1.00  0.00     0.163 HD
ATOM     76  O   UNL A   1      34.386  28.884  22.966  1.00  0.00    -0.269 OA
BRANCH  74  77
ATOM     77  C   UNL A   1      33.238  27.338  24.265  1.00  0.00     0.058 A 
ATOM     78  C   UNL A   1      33.833  26.685  25.340  1.00  0.00     0.019 A 
ATOM     79  C   UNL A   1      32.311  26.663  23.490  1.00  0.00     0.127 A 
ATOM     80  C   UNL A   1      33.539  25.351  25.555  1.00  0.00     0.048 A 
ATOM     81  N   UNL A   1      32.004  25.353  23.686  1.00  0.00    -0.238 NA
ATOM     82  C   UNL A   1      32.599  24.730  24.735  1.00  0.00     0.138 A 
BRANCH  82  83
ATOM     83  N   UNL A   1      32.228  23.392  25.014  1.00  0.00    -0.283 N 
ATOM     84  C   UNL A   1      31.015  22.993  25.523  1.00  0.00     0.206 A 
ATOM     85  C   UNL A   1      33.006  22.251  24.884  1.00  0.00     0.074 A 
ATOM     86  N   UNL A   1      30.920  21.683  25.622  1.00  0.00    -0.236 NA
ATOM     87  C   UNL A   1      32.158  21.213  25.264  1.00  0.00     0.089 A 
ATOM     88  C   UNL A   1      34.358  22.027  24.564  1.00  0.00     0.029 A 
ATOM     89  C   UNL A   1      32.647  19.897  25.276  1.00  0.00     0.030 A 
ATOM     90  C   UNL A   1      34.827  20.714  24.589  1.00  0.00     0.002 A 
ATOM     91  C   UNL A   1      33.985  19.661  24.936  1.00  0.00     0.002 A 
ENDBRANCH  82  83
ENDBRANCH  74  77
ENDBRANCH  72  73
ENDBRANCH  71  72
ENDBRANCH   1  71
TORSDOF 14
ENDMDL
MODEL 2
REMARK VINA RESULT:     -12.6      3.177      8.016
REMARK SMILES O=C(NCCCNC(=O)c1ccc(-n2cnc3ccccc32)nc1)c1ccc(-c2c3nc(c(-c4cc(S(=O)(=O)[O-])ccc4F)c4ccc([nH]4)c(-c4cc(S(=O)(=O)[O-])ccc4F)c4nc(c(-c5cc(S(=O)(=O)[O-])ccc5F)c5ccc2[nH]5)C=C4)C=C3)cc1
REMARK SMILES IDX 4 1 3 2 1 3 2 4 25 6 26 7 87 8 27 9 86 10 28 11 29 12 30 13
REMARK SMILES IDX 80 14 31 15 85 16 79 17 81 18 32 19 84 20 78 21 77 22 33 24
REMARK SMILES IDX 65 25 45 26 64 27 46 28 49 29 63 30 82 31 47 32 48 33 62 35
REMARK SMILES IDX 83 36 50 37 34 38 35 39 43 40 36 41 42 42 44 43 41 44 37 45
REMARK SMILES IDX 38 46 39 47 40 48 66 49 67 50 75 51 68 52 74 53 76 54 73 55
REMARK SMILES IDX 69 56 70 57 71 58 72 59 51 60 52 61 60 62 53 63 59 64 61 65
REMARK SMILES IDX 58 66 54 67 55 68 56 69 57 70 5 71 6 72 7 73 8 74 9 76 10 77
REMARK SMILES IDX 11 78 24 79 12 80 23 81 13 82 14 83 15 84 22 85 16 86 17 87
REMARK SMILES IDX 21 88 18 89 20 90 19 91
REMARK H PARENT 3 5 81 23 49 34 7 75
REMARK Flexibility Score: inf
ROOT
ATOM      1  C   UNL A   1      38.886  20.751  25.734  1.00  0.00     0.118 C 
ENDROOT
BRANCH   1   2
ATOM      2  N   UNL A   1      39.764  19.565  25.741  1.00  0.00    -0.352 N 
ATOM      3  O   UNL A   1      41.806  18.554  25.615  1.00  0.00    -0.269 OA
ATOM      4  C   UNL A   1      41.151  19.527  25.907  1.00  0.00     0.251 C 
ATOM      5  H   UNL A   1      39.319  18.696  25.614  1.00  0.00     0.163 HD
BRANCH   4   6
ATOM      6  C   UNL A   1      41.773  20.736  26.483  1.00  0.00     0.039 A 
ATOM      7  C   UNL A   1      42.215  21.813  25.712  1.00  0.00     0.014 A 
ATOM      8  C   UNL A   1      41.684  20.828  27.858  1.00  0.00     0.014 A 
ATOM      9  C   UNL A   1      42.447  23.032  26.356  1.00  0.00     0.010 A 
ATOM     10  C   UNL A   1      41.587  22.077  28.396  1.00  0.00     0.010 A 
ATOM     11  C   UNL A   1      42.087  23.169  27.706  1.00  0.00    -0.014 A 
BRANCH  11  12
ATOM     12  C   UNL A   1      42.169  24.432  28.436  1.00  0.00     0.031 A 
ATOM     13  C   UNL A   1      41.020  25.361  28.266  1.00  0.00     0.074 A 
ATOM     14  C   UNL A   1      43.130  24.681  29.359  1.00  0.00     0.049 A 
ATOM     15  N   UNL A   1      41.004  26.464  27.594  1.00  0.00    -0.248 NA
ATOM     16  C   UNL A   1      39.702  24.954  28.771  1.00  0.00     0.031 C 
ATOM     17  C   UNL A   1      44.168  23.780  29.893  1.00  0.00     0.029 A 
ATOM     18  N   UNL A   1      43.310  25.794  30.115  1.00  0.00    -0.354 N 
ATOM     19  C   UNL A   1      39.734  27.009  27.771  1.00  0.00     0.074 A 
ATOM     20  C   UNL A   1      38.930  25.951  28.331  1.00  0.00     0.031 C 
ATOM     21  C   UNL A   1      44.662  24.275  31.046  1.00  0.00     0.029 A 
ATOM     22  C   UNL A   1      44.165  25.624  31.194  1.00  0.00     0.049 A 
ATOM     23  H   UNL A   1      42.870  26.651  29.913  1.00  0.00     0.167 HD
ATOM     24  C   UNL A   1      39.513  28.351  27.644  1.00  0.00     0.034 A 
ATOM     25  C   UNL A   1      44.472  26.530  32.151  1.00  0.00     0.034 A 
ATOM     26  C   UNL A   1      40.662  29.007  27.071  1.00  0.00     0.049 A 
ATOM     27  C   UNL A   1      44.135  27.869  31.618  1.00  0.00     0.074 A 
ATOM     28  C   UNL A   1      41.328  28.919  25.866  1.00  0.00     0.029 A 
ATOM     29  N   UNL A   1      41.533  29.622  27.941  1.00  0.00    -0.354 N 
ATOM     30  N   UNL A   1      44.776  28.439  30.635  1.00  0.00    -0.248 NA
ATOM     31  C   UNL A   1      42.790  28.366  31.859  1.00  0.00     0.031 C 
ATOM     32  C   UNL A   1      42.707  29.044  26.200  1.00  0.00     0.029 A 
ATOM     33  C   UNL A   1      42.810  29.281  27.573  1.00  0.00     0.049 A 
ATOM     34  H   UNL A   1      41.283  30.205  28.695  1.00  0.00     0.167 HD
ATOM     35  C   UNL A   1      43.779  29.006  29.855  1.00  0.00     0.074 A 
ATOM     36  C   UNL A   1      42.596  29.030  30.716  1.00  0.00     0.031 C 
ATOM     37  C   UNL A   1      43.919  29.130  28.500  1.00  0.00     0.034 A 
BRANCH  24  38
ATOM     38  C   UNL A   1      38.413  29.122  28.338  1.00  0.00     0.023 A 
ATOM     39  C   UNL A   1      38.335  29.261  29.735  1.00  0.00     0.031 A 
ATOM     40  C   UNL A   1      37.524  29.928  27.594  1.00  0.00     0.131 A 
ATOM     41  C   UNL A   1      37.428  30.142  30.340  1.00  0.00     0.055 A 
ATOM     42  C   UNL A   1      36.664  30.857  28.195  1.00  0.00     0.041 A 
ATOM     43  F   UNL A   1      37.503  29.879  26.253  1.00  0.00    -0.206 F 
ATOM     44  C   UNL A   1      36.613  30.970  29.577  1.00  0.00     0.022 A 
BRANCH  41  45
ATOM     45  S   UNL A   1      37.311  30.233  32.150  1.00  0.00     0.124 S 
ATOM     46  O   UNL A   1      36.177  31.131  32.332  1.00  0.00    -0.237 OA
ATOM     47  O   UNL A   1      37.076  28.834  32.500  1.00  0.00    -0.237 OA
ATOM     48  O   UNL A   1      38.613  30.759  32.549  1.00  0.00    -0.744 OA
ENDBRANCH  41  45
ENDBRANCH  24  38
BRANCH  25  49
ATOM     49  C   UNL A   1      44.606  26.252  33.596  1.00  0.00     0.023 A 
ATOM     50  C   UNL A   1      43.465  26.289  34.422  1.00  0.00     0.031 A 
ATOM     51  C   UNL A   1      45.861  26.266  34.222  1.00  0.00     0.131 A 
ATOM     52  C   UNL A   1      43.598  26.414  35.810  1.00  0.00     0.055 A 
ATOM     53  C   UNL A   1      45.993  26.364  35.611  1.00  0.00     0.041 A 
ATOM     54  F   UNL A   1      46.985  26.257  33.489  1.00  0.00    -0.206 F 
ATOM     55  C   UNL A   1      44.858  26.459  36.412  1.00  0.00     0.022 A 
BRANCH  52  56
ATOM     56  S   UNL A   1      42.134  26.635  36.858  1.00  0.00     0.124 S 
ATOM     57  O   UNL A   1      41.173  25.721  36.245  1.00  0.00    -0.237 OA
ATOM     58  O   UNL A   1      42.642  26.231  38.164  1.00  0.00    -0.237 OA
ATOM     59  O   UNL A   1      41.821  28.054  36.712  1.00  0.00    -0.744 OA
ENDBRANCH  52  56
ENDBRANCH  25  49
BRANCH  37  60
ATOM     60  C   UNL A   1      45.275  28.856  27.871  1.00  0.00     0.023 A 
ATOM     61  C   UNL A   1      45.601  27.515  27.605  1.00  0.00     0.031 A 
ATOM     62  C   UNL A   1      46.310  29.805  27.746  1.00  0.00     0.131 A 
ATOM     63  C   UNL A   1      46.914  27.153  27.278  1.00  0.00     0.055 A 
ATOM     64  C   UNL A   1      47.604  29.448  27.351  1.00  0.00     0.041 A 
ATOM     65  F   UNL A   1      46.132  31.087  28.076  1.00  0.00    -0.206 F 
ATOM     66  C   UNL A   1      47.917  28.113  27.133  1.00  0.00     0.022 A 
BRANCH  63  67
ATOM     67  S   UNL A   1      47.386  25.406  27.197  1.00  0.00     0.124 S 
ATOM     68  O   UNL A   1      48.241  25.373  26.014  1.00  0.00    -0.237 OA
ATOM     69  O   UNL A   1      48.073  25.208  28.471  1.00  0.00    -0.237 OA
ATOM     70  O   UNL A   1      46.114  24.701  27.067  1.00  0.00    -0.744 OA
ENDBRANCH  63  67
ENDBRANCH  37  60
ENDBRANCH  11  12
ENDBRANCH   4   6
ENDBRANCH   1   2
BRANCH   1  71
ATOM     71  C   UNL A   1      37.702  20.629  24.795  1.00  0.00     0.042 C 
BRANCH  71  72
ATOM     72  C   UNL A   1      36.437  21.246  25.389  1.00  0.00     0.118 C 
BRANCH  72  73
ATOM     73  N   UNL A   1      35.303  20.328  25.473  1.00  0.00    -0.352 N 
ATOM     74  C   UNL A   1      33.956  20.601  25.482  1.00  0.00     0.252 C 
ATOM     75  H   UNL A   1      35.540  19.374  25.532  1.00  0.00     0.163 HD
ATOM     76  O   UNL A   1      33.120  19.710  25.523  1.00  0.00    -0.269 OA
BRANCH  74  77
ATOM     77  C   UNL A   1      33.524  21.995  25.395  1.00  0.00     0.058 A 
ATOM     78  C   UNL A   1      33.167  22.679  26.553  1.00  0.00     0.019 A 
ATOM     79  C   UNL A   1      33.397  22.623  24.169  1.00  0.00     0.127 A 
ATOM     80  C   UNL A   1      32.619  23.944  26.437  1.00  0.00     0.048 A 
ATOM     81  N   UNL A   1      32.865  23.867  24.032  1.00  0.00    -0.238 NA
ATOM     82  C   UNL A   1      32.516  24.518  25.171  1.00  0.00     0.138 A 
BRANCH  82  83
ATOM     83  N   UNL A   1      32.044  25.848  25.062  1.00  0.00    -0.283 N 
ATOM     84  C   UNL A   1      30.903  26.236  24.401  1.00  0.00     0.206 A 
ATOM     85  C   UNL A   1      32.646  27.003  25.540  1.00  0.00     0.074 A 
ATOM     86  N   UNL A   1      30.673  27.527  24.515  1.00  0.00    -0.236 NA
ATOM     87  C   UNL A   1      31.762  28.021  25.187  1.00  0.00     0.089 A 
ATOM     88  C   UNL A   1      33.882  27.273  26.155  1.00  0.00     0.029 A 
ATOM     89  C   UNL A   1      32.086  29.350  25.501  1.00  0.00     0.030 A 
ATOM     90  C   UNL A   1      34.190  28.600  26.452  1.00  0.00     0.002 A 
ATOM     91  C   UNL A   1      33.304  29.626  26.134  1.00  0.00     0.002 A 
ENDBRANCH  82  83
ENDBRANCH  74  77
ENDBRANCH  72  73
ENDBRANCH  71  72
ENDBRANCH   1  71
TORSDOF 14
ENDMDL
MODEL 3
REMARK VINA RESULT:     -12.6      4.918     10.700
REMARK SMILES O=C(NCCCNC(=O)c1ccc(-n2cnc3ccccc32)nc1)c1ccc(-c2c3nc(c(-c4cc(S(=O)(=O)[O-])ccc4F)c4ccc([nH]4)c(-c4cc(S(=O)(=O)[O-])ccc4F)c4nc(c(-c5cc(S(=O)(=O)[O-])ccc5F)c5ccc2[nH]5)C=C4)C=C3)cc1
REMARK SMILES IDX 4 1 3 2 1 3 2 4 25 6 26 7 87 8 27 9 86 10 28 11 29 12 30 13
REMARK SMILES IDX 80 14 31 15 85 16 79 17 81 18 32 19 84 20 78 21 77 22 33 24
REMARK SMILES IDX 65 25 45 26 64 27 46 28 49 29 63 30 82 31 47 32 48 33 62 35
REMARK SMILES IDX 83 36 50 37 34 38 35 39 43 40 36 41 42 42 44 43 41 44 37 45
REMARK SMILES IDX 38 46 39 47 40 48 66 49 67 50 75 51 68 52 74 53 76 54 73 55
REMARK SMILES IDX 69 56 70 57 71 58 72 59 51 60 52 61 60 62 53 63 59 64 61 65
REMARK SMILES IDX 58 66 54 67 55 68 56 69 57 70 5 71 6 72 7 73 8 74 9 76 10 77
REMARK SMILES IDX 11 78 24 79 12 80 23 81 13 82 14 83 15 84 22 85 16 86 17 87
REMARK SMILES IDX 21 88 18 89 20 90 19 91
REMARK H PARENT 3 5 81 23 49 34 7 75
REMARK Flexibility Score: inf
ROOT
ATOM      1  C   UNL A   1      43.488  22.046  26.449  1.00  0.00     0.118 C 
ENDROOT
BRANCH   1   2
ATOM      2  N   UNL A   1      42.122  21.567  26.732  1.00  0.00    -0.352 N 
ATOM      3  O   UNL A   1      40.099  21.713  27.779  1.00  0.00    -0.269 OA
ATOM      4  C   UNL A   1      41.076  22.270  27.336  1.00  0.00     0.251 C 
ATOM      5  H   UNL A   1      41.922  20.641  26.464  1.00  0.00     0.163 HD
BRANCH   4   6
ATOM      6  C   UNL A   1      41.216  23.740  27.379  1.00  0.00     0.039 A 
ATOM      7  C   UNL A   1      40.371  24.613  26.691  1.00  0.00     0.014 A 
ATOM      8  C   UNL A   1      42.104  24.204  28.329  1.00  0.00     0.014 A 
ATOM      9  C   UNL A   1      40.356  25.955  27.077  1.00  0.00     0.010 A 
ATOM     10  C   UNL A   1      41.833  25.410  28.903  1.00  0.00     0.010 A 
ATOM     11  C   UNL A   1      41.068  26.343  28.224  1.00  0.00    -0.014 A 
BRANCH  11  12
ATOM     12  C   UNL A   1      41.016  27.692  28.785  1.00  0.00     0.031 A 
ATOM     13  C   UNL A   1      41.948  28.684  28.186  1.00  0.00     0.074 A 
ATOM     14  C   UNL A   1      40.060  28.081  29.662  1.00  0.00     0.049 A 
ATOM     15  N   UNL A   1      43.018  29.170  28.723  1.00  0.00    -0.248 NA
ATOM     16  C   UNL A   1      41.760  29.073  26.782  1.00  0.00     0.031 C 
ATOM     17  C   UNL A   1      38.875  27.346  30.140  1.00  0.00     0.029 A 
ATOM     18  N   UNL A   1      39.888  29.297  30.242  1.00  0.00    -0.354 N 
ATOM     19  C   UNL A   1      43.523  30.097  27.814  1.00  0.00     0.074 A 
ATOM     20  C   UNL A   1      42.828  29.848  26.575  1.00  0.00     0.031 C 
ATOM     21  C   UNL A   1      37.989  28.203  30.688  1.00  0.00     0.029 A 
ATOM     22  C   UNL A   1      38.643  29.484  30.826  1.00  0.00     0.049 A 
ATOM     23  H   UNL A   1      40.588  29.988  30.247  1.00  0.00     0.167 HD
ATOM     24  C   UNL A   1      44.316  31.133  28.221  1.00  0.00     0.034 A 
ATOM     25  C   UNL A   1      38.168  30.609  31.408  1.00  0.00     0.034 A 
ATOM     26  C   UNL A   1      44.729  30.953  29.591  1.00  0.00     0.049 A 
ATOM     27  C   UNL A   1      39.332  31.457  31.749  1.00  0.00     0.074 A 
ATOM     28  C   UNL A   1      45.476  30.008  30.262  1.00  0.00     0.029 A 
ATOM     29  N   UNL A   1      44.013  31.625  30.555  1.00  0.00    -0.354 N 
ATOM     30  N   UNL A   1      40.207  31.149  32.668  1.00  0.00    -0.248 NA
ATOM     31  C   UNL A   1      39.786  32.406  30.746  1.00  0.00     0.031 C 
ATOM     32  C   UNL A   1      44.820  29.844  31.516  1.00  0.00     0.029 A 
ATOM     33  C   UNL A   1      43.757  30.749  31.580  1.00  0.00     0.049 A 
ATOM     34  H   UNL A   1      43.734  32.569  30.518  1.00  0.00     0.167 HD
ATOM     35  C   UNL A   1      41.430  31.478  32.103  1.00  0.00     0.074 A 
ATOM     36  C   UNL A   1      41.101  32.352  30.976  1.00  0.00     0.031 C 
ATOM     37  C   UNL A   1      42.567  30.784  32.413  1.00  0.00     0.034 A 
BRANCH  24  38
ATOM     38  C   UNL A   1      44.442  32.463  27.514  1.00  0.00     0.023 A 
ATOM     39  C   UNL A   1      43.677  33.592  27.855  1.00  0.00     0.031 A 
ATOM     40  C   UNL A   1      45.500  32.694  26.608  1.00  0.00     0.131 A 
ATOM     41  C   UNL A   1      43.951  34.859  27.323  1.00  0.00     0.055 A 
ATOM     42  C   UNL A   1      45.817  33.972  26.128  1.00  0.00     0.041 A 
ATOM     43  F   UNL A   1      46.297  31.692  26.205  1.00  0.00    -0.206 F 
ATOM     44  C   UNL A   1      45.042  35.066  26.487  1.00  0.00     0.022 A 
BRANCH  41  45
ATOM     45  S   UNL A   1      42.890  36.273  27.735  1.00  0.00     0.124 S 
ATOM     46  O   UNL A   1      42.817  36.974  26.459  1.00  0.00    -0.237 OA
ATOM     47  O   UNL A   1      41.663  35.605  28.164  1.00  0.00    -0.237 OA
ATOM     48  O   UNL A   1      43.626  36.953  28.797  1.00  0.00    -0.744 OA
ENDBRANCH  41  45
ENDBRANCH  24  38
BRANCH  25  49
ATOM     49  C   UNL A   1      36.798  31.146  31.265  1.00  0.00     0.023 A 
ATOM     50  C   UNL A   1      36.267  31.368  29.980  1.00  0.00     0.031 A 
ATOM     51  C   UNL A   1      36.136  31.734  32.353  1.00  0.00     0.131 A 
ATOM     52  C   UNL A   1      35.163  32.211  29.805  1.00  0.00     0.055 A 
ATOM     53  C   UNL A   1      35.017  32.556  32.179  1.00  0.00     0.041 A 
ATOM     54  F   UNL A   1      36.608  31.580  33.600  1.00  0.00    -0.206 F 
ATOM     55  C   UNL A   1      34.537  32.814  30.898  1.00  0.00     0.022 A 
BRANCH  52  56
ATOM     56  S   UNL A   1      34.585  32.636  28.139  1.00  0.00     0.124 S 
ATOM     57  O   UNL A   1      33.484  33.555  28.418  1.00  0.00    -0.237 OA
ATOM     58  O   UNL A   1      35.778  33.241  27.558  1.00  0.00    -0.237 OA
ATOM     59  O   UNL A   1      34.190  31.348  27.576  1.00  0.00    -0.744 OA
ENDBRANCH  52  56
ENDBRANCH  25  49
BRANCH  37  60
ATOM     60  C   UNL A   1      42.534  29.791  33.562  1.00  0.00     0.023 A 
ATOM     61  C   UNL A   1      43.042  30.222  34.800  1.00  0.00     0.031 A 
ATOM     62  C   UNL A   1      42.247  28.417  33.430  1.00  0.00     0.131 A 
ATOM     63  C   UNL A   1      43.293  29.302  35.826  1.00  0.00     0.055 A 
ATOM     64  C   UNL A   1      42.433  27.512  34.482  1.00  0.00     0.041 A 
ATOM     65  F   UNL A   1      41.859  27.888  32.266  1.00  0.00    -0.206 F 
ATOM     66  C   UNL A   1      42.976  27.950  35.682  1.00  0.00     0.022 A 
BRANCH  63  67
ATOM     67  S   UNL A   1      44.190  29.816  37.314  1.00  0.00     0.124 S 
ATOM     68  O   UNL A   1      43.229  30.704  37.961  1.00  0.00    -0.237 OA
ATOM     69  O   UNL A   1      44.421  28.543  37.994  1.00  0.00    -0.237 OA
ATOM     70  O   UNL A   1      45.391  30.465  36.797  1.00  0.00    -0.744 OA
ENDBRANCH  63  67
ENDBRANCH  37  60
ENDBRANCH  11  12
ENDBRANCH   4   6
ENDBRANCH   1   2
BRANCH   1  71
ATOM     71  C   UNL A   1      43.679  22.545  25.030  1.00  0.00     0.042 C 
BRANCH  71  72
ATOM     72  C   UNL A   1      43.542  24.063  24.935  1.00  0.00     0.118 C 
BRANCH  72  73
ATOM     73  N   UNL A   1      44.730  24.743  24.423  1.00  0.00    -0.352 N 
ATOM     74  C   UNL A   1      45.730  25.391  25.109  1.00  0.00     0.252 C 
ATOM     75  H   UNL A   1      44.829  24.735  23.444  1.00  0.00     0.163 HD
ATOM     76  O   UNL A   1      46.688  25.886  24.533  1.00  0.00    -0.269 OA
BRANCH  74  77
ATOM     77  C   UNL A   1      45.657  25.444  26.568  1.00  0.00     0.058 A 
ATOM     78  C   UNL A   1      45.071  26.542  27.190  1.00  0.00     0.019 A 
ATOM     79  C   UNL A   1      46.225  24.448  27.344  1.00  0.00     0.127 A 
ATOM     80  C   UNL A   1      45.145  26.647  28.567  1.00  0.00     0.048 A 
ATOM     81  N   UNL A   1      46.305  24.528  28.699  1.00  0.00    -0.238 NA
ATOM     82  C   UNL A   1      45.735  25.610  29.288  1.00  0.00     0.138 A 
BRANCH  82  83
ATOM     83  N   UNL A   1      45.725  25.672  30.703  1.00  0.00    -0.283 N 
ATOM     84  C   UNL A   1      46.474  26.534  31.467  1.00  0.00     0.206 A 
ATOM     85  C   UNL A   1      45.016  24.864  31.581  1.00  0.00     0.074 A 
ATOM     86  N   UNL A   1      46.218  26.414  32.753  1.00  0.00    -0.236 NA
ATOM     87  C   UNL A   1      45.344  25.361  32.842  1.00  0.00     0.089 A 
ATOM     88  C   UNL A   1      44.209  23.724  31.419  1.00  0.00     0.029 A 
ATOM     89  C   UNL A   1      44.811  24.742  33.983  1.00  0.00     0.030 A 
ATOM     90  C   UNL A   1      43.695  23.117  32.565  1.00  0.00     0.002 A 
ATOM     91  C   UNL A   1      43.987  23.619  33.830  1.00  0.00     0.002 A 
ENDBRANCH  82  83
ENDBRANCH  74  77
ENDBRANCH  72  73
ENDBRANCH  71  72
ENDBRANCH   1  71
TORSDOF 14
ENDMDL
