MODEL 1
REMARK VINA RESULT:     -10.0      0.000      0.000
REMARK SMILES CCc1ccc(S(=O)(=O)CC(=O)NCCCNC(=O)c2ccc(-c3c4nc(c(-c5cc(S(=O)(=O)[O-])ccc5F)c5ccc([nH]5)c(-c5cc(S(=O)(=O)[O-])ccc5F)c5nc(c(-c6cc(S(=O)(=O)[O-])ccc6F)c6ccc3[nH]6)C=C5)C=C4)cc2)cc1
REMARK SMILES IDX 15 1 14 2 13 3 11 4 12 5 10 7 7 8 8 9 9 10 6 11 3 12 4 13
REMARK SMILES IDX 84 14 5 15 83 16 2 17 1 18 16 19 17 20 18 21 19 23 20 24
REMARK SMILES IDX 21 25 82 26 22 27 81 28 23 29 24 30 25 31 75 32 26 33 80 34
REMARK SMILES IDX 74 35 76 36 27 37 79 38 73 39 72 40 28 42 60 43 40 44 59 45
REMARK SMILES IDX 41 46 44 47 58 48 77 49 42 50 43 51 57 53 78 54 45 55 29 56
REMARK SMILES IDX 30 57 38 58 31 59 37 60 39 61 36 62 32 63 33 64 34 65 35 66
REMARK SMILES IDX 61 67 62 68 70 69 63 70 69 71 71 72 68 73 64 74 65 75 66 76
REMARK SMILES IDX 67 77 46 78 47 79 55 80 48 81 54 82 56 83 53 84 49 85 50 86
REMARK SMILES IDX 51 87 52 88
REMARK H PARENT 13 6 17 22 76 41 44 52
REMARK Flexibility Score: inf
ROOT
ATOM      1  C   UNL A   1      33.743  34.005  28.909  1.00  0.00     0.042 C 
ENDROOT
BRANCH   1   2
ATOM      2  C   UNL A   1      34.344  34.634  30.163  1.00  0.00     0.117 C 
BRANCH   2   3
ATOM      3  N   UNL A   1      33.654  34.194  31.365  1.00  0.00    -0.355 N 
ATOM      4  C   UNL A   1      34.077  33.395  32.377  1.00  0.00     0.235 C 
ATOM      5  O   UNL A   1      33.263  33.124  33.264  1.00  0.00    -0.274 OA
ATOM      6  H   UNL A   1      32.732  34.529  31.459  1.00  0.00     0.163 HD
BRANCH   4   7
ATOM      7  C   UNL A   1      35.499  32.960  32.498  1.00  0.00     0.241 C 
BRANCH   7   8
ATOM      8  S   UNL A   1      36.556  34.090  33.321  1.00  0.00     0.187 S 
ATOM      9  O   UNL A   1      36.778  33.557  34.654  1.00  0.00    -0.223 OA
ATOM     10  O   UNL A   1      35.968  35.412  33.174  1.00  0.00    -0.223 OA
BRANCH   8  11
ATOM     11  C   UNL A   1      38.155  34.148  32.560  1.00  0.00     0.067 A 
ATOM     12  C   UNL A   1      40.635  34.356  31.248  1.00  0.00    -0.048 A 
ATOM     13  C   UNL A   1      39.453  34.157  30.519  1.00  0.00     0.005 A 
ATOM     14  C   UNL A   1      40.550  34.451  32.644  1.00  0.00     0.005 A 
ATOM     15  C   UNL A   1      38.222  34.042  31.168  1.00  0.00     0.020 A 
ATOM     16  C   UNL A   1      39.315  34.362  33.300  1.00  0.00     0.020 A 
BRANCH  12  17
ATOM     17  C   UNL A   1      41.927  34.545  30.482  1.00  0.00     0.032 C 
ATOM     18  C   UNL A   1      42.721  33.284  30.167  1.00  0.00     0.009 C 
ENDBRANCH  12  17
ENDBRANCH   8  11
ENDBRANCH   7   8
ENDBRANCH   4   7
ENDBRANCH   2   3
ENDBRANCH   1   2
BRANCH   1  19
ATOM     19  C   UNL A   1      34.675  33.039  28.183  1.00  0.00     0.118 C 
BRANCH  19  20
ATOM     20  N   UNL A   1      33.981  31.875  27.656  1.00  0.00    -0.352 N 
ATOM     21  C   UNL A   1      34.425  30.586  27.478  1.00  0.00     0.251 C 
ATOM     22  H   UNL A   1      33.048  32.035  27.383  1.00  0.00     0.163 HD
ATOM     23  O   UNL A   1      33.734  29.803  26.830  1.00  0.00    -0.269 OA
BRANCH  21  24
ATOM     24  C   UNL A   1      35.725  30.147  28.034  1.00  0.00     0.039 A 
ATOM     25  C   UNL A   1      35.773  29.696  29.357  1.00  0.00     0.014 A 
ATOM     26  C   UNL A   1      36.898  30.204  27.277  1.00  0.00     0.014 A 
ATOM     27  C   UNL A   1      36.980  29.241  29.895  1.00  0.00     0.010 A 
ATOM     28  C   UNL A   1      38.084  29.682  27.790  1.00  0.00     0.010 A 
ATOM     29  C   UNL A   1      38.139  29.195  29.105  1.00  0.00    -0.014 A 
BRANCH  29  30
ATOM     30  C   UNL A   1      39.417  28.647  29.636  1.00  0.00     0.031 A 
ATOM     31  C   UNL A   1      40.119  29.333  30.778  1.00  0.00     0.074 A 
ATOM     32  C   UNL A   1      39.979  27.573  29.048  1.00  0.00     0.049 A 
ATOM     33  N   UNL A   1      41.280  29.069  31.317  1.00  0.00    -0.248 NA
ATOM     34  C   UNL A   1      39.430  30.488  31.373  1.00  0.00     0.031 C 
ATOM     35  C   UNL A   1      39.416  26.840  27.911  1.00  0.00     0.029 A 
ATOM     36  N   UNL A   1      41.154  26.915  29.314  1.00  0.00    -0.354 N 
ATOM     37  C   UNL A   1      41.471  30.032  32.303  1.00  0.00     0.074 A 
ATOM     38  C   UNL A   1      40.328  30.919  32.243  1.00  0.00     0.031 C 
ATOM     39  C   UNL A   1      40.234  25.825  27.592  1.00  0.00     0.029 A 
ATOM     40  C   UNL A   1      41.403  25.860  28.465  1.00  0.00     0.049 A 
ATOM     41  H   UNL A   1      41.763  27.174  30.043  1.00  0.00     0.167 HD
ATOM     42  C   UNL A   1      42.493  30.153  33.187  1.00  0.00     0.034 A 
ATOM     43  C   UNL A   1      42.459  25.026  28.387  1.00  0.00     0.034 A 
ATOM     44  C   UNL A   1      43.620  29.251  33.242  1.00  0.00     0.049 A 
ATOM     45  C   UNL A   1      43.596  25.194  29.363  1.00  0.00     0.074 A 
ATOM     46  C   UNL A   1      44.680  29.249  34.130  1.00  0.00     0.029 A 
ATOM     47  N   UNL A   1      43.835  28.193  32.367  1.00  0.00    -0.354 N 
ATOM     48  N   UNL A   1      43.741  26.086  30.317  1.00  0.00    -0.248 NA
ATOM     49  C   UNL A   1      44.707  24.240  29.258  1.00  0.00     0.031 C 
ATOM     50  C   UNL A   1      45.568  28.234  33.754  1.00  0.00     0.029 A 
ATOM     51  C   UNL A   1      45.027  27.553  32.676  1.00  0.00     0.049 A 
ATOM     52  H   UNL A   1      43.231  27.936  31.634  1.00  0.00     0.167 HD
ATOM     53  C   UNL A   1      44.946  25.778  30.944  1.00  0.00     0.074 A 
ATOM     54  C   UNL A   1      45.479  24.613  30.268  1.00  0.00     0.031 C 
ATOM     55  C   UNL A   1      45.554  26.399  31.986  1.00  0.00     0.034 A 
BRANCH  42  56
ATOM     56  C   UNL A   1      42.447  31.318  34.148  1.00  0.00     0.023 A 
ATOM     57  C   UNL A   1      41.534  31.357  35.217  1.00  0.00     0.031 A 
ATOM     58  C   UNL A   1      43.305  32.419  33.976  1.00  0.00     0.131 A 
ATOM     59  C   UNL A   1      41.447  32.503  36.022  1.00  0.00     0.055 A 
ATOM     60  C   UNL A   1      43.271  33.520  34.834  1.00  0.00     0.041 A 
ATOM     61  F   UNL A   1      44.184  32.448  32.962  1.00  0.00    -0.206 F 
ATOM     62  C   UNL A   1      42.326  33.575  35.854  1.00  0.00     0.022 A 
BRANCH  59  63
ATOM     63  S   UNL A   1      40.069  32.634  37.196  1.00  0.00     0.124 S 
ATOM     64  O   UNL A   1      39.484  33.919  36.820  1.00  0.00    -0.237 OA
ATOM     65  O   UNL A   1      39.274  31.453  36.881  1.00  0.00    -0.237 OA
ATOM     66  O   UNL A   1      40.727  32.615  38.500  1.00  0.00    -0.744 OA
ENDBRANCH  59  63
ENDBRANCH  42  56
BRANCH  43  67
ATOM     67  C   UNL A   1      42.506  23.962  27.344  1.00  0.00     0.023 A 
ATOM     68  C   UNL A   1      41.931  22.701  27.571  1.00  0.00     0.031 A 
ATOM     69  C   UNL A   1      43.163  24.177  26.119  1.00  0.00     0.131 A 
ATOM     70  C   UNL A   1      42.063  21.689  26.607  1.00  0.00     0.055 A 
ATOM     71  C   UNL A   1      43.247  23.183  25.143  1.00  0.00     0.041 A 
ATOM     72  F   UNL A   1      43.727  25.366  25.850  1.00  0.00    -0.206 F 
ATOM     73  C   UNL A   1      42.705  21.925  25.390  1.00  0.00     0.022 A 
BRANCH  70  74
ATOM     74  S   UNL A   1      41.453  20.027  27.006  1.00  0.00     0.124 S 
ATOM     75  O   UNL A   1      40.554  19.765  25.887  1.00  0.00    -0.237 OA
ATOM     76  O   UNL A   1      42.689  19.251  27.031  1.00  0.00    -0.237 OA
ATOM     77  O   UNL A   1      40.804  20.206  28.301  1.00  0.00    -0.744 OA
ENDBRANCH  70  74
ENDBRANCH  43  67
BRANCH  55  78
ATOM     78  C   UNL A   1      46.843  25.794  32.486  1.00  0.00     0.023 A 
ATOM     79  C   UNL A   1      48.073  26.048  31.854  1.00  0.00     0.031 A 
ATOM     80  C   UNL A   1      46.836  24.943  33.604  1.00  0.00     0.131 A 
ATOM     81  C   UNL A   1      49.238  25.414  32.314  1.00  0.00     0.055 A 
ATOM     82  C   UNL A   1      48.007  24.362  34.093  1.00  0.00     0.041 A 
ATOM     83  F   UNL A   1      45.688  24.665  34.245  1.00  0.00    -0.206 F 
ATOM     84  C   UNL A   1      49.214  24.586  33.439  1.00  0.00     0.022 A 
BRANCH  81  85
ATOM     85  S   UNL A   1      50.773  25.619  31.371  1.00  0.00     0.124 S 
ATOM     86  O   UNL A   1      50.402  25.080  30.065  1.00  0.00    -0.237 OA
ATOM     87  O   UNL A   1      50.985  27.062  31.426  1.00  0.00    -0.237 OA
ATOM     88  O   UNL A   1      51.745  24.823  32.117  1.00  0.00    -0.744 OA
ENDBRANCH  81  85
ENDBRANCH  55  78
ENDBRANCH  29  30
ENDBRANCH  21  24
ENDBRANCH  19  20
ENDBRANCH   1  19
TORSDOF 16
ENDMDL
MODEL 2
REMARK VINA RESULT:      -9.9      4.159     11.640
REMARK SMILES CCc1ccc(S(=O)(=O)CC(=O)NCCCNC(=O)c2ccc(-c3c4nc(c(-c5cc(S(=O)(=O)[O-])ccc5F)c5ccc([nH]5)c(-c5cc(S(=O)(=O)[O-])ccc5F)c5nc(c(-c6cc(S(=O)(=O)[O-])ccc6F)c6ccc3[nH]6)C=C5)C=C4)cc2)cc1
REMARK SMILES IDX 15 1 14 2 13 3 11 4 12 5 10 7 7 8 8 9 9 10 6 11 3 12 4 13
REMARK SMILES IDX 84 14 5 15 83 16 2 17 1 18 16 19 17 20 18 21 19 23 20 24
REMARK SMILES IDX 21 25 82 26 22 27 81 28 23 29 24 30 25 31 75 32 26 33 80 34
REMARK SMILES IDX 74 35 76 36 27 37 79 38 73 39 72 40 28 42 60 43 40 44 59 45
REMARK SMILES IDX 41 46 44 47 58 48 77 49 42 50 43 51 57 53 78 54 45 55 29 56
REMARK SMILES IDX 30 57 38 58 31 59 37 60 39 61 36 62 32 63 33 64 34 65 35 66
REMARK SMILES IDX 61 67 62 68 70 69 63 70 69 71 71 72 68 73 64 74 65 75 66 76
REMARK SMILES IDX 67 77 46 78 47 79 55 80 48 81 54 82 56 83 53 84 49 85 50 86
REMARK SMILES IDX 51 87 52 88
REMARK H PARENT 13 6 17 22 76 41 44 52
REMARK Flexibility Score: inf
ROOT
ATOM      1  C   UNL A   1      41.323  19.905  26.359  1.00  0.00     0.042 C 
ENDROOT
BRANCH   1   2
ATOM      2  C   UNL A   1      42.826  19.635  26.347  1.00  0.00     0.117 C 
BRANCH   2   3
ATOM      3  N   UNL A   1      43.306  19.345  25.006  1.00  0.00    -0.355 N 
ATOM      4  C   UNL A   1      44.372  19.843  24.328  1.00  0.00     0.235 C 
ATOM      5  O   UNL A   1      44.527  19.470  23.162  1.00  0.00    -0.274 OA
ATOM      6  H   UNL A   1      42.772  18.682  24.509  1.00  0.00     0.163 HD
BRANCH   4   7
ATOM      7  C   UNL A   1      45.396  20.703  24.990  1.00  0.00     0.241 C 
BRANCH   7   8
ATOM      8  S   UNL A   1      45.095  22.427  24.894  1.00  0.00     0.187 S 
ATOM      9  O   UNL A   1      43.671  22.588  24.655  1.00  0.00    -0.223 OA
ATOM     10  O   UNL A   1      46.043  22.975  23.937  1.00  0.00    -0.223 OA
BRANCH   8  11
ATOM     11  C   UNL A   1      45.409  23.223  26.446  1.00  0.00     0.067 A 
ATOM     12  C   UNL A   1      45.914  24.632  28.828  1.00  0.00    -0.048 A 
ATOM     13  C   UNL A   1      46.738  24.803  27.705  1.00  0.00     0.005 A 
ATOM     14  C   UNL A   1      44.833  23.745  28.733  1.00  0.00     0.005 A 
ATOM     15  C   UNL A   1      46.497  24.097  26.525  1.00  0.00     0.020 A 
ATOM     16  C   UNL A   1      44.570  23.052  27.544  1.00  0.00     0.020 A 
BRANCH  12  17
ATOM     17  C   UNL A   1      46.185  25.480  30.052  1.00  0.00     0.032 C 
ATOM     18  C   UNL A   1      45.007  25.716  30.989  1.00  0.00     0.009 C 
ENDBRANCH  12  17
ENDBRANCH   8  11
ENDBRANCH   7   8
ENDBRANCH   4   7
ENDBRANCH   2   3
ENDBRANCH   1   2
BRANCH   1  19
ATOM     19  C   UNL A   1      40.950  21.380  26.254  1.00  0.00     0.118 C 
BRANCH  19  20
ATOM     20  N   UNL A   1      39.554  21.584  25.900  1.00  0.00    -0.352 N 
ATOM     21  C   UNL A   1      38.732  22.662  26.131  1.00  0.00     0.251 C 
ATOM     22  H   UNL A   1      39.131  20.835  25.423  1.00  0.00     0.163 HD
ATOM     23  O   UNL A   1      37.527  22.547  25.921  1.00  0.00    -0.269 OA
BRANCH  21  24
ATOM     24  C   UNL A   1      39.279  23.938  26.645  1.00  0.00     0.039 A 
ATOM     25  C   UNL A   1      39.908  24.810  25.751  1.00  0.00     0.014 A 
ATOM     26  C   UNL A   1      39.206  24.269  28.001  1.00  0.00     0.014 A 
ATOM     27  C   UNL A   1      40.400  26.038  26.204  1.00  0.00     0.010 A 
ATOM     28  C   UNL A   1      39.630  25.523  28.436  1.00  0.00     0.010 A 
ATOM     29  C   UNL A   1      40.233  26.422  27.543  1.00  0.00    -0.014 A 
BRANCH  29  30
ATOM     30  C   UNL A   1      40.684  27.754  28.029  1.00  0.00     0.031 A 
ATOM     31  C   UNL A   1      42.154  28.067  28.121  1.00  0.00     0.074 A 
ATOM     32  C   UNL A   1      39.776  28.655  28.450  1.00  0.00     0.049 A 
ATOM     33  N   UNL A   1      42.748  29.128  28.605  1.00  0.00    -0.248 NA
ATOM     34  C   UNL A   1      43.078  27.036  27.626  1.00  0.00     0.031 C 
ATOM     35  C   UNL A   1      38.324  28.457  28.444  1.00  0.00     0.029 A 
ATOM     36  N   UNL A   1      39.934  29.913  28.976  1.00  0.00    -0.354 N 
ATOM     37  C   UNL A   1      44.113  28.887  28.490  1.00  0.00     0.074 A 
ATOM     38  C   UNL A   1      44.254  27.553  27.942  1.00  0.00     0.031 C 
ATOM     39  C   UNL A   1      37.727  29.561  28.922  1.00  0.00     0.029 A 
ATOM     40  C   UNL A   1      38.749  30.526  29.316  1.00  0.00     0.049 A 
ATOM     41  H   UNL A   1      40.814  30.338  29.099  1.00  0.00     0.167 HD
ATOM     42  C   UNL A   1      45.150  29.708  28.792  1.00  0.00     0.034 A 
ATOM     43  C   UNL A   1      38.512  31.720  29.893  1.00  0.00     0.034 A 
ATOM     44  C   UNL A   1      44.991  31.040  29.325  1.00  0.00     0.049 A 
ATOM     45  C   UNL A   1      39.681  32.606  30.245  1.00  0.00     0.074 A 
ATOM     46  C   UNL A   1      45.970  31.975  29.615  1.00  0.00     0.029 A 
ATOM     47  N   UNL A   1      43.775  31.626  29.653  1.00  0.00    -0.354 N 
ATOM     48  N   UNL A   1      40.965  32.379  30.090  1.00  0.00    -0.248 NA
ATOM     49  C   UNL A   1      39.368  33.910  30.841  1.00  0.00     0.031 C 
ATOM     50  C   UNL A   1      45.353  33.098  30.179  1.00  0.00     0.029 A 
ATOM     51  C   UNL A   1      43.982  32.896  30.173  1.00  0.00     0.049 A 
ATOM     52  H   UNL A   1      42.895  31.201  29.536  1.00  0.00     0.167 HD
ATOM     53  C   UNL A   1      41.610  33.527  30.542  1.00  0.00     0.074 A 
ATOM     54  C   UNL A   1      40.573  34.447  30.963  1.00  0.00     0.031 C 
ATOM     55  C   UNL A   1      42.939  33.799  30.600  1.00  0.00     0.034 A 
BRANCH  42  56
ATOM     56  C   UNL A   1      46.546  29.172  28.575  1.00  0.00     0.023 A 
ATOM     57  C   UNL A   1      47.064  28.959  27.285  1.00  0.00     0.031 A 
ATOM     58  C   UNL A   1      47.361  28.841  29.673  1.00  0.00     0.131 A 
ATOM     59  C   UNL A   1      48.322  28.360  27.124  1.00  0.00     0.055 A 
ATOM     60  C   UNL A   1      48.647  28.323  29.505  1.00  0.00     0.041 A 
ATOM     61  F   UNL A   1      46.916  29.003  30.929  1.00  0.00    -0.206 F 
ATOM     62  C   UNL A   1      49.129  28.063  28.225  1.00  0.00     0.022 A 
BRANCH  59  63
ATOM     63  S   UNL A   1      48.826  27.836  25.462  1.00  0.00     0.124 S 
ATOM     64  O   UNL A   1      50.027  28.641  25.251  1.00  0.00    -0.237 OA
ATOM     65  O   UNL A   1      49.038  26.403  25.634  1.00  0.00    -0.237 OA
ATOM     66  O   UNL A   1      47.684  28.202  24.627  1.00  0.00    -0.744 OA
ENDBRANCH  59  63
ENDBRANCH  42  56
BRANCH  43  67
ATOM     67  C   UNL A   1      37.116  32.152  30.189  1.00  0.00     0.023 A 
ATOM     68  C   UNL A   1      36.339  32.802  29.217  1.00  0.00     0.031 A 
ATOM     69  C   UNL A   1      36.554  31.959  31.464  1.00  0.00     0.131 A 
ATOM     70  C   UNL A   1      35.059  33.275  29.547  1.00  0.00     0.055 A 
ATOM     71  C   UNL A   1      35.260  32.385  31.771  1.00  0.00     0.041 A 
ATOM     72  F   UNL A   1      37.253  31.340  32.429  1.00  0.00    -0.206 F 
ATOM     73  C   UNL A   1      34.510  33.060  30.812  1.00  0.00     0.022 A 
BRANCH  70  74
ATOM     74  S   UNL A   1      34.153  34.254  28.317  1.00  0.00     0.124 S 
ATOM     75  O   UNL A   1      35.154  34.412  27.268  1.00  0.00    -0.237 OA
ATOM     76  O   UNL A   1      33.028  33.379  28.005  1.00  0.00    -0.237 OA
ATOM     77  O   UNL A   1      33.808  35.474  29.042  1.00  0.00    -0.744 OA
ENDBRANCH  70  74
ENDBRANCH  43  67
BRANCH  55  78
ATOM     78  C   UNL A   1      43.337  35.168  31.095  1.00  0.00     0.023 A 
ATOM     79  C   UNL A   1      43.448  36.266  30.223  1.00  0.00     0.031 A 
ATOM     80  C   UNL A   1      43.619  35.371  32.457  1.00  0.00     0.131 A 
ATOM     81  C   UNL A   1      43.883  37.506  30.716  1.00  0.00     0.055 A 
ATOM     82  C   UNL A   1      43.995  36.622  32.950  1.00  0.00     0.041 A 
ATOM     83  F   UNL A   1      43.530  34.357  33.332  1.00  0.00    -0.206 F 
ATOM     84  C   UNL A   1      44.141  37.694  32.076  1.00  0.00     0.022 A 
BRANCH  81  85
ATOM     85  S   UNL A   1      44.189  38.852  29.540  1.00  0.00     0.124 S 
ATOM     86  O   UNL A   1      43.002  38.791  28.692  1.00  0.00    -0.237 OA
ATOM     87  O   UNL A   1      44.288  40.017  30.414  1.00  0.00    -0.237 OA
ATOM     88  O   UNL A   1      45.438  38.462  28.888  1.00  0.00    -0.744 OA
ENDBRANCH  81  85
ENDBRANCH  55  78
ENDBRANCH  29  30
ENDBRANCH  21  24
ENDBRANCH  19  20
ENDBRANCH   1  19
TORSDOF 16
ENDMDL
MODEL 3
REMARK VINA RESULT:      -9.9      1.975      2.370
REMARK SMILES CCc1ccc(S(=O)(=O)CC(=O)NCCCNC(=O)c2ccc(-c3c4nc(c(-c5cc(S(=O)(=O)[O-])ccc5F)c5ccc([nH]5)c(-c5cc(S(=O)(=O)[O-])ccc5F)c5nc(c(-c6cc(S(=O)(=O)[O-])ccc6F)c6ccc3[nH]6)C=C5)C=C4)cc2)cc1
REMARK SMILES IDX 15 1 14 2 13 3 11 4 12 5 10 7 7 8 8 9 9 10 6 11 3 12 4 13
REMARK SMILES IDX 84 14 5 15 83 16 2 17 1 18 16 19 17 20 18 21 19 23 20 24
REMARK SMILES IDX 21 25 82 26 22 27 81 28 23 29 24 30 25 31 75 32 26 33 80 34
REMARK SMILES IDX 74 35 76 36 27 37 79 38 73 39 72 40 28 42 60 43 40 44 59 45
REMARK SMILES IDX 41 46 44 47 58 48 77 49 42 50 43 51 57 53 78 54 45 55 29 56
REMARK SMILES IDX 30 57 38 58 31 59 37 60 39 61 36 62 32 63 33 64 34 65 35 66
REMARK SMILES IDX 61 67 62 68 70 69 63 70 69 71 71 72 68 73 64 74 65 75 66 76
REMARK SMILES IDX 67 77 46 78 47 79 55 80 48 81 54 82 56 83 53 84 49 85 50 86
REMARK SMILES IDX 51 87 52 88
REMARK H PARENT 13 6 17 22 76 41 44 52
REMARK Flexibility Score: inf
ROOT
ATOM      1  C   UNL A   1      33.638  34.590  28.517  1.00  0.00     0.042 C 
ENDROOT
BRANCH   1   2
ATOM      2  C   UNL A   1      33.807  35.535  29.703  1.00  0.00     0.117 C 
BRANCH   2   3
ATOM      3  N   UNL A   1      32.716  35.400  30.655  1.00  0.00    -0.355 N 
ATOM      4  C   UNL A   1      32.741  35.164  31.991  1.00  0.00     0.235 C 
ATOM      5  O   UNL A   1      31.656  35.033  32.564  1.00  0.00    -0.274 OA
ATOM      6  H   UNL A   1      31.815  35.495  30.267  1.00  0.00     0.163 HD
BRANCH   4   7
ATOM      7  C   UNL A   1      34.011  35.188  32.773  1.00  0.00     0.241 C 
BRANCH   7   8
ATOM      8  S   UNL A   1      34.877  33.666  32.838  1.00  0.00     0.187 S 
ATOM      9  O   UNL A   1      34.159  32.743  31.975  1.00  0.00    -0.223 OA
ATOM     10  O   UNL A   1      35.054  33.332  34.242  1.00  0.00    -0.223 OA
BRANCH   8  11
ATOM     11  C   UNL A   1      36.496  33.813  32.134  1.00  0.00     0.067 A 
ATOM     12  C   UNL A   1      38.998  34.124  30.885  1.00  0.00    -0.048 A 
ATOM     13  C   UNL A   1      37.914  33.564  30.190  1.00  0.00     0.005 A 
ATOM     14  C   UNL A   1      38.802  34.527  32.213  1.00  0.00     0.005 A 
ATOM     15  C   UNL A   1      36.674  33.398  30.811  1.00  0.00     0.020 A 
ATOM     16  C   UNL A   1      37.554  34.386  32.834  1.00  0.00     0.020 A 
BRANCH  12  17
ATOM     17  C   UNL A   1      40.293  34.344  30.135  1.00  0.00     0.032 C 
ATOM     18  C   UNL A   1      41.574  34.277  30.956  1.00  0.00     0.009 C 
ENDBRANCH  12  17
ENDBRANCH   8  11
ENDBRANCH   7   8
ENDBRANCH   4   7
ENDBRANCH   2   3
ENDBRANCH   1   2
BRANCH   1  19
ATOM     19  C   UNL A   1      34.438  33.296  28.625  1.00  0.00     0.118 C 
BRANCH  19  20
ATOM     20  N   UNL A   1      33.815  32.187  27.922  1.00  0.00    -0.352 N 
ATOM     21  C   UNL A   1      34.311  30.941  27.619  1.00  0.00     0.251 C 
ATOM     22  H   UNL A   1      32.895  32.353  27.614  1.00  0.00     0.163 HD
ATOM     23  O   UNL A   1      33.686  30.224  26.842  1.00  0.00    -0.269 OA
BRANCH  21  24
ATOM     24  C   UNL A   1      35.591  30.472  28.197  1.00  0.00     0.039 A 
ATOM     25  C   UNL A   1      35.572  29.812  29.430  1.00  0.00     0.014 A 
ATOM     26  C   UNL A   1      36.810  30.703  27.553  1.00  0.00     0.014 A 
ATOM     27  C   UNL A   1      36.762  29.327  29.980  1.00  0.00     0.010 A 
ATOM     28  C   UNL A   1      37.984  30.155  28.066  1.00  0.00     0.010 A 
ATOM     29  C   UNL A   1      37.974  29.462  29.286  1.00  0.00    -0.014 A 
BRANCH  29  30
ATOM     30  C   UNL A   1      39.240  28.889  29.820  1.00  0.00     0.031 A 
ATOM     31  C   UNL A   1      39.913  29.520  31.010  1.00  0.00     0.074 A 
ATOM     32  C   UNL A   1      39.817  27.844  29.194  1.00  0.00     0.049 A 
ATOM     33  N   UNL A   1      41.063  29.230  31.562  1.00  0.00    -0.248 NA
ATOM     34  C   UNL A   1      39.209  30.645  31.643  1.00  0.00     0.031 C 
ATOM     35  C   UNL A   1      39.281  27.166  28.011  1.00  0.00     0.029 A 
ATOM     36  N   UNL A   1      40.986  27.174  29.456  1.00  0.00    -0.354 N 
ATOM     37  C   UNL A   1      41.229  30.145  32.597  1.00  0.00     0.074 A 
ATOM     38  C   UNL A   1      40.087  31.034  32.554  1.00  0.00     0.031 C 
ATOM     39  C   UNL A   1      40.107  26.167  27.663  1.00  0.00     0.029 A 
ATOM     40  C   UNL A   1      41.256  26.161  28.564  1.00  0.00     0.049 A 
ATOM     41  H   UNL A   1      41.577  27.398  30.210  1.00  0.00     0.167 HD
ATOM     42  C   UNL A   1      42.230  30.223  33.510  1.00  0.00     0.034 A 
ATOM     43  C   UNL A   1      42.314  25.332  28.471  1.00  0.00     0.034 A 
ATOM     44  C   UNL A   1      43.356  29.320  33.547  1.00  0.00     0.049 A 
ATOM     45  C   UNL A   1      43.428  25.453  29.480  1.00  0.00     0.074 A 
ATOM     46  C   UNL A   1      44.396  29.276  34.460  1.00  0.00     0.029 A 
ATOM     47  N   UNL A   1      43.593  28.305  32.628  1.00  0.00    -0.354 N 
ATOM     48  N   UNL A   1      43.549  26.299  30.478  1.00  0.00    -0.248 NA
ATOM     49  C   UNL A   1      44.542  24.506  29.355  1.00  0.00     0.031 C 
ATOM     50  C   UNL A   1      45.294  28.280  34.056  1.00  0.00     0.029 A 
ATOM     51  C   UNL A   1      44.778  27.652  32.934  1.00  0.00     0.049 A 
ATOM     52  H   UNL A   1      43.007  28.083  31.870  1.00  0.00     0.167 HD
ATOM     53  C   UNL A   1      44.740  25.961  31.118  1.00  0.00     0.074 A 
ATOM     54  C   UNL A   1      45.290  24.830  30.399  1.00  0.00     0.031 C 
ATOM     55  C   UNL A   1      45.323  26.532  32.202  1.00  0.00     0.034 A 
BRANCH  42  56
ATOM     56  C   UNL A   1      42.160  31.342  34.524  1.00  0.00     0.023 A 
ATOM     57  C   UNL A   1      42.502  32.664  34.189  1.00  0.00     0.031 A 
ATOM     58  C   UNL A   1      41.773  31.079  35.850  1.00  0.00     0.131 A 
ATOM     59  C   UNL A   1      42.528  33.654  35.182  1.00  0.00     0.055 A 
ATOM     60  C   UNL A   1      41.720  32.087  36.815  1.00  0.00     0.041 A 
ATOM     61  F   UNL A   1      41.454  29.833  36.235  1.00  0.00    -0.206 F 
ATOM     62  C   UNL A   1      42.115  33.381  36.488  1.00  0.00     0.022 A 
BRANCH  59  63
ATOM     63  S   UNL A   1      43.253  35.267  34.778  1.00  0.00     0.124 S 
ATOM     64  O   UNL A   1      42.074  36.022  34.359  1.00  0.00    -0.237 OA
ATOM     65  O   UNL A   1      43.853  35.670  36.044  1.00  0.00    -0.237 OA
ATOM     66  O   UNL A   1      44.199  34.960  33.708  1.00  0.00    -0.744 OA
ENDBRANCH  59  63
ENDBRANCH  42  56
BRANCH  43  67
ATOM     67  C   UNL A   1      42.387  24.319  27.379  1.00  0.00     0.023 A 
ATOM     68  C   UNL A   1      41.759  23.070  27.509  1.00  0.00     0.031 A 
ATOM     69  C   UNL A   1      43.120  24.571  26.206  1.00  0.00     0.131 A 
ATOM     70  C   UNL A   1      41.914  22.102  26.504  1.00  0.00     0.055 A 
ATOM     71  C   UNL A   1      43.228  23.623  25.186  1.00  0.00     0.041 A 
ATOM     72  F   UNL A   1      43.737  25.750  26.029  1.00  0.00    -0.206 F 
ATOM     73  C   UNL A   1      42.633  22.374  25.339  1.00  0.00     0.022 A 
BRANCH  70  74
ATOM     74  S   UNL A   1      41.229  20.445  26.783  1.00  0.00     0.124 S 
ATOM     75  O   UNL A   1      42.365  19.594  26.448  1.00  0.00    -0.237 OA
ATOM     76  O   UNL A   1      40.866  20.503  28.196  1.00  0.00    -0.237 OA
ATOM     77  O   UNL A   1      40.104  20.382  25.854  1.00  0.00    -0.744 OA
ENDBRANCH  70  74
ENDBRANCH  43  67
BRANCH  55  78
ATOM     78  C   UNL A   1      46.600  25.904  32.703  1.00  0.00     0.023 A 
ATOM     79  C   UNL A   1      46.594  24.887  33.674  1.00  0.00     0.031 A 
ATOM     80  C   UNL A   1      47.841  26.339  32.207  1.00  0.00     0.131 A 
ATOM     81  C   UNL A   1      47.809  24.376  34.157  1.00  0.00     0.055 A 
ATOM     82  C   UNL A   1      49.044  25.786  32.648  1.00  0.00     0.041 A 
ATOM     83  F   UNL A   1      47.905  27.309  31.279  1.00  0.00    -0.206 F 
ATOM     84  C   UNL A   1      49.033  24.808  33.638  1.00  0.00     0.022 A 
BRANCH  81  85
ATOM     85  S   UNL A   1      47.773  23.197  35.535  1.00  0.00     0.124 S 
ATOM     86  O   UNL A   1      47.773  24.085  36.694  1.00  0.00    -0.237 OA
ATOM     87  O   UNL A   1      46.533  22.468  35.291  1.00  0.00    -0.237 OA
ATOM     88  O   UNL A   1      48.996  22.417  35.352  1.00  0.00    -0.744 OA
ENDBRANCH  81  85
ENDBRANCH  55  78
ENDBRANCH  29  30
ENDBRANCH  21  24
ENDBRANCH  19  20
ENDBRANCH   1  19
TORSDOF 16
ENDMDL
