MODEL 1
REMARK VINA RESULT:     -13.1      0.000      0.000
REMARK SMILES CC(C)CCn1nc(C(=O)NCCCNC(=O)c2ccc(-c3c4nc(c(-c5cc(S(=O)(=O)[O-])ccc5F)c5ccc([nH]5)c(-c5cc(S(=O)(=O)[O-])ccc5F)c5nc(c(-c6cc(S(=O)(=O)[O-])ccc6F)c6ccc3[nH]6)C=C5)C=C4)cc2)c2c1CCN(C(=O)[C@@H]1CCc3nn(C)c(=O)n3C1)C2
REMARK SMILES IDX 13 1 12 2 11 3 9 4 10 5 8 7 6 8 7 9 82 10 81 11 83 12 99 13
REMARK SMILES IDX 84 14 85 15 5 16 4 17 2 18 1 19 3 20 86 21 87 22 88 23 89 24
REMARK SMILES IDX 98 25 90 26 97 27 91 28 95 29 92 30 93 31 96 32 94 33 14 34
REMARK SMILES IDX 15 35 16 36 17 38 18 39 19 40 80 41 20 42 79 43 21 44 22 45
REMARK SMILES IDX 23 46 73 47 24 48 78 49 72 50 74 51 25 52 77 53 71 54 70 55
REMARK SMILES IDX 26 57 58 58 38 59 57 60 39 61 42 62 56 63 75 64 40 65 41 66
REMARK SMILES IDX 55 68 76 69 43 70 27 71 28 72 36 73 29 74 35 75 37 76 34 77
REMARK SMILES IDX 30 78 31 79 32 80 33 81 59 82 60 83 68 84 61 85 67 86 69 87
REMARK SMILES IDX 66 88 62 89 63 90 64 91 65 92 44 93 45 94 53 95 46 96 52 97
REMARK SMILES IDX 54 98 51 99 47 100 48 101 49 102 50 103
REMARK H PARENT 11 6 15 37 74 56 42 67
REMARK Flexibility Score: inf
ROOT
ATOM      1  C   UNL A   1      38.658  20.686  25.405  1.00  0.00     0.042 C 
ENDROOT
BRANCH   1   2
ATOM      2  C   UNL A   1      37.764  21.932  25.516  1.00  0.00     0.118 C 
BRANCH   2   3
ATOM      3  N   UNL A   1      37.368  22.452  24.208  1.00  0.00    -0.351 N 
ATOM      4  C   UNL A   1      36.163  22.711  23.578  1.00  0.00     0.272 C 
ATOM      5  O   UNL A   1      36.264  23.330  22.513  1.00  0.00    -0.267 OA
ATOM      6  H   UNL A   1      38.143  22.671  23.641  1.00  0.00     0.163 HD
BRANCH   4   7
ATOM      7  C   UNL A   1      34.828  22.315  24.108  1.00  0.00     0.155 A 
ATOM      8  N   UNL A   1      33.318  20.966  24.856  1.00  0.00    -0.268 N 
ATOM      9  N   UNL A   1      34.542  21.003  24.294  1.00  0.00    -0.167 NA
ATOM     10  C   UNL A   1      32.715  22.181  24.851  1.00  0.00     0.046 A 
ATOM     11  C   UNL A   1      33.725  23.071  24.583  1.00  0.00     0.026 A 
ATOM     12  C   UNL A   1      31.321  22.585  25.183  1.00  0.00     0.078 C 
ATOM     13  C   UNL A   1      33.547  24.509  24.775  1.00  0.00     0.159 C 
ATOM     14  C   UNL A   1      31.168  24.099  24.888  1.00  0.00     0.126 C 
ATOM     15  N   UNL A   1      32.296  24.884  25.409  1.00  0.00    -0.338 N 
BRANCH   8  16
ATOM     16  C   UNL A   1      32.891  19.749  25.520  1.00  0.00     0.145 C 
BRANCH  16  17
ATOM     17  C   UNL A   1      33.642  18.482  25.112  1.00  0.00     0.027 C 
BRANCH  17  18
ATOM     18  C   UNL A   1      32.902  17.635  24.063  1.00  0.00    -0.016 C 
ATOM     19  C   UNL A   1      32.303  18.513  22.966  1.00  0.00     0.007 C 
ATOM     20  C   UNL A   1      33.848  16.593  23.471  1.00  0.00     0.007 C 
ENDBRANCH  17  18
ENDBRANCH  16  17
ENDBRANCH   8  16
BRANCH  15  21
ATOM     21  C   UNL A   1      32.326  26.154  25.964  1.00  0.00     0.227 C 
ATOM     22  O   UNL A   1      31.658  26.393  26.981  1.00  0.00    -0.274 OA
BRANCH  21  23
ATOM     23  C   UNL A   1      33.058  27.350  25.366  1.00  0.00     0.099 C 
ATOM     24  C   UNL A   1      33.083  28.602  26.239  1.00  0.00     0.023 C 
ATOM     25  C   UNL A   1      32.747  27.637  23.914  1.00  0.00     0.142 C 
ATOM     26  C   UNL A   1      31.856  29.485  26.096  1.00  0.00     0.078 C 
ATOM     27  N   UNL A   1      31.711  28.624  23.774  1.00  0.00    -0.278 N 
ATOM     28  C   UNL A   1      31.250  29.464  24.722  1.00  0.00     0.133 A 
ATOM     29  C   UNL A   1      30.849  28.715  22.718  1.00  0.00     0.345 A 
ATOM     30  N   UNL A   1      30.159  30.098  24.397  1.00  0.00    -0.155 NA
ATOM     31  N   UNL A   1      29.877  29.627  23.129  1.00  0.00    -0.216 N 
ATOM     32  O   UNL A   1      30.873  28.063  21.681  1.00  0.00    -0.246 OA
ATOM     33  C   UNL A   1      28.629  29.867  22.465  1.00  0.00     0.179 C 
ENDBRANCH  21  23
ENDBRANCH  15  21
ENDBRANCH   4   7
ENDBRANCH   2   3
ENDBRANCH   1   2
BRANCH   1  34
ATOM     34  C   UNL A   1      39.613  20.407  26.520  1.00  0.00     0.118 C 
BRANCH  34  35
ATOM     35  N   UNL A   1      40.716  19.517  26.123  1.00  0.00    -0.352 N 
ATOM     36  C   UNL A   1      42.009  19.908  25.791  1.00  0.00     0.251 C 
ATOM     37  H   UNL A   1      40.520  18.553  26.090  1.00  0.00     0.163 HD
ATOM     38  O   UNL A   1      42.714  19.212  25.066  1.00  0.00    -0.269 OA
BRANCH  36  39
ATOM     39  C   UNL A   1      42.474  21.203  26.322  1.00  0.00     0.039 A 
ATOM     40  C   UNL A   1      42.567  22.372  25.573  1.00  0.00     0.014 A 
ATOM     41  C   UNL A   1      42.634  21.239  27.695  1.00  0.00     0.014 A 
ATOM     42  C   UNL A   1      42.728  23.572  26.268  1.00  0.00     0.010 A 
ATOM     43  C   UNL A   1      42.317  22.396  28.330  1.00  0.00     0.010 A 
ATOM     44  C   UNL A   1      42.565  23.572  27.666  1.00  0.00    -0.014 A 
BRANCH  44  45
ATOM     45  C   UNL A   1      42.552  24.766  28.499  1.00  0.00     0.031 A 
ATOM     46  C   UNL A   1      41.351  25.590  28.293  1.00  0.00     0.074 A 
ATOM     47  C   UNL A   1      43.426  25.005  29.507  1.00  0.00     0.049 A 
ATOM     48  N   UNL A   1      41.218  26.539  27.430  1.00  0.00    -0.248 NA
ATOM     49  C   UNL A   1      40.085  25.156  28.901  1.00  0.00     0.031 C 
ATOM     50  C   UNL A   1      44.477  24.127  30.050  1.00  0.00     0.029 A 
ATOM     51  N   UNL A   1      43.521  26.099  30.314  1.00  0.00    -0.354 N 
ATOM     52  C   UNL A   1      39.948  27.046  27.648  1.00  0.00     0.074 A 
ATOM     53  C   UNL A   1      39.228  25.991  28.306  1.00  0.00     0.031 C 
ATOM     54  C   UNL A   1      44.967  24.639  31.201  1.00  0.00     0.029 A 
ATOM     55  C   UNL A   1      44.419  25.970  31.375  1.00  0.00     0.049 A 
ATOM     56  H   UNL A   1      42.996  26.916  30.161  1.00  0.00     0.167 HD
ATOM     57  C   UNL A   1      39.739  28.391  27.587  1.00  0.00     0.034 A 
ATOM     58  C   UNL A   1      44.749  26.912  32.298  1.00  0.00     0.034 A 
ATOM     59  C   UNL A   1      40.913  29.049  27.035  1.00  0.00     0.049 A 
ATOM     60  C   UNL A   1      44.456  28.218  31.668  1.00  0.00     0.074 A 
ATOM     61  C   UNL A   1      41.594  29.013  25.835  1.00  0.00     0.029 A 
ATOM     62  N   UNL A   1      41.791  29.569  27.963  1.00  0.00    -0.354 N 
ATOM     63  N   UNL A   1      45.092  28.657  30.616  1.00  0.00    -0.248 NA
ATOM     64  C   UNL A   1      43.164  28.842  31.909  1.00  0.00     0.031 C 
ATOM     65  C   UNL A   1      42.974  29.154  26.176  1.00  0.00     0.029 A 
ATOM     66  C   UNL A   1      43.085  29.356  27.555  1.00  0.00     0.049 A 
ATOM     67  H   UNL A   1      41.530  30.026  28.795  1.00  0.00     0.167 HD
ATOM     68  C   UNL A   1      44.119  29.257  29.834  1.00  0.00     0.074 A 
ATOM     69  C   UNL A   1      42.999  29.478  30.745  1.00  0.00     0.031 C 
ATOM     70  C   UNL A   1      44.214  29.248  28.470  1.00  0.00     0.034 A 
BRANCH  57  71
ATOM     71  C   UNL A   1      38.737  29.160  28.427  1.00  0.00     0.023 A 
ATOM     72  C   UNL A   1      38.993  29.218  29.812  1.00  0.00     0.031 A 
ATOM     73  C   UNL A   1      37.447  29.584  28.032  1.00  0.00     0.131 A 
ATOM     74  C   UNL A   1      37.982  29.553  30.726  1.00  0.00     0.055 A 
ATOM     75  C   UNL A   1      36.458  29.968  28.943  1.00  0.00     0.041 A 
ATOM     76  F   UNL A   1      37.031  29.581  26.763  1.00  0.00    -0.206 F 
ATOM     77  C   UNL A   1      36.710  29.922  30.301  1.00  0.00     0.022 A 
BRANCH  74  78
ATOM     78  S   UNL A   1      38.314  29.334  32.491  1.00  0.00     0.124 S 
ATOM     79  O   UNL A   1      39.733  28.996  32.481  1.00  0.00    -0.237 OA
ATOM     80  O   UNL A   1      37.965  30.645  33.026  1.00  0.00    -0.237 OA
ATOM     81  O   UNL A   1      37.415  28.247  32.870  1.00  0.00    -0.744 OA
ENDBRANCH  74  78
ENDBRANCH  57  71
BRANCH  58  82
ATOM     82  C   UNL A   1      44.973  26.732  33.759  1.00  0.00     0.023 A 
ATOM     83  C   UNL A   1      43.936  26.785  34.718  1.00  0.00     0.031 A 
ATOM     84  C   UNL A   1      46.216  26.224  34.195  1.00  0.00     0.131 A 
ATOM     85  C   UNL A   1      44.163  26.324  36.039  1.00  0.00     0.055 A 
ATOM     86  C   UNL A   1      46.432  25.763  35.496  1.00  0.00     0.041 A 
ATOM     87  F   UNL A   1      47.239  26.074  33.337  1.00  0.00    -0.206 F 
ATOM     88  C   UNL A   1      45.401  25.801  36.423  1.00  0.00     0.022 A 
BRANCH  85  89
ATOM     89  S   UNL A   1      42.817  26.322  37.273  1.00  0.00     0.124 S 
ATOM     90  O   UNL A   1      42.043  27.498  36.894  1.00  0.00    -0.237 OA
ATOM     91  O   UNL A   1      42.186  25.027  37.045  1.00  0.00    -0.237 OA
ATOM     92  O   UNL A   1      43.522  26.440  38.551  1.00  0.00    -0.744 OA
ENDBRANCH  85  89
ENDBRANCH  58  82
BRANCH  70  93
ATOM     93  C   UNL A   1      45.583  28.981  27.865  1.00  0.00     0.023 A 
ATOM     94  C   UNL A   1      46.096  27.714  27.499  1.00  0.00     0.031 A 
ATOM     95  C   UNL A   1      46.379  30.108  27.592  1.00  0.00     0.131 A 
ATOM     96  C   UNL A   1      47.367  27.617  26.891  1.00  0.00     0.055 A 
ATOM     97  C   UNL A   1      47.623  30.009  26.970  1.00  0.00     0.041 A 
ATOM     98  F   UNL A   1      45.945  31.340  27.905  1.00  0.00    -0.206 F 
ATOM     99  C   UNL A   1      48.125  28.762  26.623  1.00  0.00     0.022 A 
BRANCH  96 100
ATOM    100  S   UNL A   1      48.081  25.993  26.460  1.00  0.00     0.124 S 
ATOM    101  O   UNL A   1      47.734  25.153  27.599  1.00  0.00    -0.237 OA
ATOM    102  O   UNL A   1      47.409  25.675  25.203  1.00  0.00    -0.237 OA
ATOM    103  O   UNL A   1      49.512  26.276  26.326  1.00  0.00    -0.744 OA
ENDBRANCH  96 100
ENDBRANCH  70  93
ENDBRANCH  44  45
ENDBRANCH  36  39
ENDBRANCH  34  35
ENDBRANCH   1  34
TORSDOF 18
ENDMDL
MODEL 2
REMARK VINA RESULT:     -13.0      3.951      5.198
REMARK SMILES CC(C)CCn1nc(C(=O)NCCCNC(=O)c2ccc(-c3c4nc(c(-c5cc(S(=O)(=O)[O-])ccc5F)c5ccc([nH]5)c(-c5cc(S(=O)(=O)[O-])ccc5F)c5nc(c(-c6cc(S(=O)(=O)[O-])ccc6F)c6ccc3[nH]6)C=C5)C=C4)cc2)c2c1CCN(C(=O)[C@@H]1CCc3nn(C)c(=O)n3C1)C2
REMARK SMILES IDX 13 1 12 2 11 3 9 4 10 5 8 7 6 8 7 9 82 10 81 11 83 12 99 13
REMARK SMILES IDX 84 14 85 15 5 16 4 17 2 18 1 19 3 20 86 21 87 22 88 23 89 24
REMARK SMILES IDX 98 25 90 26 97 27 91 28 95 29 92 30 93 31 96 32 94 33 14 34
REMARK SMILES IDX 15 35 16 36 17 38 18 39 19 40 80 41 20 42 79 43 21 44 22 45
REMARK SMILES IDX 23 46 73 47 24 48 78 49 72 50 74 51 25 52 77 53 71 54 70 55
REMARK SMILES IDX 26 57 58 58 38 59 57 60 39 61 42 62 56 63 75 64 40 65 41 66
REMARK SMILES IDX 55 68 76 69 43 70 27 71 28 72 36 73 29 74 35 75 37 76 34 77
REMARK SMILES IDX 30 78 31 79 32 80 33 81 59 82 60 83 68 84 61 85 67 86 69 87
REMARK SMILES IDX 66 88 62 89 63 90 64 91 65 92 44 93 45 94 53 95 46 96 52 97
REMARK SMILES IDX 54 98 51 99 47 100 48 101 49 102 50 103
REMARK H PARENT 11 6 15 37 74 56 42 67
REMARK Flexibility Score: inf
ROOT
ATOM      1  C   UNL A   1      39.134  22.909  26.567  1.00  0.00     0.042 C 
ENDROOT
BRANCH   1   2
ATOM      2  C   UNL A   1      37.927  22.178  25.957  1.00  0.00     0.118 C 
BRANCH   2   3
ATOM      3  N   UNL A   1      37.691  22.558  24.565  1.00  0.00    -0.351 N 
ATOM      4  C   UNL A   1      36.576  22.662  23.751  1.00  0.00     0.272 C 
ATOM      5  O   UNL A   1      36.787  23.202  22.659  1.00  0.00    -0.267 OA
ATOM      6  H   UNL A   1      38.523  22.797  24.095  1.00  0.00     0.163 HD
BRANCH   4   7
ATOM      7  C   UNL A   1      35.211  22.195  24.122  1.00  0.00     0.155 A 
ATOM      8  N   UNL A   1      33.728  20.820  24.875  1.00  0.00    -0.268 N 
ATOM      9  N   UNL A   1      35.027  20.916  24.531  1.00  0.00    -0.167 NA
ATOM     10  C   UNL A   1      33.018  21.918  24.510  1.00  0.00     0.046 A 
ATOM     11  C   UNL A   1      33.967  22.870  24.233  1.00  0.00     0.026 A 
ATOM     12  C   UNL A   1      31.554  22.183  24.511  1.00  0.00     0.078 C 
ATOM     13  C   UNL A   1      33.613  24.280  24.083  1.00  0.00     0.159 C 
ATOM     14  C   UNL A   1      31.309  23.578  23.879  1.00  0.00     0.126 C 
ATOM     15  N   UNL A   1      32.232  24.594  24.403  1.00  0.00    -0.338 N 
BRANCH   8  16
ATOM     16  C   UNL A   1      33.304  19.705  25.701  1.00  0.00     0.145 C 
BRANCH  16  17
ATOM     17  C   UNL A   1      32.720  18.513  24.943  1.00  0.00     0.027 C 
BRANCH  17  18
ATOM     18  C   UNL A   1      33.750  17.759  24.087  1.00  0.00    -0.016 C 
ATOM     19  C   UNL A   1      34.287  16.532  24.821  1.00  0.00     0.007 C 
ATOM     20  C   UNL A   1      33.128  17.364  22.749  1.00  0.00     0.007 C 
ENDBRANCH  17  18
ENDBRANCH  16  17
ENDBRANCH   8  16
BRANCH  15  21
ATOM     21  C   UNL A   1      32.028  25.938  24.673  1.00  0.00     0.227 C 
ATOM     22  O   UNL A   1      31.123  26.276  25.452  1.00  0.00    -0.274 OA
BRANCH  21  23
ATOM     23  C   UNL A   1      32.780  27.085  24.008  1.00  0.00     0.099 C 
ATOM     24  C   UNL A   1      33.431  28.080  24.965  1.00  0.00     0.023 C 
ATOM     25  C   UNL A   1      32.059  27.746  22.854  1.00  0.00     0.142 C 
ATOM     26  C   UNL A   1      32.501  29.181  25.446  1.00  0.00     0.078 C 
ATOM     27  N   UNL A   1      31.329  28.911  23.276  1.00  0.00    -0.278 N 
ATOM     28  C   UNL A   1      31.463  29.583  24.437  1.00  0.00     0.133 A 
ATOM     29  C   UNL A   1      30.202  29.394  22.673  1.00  0.00     0.345 A 
ATOM     30  N   UNL A   1      30.529  30.461  24.664  1.00  0.00    -0.155 NA
ATOM     31  N   UNL A   1      29.707  30.350  23.559  1.00  0.00    -0.216 N 
ATOM     32  O   UNL A   1      29.691  29.002  21.631  1.00  0.00    -0.246 OA
ATOM     33  C   UNL A   1      28.409  30.957  23.486  1.00  0.00     0.179 C 
ENDBRANCH  21  23
ENDBRANCH  15  21
ENDBRANCH   4   7
ENDBRANCH   2   3
ENDBRANCH   1   2
BRANCH   1  34
ATOM     34  C   UNL A   1      39.137  24.404  26.536  1.00  0.00     0.118 C 
BRANCH  34  35
ATOM     35  N   UNL A   1      40.358  24.964  25.935  1.00  0.00    -0.352 N 
ATOM     36  C   UNL A   1      40.805  26.275  26.052  1.00  0.00     0.251 C 
ATOM     37  H   UNL A   1      40.911  24.351  25.398  1.00  0.00     0.163 HD
ATOM     38  O   UNL A   1      41.538  26.772  25.203  1.00  0.00    -0.269 OA
BRANCH  36  39
ATOM     39  C   UNL A   1      40.333  27.041  27.221  1.00  0.00     0.039 A 
ATOM     40  C   UNL A   1      40.031  26.480  28.458  1.00  0.00     0.014 A 
ATOM     41  C   UNL A   1      40.393  28.415  27.073  1.00  0.00     0.014 A 
ATOM     42  C   UNL A   1      39.891  27.348  29.542  1.00  0.00     0.010 A 
ATOM     43  C   UNL A   1      40.716  29.147  28.169  1.00  0.00     0.010 A 
ATOM     44  C   UNL A   1      40.276  28.694  29.387  1.00  0.00    -0.014 A 
BRANCH  44  45
ATOM     45  C   UNL A   1      40.329  29.669  30.466  1.00  0.00     0.031 A 
ATOM     46  C   UNL A   1      39.032  30.320  30.710  1.00  0.00     0.074 A 
ATOM     47  C   UNL A   1      41.382  29.827  31.305  1.00  0.00     0.049 A 
ATOM     48  N   UNL A   1      38.601  31.395  30.143  1.00  0.00    -0.248 NA
ATOM     49  C   UNL A   1      37.995  29.575  31.438  1.00  0.00     0.031 C 
ATOM     50  C   UNL A   1      42.617  29.029  31.399  1.00  0.00     0.029 A 
ATOM     51  N   UNL A   1      41.544  30.727  32.314  1.00  0.00    -0.354 N 
ATOM     52  C   UNL A   1      37.370  31.640  30.727  1.00  0.00     0.074 A 
ATOM     53  C   UNL A   1      36.939  30.371  31.245  1.00  0.00     0.031 C 
ATOM     54  C   UNL A   1      43.303  29.359  32.516  1.00  0.00     0.029 A 
ATOM     55  C   UNL A   1      42.672  30.522  33.110  1.00  0.00     0.049 A 
ATOM     56  H   UNL A   1      40.913  31.466  32.469  1.00  0.00     0.167 HD
ATOM     57  C   UNL A   1      37.010  32.918  31.032  1.00  0.00     0.034 A 
ATOM     58  C   UNL A   1      43.104  31.289  34.146  1.00  0.00     0.034 A 
ATOM     59  C   UNL A   1      37.947  33.853  30.430  1.00  0.00     0.049 A 
ATOM     60  C   UNL A   1      42.535  32.636  33.918  1.00  0.00     0.074 A 
ATOM     61  C   UNL A   1      38.331  34.177  29.144  1.00  0.00     0.029 A 
ATOM     62  N   UNL A   1      38.956  34.298  31.258  1.00  0.00    -0.354 N 
ATOM     63  N   UNL A   1      42.860  33.380  32.895  1.00  0.00    -0.248 NA
ATOM     64  C   UNL A   1      41.276  32.985  34.556  1.00  0.00     0.031 C 
ATOM     65  C   UNL A   1      39.730  34.458  29.224  1.00  0.00     0.029 A 
ATOM     66  C   UNL A   1      40.135  34.381  30.559  1.00  0.00     0.049 A 
ATOM     67  H   UNL A   1      38.847  34.524  32.210  1.00  0.00     0.167 HD
ATOM     68  C   UNL A   1      41.674  33.970  32.492  1.00  0.00     0.074 A 
ATOM     69  C   UNL A   1      40.778  33.816  33.635  1.00  0.00     0.031 C 
ATOM     70  C   UNL A   1      41.451  34.262  31.175  1.00  0.00     0.034 A 
BRANCH  57  71
ATOM     71  C   UNL A   1      36.154  33.327  32.216  1.00  0.00     0.023 A 
ATOM     72  C   UNL A   1      35.014  34.105  31.926  1.00  0.00     0.031 A 
ATOM     73  C   UNL A   1      36.507  33.258  33.583  1.00  0.00     0.131 A 
ATOM     74  C   UNL A   1      34.370  34.853  32.925  1.00  0.00     0.055 A 
ATOM     75  C   UNL A   1      35.830  33.963  34.583  1.00  0.00     0.041 A 
ATOM     76  F   UNL A   1      37.564  32.577  34.033  1.00  0.00    -0.206 F 
ATOM     77  C   UNL A   1      34.776  34.794  34.253  1.00  0.00     0.022 A 
BRANCH  74  78
ATOM     78  S   UNL A   1      33.097  36.036  32.423  1.00  0.00     0.124 S 
ATOM     79  O   UNL A   1      31.889  35.225  32.518  1.00  0.00    -0.237 OA
ATOM     80  O   UNL A   1      33.253  37.085  33.425  1.00  0.00    -0.237 OA
ATOM     81  O   UNL A   1      33.497  36.406  31.068  1.00  0.00    -0.744 OA
ENDBRANCH  74  78
ENDBRANCH  57  71
BRANCH  58  82
ATOM     82  C   UNL A   1      43.679  30.844  35.445  1.00  0.00     0.023 A 
ATOM     83  C   UNL A   1      43.549  29.529  35.944  1.00  0.00     0.031 A 
ATOM     84  C   UNL A   1      44.618  31.679  36.091  1.00  0.00     0.131 A 
ATOM     85  C   UNL A   1      44.352  29.095  37.029  1.00  0.00     0.055 A 
ATOM     86  C   UNL A   1      45.412  31.243  37.154  1.00  0.00     0.041 A 
ATOM     87  F   UNL A   1      44.858  32.922  35.643  1.00  0.00    -0.206 F 
ATOM     88  C   UNL A   1      45.291  29.944  37.622  1.00  0.00     0.022 A 
BRANCH  85  89
ATOM     89  S   UNL A   1      44.245  27.379  37.644  1.00  0.00     0.124 S 
ATOM     90  O   UNL A   1      42.865  27.023  37.340  1.00  0.00    -0.237 OA
ATOM     91  O   UNL A   1      45.277  26.704  36.865  1.00  0.00    -0.237 OA
ATOM     92  O   UNL A   1      44.544  27.506  39.071  1.00  0.00    -0.744 OA
ENDBRANCH  85  89
ENDBRANCH  58  82
BRANCH  70  93
ATOM     93  C   UNL A   1      42.662  34.346  30.261  1.00  0.00     0.023 A 
ATOM     94  C   UNL A   1      43.067  33.363  29.327  1.00  0.00     0.031 A 
ATOM     95  C   UNL A   1      43.406  35.538  30.313  1.00  0.00     0.131 A 
ATOM     96  C   UNL A   1      44.185  33.597  28.497  1.00  0.00     0.055 A 
ATOM     97  C   UNL A   1      44.495  35.775  29.475  1.00  0.00     0.041 A 
ATOM     98  F   UNL A   1      43.067  36.515  31.170  1.00  0.00    -0.206 F 
ATOM     99  C   UNL A   1      44.893  34.802  28.568  1.00  0.00     0.022 A 
BRANCH  96 100
ATOM    100  S   UNL A   1      44.767  32.326  27.323  1.00  0.00     0.124 S 
ATOM    101  O   UNL A   1      46.191  32.608  27.192  1.00  0.00    -0.237 OA
ATOM    102  O   UNL A   1      44.422  31.082  28.006  1.00  0.00    -0.237 OA
ATOM    103  O   UNL A   1      43.980  32.593  26.116  1.00  0.00    -0.744 OA
ENDBRANCH  96 100
ENDBRANCH  70  93
ENDBRANCH  44  45
ENDBRANCH  36  39
ENDBRANCH  34  35
ENDBRANCH   1  34
TORSDOF 18
ENDMDL
MODEL 3
REMARK VINA RESULT:     -12.7      9.608     15.400
REMARK SMILES CC(C)CCn1nc(C(=O)NCCCNC(=O)c2ccc(-c3c4nc(c(-c5cc(S(=O)(=O)[O-])ccc5F)c5ccc([nH]5)c(-c5cc(S(=O)(=O)[O-])ccc5F)c5nc(c(-c6cc(S(=O)(=O)[O-])ccc6F)c6ccc3[nH]6)C=C5)C=C4)cc2)c2c1CCN(C(=O)[C@@H]1CCc3nn(C)c(=O)n3C1)C2
REMARK SMILES IDX 13 1 12 2 11 3 9 4 10 5 8 7 6 8 7 9 82 10 81 11 83 12 99 13
REMARK SMILES IDX 84 14 85 15 5 16 4 17 2 18 1 19 3 20 86 21 87 22 88 23 89 24
REMARK SMILES IDX 98 25 90 26 97 27 91 28 95 29 92 30 93 31 96 32 94 33 14 34
REMARK SMILES IDX 15 35 16 36 17 38 18 39 19 40 80 41 20 42 79 43 21 44 22 45
REMARK SMILES IDX 23 46 73 47 24 48 78 49 72 50 74 51 25 52 77 53 71 54 70 55
REMARK SMILES IDX 26 57 58 58 38 59 57 60 39 61 42 62 56 63 75 64 40 65 41 66
REMARK SMILES IDX 55 68 76 69 43 70 27 71 28 72 36 73 29 74 35 75 37 76 34 77
REMARK SMILES IDX 30 78 31 79 32 80 33 81 59 82 60 83 68 84 61 85 67 86 69 87
REMARK SMILES IDX 66 88 62 89 63 90 64 91 65 92 44 93 45 94 53 95 46 96 52 97
REMARK SMILES IDX 54 98 51 99 47 100 48 101 49 102 50 103
REMARK H PARENT 11 6 15 37 74 56 42 67
REMARK Flexibility Score: inf
ROOT
ATOM      1  C   UNL A   1      42.819  37.788  27.996  1.00  0.00     0.042 C 
ENDROOT
BRANCH   1   2
ATOM      2  C   UNL A   1      42.309  38.154  26.593  1.00  0.00     0.118 C 
BRANCH   2   3
ATOM      3  N   UNL A   1      41.334  39.244  26.621  1.00  0.00    -0.351 N 
ATOM      4  C   UNL A   1      41.351  40.586  26.286  1.00  0.00     0.272 C 
ATOM      5  O   UNL A   1      40.242  41.131  26.290  1.00  0.00    -0.267 OA
ATOM      6  H   UNL A   1      40.455  38.952  26.958  1.00  0.00     0.163 HD
BRANCH   4   7
ATOM      7  C   UNL A   1      42.577  41.352  25.924  1.00  0.00     0.155 A 
ATOM      8  N   UNL A   1      44.638  41.976  26.080  1.00  0.00    -0.268 N 
ATOM      9  N   UNL A   1      43.684  41.253  26.700  1.00  0.00    -0.167 NA
ATOM     10  C   UNL A   1      44.139  42.707  25.051  1.00  0.00     0.046 A 
ATOM     11  C   UNL A   1      42.901  42.167  24.807  1.00  0.00     0.026 A 
ATOM     12  C   UNL A   1      44.758  43.772  24.216  1.00  0.00     0.078 C 
ATOM     13  C   UNL A   1      42.157  42.481  23.590  1.00  0.00     0.159 C 
ATOM     14  C   UNL A   1      43.674  44.332  23.258  1.00  0.00     0.126 C 
ATOM     15  N   UNL A   1      42.895  43.265  22.616  1.00  0.00    -0.338 N 
BRANCH   8  16
ATOM     16  C   UNL A   1      46.025  41.764  26.448  1.00  0.00     0.145 C 
BRANCH  16  17
ATOM     17  C   UNL A   1      46.438  40.304  26.631  1.00  0.00     0.027 C 
BRANCH  17  18
ATOM     18  C   UNL A   1      46.573  39.528  25.310  1.00  0.00    -0.016 C 
ATOM     19  C   UNL A   1      46.997  40.451  24.169  1.00  0.00     0.007 C 
ATOM     20  C   UNL A   1      47.564  38.379  25.478  1.00  0.00     0.007 C 
ENDBRANCH  17  18
ENDBRANCH  16  17
ENDBRANCH   8  16
BRANCH  15  21
ATOM     21  C   UNL A   1      42.364  43.187  21.338  1.00  0.00     0.227 C 
ATOM     22  O   UNL A   1      41.137  43.275  21.178  1.00  0.00    -0.274 OA
BRANCH  21  23
ATOM     23  C   UNL A   1      43.168  42.902  20.075  1.00  0.00     0.099 C 
ATOM     24  C   UNL A   1      44.600  43.432  20.080  1.00  0.00     0.023 C 
ATOM     25  C   UNL A   1      42.439  43.154  18.774  1.00  0.00     0.142 C 
ATOM     26  C   UNL A   1      44.728  44.880  19.642  1.00  0.00     0.078 C 
ATOM     27  N   UNL A   1      42.715  44.466  18.253  1.00  0.00    -0.278 N 
ATOM     28  C   UNL A   1      43.710  45.298  18.620  1.00  0.00     0.133 A 
ATOM     29  C   UNL A   1      41.868  45.193  17.465  1.00  0.00     0.345 A 
ATOM     30  N   UNL A   1      43.600  46.510  18.155  1.00  0.00    -0.155 NA
ATOM     31  N   UNL A   1      42.427  46.470  17.426  1.00  0.00    -0.216 N 
ATOM     32  O   UNL A   1      40.804  44.826  16.982  1.00  0.00    -0.246 OA
ATOM     33  C   UNL A   1      41.776  47.647  16.928  1.00  0.00     0.179 C 
ENDBRANCH  21  23
ENDBRANCH  15  21
ENDBRANCH   4   7
ENDBRANCH   2   3
ENDBRANCH   1   2
BRANCH   1  34
ATOM     34  C   UNL A   1      44.297  37.692  28.201  1.00  0.00     0.118 C 
BRANCH  34  35
ATOM     35  N   UNL A   1      44.922  36.636  27.389  1.00  0.00    -0.352 N 
ATOM     36  C   UNL A   1      45.236  35.349  27.813  1.00  0.00     0.251 C 
ATOM     37  H   UNL A   1      45.139  36.862  26.455  1.00  0.00     0.163 HD
ATOM     38  O   UNL A   1      46.121  34.700  27.265  1.00  0.00    -0.269 OA
BRANCH  36  39
ATOM     39  C   UNL A   1      44.479  34.821  28.964  1.00  0.00     0.039 A 
ATOM     40  C   UNL A   1      44.527  35.356  30.248  1.00  0.00     0.014 A 
ATOM     41  C   UNL A   1      43.543  33.855  28.645  1.00  0.00     0.014 A 
ATOM     42  C   UNL A   1      43.544  34.951  31.152  1.00  0.00     0.010 A 
ATOM     43  C   UNL A   1      42.383  33.854  29.349  1.00  0.00     0.010 A 
ATOM     44  C   UNL A   1      42.443  34.216  30.671  1.00  0.00    -0.014 A 
BRANCH  44  45
ATOM     45  C   UNL A   1      41.275  33.861  31.463  1.00  0.00     0.031 A 
ATOM     46  C   UNL A   1      41.550  33.849  32.908  1.00  0.00     0.074 A 
ATOM     47  C   UNL A   1      40.017  33.758  30.968  1.00  0.00     0.049 A 
ATOM     48  N   UNL A   1      41.966  32.840  33.596  1.00  0.00    -0.248 NA
ATOM     49  C   UNL A   1      41.640  35.132  33.621  1.00  0.00     0.031 C 
ATOM     50  C   UNL A   1      39.528  34.064  29.613  1.00  0.00     0.029 A 
ATOM     51  N   UNL A   1      38.872  33.400  31.613  1.00  0.00    -0.354 N 
ATOM     52  C   UNL A   1      42.026  33.295  34.902  1.00  0.00     0.074 A 
ATOM     53  C   UNL A   1      42.123  34.725  34.799  1.00  0.00     0.031 C 
ATOM     54  C   UNL A   1      38.176  34.059  29.591  1.00  0.00     0.029 A 
ATOM     55  C   UNL A   1      37.703  33.557  30.867  1.00  0.00     0.049 A 
ATOM     56  H   UNL A   1      38.869  33.057  32.535  1.00  0.00     0.167 HD
ATOM     57  C   UNL A   1      41.630  32.481  35.919  1.00  0.00     0.034 A 
ATOM     58  C   UNL A   1      36.435  33.233  31.237  1.00  0.00     0.034 A 
ATOM     59  C   UNL A   1      41.437  31.127  35.422  1.00  0.00     0.049 A 
ATOM     60  C   UNL A   1      36.570  32.193  32.280  1.00  0.00     0.074 A 
ATOM     61  C   UNL A   1      42.238  30.162  34.846  1.00  0.00     0.029 A 
ATOM     62  N   UNL A   1      40.138  30.793  35.101  1.00  0.00    -0.354 N 
ATOM     63  N   UNL A   1      37.077  31.013  32.044  1.00  0.00    -0.248 NA
ATOM     64  C   UNL A   1      36.573  32.595  33.678  1.00  0.00     0.031 C 
ATOM     65  C   UNL A   1      41.412  29.507  33.882  1.00  0.00     0.029 A 
ATOM     66  C   UNL A   1      40.118  30.031  33.959  1.00  0.00     0.049 A 
ATOM     67  H   UNL A   1      39.342  31.062  35.614  1.00  0.00     0.167 HD
ATOM     68  C   UNL A   1      37.851  30.728  33.157  1.00  0.00     0.074 A 
ATOM     69  C   UNL A   1      37.378  31.655  34.182  1.00  0.00     0.031 C 
ATOM     70  C   UNL A   1      38.985  29.974  33.044  1.00  0.00     0.034 A 
BRANCH  57  71
ATOM     71  C   UNL A   1      40.964  32.942  37.202  1.00  0.00     0.023 A 
ATOM     72  C   UNL A   1      39.684  32.415  37.468  1.00  0.00     0.031 A 
ATOM     73  C   UNL A   1      41.350  34.034  38.012  1.00  0.00     0.131 A 
ATOM     74  C   UNL A   1      38.821  33.031  38.388  1.00  0.00     0.055 A 
ATOM     75  C   UNL A   1      40.506  34.612  38.966  1.00  0.00     0.041 A 
ATOM     76  F   UNL A   1      42.522  34.662  37.887  1.00  0.00    -0.206 F 
ATOM     77  C   UNL A   1      39.221  34.133  39.135  1.00  0.00     0.022 A 
BRANCH  74  78
ATOM     78  S   UNL A   1      37.105  32.464  38.466  1.00  0.00     0.124 S 
ATOM     79  O   UNL A   1      36.739  32.822  39.831  1.00  0.00    -0.237 OA
ATOM     80  O   UNL A   1      36.483  33.247  37.403  1.00  0.00    -0.237 OA
ATOM     81  O   UNL A   1      37.211  31.031  38.202  1.00  0.00    -0.744 OA
ENDBRANCH  74  78
ENDBRANCH  57  71
BRANCH  58  82
ATOM     82  C   UNL A   1      35.180  33.993  30.985  1.00  0.00     0.023 A 
ATOM     83  C   UNL A   1      34.678  34.980  31.863  1.00  0.00     0.031 A 
ATOM     84  C   UNL A   1      34.597  33.931  29.700  1.00  0.00     0.131 A 
ATOM     85  C   UNL A   1      33.652  35.860  31.435  1.00  0.00     0.055 A 
ATOM     86  C   UNL A   1      33.592  34.806  29.281  1.00  0.00     0.041 A 
ATOM     87  F   UNL A   1      35.056  33.070  28.776  1.00  0.00    -0.206 F 
ATOM     88  C   UNL A   1      33.123  35.784  30.144  1.00  0.00     0.022 A 
BRANCH  85  89
ATOM     89  S   UNL A   1      33.038  37.185  32.532  1.00  0.00     0.124 S 
ATOM     90  O   UNL A   1      32.977  38.332  31.635  1.00  0.00    -0.237 OA
ATOM     91  O   UNL A   1      31.762  36.646  32.987  1.00  0.00    -0.237 OA
ATOM     92  O   UNL A   1      34.067  37.275  33.570  1.00  0.00    -0.744 OA
ENDBRANCH  85  89
ENDBRANCH  58  82
BRANCH  70  93
ATOM     93  C   UNL A   1      39.129  29.104  31.806  1.00  0.00     0.023 A 
ATOM     94  C   UNL A   1      39.828  29.450  30.625  1.00  0.00     0.031 A 
ATOM     95  C   UNL A   1      38.563  27.818  31.873  1.00  0.00     0.131 A 
ATOM     96  C   UNL A   1      39.930  28.519  29.568  1.00  0.00     0.055 A 
ATOM     97  C   UNL A   1      38.687  26.894  30.836  1.00  0.00     0.041 A 
ATOM     98  F   UNL A   1      37.897  27.425  32.970  1.00  0.00    -0.206 F 
ATOM     99  C   UNL A   1      39.365  27.243  29.677  1.00  0.00     0.022 A 
BRANCH  96 100
ATOM    100  S   UNL A   1      40.775  28.954  28.010  1.00  0.00     0.124 S 
ATOM    101  O   UNL A   1      39.719  29.552  27.203  1.00  0.00    -0.237 OA
ATOM    102  O   UNL A   1      41.825  29.863  28.462  1.00  0.00    -0.237 OA
ATOM    103  O   UNL A   1      41.263  27.664  27.515  1.00  0.00    -0.744 OA
ENDBRANCH  96 100
ENDBRANCH  70  93
ENDBRANCH  44  45
ENDBRANCH  36  39
ENDBRANCH  34  35
ENDBRANCH   1  34
TORSDOF 18
ENDMDL
