MODEL 1
REMARK VINA RESULT:     -12.1      0.000      0.000
REMARK SMILES C[NH2+][C@@]1(C(=O)NCCCNC(=O)c2ccc(-c3c4nc(c(-c5cc(S(=O)(=O)[O-])ccc5F)c5ccc([nH]5)c(-c5cc(S(=O)(=O)[O-])ccc5F)c5nc(c(-c6cc(S(=O)(=O)[O-])ccc6F)c6ccc3[nH]6)C=C5)C=C4)cc2)CCC[C@@H]([N@@H+](C)C2CC[NH+](C)CC2)C1
REMARK SMILES IDX 8 1 7 2 6 3 4 4 5 5 3 7 76 8 89 9 77 10 79 11 78 12 2 13
REMARK SMILES IDX 1 14 80 17 81 18 82 20 83 21 88 22 84 23 87 24 85 25 86 26
REMARK SMILES IDX 9 28 10 29 11 30 12 32 13 33 14 34 75 35 15 36 74 37 16 38
REMARK SMILES IDX 17 39 18 40 68 41 19 42 73 43 67 44 69 45 20 46 72 47 66 48
REMARK SMILES IDX 65 49 21 51 53 52 33 53 52 54 34 55 37 56 51 57 70 58 35 59
REMARK SMILES IDX 36 60 50 62 71 63 38 64 22 65 23 66 31 67 24 68 30 69 32 70
REMARK SMILES IDX 29 71 25 72 26 73 27 74 28 75 54 76 55 77 63 78 56 79 62 80
REMARK SMILES IDX 64 81 61 82 57 83 58 84 59 85 60 86 39 87 40 88 48 89 41 90
REMARK SMILES IDX 47 91 49 92 46 93 42 94 43 95 44 96 45 97
REMARK H PARENT 6 6 2 15 2 16 80 19 85 27 10 31 69 50 37 61
REMARK Flexibility Score: inf
ROOT
ATOM      1  C   UNL A   1      31.340  32.178  26.498  1.00  0.00     0.042 C 
ENDROOT
BRANCH   1   2
ATOM      2  C   UNL A   1      31.457  30.786  25.924  1.00  0.00     0.118 C 
BRANCH   2   3
ATOM      3  N   UNL A   1      32.132  29.868  26.793  1.00  0.00    -0.351 N 
ATOM      4  C   UNL A   1      32.650  28.647  26.526  1.00  0.00     0.281 C 
ATOM      5  O   UNL A   1      33.543  28.292  27.312  1.00  0.00    -0.268 OA
ATOM      6  H   UNL A   1      32.234  30.173  27.724  1.00  0.00     0.163 HD
BRANCH   4   7
ATOM      7  C   UNL A   1      32.224  27.726  25.295  1.00  0.00     0.181 C 
ATOM      8  C   UNL A   1      33.234  27.840  24.133  1.00  0.00     0.079 C 
ATOM      9  C   UNL A   1      30.751  27.859  24.859  1.00  0.00     0.144 C 
ATOM     10  C   UNL A   1      32.943  28.760  22.951  1.00  0.00     0.013 C 
ATOM     11  C   UNL A   1      30.394  28.682  23.602  1.00  0.00     0.190 C 
ATOM     12  C   UNL A   1      31.507  29.185  22.681  1.00  0.00     0.065 C 
BRANCH   7  13
ATOM     13  N   UNL A   1      32.470  26.303  25.794  1.00  0.00    -0.336 N 
ATOM     14  C   UNL A   1      33.558  25.575  25.140  1.00  0.00     0.331 C 
ATOM     15  H   UNL A   1      32.684  26.355  26.791  1.00  0.00     0.346 HD
ATOM     16  H   UNL A   1      31.620  25.784  25.578  1.00  0.00     0.346 HD
ENDBRANCH   7  13
BRANCH  11  17
ATOM     17  N   UNL A   1      29.135  28.272  22.929  1.00  0.00    -0.332 N 
ATOM     18  C   UNL A   1      28.552  27.072  23.555  1.00  0.00     0.333 C 
ATOM     19  H   UNL A   1      29.539  28.114  22.007  1.00  0.00     0.348 HD
BRANCH  17  20
ATOM     20  C   UNL A   1      28.073  29.227  22.510  1.00  0.00     0.195 C 
ATOM     21  C   UNL A   1      28.392  30.138  21.318  1.00  0.00     0.126 C 
ATOM     22  C   UNL A   1      27.309  30.050  23.568  1.00  0.00     0.126 C 
ATOM     23  C   UNL A   1      29.040  31.456  21.720  1.00  0.00     0.268 C 
ATOM     24  C   UNL A   1      27.870  31.445  23.853  1.00  0.00     0.268 C 
ATOM     25  N   UNL A   1      28.224  32.228  22.663  1.00  0.00    -0.337 N 
ATOM     26  C   UNL A   1      28.978  33.423  23.076  1.00  0.00     0.332 C 
ATOM     27  H   UNL A   1      27.358  32.489  22.193  1.00  0.00     0.347 HD
ENDBRANCH  17  20
ENDBRANCH  11  17
ENDBRANCH   4   7
ENDBRANCH   2   3
ENDBRANCH   1   2
BRANCH   1  28
ATOM     28  C   UNL A   1      32.630  32.620  27.144  1.00  0.00     0.118 C 
BRANCH  28  29
ATOM     29  N   UNL A   1      32.533  33.987  27.654  1.00  0.00    -0.352 N 
ATOM     30  C   UNL A   1      33.221  34.613  28.668  1.00  0.00     0.251 C 
ATOM     31  H   UNL A   1      31.869  34.552  27.197  1.00  0.00     0.163 HD
ATOM     32  O   UNL A   1      32.822  35.692  29.086  1.00  0.00    -0.269 OA
BRANCH  30  33
ATOM     33  C   UNL A   1      34.405  33.958  29.263  1.00  0.00     0.039 A 
ATOM     34  C   UNL A   1      35.682  34.448  28.983  1.00  0.00     0.014 A 
ATOM     35  C   UNL A   1      34.252  32.874  30.125  1.00  0.00     0.014 A 
ATOM     36  C   UNL A   1      36.786  33.890  29.628  1.00  0.00     0.010 A 
ATOM     37  C   UNL A   1      35.317  32.452  30.897  1.00  0.00     0.010 A 
ATOM     38  C   UNL A   1      36.607  32.919  30.626  1.00  0.00    -0.014 A 
BRANCH  38  39
ATOM     39  C   UNL A   1      37.747  32.312  31.357  1.00  0.00     0.031 A 
ATOM     40  C   UNL A   1      38.509  31.175  30.719  1.00  0.00     0.074 A 
ATOM     41  C   UNL A   1      38.043  32.724  32.605  1.00  0.00     0.049 A 
ATOM     42  N   UNL A   1      39.451  30.424  31.223  1.00  0.00    -0.248 NA
ATOM     43  C   UNL A   1      38.117  30.796  29.349  1.00  0.00     0.031 C 
ATOM     44  C   UNL A   1      37.335  33.775  33.342  1.00  0.00     0.029 A 
ATOM     45  N   UNL A   1      39.016  32.310  33.477  1.00  0.00    -0.354 N 
ATOM     46  C   UNL A   1      39.738  29.473  30.248  1.00  0.00     0.074 A 
ATOM     47  C   UNL A   1      38.804  29.681  29.167  1.00  0.00     0.031 C 
ATOM     48  C   UNL A   1      37.929  33.955  34.531  1.00  0.00     0.029 A 
ATOM     49  C   UNL A   1      39.019  32.996  34.669  1.00  0.00     0.049 A 
ATOM     50  H   UNL A   1      39.653  31.588  33.270  1.00  0.00     0.167 HD
ATOM     51  C   UNL A   1      40.719  28.540  30.235  1.00  0.00     0.034 A 
ATOM     52  C   UNL A   1      39.808  32.857  35.752  1.00  0.00     0.034 A 
ATOM     53  C   UNL A   1      41.666  28.381  31.308  1.00  0.00     0.049 A 
ATOM     54  C   UNL A   1      40.892  31.808  35.720  1.00  0.00     0.074 A 
ATOM     55  C   UNL A   1      42.744  27.517  31.384  1.00  0.00     0.029 A 
ATOM     56  N   UNL A   1      41.648  29.105  32.494  1.00  0.00    -0.354 N 
ATOM     57  N   UNL A   1      41.185  30.953  34.766  1.00  0.00    -0.248 NA
ATOM     58  C   UNL A   1      41.758  31.714  36.900  1.00  0.00     0.031 C 
ATOM     59  C   UNL A   1      43.331  27.666  32.645  1.00  0.00     0.029 A 
ATOM     60  C   UNL A   1      42.678  28.686  33.320  1.00  0.00     0.049 A 
ATOM     61  H   UNL A   1      40.999  29.811  32.713  1.00  0.00     0.167 HD
ATOM     62  C   UNL A   1      42.294  30.244  35.221  1.00  0.00     0.074 A 
ATOM     63  C   UNL A   1      42.623  30.785  36.525  1.00  0.00     0.031 C 
ATOM     64  C   UNL A   1      42.982  29.241  34.618  1.00  0.00     0.034 A 
BRANCH  51  65
ATOM     65  C   UNL A   1      40.800  27.626  29.033  1.00  0.00     0.023 A 
ATOM     66  C   UNL A   1      41.746  27.826  28.011  1.00  0.00     0.031 A 
ATOM     67  C   UNL A   1      39.896  26.559  28.889  1.00  0.00     0.131 A 
ATOM     68  C   UNL A   1      41.711  27.030  26.856  1.00  0.00     0.055 A 
ATOM     69  C   UNL A   1      39.929  25.711  27.780  1.00  0.00     0.041 A 
ATOM     70  F   UNL A   1      38.953  26.330  29.816  1.00  0.00    -0.206 F 
ATOM     71  C   UNL A   1      40.829  25.955  26.746  1.00  0.00     0.022 A 
BRANCH  68  72
ATOM     72  S   UNL A   1      42.728  27.523  25.436  1.00  0.00     0.124 S 
ATOM     73  O   UNL A   1      42.714  26.305  24.628  1.00  0.00    -0.237 OA
ATOM     74  O   UNL A   1      41.987  28.657  24.896  1.00  0.00    -0.237 OA
ATOM     75  O   UNL A   1      44.020  27.850  26.037  1.00  0.00    -0.744 OA
ENDBRANCH  68  72
ENDBRANCH  51  65
BRANCH  52  76
ATOM     76  C   UNL A   1      39.613  33.724  36.951  1.00  0.00     0.023 A 
ATOM     77  C   UNL A   1      38.973  33.233  38.101  1.00  0.00     0.031 A 
ATOM     78  C   UNL A   1      40.026  35.069  36.953  1.00  0.00     0.131 A 
ATOM     79  C   UNL A   1      38.715  34.093  39.180  1.00  0.00     0.055 A 
ATOM     80  C   UNL A   1      39.823  35.903  38.054  1.00  0.00     0.041 A 
ATOM     81  F   UNL A   1      40.649  35.589  35.884  1.00  0.00    -0.206 F 
ATOM     82  C   UNL A   1      39.148  35.420  39.170  1.00  0.00     0.022 A 
BRANCH  79  83
ATOM     83  S   UNL A   1      37.709  33.475  40.558  1.00  0.00     0.124 S 
ATOM     84  O   UNL A   1      37.495  34.690  41.336  1.00  0.00    -0.237 OA
ATOM     85  O   UNL A   1      36.542  32.942  39.865  1.00  0.00    -0.237 OA
ATOM     86  O   UNL A   1      38.570  32.474  41.185  1.00  0.00    -0.744 OA
ENDBRANCH  79  83
ENDBRANCH  52  76
BRANCH  64  87
ATOM     87  C   UNL A   1      44.193  28.708  35.342  1.00  0.00     0.023 A 
ATOM     88  C   UNL A   1      44.094  27.676  36.291  1.00  0.00     0.031 A 
ATOM     89  C   UNL A   1      45.467  29.241  35.073  1.00  0.00     0.131 A 
ATOM     90  C   UNL A   1      45.239  27.251  36.981  1.00  0.00     0.055 A 
ATOM     91  C   UNL A   1      46.611  28.766  35.710  1.00  0.00     0.041 A 
ATOM     92  F   UNL A   1      45.618  30.230  34.177  1.00  0.00    -0.206 F 
ATOM     93  C   UNL A   1      46.500  27.775  36.681  1.00  0.00     0.022 A 
BRANCH  90  94
ATOM     94  S   UNL A   1      45.043  26.078  38.348  1.00  0.00     0.124 S 
ATOM     95  O   UNL A   1      46.322  26.203  39.039  1.00  0.00    -0.237 OA
ATOM     96  O   UNL A   1      43.882  26.610  39.053  1.00  0.00    -0.237 OA
ATOM     97  O   UNL A   1      44.825  24.799  37.673  1.00  0.00    -0.744 OA
ENDBRANCH  90  94
ENDBRANCH  64  87
ENDBRANCH  38  39
ENDBRANCH  30  33
ENDBRANCH  28  29
ENDBRANCH   1  28
TORSDOF 16
ENDMDL
MODEL 2
REMARK VINA RESULT:     -11.8      1.521      3.590
REMARK SMILES C[NH2+][C@@]1(C(=O)NCCCNC(=O)c2ccc(-c3c4nc(c(-c5cc(S(=O)(=O)[O-])ccc5F)c5ccc([nH]5)c(-c5cc(S(=O)(=O)[O-])ccc5F)c5nc(c(-c6cc(S(=O)(=O)[O-])ccc6F)c6ccc3[nH]6)C=C5)C=C4)cc2)CCC[C@@H]([N@@H+](C)C2CC[NH+](C)CC2)C1
REMARK SMILES IDX 8 1 7 2 6 3 4 4 5 5 3 7 76 8 89 9 77 10 79 11 78 12 2 13
REMARK SMILES IDX 1 14 80 17 81 18 82 20 83 21 88 22 84 23 87 24 85 25 86 26
REMARK SMILES IDX 9 28 10 29 11 30 12 32 13 33 14 34 75 35 15 36 74 37 16 38
REMARK SMILES IDX 17 39 18 40 68 41 19 42 73 43 67 44 69 45 20 46 72 47 66 48
REMARK SMILES IDX 65 49 21 51 53 52 33 53 52 54 34 55 37 56 51 57 70 58 35 59
REMARK SMILES IDX 36 60 50 62 71 63 38 64 22 65 23 66 31 67 24 68 30 69 32 70
REMARK SMILES IDX 29 71 25 72 26 73 27 74 28 75 54 76 55 77 63 78 56 79 62 80
REMARK SMILES IDX 64 81 61 82 57 83 58 84 59 85 60 86 39 87 40 88 48 89 41 90
REMARK SMILES IDX 47 91 49 92 46 93 42 94 43 95 44 96 45 97
REMARK H PARENT 6 6 2 15 2 16 80 19 85 27 10 31 69 50 37 61
REMARK Flexibility Score: inf
ROOT
ATOM      1  C   UNL A   1      31.354  32.188  26.517  1.00  0.00     0.042 C 
ENDROOT
BRANCH   1   2
ATOM      2  C   UNL A   1      31.493  30.805  25.927  1.00  0.00     0.118 C 
BRANCH   2   3
ATOM      3  N   UNL A   1      32.267  29.916  26.741  1.00  0.00    -0.351 N 
ATOM      4  C   UNL A   1      33.087  28.903  26.377  1.00  0.00     0.281 C 
ATOM      5  O   UNL A   1      33.947  28.616  27.225  1.00  0.00    -0.268 OA
ATOM      6  H   UNL A   1      32.191  30.065  27.712  1.00  0.00     0.163 HD
BRANCH   4   7
ATOM      7  C   UNL A   1      33.031  28.144  24.975  1.00  0.00     0.181 C 
ATOM      8  C   UNL A   1      31.637  28.272  24.323  1.00  0.00     0.079 C 
ATOM      9  C   UNL A   1      33.585  26.705  24.989  1.00  0.00     0.144 C 
ATOM     10  C   UNL A   1      30.622  27.142  24.455  1.00  0.00     0.013 C 
ATOM     11  C   UNL A   1      32.611  25.507  25.005  1.00  0.00     0.190 C 
ATOM     12  C   UNL A   1      31.113  25.742  24.798  1.00  0.00     0.065 C 
BRANCH   7  13
ATOM     13  N   UNL A   1      33.895  29.002  24.053  1.00  0.00    -0.336 N 
ATOM     14  C   UNL A   1      34.012  28.537  22.671  1.00  0.00     0.331 C 
ATOM     15  H   UNL A   1      33.495  29.941  24.034  1.00  0.00     0.346 HD
ATOM     16  H   UNL A   1      34.838  28.960  24.440  1.00  0.00     0.346 HD
ENDBRANCH   7  13
BRANCH  11  17
ATOM     17  N   UNL A   1      33.155  24.256  24.419  1.00  0.00    -0.332 N 
ATOM     18  C   UNL A   1      34.159  24.539  23.378  1.00  0.00     0.333 C 
ATOM     19  H   UNL A   1      32.269  23.896  24.064  1.00  0.00     0.348 HD
BRANCH  17  20
ATOM     20  C   UNL A   1      33.536  23.064  25.223  1.00  0.00     0.195 C 
ATOM     21  C   UNL A   1      34.258  23.326  26.550  1.00  0.00     0.126 C 
ATOM     22  C   UNL A   1      34.189  21.845  24.539  1.00  0.00     0.126 C 
ATOM     23  C   UNL A   1      35.773  23.382  26.415  1.00  0.00     0.268 C 
ATOM     24  C   UNL A   1      35.720  21.824  24.548  1.00  0.00     0.268 C 
ATOM     25  N   UNL A   1      36.340  22.160  25.835  1.00  0.00    -0.337 N 
ATOM     26  C   UNL A   1      37.786  22.351  25.642  1.00  0.00     0.332 C 
ATOM     27  H   UNL A   1      36.158  21.390  26.479  1.00  0.00     0.347 HD
ENDBRANCH  17  20
ENDBRANCH  11  17
ENDBRANCH   4   7
ENDBRANCH   2   3
ENDBRANCH   1   2
BRANCH   1  28
ATOM     28  C   UNL A   1      32.649  32.663  27.126  1.00  0.00     0.118 C 
BRANCH  28  29
ATOM     29  N   UNL A   1      32.529  34.025  27.647  1.00  0.00    -0.352 N 
ATOM     30  C   UNL A   1      33.195  34.649  28.677  1.00  0.00     0.251 C 
ATOM     31  H   UNL A   1      31.865  34.585  27.186  1.00  0.00     0.163 HD
ATOM     32  O   UNL A   1      32.778  35.719  29.099  1.00  0.00    -0.269 OA
BRANCH  30  33
ATOM     33  C   UNL A   1      34.379  34.003  29.282  1.00  0.00     0.039 A 
ATOM     34  C   UNL A   1      35.653  34.518  29.034  1.00  0.00     0.014 A 
ATOM     35  C   UNL A   1      34.228  32.901  30.122  1.00  0.00     0.014 A 
ATOM     36  C   UNL A   1      36.754  33.966  29.689  1.00  0.00     0.010 A 
ATOM     37  C   UNL A   1      35.286  32.482  30.906  1.00  0.00     0.010 A 
ATOM     38  C   UNL A   1      36.573  32.974  30.667  1.00  0.00    -0.014 A 
BRANCH  38  39
ATOM     39  C   UNL A   1      37.708  32.372  31.408  1.00  0.00     0.031 A 
ATOM     40  C   UNL A   1      38.473  31.231  30.783  1.00  0.00     0.074 A 
ATOM     41  C   UNL A   1      37.999  32.795  32.654  1.00  0.00     0.049 A 
ATOM     42  N   UNL A   1      39.413  30.483  31.297  1.00  0.00    -0.248 NA
ATOM     43  C   UNL A   1      38.088  30.841  29.415  1.00  0.00     0.031 C 
ATOM     44  C   UNL A   1      37.288  33.851  33.379  1.00  0.00     0.029 A 
ATOM     45  N   UNL A   1      38.968  32.387  33.534  1.00  0.00    -0.354 N 
ATOM     46  C   UNL A   1      39.704  29.525  30.332  1.00  0.00     0.074 A 
ATOM     47  C   UNL A   1      38.775  29.724  29.244  1.00  0.00     0.031 C 
ATOM     48  C   UNL A   1      37.876  34.041  34.570  1.00  0.00     0.029 A 
ATOM     49  C   UNL A   1      38.965  33.082  34.721  1.00  0.00     0.049 A 
ATOM     50  H   UNL A   1      39.605  31.664  33.336  1.00  0.00     0.167 HD
ATOM     51  C   UNL A   1      40.685  28.591  30.330  1.00  0.00     0.034 A 
ATOM     52  C   UNL A   1      39.749  32.952  35.809  1.00  0.00     0.034 A 
ATOM     53  C   UNL A   1      41.626  28.440  31.409  1.00  0.00     0.049 A 
ATOM     54  C   UNL A   1      40.832  31.902  35.790  1.00  0.00     0.074 A 
ATOM     55  C   UNL A   1      42.703  27.577  31.498  1.00  0.00     0.029 A 
ATOM     56  N   UNL A   1      41.603  29.173  32.589  1.00  0.00    -0.354 N 
ATOM     57  N   UNL A   1      41.130  31.039  34.845  1.00  0.00    -0.248 NA
ATOM     58  C   UNL A   1      41.693  31.817  36.976  1.00  0.00     0.031 C 
ATOM     59  C   UNL A   1      43.284  27.735  32.760  1.00  0.00     0.029 A 
ATOM     60  C   UNL A   1      42.628  28.761  33.424  1.00  0.00     0.049 A 
ATOM     61  H   UNL A   1      40.953  29.882  32.800  1.00  0.00     0.167 HD
ATOM     62  C   UNL A   1      42.236  30.334  35.310  1.00  0.00     0.074 A 
ATOM     63  C   UNL A   1      42.559  30.885  36.611  1.00  0.00     0.031 C 
ATOM     64  C   UNL A   1      42.927  29.326  34.719  1.00  0.00     0.034 A 
BRANCH  51  65
ATOM     65  C   UNL A   1      40.771  27.667  29.137  1.00  0.00     0.023 A 
ATOM     66  C   UNL A   1      41.710  27.869  28.109  1.00  0.00     0.031 A 
ATOM     67  C   UNL A   1      39.879  26.589  29.005  1.00  0.00     0.131 A 
ATOM     68  C   UNL A   1      41.680  27.063  26.961  1.00  0.00     0.055 A 
ATOM     69  C   UNL A   1      39.916  25.732  27.903  1.00  0.00     0.041 A 
ATOM     70  F   UNL A   1      38.942  26.358  29.938  1.00  0.00    -0.206 F 
ATOM     71  C   UNL A   1      40.809  25.977  26.864  1.00  0.00     0.022 A 
BRANCH  68  72
ATOM     72  S   UNL A   1      42.685  27.555  25.533  1.00  0.00     0.124 S 
ATOM     73  O   UNL A   1      43.983  27.801  26.158  1.00  0.00    -0.237 OA
ATOM     74  O   UNL A   1      42.604  26.382  24.671  1.00  0.00    -0.237 OA
ATOM     75  O   UNL A   1      42.006  28.748  25.031  1.00  0.00    -0.744 OA
ENDBRANCH  68  72
ENDBRANCH  51  65
BRANCH  52  76
ATOM     76  C   UNL A   1      39.548  33.828  37.000  1.00  0.00     0.023 A 
ATOM     77  C   UNL A   1      38.936  33.337  38.164  1.00  0.00     0.031 A 
ATOM     78  C   UNL A   1      39.929  35.183  36.981  1.00  0.00     0.131 A 
ATOM     79  C   UNL A   1      38.670  34.202  39.236  1.00  0.00     0.055 A 
ATOM     80  C   UNL A   1      39.720  36.025  38.074  1.00  0.00     0.041 A 
ATOM     81  F   UNL A   1      40.525  35.705  35.898  1.00  0.00    -0.206 F 
ATOM     82  C   UNL A   1      39.072  35.539  39.205  1.00  0.00     0.022 A 
BRANCH  79  83
ATOM     83  S   UNL A   1      37.698  33.578  40.635  1.00  0.00     0.124 S 
ATOM     84  O   UNL A   1      37.304  34.815  41.297  1.00  0.00    -0.237 OA
ATOM     85  O   UNL A   1      36.634  32.843  39.959  1.00  0.00    -0.237 OA
ATOM     86  O   UNL A   1      38.654  32.751  41.370  1.00  0.00    -0.744 OA
ENDBRANCH  79  83
ENDBRANCH  52  76
BRANCH  64  87
ATOM     87  C   UNL A   1      44.134  28.798  35.453  1.00  0.00     0.023 A 
ATOM     88  C   UNL A   1      44.039  27.735  36.367  1.00  0.00     0.031 A 
ATOM     89  C   UNL A   1      45.400  29.368  35.229  1.00  0.00     0.131 A 
ATOM     90  C   UNL A   1      45.178  27.315  37.069  1.00  0.00     0.055 A 
ATOM     91  C   UNL A   1      46.541  28.899  35.877  1.00  0.00     0.041 A 
ATOM     92  F   UNL A   1      45.547  30.388  34.368  1.00  0.00    -0.206 F 
ATOM     93  C   UNL A   1      46.432  27.877  36.814  1.00  0.00     0.022 A 
BRANCH  90  94
ATOM     94  S   UNL A   1      44.981  26.094  38.394  1.00  0.00     0.124 S 
ATOM     95  O   UNL A   1      46.366  25.812  38.753  1.00  0.00    -0.237 OA
ATOM     96  O   UNL A   1      44.203  26.832  39.384  1.00  0.00    -0.237 OA
ATOM     97  O   UNL A   1      44.271  24.994  37.743  1.00  0.00    -0.744 OA
ENDBRANCH  90  94
ENDBRANCH  64  87
ENDBRANCH  38  39
ENDBRANCH  30  33
ENDBRANCH  28  29
ENDBRANCH   1  28
TORSDOF 16
ENDMDL
MODEL 3
REMARK VINA RESULT:     -11.7      5.961     11.772
REMARK SMILES C[NH2+][C@@]1(C(=O)NCCCNC(=O)c2ccc(-c3c4nc(c(-c5cc(S(=O)(=O)[O-])ccc5F)c5ccc([nH]5)c(-c5cc(S(=O)(=O)[O-])ccc5F)c5nc(c(-c6cc(S(=O)(=O)[O-])ccc6F)c6ccc3[nH]6)C=C5)C=C4)cc2)CCC[C@@H]([N@@H+](C)C2CC[NH+](C)CC2)C1
REMARK SMILES IDX 8 1 7 2 6 3 4 4 5 5 3 7 76 8 89 9 77 10 79 11 78 12 2 13
REMARK SMILES IDX 1 14 80 17 81 18 82 20 83 21 88 22 84 23 87 24 85 25 86 26
REMARK SMILES IDX 9 28 10 29 11 30 12 32 13 33 14 34 75 35 15 36 74 37 16 38
REMARK SMILES IDX 17 39 18 40 68 41 19 42 73 43 67 44 69 45 20 46 72 47 66 48
REMARK SMILES IDX 65 49 21 51 53 52 33 53 52 54 34 55 37 56 51 57 70 58 35 59
REMARK SMILES IDX 36 60 50 62 71 63 38 64 22 65 23 66 31 67 24 68 30 69 32 70
REMARK SMILES IDX 29 71 25 72 26 73 27 74 28 75 54 76 55 77 63 78 56 79 62 80
REMARK SMILES IDX 64 81 61 82 57 83 58 84 59 85 60 86 39 87 40 88 48 89 41 90
REMARK SMILES IDX 47 91 49 92 46 93 42 94 43 95 44 96 45 97
REMARK H PARENT 6 6 2 15 2 16 80 19 85 27 10 31 69 50 37 61
REMARK Flexibility Score: inf
ROOT
ATOM      1  C   UNL A   1      38.585  19.596  24.964  1.00  0.00     0.042 C 
ENDROOT
BRANCH   1   2
ATOM      2  C   UNL A   1      37.409  20.543  24.968  1.00  0.00     0.118 C 
BRANCH   2   3
ATOM      3  N   UNL A   1      37.793  21.924  24.993  1.00  0.00    -0.351 N 
ATOM      4  C   UNL A   1      37.094  23.007  25.402  1.00  0.00     0.281 C 
ATOM      5  O   UNL A   1      37.801  23.972  25.732  1.00  0.00    -0.268 OA
ATOM      6  H   UNL A   1      38.702  22.111  24.663  1.00  0.00     0.163 HD
BRANCH   4   7
ATOM      7  C   UNL A   1      35.504  23.077  25.516  1.00  0.00     0.181 C 
ATOM      8  C   UNL A   1      34.824  22.279  24.383  1.00  0.00     0.079 C 
ATOM      9  C   UNL A   1      34.925  24.492  25.720  1.00  0.00     0.144 C 
ATOM     10  C   UNL A   1      34.306  23.000  23.142  1.00  0.00     0.013 C 
ATOM     11  C   UNL A   1      34.281  25.236  24.531  1.00  0.00     0.190 C 
ATOM     12  C   UNL A   1      34.029  24.495  23.216  1.00  0.00     0.065 C 
BRANCH   7  13
ATOM     13  N   UNL A   1      35.183  22.226  26.744  1.00  0.00    -0.336 N 
ATOM     14  C   UNL A   1      33.844  21.637  26.780  1.00  0.00     0.331 C 
ATOM     15  H   UNL A   1      35.861  21.464  26.781  1.00  0.00     0.346 HD
ATOM     16  H   UNL A   1      35.228  22.861  27.540  1.00  0.00     0.346 HD
ENDBRANCH   7  13
BRANCH  11  17
ATOM     17  N   UNL A   1      33.257  26.242  24.910  1.00  0.00    -0.332 N 
ATOM     18  C   UNL A   1      32.668  25.946  26.228  1.00  0.00     0.333 C 
ATOM     19  H   UNL A   1      32.631  26.079  24.121  1.00  0.00     0.348 HD
BRANCH  17  20
ATOM     20  C   UNL A   1      33.426  27.708  24.716  1.00  0.00     0.195 C 
ATOM     21  C   UNL A   1      32.364  28.617  25.346  1.00  0.00     0.126 C 
ATOM     22  C   UNL A   1      33.794  28.269  23.326  1.00  0.00     0.126 C 
ATOM     23  C   UNL A   1      31.189  28.905  24.422  1.00  0.00     0.268 C 
ATOM     24  C   UNL A   1      32.613  28.711  22.459  1.00  0.00     0.268 C 
ATOM     25  N   UNL A   1      31.598  29.515  23.152  1.00  0.00    -0.337 N 
ATOM     26  C   UNL A   1      30.415  29.652  22.288  1.00  0.00     0.332 C 
ATOM     27  H   UNL A   1      32.007  30.426  23.355  1.00  0.00     0.347 HD
ENDBRANCH  17  20
ENDBRANCH  11  17
ENDBRANCH   4   7
ENDBRANCH   2   3
ENDBRANCH   1   2
BRANCH   1  28
ATOM     28  C   UNL A   1      39.537  19.891  26.097  1.00  0.00     0.118 C 
BRANCH  28  29
ATOM     29  N   UNL A   1      40.746  19.071  26.009  1.00  0.00    -0.352 N 
ATOM     30  C   UNL A   1      42.073  19.435  26.005  1.00  0.00     0.251 C 
ATOM     31  H   UNL A   1      40.583  18.103  25.943  1.00  0.00     0.163 HD
ATOM     32  O   UNL A   1      42.919  18.610  25.690  1.00  0.00    -0.269 OA
BRANCH  30  33
ATOM     33  C   UNL A   1      42.453  20.823  26.344  1.00  0.00     0.039 A 
ATOM     34  C   UNL A   1      42.722  21.163  27.671  1.00  0.00     0.014 A 
ATOM     35  C   UNL A   1      42.574  21.785  25.343  1.00  0.00     0.014 A 
ATOM     36  C   UNL A   1      43.179  22.448  27.969  1.00  0.00     0.010 A 
ATOM     37  C   UNL A   1      43.200  22.986  25.614  1.00  0.00     0.010 A 
ATOM     38  C   UNL A   1      43.467  23.355  26.936  1.00  0.00    -0.014 A 
BRANCH  38  39
ATOM     39  C   UNL A   1      43.977  24.723  27.199  1.00  0.00     0.031 A 
ATOM     40  C   UNL A   1      43.037  25.763  27.758  1.00  0.00     0.074 A 
ATOM     41  C   UNL A   1      45.243  25.044  26.870  1.00  0.00     0.049 A 
ATOM     42  N   UNL A   1      43.234  27.041  27.949  1.00  0.00    -0.248 NA
ATOM     43  C   UNL A   1      41.672  25.318  28.093  1.00  0.00     0.031 C 
ATOM     44  C   UNL A   1      46.221  24.134  26.269  1.00  0.00     0.029 A 
ATOM     45  N   UNL A   1      45.927  26.226  26.992  1.00  0.00    -0.354 N 
ATOM     46  C   UNL A   1      42.018  27.548  28.394  1.00  0.00     0.074 A 
ATOM     47  C   UNL A   1      41.065  26.464  28.350  1.00  0.00     0.031 C 
ATOM     48  C   UNL A   1      47.390  24.776  26.123  1.00  0.00     0.029 A 
ATOM     49  C   UNL A   1      47.231  26.159  26.560  1.00  0.00     0.049 A 
ATOM     50  H   UNL A   1      45.522  27.047  27.354  1.00  0.00     0.167 HD
ATOM     51  C   UNL A   1      41.730  28.794  28.841  1.00  0.00     0.034 A 
ATOM     52  C   UNL A   1      48.185  27.109  26.516  1.00  0.00     0.034 A 
ATOM     53  C   UNL A   1      42.709  29.847  28.916  1.00  0.00     0.049 A 
ATOM     54  C   UNL A   1      47.843  28.492  27.014  1.00  0.00     0.074 A 
ATOM     55  C   UNL A   1      42.557  31.130  29.410  1.00  0.00     0.029 A 
ATOM     56  N   UNL A   1      44.025  29.737  28.485  1.00  0.00    -0.354 N 
ATOM     57  N   UNL A   1      46.700  28.941  27.483  1.00  0.00    -0.248 NA
ATOM     58  C   UNL A   1      48.918  29.489  26.989  1.00  0.00     0.031 C 
ATOM     59  C   UNL A   1      43.758  31.817  29.208  1.00  0.00     0.029 A 
ATOM     60  C   UNL A   1      44.688  30.938  28.673  1.00  0.00     0.049 A 
ATOM     61  H   UNL A   1      44.427  28.924  28.102  1.00  0.00     0.167 HD
ATOM     62  C   UNL A   1      46.933  30.265  27.843  1.00  0.00     0.074 A 
ATOM     63  C   UNL A   1      48.328  30.533  27.550  1.00  0.00     0.031 C 
ATOM     64  C   UNL A   1      46.079  31.179  28.370  1.00  0.00     0.034 A 
BRANCH  51  65
ATOM     65  C   UNL A   1      40.306  29.074  29.267  1.00  0.00     0.023 A 
ATOM     66  C   UNL A   1      39.910  29.014  30.615  1.00  0.00     0.031 A 
ATOM     67  C   UNL A   1      39.322  29.370  28.307  1.00  0.00     0.131 A 
ATOM     68  C   UNL A   1      38.557  29.162  30.957  1.00  0.00     0.055 A 
ATOM     69  C   UNL A   1      37.994  29.609  28.665  1.00  0.00     0.041 A 
ATOM     70  F   UNL A   1      39.630  29.416  27.001  1.00  0.00    -0.206 F 
ATOM     71  C   UNL A   1      37.600  29.489  29.995  1.00  0.00     0.022 A 
BRANCH  68  72
ATOM     72  S   UNL A   1      38.045  28.762  32.651  1.00  0.00     0.124 S 
ATOM     73  O   UNL A   1      36.669  29.257  32.666  1.00  0.00    -0.237 OA
ATOM     74  O   UNL A   1      38.203  27.313  32.695  1.00  0.00    -0.237 OA
ATOM     75  O   UNL A   1      38.981  29.519  33.479  1.00  0.00    -0.744 OA
ENDBRANCH  68  72
ENDBRANCH  51  65
BRANCH  52  76
ATOM     76  C   UNL A   1      49.545  26.797  25.990  1.00  0.00     0.023 A 
ATOM     77  C   UNL A   1      49.952  27.249  24.724  1.00  0.00     0.031 A 
ATOM     78  C   UNL A   1      50.448  26.007  26.725  1.00  0.00     0.131 A 
ATOM     79  C   UNL A   1      51.199  26.864  24.209  1.00  0.00     0.055 A 
ATOM     80  C   UNL A   1      51.712  25.678  26.234  1.00  0.00     0.041 A 
ATOM     81  F   UNL A   1      50.116  25.552  27.944  1.00  0.00    -0.206 F 
ATOM     82  C   UNL A   1      52.088  26.094  24.961  1.00  0.00     0.022 A 
BRANCH  79  83
ATOM     83  S   UNL A   1      51.600  27.300  22.494  1.00  0.00     0.124 S 
ATOM     84  O   UNL A   1      52.833  26.551  22.279  1.00  0.00    -0.237 OA
ATOM     85  O   UNL A   1      50.424  26.819  21.777  1.00  0.00    -0.237 OA
ATOM     86  O   UNL A   1      51.749  28.753  22.539  1.00  0.00    -0.744 OA
ENDBRANCH  79  83
ENDBRANCH  52  76
BRANCH  64  87
ATOM     87  C   UNL A   1      46.648  32.532  28.716  1.00  0.00     0.023 A 
ATOM     88  C   UNL A   1      46.590  33.612  27.819  1.00  0.00     0.031 A 
ATOM     89  C   UNL A   1      47.254  32.742  29.968  1.00  0.00     0.131 A 
ATOM     90  C   UNL A   1      47.183  34.835  28.161  1.00  0.00     0.055 A 
ATOM     91  C   UNL A   1      47.779  33.981  30.331  1.00  0.00     0.041 A 
ATOM     92  F   UNL A   1      47.338  31.744  30.863  1.00  0.00    -0.206 F 
ATOM     93  C   UNL A   1      47.759  35.033  29.420  1.00  0.00     0.022 A 
BRANCH  90  94
ATOM     94  S   UNL A   1      47.284  36.134  26.902  1.00  0.00     0.124 S 
ATOM     95  O   UNL A   1      46.342  37.124  27.412  1.00  0.00    -0.237 OA
ATOM     96  O   UNL A   1      48.693  36.510  26.952  1.00  0.00    -0.237 OA
ATOM     97  O   UNL A   1      46.867  35.456  25.676  1.00  0.00    -0.744 OA
ENDBRANCH  90  94
ENDBRANCH  64  87
ENDBRANCH  38  39
ENDBRANCH  30  33
ENDBRANCH  28  29
ENDBRANCH   1  28
TORSDOF 16
ENDMDL
