MODEL 1
REMARK VINA RESULT:      -9.8      0.000      0.000
REMARK SMILES CCC(CC)([NH2+]Cc1ccc(I)cc1)C(=O)NCCCNC(=O)c1ccc(-c2c3nc(c(-c4cc(S(=O)(=O)[O-])ccc4F)c4ccc([nH]4)c(-c4cc(S(=O)(=O)[O-])ccc4F)c4nc(c(-c5cc(S(=O)(=O)[O-])ccc5F)c5ccc2[nH]5)C=C4)C=C3)cc1
REMARK SMILES IDX 19 1 18 2 17 3 15 4 16 5 3 7 2 8 1 9 4 10 5 11 6 12 7 15
REMARK SMILES IDX 8 16 9 17 14 18 10 19 13 20 11 21 12 22 20 23 21 24 22 25
REMARK SMILES IDX 23 27 24 28 25 29 86 30 26 31 85 32 27 33 28 34 29 35 79 36
REMARK SMILES IDX 30 37 84 38 78 39 80 40 31 41 83 42 77 43 76 44 32 46 64 47
REMARK SMILES IDX 44 48 63 49 45 50 48 51 62 52 81 53 46 54 47 55 61 57 82 58
REMARK SMILES IDX 49 59 33 60 34 61 42 62 35 63 41 64 43 65 40 66 36 67 37 68
REMARK SMILES IDX 38 69 39 70 65 71 66 72 74 73 67 74 73 75 75 76 72 77 68 78
REMARK SMILES IDX 69 79 70 80 71 81 50 82 51 83 59 84 52 85 58 86 60 87 57 88
REMARK SMILES IDX 53 89 54 90 55 91 56 92
REMARK H PARENT 17 6 6 13 6 14 21 26 80 45 48 56
REMARK Flexibility Score: inf
ROOT
ATOM      1  C   UNL A   1      33.475  35.075  28.722  1.00  0.00     0.042 C 
ENDROOT
BRANCH   1   2
ATOM      2  C   UNL A   1      33.648  35.373  30.213  1.00  0.00     0.118 C 
BRANCH   2   3
ATOM      3  N   UNL A   1      33.547  34.148  30.969  1.00  0.00    -0.351 N 
ATOM      4  C   UNL A   1      34.402  33.594  31.871  1.00  0.00     0.281 C 
ATOM      5  O   UNL A   1      34.370  32.355  31.879  1.00  0.00    -0.268 OA
ATOM      6  H   UNL A   1      32.726  33.629  30.807  1.00  0.00     0.163 HD
BRANCH   4   7
ATOM      7  C   UNL A   1      35.290  34.413  32.896  1.00  0.00     0.175 C 
BRANCH   7   8
ATOM      8  C   UNL A   1      35.827  33.303  33.899  1.00  0.00     0.076 C 
ATOM      9  C   UNL A   1      37.112  33.647  34.663  1.00  0.00     0.011 C 
ENDBRANCH   7   8
BRANCH   7  10
ATOM     10  C   UNL A   1      34.478  35.455  33.713  1.00  0.00     0.076 C 
ATOM     11  C   UNL A   1      34.350  36.845  33.077  1.00  0.00     0.011 C 
ENDBRANCH   7  10
BRANCH   7  12
ATOM     12  N   UNL A   1      36.559  34.934  32.298  1.00  0.00    -0.330 N 
ATOM     13  H   UNL A   1      37.263  34.841  33.029  1.00  0.00     0.347 HD
ATOM     14  H   UNL A   1      36.246  35.847  31.966  1.00  0.00     0.347 HD
BRANCH  12  15
ATOM     15  C   UNL A   1      37.186  34.413  31.083  1.00  0.00     0.298 C 
BRANCH  15  16
ATOM     16  C   UNL A   1      38.689  34.558  30.937  1.00  0.00     0.006 A 
ATOM     17  C   UNL A   1      39.499  34.634  32.081  1.00  0.00     0.010 A 
ATOM     18  C   UNL A   1      39.325  34.625  29.695  1.00  0.00     0.010 A 
ATOM     19  C   UNL A   1      40.888  34.508  31.999  1.00  0.00     0.015 A 
ATOM     20  C   UNL A   1      40.717  34.503  29.598  1.00  0.00     0.015 A 
ATOM     21  C   UNL A   1      41.489  34.392  30.752  1.00  0.00     0.013 A 
ATOM     22  I   UNL A   1      43.528  34.032  30.613  1.00  0.00    -0.044 I 
ENDBRANCH  15  16
ENDBRANCH  12  15
ENDBRANCH   7  12
ENDBRANCH   4   7
ENDBRANCH   2   3
ENDBRANCH   1   2
BRANCH   1  23
ATOM     23  C   UNL A   1      34.411  34.002  28.191  1.00  0.00     0.118 C 
BRANCH  23  24
ATOM     24  N   UNL A   1      33.674  32.830  27.742  1.00  0.00    -0.352 N 
ATOM     25  C   UNL A   1      34.041  31.513  27.611  1.00  0.00     0.251 C 
ATOM     26  H   UNL A   1      32.742  33.015  27.487  1.00  0.00     0.163 HD
ATOM     27  O   UNL A   1      33.310  30.781  26.940  1.00  0.00    -0.269 OA
BRANCH  25  28
ATOM     28  C   UNL A   1      35.272  30.958  28.229  1.00  0.00     0.039 A 
ATOM     29  C   UNL A   1      36.487  31.617  28.001  1.00  0.00     0.014 A 
ATOM     30  C   UNL A   1      35.278  29.767  28.956  1.00  0.00     0.014 A 
ATOM     31  C   UNL A   1      37.679  31.106  28.528  1.00  0.00     0.010 A 
ATOM     32  C   UNL A   1      36.444  29.323  29.579  1.00  0.00     0.010 A 
ATOM     33  C   UNL A   1      37.666  29.967  29.348  1.00  0.00    -0.014 A 
BRANCH  33  34
ATOM     34  C   UNL A   1      38.922  29.412  29.924  1.00  0.00     0.031 A 
ATOM     35  C   UNL A   1      39.482  29.975  31.208  1.00  0.00     0.074 A 
ATOM     36  C   UNL A   1      39.580  28.432  29.274  1.00  0.00     0.049 A 
ATOM     37  N   UNL A   1      40.584  29.661  31.841  1.00  0.00    -0.248 NA
ATOM     38  C   UNL A   1      38.721  31.062  31.842  1.00  0.00     0.031 C 
ATOM     39  C   UNL A   1      39.169  27.842  27.997  1.00  0.00     0.029 A 
ATOM     40  N   UNL A   1      40.731  27.756  29.593  1.00  0.00    -0.354 N 
ATOM     41  C   UNL A   1      40.657  30.524  32.931  1.00  0.00     0.074 A 
ATOM     42  C   UNL A   1      39.528  31.422  32.828  1.00  0.00     0.031 C 
ATOM     43  C   UNL A   1      40.031  26.867  27.665  1.00  0.00     0.029 A 
ATOM     44  C   UNL A   1      41.079  26.790  28.677  1.00  0.00     0.049 A 
ATOM     45  H   UNL A   1      41.259  27.945  30.402  1.00  0.00     0.167 HD
ATOM     46  C   UNL A   1      41.563  30.549  33.941  1.00  0.00     0.034 A 
ATOM     47  C   UNL A   1      42.124  25.939  28.654  1.00  0.00     0.034 A 
ATOM     48  C   UNL A   1      42.668  29.627  34.044  1.00  0.00     0.049 A 
ATOM     49  C   UNL A   1      43.110  25.974  29.792  1.00  0.00     0.074 A 
ATOM     50  C   UNL A   1      43.613  29.519  35.050  1.00  0.00     0.029 A 
ATOM     51  N   UNL A   1      42.977  28.651  33.104  1.00  0.00    -0.354 N 
ATOM     52  N   UNL A   1      43.133  26.762  30.843  1.00  0.00    -0.248 NA
ATOM     53  C   UNL A   1      44.201  24.993  29.751  1.00  0.00     0.031 C 
ATOM     54  C   UNL A   1      44.527  28.522  34.689  1.00  0.00     0.029 A 
ATOM     55  C   UNL A   1      44.111  27.954  33.495  1.00  0.00     0.049 A 
ATOM     56  H   UNL A   1      42.466  28.479  32.281  1.00  0.00     0.167 HD
ATOM     57  C   UNL A   1      44.225  26.349  31.602  1.00  0.00     0.074 A 
ATOM     58  C   UNL A   1      44.818  25.230  30.898  1.00  0.00     0.031 C 
ATOM     59  C   UNL A   1      44.696  26.848  32.774  1.00  0.00     0.034 A 
BRANCH  46  60
ATOM     60  C   UNL A   1      41.399  31.618  35.000  1.00  0.00     0.023 A 
ATOM     61  C   UNL A   1      40.438  31.507  36.021  1.00  0.00     0.031 A 
ATOM     62  C   UNL A   1      42.189  32.781  34.969  1.00  0.00     0.131 A 
ATOM     63  C   UNL A   1      40.232  32.571  36.912  1.00  0.00     0.055 A 
ATOM     64  C   UNL A   1      42.040  33.799  35.914  1.00  0.00     0.041 A 
ATOM     65  F   UNL A   1      43.111  32.957  34.009  1.00  0.00    -0.206 F 
ATOM     66  C   UNL A   1      41.045  33.706  36.883  1.00  0.00     0.022 A 
BRANCH  63  67
ATOM     67  S   UNL A   1      38.789  32.520  38.009  1.00  0.00     0.124 S 
ATOM     68  O   UNL A   1      38.216  33.850  37.801  1.00  0.00    -0.237 OA
ATOM     69  O   UNL A   1      38.018  31.404  37.462  1.00  0.00    -0.237 OA
ATOM     70  O   UNL A   1      39.362  32.296  39.327  1.00  0.00    -0.744 OA
ENDBRANCH  63  67
ENDBRANCH  46  60
BRANCH  47  71
ATOM     71  C   UNL A   1      42.292  24.977  27.526  1.00  0.00     0.023 A 
ATOM     72  C   UNL A   1      41.551  23.785  27.476  1.00  0.00     0.031 A 
ATOM     73  C   UNL A   1      43.220  25.219  26.498  1.00  0.00     0.131 A 
ATOM     74  C   UNL A   1      41.786  22.856  26.450  1.00  0.00     0.055 A 
ATOM     75  C   UNL A   1      43.412  24.316  25.450  1.00  0.00     0.041 A 
ATOM     76  F   UNL A   1      43.949  26.347  26.492  1.00  0.00    -0.206 F 
ATOM     77  C   UNL A   1      42.702  23.120  25.429  1.00  0.00     0.022 A 
BRANCH  74  78
ATOM     78  S   UNL A   1      40.935  21.255  26.516  1.00  0.00     0.124 S 
ATOM     79  O   UNL A   1      40.849  21.023  27.953  1.00  0.00    -0.237 OA
ATOM     80  O   UNL A   1      39.678  21.554  25.836  1.00  0.00    -0.237 OA
ATOM     81  O   UNL A   1      41.836  20.362  25.791  1.00  0.00    -0.744 OA
ENDBRANCH  74  78
ENDBRANCH  47  71
BRANCH  59  82
ATOM     82  C   UNL A   1      45.890  26.149  33.380  1.00  0.00     0.023 A 
ATOM     83  C   UNL A   1      45.742  25.037  34.226  1.00  0.00     0.031 A 
ATOM     84  C   UNL A   1      47.190  26.622  33.128  1.00  0.00     0.131 A 
ATOM     85  C   UNL A   1      46.869  24.478  34.847  1.00  0.00     0.055 A 
ATOM     86  C   UNL A   1      48.313  26.020  33.695  1.00  0.00     0.041 A 
ATOM     87  F   UNL A   1      47.390  27.681  32.328  1.00  0.00    -0.206 F 
ATOM     88  C   UNL A   1      48.155  24.951  34.574  1.00  0.00     0.022 A 
BRANCH  85  89
ATOM     89  S   UNL A   1      46.621  23.195  36.105  1.00  0.00     0.124 S 
ATOM     90  O   UNL A   1      47.003  23.892  37.328  1.00  0.00    -0.237 OA
ATOM     91  O   UNL A   1      45.201  22.890  35.963  1.00  0.00    -0.237 OA
ATOM     92  O   UNL A   1      47.529  22.127  35.690  1.00  0.00    -0.744 OA
ENDBRANCH  85  89
ENDBRANCH  59  82
ENDBRANCH  33  34
ENDBRANCH  25  28
ENDBRANCH  23  24
ENDBRANCH   1  23
TORSDOF 18
ENDMDL
MODEL 2
REMARK VINA RESULT:      -9.5      3.881      6.438
REMARK SMILES CCC(CC)([NH2+]Cc1ccc(I)cc1)C(=O)NCCCNC(=O)c1ccc(-c2c3nc(c(-c4cc(S(=O)(=O)[O-])ccc4F)c4ccc([nH]4)c(-c4cc(S(=O)(=O)[O-])ccc4F)c4nc(c(-c5cc(S(=O)(=O)[O-])ccc5F)c5ccc2[nH]5)C=C4)C=C3)cc1
REMARK SMILES IDX 19 1 18 2 17 3 15 4 16 5 3 7 2 8 1 9 4 10 5 11 6 12 7 15
REMARK SMILES IDX 8 16 9 17 14 18 10 19 13 20 11 21 12 22 20 23 21 24 22 25
REMARK SMILES IDX 23 27 24 28 25 29 86 30 26 31 85 32 27 33 28 34 29 35 79 36
REMARK SMILES IDX 30 37 84 38 78 39 80 40 31 41 83 42 77 43 76 44 32 46 64 47
REMARK SMILES IDX 44 48 63 49 45 50 48 51 62 52 81 53 46 54 47 55 61 57 82 58
REMARK SMILES IDX 49 59 33 60 34 61 42 62 35 63 41 64 43 65 40 66 36 67 37 68
REMARK SMILES IDX 38 69 39 70 65 71 66 72 74 73 67 74 73 75 75 76 72 77 68 78
REMARK SMILES IDX 69 79 70 80 71 81 50 82 51 83 59 84 52 85 58 86 60 87 57 88
REMARK SMILES IDX 53 89 54 90 55 91 56 92
REMARK H PARENT 17 6 6 13 6 14 21 26 80 45 48 56
REMARK Flexibility Score: inf
ROOT
ATOM      1  C   UNL A   1      32.446  28.788  27.093  1.00  0.00     0.042 C 
ENDROOT
BRANCH   1   2
ATOM      2  C   UNL A   1      31.554  27.928  26.196  1.00  0.00     0.118 C 
BRANCH   2   3
ATOM      3  N   UNL A   1      31.343  26.640  26.811  1.00  0.00    -0.351 N 
ATOM      4  C   UNL A   1      31.205  25.407  26.251  1.00  0.00     0.281 C 
ATOM      5  O   UNL A   1      30.468  24.653  26.903  1.00  0.00    -0.268 OA
ATOM      6  H   UNL A   1      31.293  26.654  27.794  1.00  0.00     0.163 HD
BRANCH   4   7
ATOM      7  C   UNL A   1      31.970  24.911  24.955  1.00  0.00     0.175 C 
BRANCH   7   8
ATOM      8  C   UNL A   1      31.736  23.338  24.960  1.00  0.00     0.076 C 
ATOM      9  C   UNL A   1      32.935  22.476  24.544  1.00  0.00     0.011 C 
ENDBRANCH   7   8
BRANCH   7  10
ATOM     10  C   UNL A   1      33.499  25.176  25.008  1.00  0.00     0.076 C 
ATOM     11  C   UNL A   1      34.009  26.308  24.108  1.00  0.00     0.011 C 
ENDBRANCH   7  10
BRANCH   7  12
ATOM     12  N   UNL A   1      31.304  25.322  23.680  1.00  0.00    -0.330 N 
ATOM     13  H   UNL A   1      31.464  24.554  23.030  1.00  0.00     0.347 HD
ATOM     14  H   UNL A   1      31.726  26.241  23.539  1.00  0.00     0.347 HD
BRANCH  12  15
ATOM     15  C   UNL A   1      29.887  25.660  23.548  1.00  0.00     0.298 C 
BRANCH  15  16
ATOM     16  C   UNL A   1      29.521  27.104  23.262  1.00  0.00     0.006 A 
ATOM     17  C   UNL A   1      30.505  28.000  22.813  1.00  0.00     0.010 A 
ATOM     18  C   UNL A   1      28.228  27.604  23.427  1.00  0.00     0.010 A 
ATOM     19  C   UNL A   1      30.167  29.253  22.296  1.00  0.00     0.015 A 
ATOM     20  C   UNL A   1      27.875  28.860  22.917  1.00  0.00     0.015 A 
ATOM     21  C   UNL A   1      28.839  29.658  22.305  1.00  0.00     0.013 A 
ATOM     22  I   UNL A   1      28.291  31.437  21.388  1.00  0.00    -0.044 I 
ENDBRANCH  15  16
ENDBRANCH  12  15
ENDBRANCH   7  12
ENDBRANCH   4   7
ENDBRANCH   2   3
ENDBRANCH   1   2
BRANCH   1  23
ATOM     23  C   UNL A   1      33.498  29.586  26.339  1.00  0.00     0.118 C 
BRANCH  23  24
ATOM     24  N   UNL A   1      33.548  30.966  26.800  1.00  0.00    -0.352 N 
ATOM     25  C   UNL A   1      34.357  31.598  27.712  1.00  0.00     0.251 C 
ATOM     26  H   UNL A   1      32.879  31.554  26.381  1.00  0.00     0.163 HD
ATOM     27  O   UNL A   1      34.001  32.703  28.123  1.00  0.00    -0.269 OA
BRANCH  25  28
ATOM     28  C   UNL A   1      35.618  30.995  28.218  1.00  0.00     0.039 A 
ATOM     29  C   UNL A   1      35.537  29.826  28.985  1.00  0.00     0.014 A 
ATOM     30  C   UNL A   1      36.865  31.590  28.028  1.00  0.00     0.014 A 
ATOM     31  C   UNL A   1      36.694  29.248  29.518  1.00  0.00     0.010 A 
ATOM     32  C   UNL A   1      38.028  30.951  28.457  1.00  0.00     0.010 A 
ATOM     33  C   UNL A   1      37.957  29.790  29.235  1.00  0.00    -0.014 A 
BRANCH  33  34
ATOM     34  C   UNL A   1      39.202  29.184  29.787  1.00  0.00     0.031 A 
ATOM     35  C   UNL A   1      39.818  29.737  31.050  1.00  0.00     0.074 A 
ATOM     36  C   UNL A   1      39.798  28.168  29.134  1.00  0.00     0.049 A 
ATOM     37  N   UNL A   1      40.921  29.380  31.660  1.00  0.00    -0.248 NA
ATOM     38  C   UNL A   1      39.124  30.865  31.688  1.00  0.00     0.031 C 
ATOM     39  C   UNL A   1      39.329  27.582  27.875  1.00  0.00     0.029 A 
ATOM     40  N   UNL A   1      40.925  27.445  29.433  1.00  0.00    -0.354 N 
ATOM     41  C   UNL A   1      41.060  30.252  32.736  1.00  0.00     0.074 A 
ATOM     42  C   UNL A   1      39.970  31.199  32.650  1.00  0.00     0.031 C 
ATOM     43  C   UNL A   1      40.137  26.566  27.535  1.00  0.00     0.029 A 
ATOM     44  C   UNL A   1      41.205  26.453  28.521  1.00  0.00     0.049 A 
ATOM     45  H   UNL A   1      41.481  27.618  30.226  1.00  0.00     0.167 HD
ATOM     46  C   UNL A   1      41.991  30.247  33.723  1.00  0.00     0.034 A 
ATOM     47  C   UNL A   1      42.210  25.555  28.483  1.00  0.00     0.034 A 
ATOM     48  C   UNL A   1      43.056  29.277  33.811  1.00  0.00     0.049 A 
ATOM     49  C   UNL A   1      43.225  25.558  29.597  1.00  0.00     0.074 A 
ATOM     50  C   UNL A   1      44.020  29.137  34.794  1.00  0.00     0.029 A 
ATOM     51  N   UNL A   1      43.296  28.277  32.877  1.00  0.00    -0.354 N 
ATOM     52  N   UNL A   1      43.310  26.357  30.637  1.00  0.00    -0.248 NA
ATOM     53  C   UNL A   1      44.269  24.528  29.541  1.00  0.00     0.031 C 
ATOM     54  C   UNL A   1      44.878  28.096  34.424  1.00  0.00     0.029 A 
ATOM     55  C   UNL A   1      44.407  27.533  33.248  1.00  0.00     0.049 A 
ATOM     56  H   UNL A   1      42.758  28.119  32.069  1.00  0.00     0.167 HD
ATOM     57  C   UNL A   1      44.401  25.904  31.373  1.00  0.00     0.074 A 
ATOM     58  C   UNL A   1      44.925  24.751  30.670  1.00  0.00     0.031 C 
ATOM     59  C   UNL A   1      44.924  26.394  32.527  1.00  0.00     0.034 A 
BRANCH  46  60
ATOM     60  C   UNL A   1      41.903  31.335  34.772  1.00  0.00     0.023 A 
ATOM     61  C   UNL A   1      40.869  31.361  35.725  1.00  0.00     0.031 A 
ATOM     62  C   UNL A   1      42.843  32.380  34.799  1.00  0.00     0.131 A 
ATOM     63  C   UNL A   1      40.749  32.448  36.604  1.00  0.00     0.055 A 
ATOM     64  C   UNL A   1      42.770  33.414  35.735  1.00  0.00     0.041 A 
ATOM     65  F   UNL A   1      43.844  32.423  33.905  1.00  0.00    -0.206 F 
ATOM     66  C   UNL A   1      41.708  33.463  36.634  1.00  0.00     0.022 A 
BRANCH  63  67
ATOM     67  S   UNL A   1      39.241  32.601  37.600  1.00  0.00     0.124 S 
ATOM     68  O   UNL A   1      38.530  31.372  37.244  1.00  0.00    -0.237 OA
ATOM     69  O   UNL A   1      39.769  32.656  38.962  1.00  0.00    -0.237 OA
ATOM     70  O   UNL A   1      38.629  33.829  37.117  1.00  0.00    -0.744 OA
ENDBRANCH  63  67
ENDBRANCH  46  60
BRANCH  47  71
ATOM     71  C   UNL A   1      42.306  24.573  27.364  1.00  0.00     0.023 A 
ATOM     72  C   UNL A   1      41.553  23.387  27.376  1.00  0.00     0.031 A 
ATOM     73  C   UNL A   1      43.178  24.789  26.282  1.00  0.00     0.131 A 
ATOM     74  C   UNL A   1      41.722  22.440  26.354  1.00  0.00     0.055 A 
ATOM     75  C   UNL A   1      43.302  23.868  25.240  1.00  0.00     0.041 A 
ATOM     76  F   UNL A   1      43.914  25.910  26.217  1.00  0.00    -0.206 F 
ATOM     77  C   UNL A   1      42.582  22.679  25.279  1.00  0.00     0.022 A 
BRANCH  74  78
ATOM     78  S   UNL A   1      40.862  20.849  26.494  1.00  0.00     0.124 S 
ATOM     79  O   UNL A   1      41.727  19.973  25.712  1.00  0.00    -0.237 OA
ATOM     80  O   UNL A   1      40.863  20.632  27.937  1.00  0.00    -0.237 OA
ATOM     81  O   UNL A   1      39.551  21.119  25.908  1.00  0.00    -0.744 OA
ENDBRANCH  74  78
ENDBRANCH  47  71
BRANCH  59  82
ATOM     82  C   UNL A   1      46.099  25.648  33.112  1.00  0.00     0.023 A 
ATOM     83  C   UNL A   1      45.922  24.532  33.949  1.00  0.00     0.031 A 
ATOM     84  C   UNL A   1      47.411  26.080  32.852  1.00  0.00     0.131 A 
ATOM     85  C   UNL A   1      47.037  23.929  34.551  1.00  0.00     0.055 A 
ATOM     86  C   UNL A   1      48.519  25.434  33.400  1.00  0.00     0.041 A 
ATOM     87  F   UNL A   1      47.639  27.140  32.061  1.00  0.00    -0.206 F 
ATOM     88  C   UNL A   1      48.335  24.362  34.269  1.00  0.00     0.022 A 
BRANCH  85  89
ATOM     89  S   UNL A   1      46.758  22.642  35.798  1.00  0.00     0.124 S 
ATOM     90  O   UNL A   1      48.105  22.425  36.316  1.00  0.00    -0.237 OA
ATOM     91  O   UNL A   1      45.821  23.289  36.710  1.00  0.00    -0.237 OA
ATOM     92  O   UNL A   1      46.204  21.530  35.026  1.00  0.00    -0.744 OA
ENDBRANCH  85  89
ENDBRANCH  59  82
ENDBRANCH  33  34
ENDBRANCH  25  28
ENDBRANCH  23  24
ENDBRANCH   1  23
TORSDOF 18
ENDMDL
MODEL 3
REMARK VINA RESULT:      -9.5      4.696     10.539
REMARK SMILES CCC(CC)([NH2+]Cc1ccc(I)cc1)C(=O)NCCCNC(=O)c1ccc(-c2c3nc(c(-c4cc(S(=O)(=O)[O-])ccc4F)c4ccc([nH]4)c(-c4cc(S(=O)(=O)[O-])ccc4F)c4nc(c(-c5cc(S(=O)(=O)[O-])ccc5F)c5ccc2[nH]5)C=C4)C=C3)cc1
REMARK SMILES IDX 19 1 18 2 17 3 15 4 16 5 3 7 2 8 1 9 4 10 5 11 6 12 7 15
REMARK SMILES IDX 8 16 9 17 14 18 10 19 13 20 11 21 12 22 20 23 21 24 22 25
REMARK SMILES IDX 23 27 24 28 25 29 86 30 26 31 85 32 27 33 28 34 29 35 79 36
REMARK SMILES IDX 30 37 84 38 78 39 80 40 31 41 83 42 77 43 76 44 32 46 64 47
REMARK SMILES IDX 44 48 63 49 45 50 48 51 62 52 81 53 46 54 47 55 61 57 82 58
REMARK SMILES IDX 49 59 33 60 34 61 42 62 35 63 41 64 43 65 40 66 36 67 37 68
REMARK SMILES IDX 38 69 39 70 65 71 66 72 74 73 67 74 73 75 75 76 72 77 68 78
REMARK SMILES IDX 69 79 70 80 71 81 50 82 51 83 59 84 52 85 58 86 60 87 57 88
REMARK SMILES IDX 53 89 54 90 55 91 56 92
REMARK H PARENT 17 6 6 13 6 14 21 26 80 45 48 56
REMARK Flexibility Score: inf
ROOT
ATOM      1  C   UNL A   1      32.902  29.089  23.671  1.00  0.00     0.042 C 
ENDROOT
BRANCH   1   2
ATOM      2  C   UNL A   1      33.980  28.293  22.931  1.00  0.00     0.118 C 
BRANCH   2   3
ATOM      3  N   UNL A   1      33.359  27.382  22.001  1.00  0.00    -0.351 N 
ATOM      4  C   UNL A   1      33.285  26.023  22.013  1.00  0.00     0.281 C 
ATOM      5  O   UNL A   1      33.258  25.524  20.879  1.00  0.00    -0.268 OA
ATOM      6  H   UNL A   1      32.917  27.812  21.234  1.00  0.00     0.163 HD
BRANCH   4   7
ATOM      7  C   UNL A   1      33.143  25.137  23.319  1.00  0.00     0.175 C 
BRANCH   7   8
ATOM      8  C   UNL A   1      31.869  25.746  24.050  1.00  0.00     0.076 C 
ATOM      9  C   UNL A   1      30.592  25.852  23.207  1.00  0.00     0.011 C 
ENDBRANCH   7   8
BRANCH   7  10
ATOM     10  C   UNL A   1      34.358  25.260  24.277  1.00  0.00     0.076 C 
ATOM     11  C   UNL A   1      34.021  25.539  25.747  1.00  0.00     0.011 C 
ENDBRANCH   7  10
BRANCH   7  12
ATOM     12  N   UNL A   1      32.702  23.735  23.040  1.00  0.00    -0.330 N 
ATOM     13  H   UNL A   1      33.476  23.300  22.540  1.00  0.00     0.347 HD
ATOM     14  H   UNL A   1      31.803  23.911  22.589  1.00  0.00     0.347 HD
BRANCH  12  15
ATOM     15  C   UNL A   1      32.301  22.766  24.060  1.00  0.00     0.298 C 
BRANCH  15  16
ATOM     16  C   UNL A   1      32.776  21.333  23.909  1.00  0.00     0.006 A 
ATOM     17  C   UNL A   1      33.890  20.885  24.637  1.00  0.00     0.010 A 
ATOM     18  C   UNL A   1      32.153  20.414  23.063  1.00  0.00     0.010 A 
ATOM     19  C   UNL A   1      34.202  19.527  24.728  1.00  0.00     0.015 A 
ATOM     20  C   UNL A   1      32.458  19.049  23.141  1.00  0.00     0.015 A 
ATOM     21  C   UNL A   1      33.448  18.606  24.014  1.00  0.00     0.013 A 
ATOM     22  I   UNL A   1      33.781  16.573  24.267  1.00  0.00    -0.044 I 
ENDBRANCH  15  16
ENDBRANCH  12  15
ENDBRANCH   7  12
ENDBRANCH   4   7
ENDBRANCH   2   3
ENDBRANCH   1   2
BRANCH   1  23
ATOM     23  C   UNL A   1      33.130  29.196  25.170  1.00  0.00     0.118 C 
BRANCH  23  24
ATOM     24  N   UNL A   1      32.668  30.476  25.686  1.00  0.00    -0.352 N 
ATOM     25  C   UNL A   1      33.023  31.195  26.802  1.00  0.00     0.251 C 
ATOM     26  H   UNL A   1      31.977  30.907  25.134  1.00  0.00     0.163 HD
ATOM     27  O   UNL A   1      32.276  32.110  27.153  1.00  0.00    -0.269 OA
BRANCH  25  28
ATOM     28  C   UNL A   1      34.247  30.901  27.589  1.00  0.00     0.039 A 
ATOM     29  C   UNL A   1      34.475  29.581  28.000  1.00  0.00     0.014 A 
ATOM     30  C   UNL A   1      35.133  31.897  28.003  1.00  0.00     0.014 A 
ATOM     31  C   UNL A   1      35.593  29.266  28.780  1.00  0.00     0.010 A 
ATOM     32  C   UNL A   1      36.308  31.565  28.678  1.00  0.00     0.010 A 
ATOM     33  C   UNL A   1      36.538  30.252  29.103  1.00  0.00    -0.014 A 
BRANCH  33  34
ATOM     34  C   UNL A   1      37.739  29.934  29.927  1.00  0.00     0.031 A 
ATOM     35  C   UNL A   1      38.823  29.041  29.373  1.00  0.00     0.074 A 
ATOM     36  C   UNL A   1      37.835  30.413  31.182  1.00  0.00     0.049 A 
ATOM     37  N   UNL A   1      39.918  28.611  29.949  1.00  0.00    -0.248 NA
ATOM     38  C   UNL A   1      38.632  28.535  28.006  1.00  0.00     0.031 C 
ATOM     39  C   UNL A   1      36.827  31.242  31.849  1.00  0.00     0.029 A 
ATOM     40  N   UNL A   1      38.824  30.277  32.123  1.00  0.00    -0.354 N 
ATOM     41  C   UNL A   1      40.530  27.769  29.024  1.00  0.00     0.074 A 
ATOM     42  C   UNL A   1      39.646  27.693  27.881  1.00  0.00     0.031 C 
ATOM     43  C   UNL A   1      37.269  31.573  33.073  1.00  0.00     0.029 A 
ATOM     44  C   UNL A   1      38.567  30.947  33.298  1.00  0.00     0.049 A 
ATOM     45  H   UNL A   1      39.641  29.750  31.973  1.00  0.00     0.167 HD
ATOM     46  C   UNL A   1      41.730  27.142  29.104  1.00  0.00     0.034 A 
ATOM     47  C   UNL A   1      39.294  31.045  34.429  1.00  0.00     0.034 A 
ATOM     48  C   UNL A   1      42.613  27.252  30.240  1.00  0.00     0.049 A 
ATOM     49  C   UNL A   1      40.630  30.351  34.491  1.00  0.00     0.074 A 
ATOM     50  C   UNL A   1      43.876  26.711  30.409  1.00  0.00     0.029 A 
ATOM     51  N   UNL A   1      42.325  27.954  31.404  1.00  0.00    -0.354 N 
ATOM     52  N   UNL A   1      41.217  29.603  33.585  1.00  0.00    -0.248 NA
ATOM     53  C   UNL A   1      41.409  30.530  35.722  1.00  0.00     0.031 C 
ATOM     54  C   UNL A   1      44.323  27.032  31.696  1.00  0.00     0.029 A 
ATOM     55  C   UNL A   1      43.374  27.838  32.304  1.00  0.00     0.049 A 
ATOM     56  H   UNL A   1      41.496  28.459  31.567  1.00  0.00     0.167 HD
ATOM     57  C   UNL A   1      42.449  29.248  34.128  1.00  0.00     0.074 A 
ATOM     58  C   UNL A   1      42.526  29.883  35.428  1.00  0.00     0.031 C 
ATOM     59  C   UNL A   1      43.428  28.468  33.602  1.00  0.00     0.034 A 
BRANCH  46  60
ATOM     60  C   UNL A   1      42.142  26.271  27.937  1.00  0.00     0.023 A 
ATOM     61  C   UNL A   1      41.685  24.947  27.805  1.00  0.00     0.031 A 
ATOM     62  C   UNL A   1      43.031  26.755  26.961  1.00  0.00     0.131 A 
ATOM     63  C   UNL A   1      42.182  24.130  26.778  1.00  0.00     0.055 A 
ATOM     64  C   UNL A   1      43.453  25.965  25.890  1.00  0.00     0.041 A 
ATOM     65  F   UNL A   1      43.518  28.004  27.040  1.00  0.00    -0.206 F 
ATOM     66  C   UNL A   1      43.043  24.638  25.803  1.00  0.00     0.022 A 
BRANCH  63  67
ATOM     67  S   UNL A   1      41.812  22.355  26.822  1.00  0.00     0.124 S 
ATOM     68  O   UNL A   1      42.868  21.857  27.705  1.00  0.00    -0.237 OA
ATOM     69  O   UNL A   1      40.458  22.330  27.375  1.00  0.00    -0.237 OA
ATOM     70  O   UNL A   1      41.927  21.942  25.432  1.00  0.00    -0.744 OA
ENDBRANCH  63  67
ENDBRANCH  46  60
BRANCH  47  71
ATOM     71  C   UNL A   1      38.785  31.832  35.590  1.00  0.00     0.023 A 
ATOM     72  C   UNL A   1      38.208  31.193  36.699  1.00  0.00     0.031 A 
ATOM     73  C   UNL A   1      38.836  33.237  35.592  1.00  0.00     0.131 A 
ATOM     74  C   UNL A   1      37.661  31.958  37.742  1.00  0.00     0.055 A 
ATOM     75  C   UNL A   1      38.339  33.992  36.656  1.00  0.00     0.041 A 
ATOM     76  F   UNL A   1      39.385  33.898  34.560  1.00  0.00    -0.206 F 
ATOM     77  C   UNL A   1      37.734  33.352  37.733  1.00  0.00     0.022 A 
BRANCH  74  78
ATOM     78  S   UNL A   1      36.773  31.102  39.072  1.00  0.00     0.124 S 
ATOM     79  O   UNL A   1      36.594  29.772  38.503  1.00  0.00    -0.237 OA
ATOM     80  O   UNL A   1      37.718  31.205  40.180  1.00  0.00    -0.237 OA
ATOM     81  O   UNL A   1      35.551  31.888  39.225  1.00  0.00    -0.744 OA
ENDBRANCH  74  78
ENDBRANCH  47  71
BRANCH  59  82
ATOM     82  C   UNL A   1      44.682  28.302  34.427  1.00  0.00     0.023 A 
ATOM     83  C   UNL A   1      44.833  27.240  35.335  1.00  0.00     0.031 A 
ATOM     84  C   UNL A   1      45.727  29.238  34.322  1.00  0.00     0.131 A 
ATOM     85  C   UNL A   1      45.972  27.178  36.153  1.00  0.00     0.055 A 
ATOM     86  C   UNL A   1      46.887  29.133  35.090  1.00  0.00     0.041 A 
ATOM     87  F   UNL A   1      45.637  30.272  33.471  1.00  0.00    -0.206 F 
ATOM     88  C   UNL A   1      47.007  28.108  36.025  1.00  0.00     0.022 A 
BRANCH  85  89
ATOM     89  S   UNL A   1      46.029  25.930  37.468  1.00  0.00     0.124 S 
ATOM     90  O   UNL A   1      44.807  25.172  37.220  1.00  0.00    -0.237 OA
ATOM     91  O   UNL A   1      47.279  25.234  37.182  1.00  0.00    -0.237 OA
ATOM     92  O   UNL A   1      46.028  26.725  38.695  1.00  0.00    -0.744 OA
ENDBRANCH  85  89
ENDBRANCH  59  82
ENDBRANCH  33  34
ENDBRANCH  25  28
ENDBRANCH  23  24
ENDBRANCH   1  23
TORSDOF 18
ENDMDL
