MODEL 1
REMARK VINA RESULT:     -14.0      0.000      0.000
REMARK SMILES COc1ccc2[nH]cc([C@H](C(=O)NCCCNC(=O)c3ccc(-c4c5nc(c(-c6cc(S(=O)(=O)[O-])ccc6F)c6ccc([nH]6)c(-c6cc(S(=O)(=O)[O-])ccc6F)c6nc(c(-c7cc(S(=O)(=O)[O-])ccc7F)c7ccc4[nH]7)C=C6)C=C5)cc3)[NH+]3CC[NH+](Cc4cccc5ccccc45)CC3)c2c1
REMARK SMILES IDX 15 1 14 2 13 3 11 4 12 5 10 7 9 8 3 9 4 10 101 11 5 12
REMARK SMILES IDX 100 13 6 14 7 15 8 16 2 18 1 19 83 20 84 21 99 22 85 24
REMARK SMILES IDX 98 25 86 26 87 28 88 29 89 30 97 31 90 32 92 33 96 34 91 35
REMARK SMILES IDX 93 36 95 37 94 38 16 39 17 40 18 41 19 43 20 44 21 45 82 46
REMARK SMILES IDX 22 47 81 48 23 49 24 50 25 51 75 52 26 53 80 54 74 55 76 56
REMARK SMILES IDX 27 57 79 58 73 59 72 60 28 62 60 63 40 64 59 65 41 66 44 67
REMARK SMILES IDX 58 68 77 69 42 70 43 71 57 73 78 74 45 75 29 76 30 77 38 78
REMARK SMILES IDX 31 79 37 80 39 81 36 82 32 83 33 84 34 85 35 86 61 87 62 88
REMARK SMILES IDX 70 89 63 90 69 91 71 92 68 93 64 94 65 95 66 96 67 97 46 98
REMARK SMILES IDX 47 99 55 100 48 101 54 102 56 103 53 104 49 105 50 106
REMARK SMILES IDX 51 107 52 108
REMARK H PARENT 13 6 7 17 83 23 86 27 17 42 76 61 44 72
REMARK Flexibility Score: inf
ROOT
ATOM      1  C   UNL A   1      31.420  31.362  26.528  1.00  0.00     0.042 C 
ENDROOT
BRANCH   1   2
ATOM      2  C   UNL A   1      31.762  30.050  27.241  1.00  0.00     0.118 C 
BRANCH   2   3
ATOM      3  N   UNL A   1      32.625  29.038  26.551  1.00  0.00    -0.351 N 
ATOM      4  C   UNL A   1      32.586  28.662  25.181  1.00  0.00     0.283 C 
ATOM      5  O   UNL A   1      33.282  29.367  24.432  1.00  0.00    -0.268 OA
ATOM      6  H   UNL A   1      33.295  28.581  27.109  1.00  0.00     0.163 HD
BRANCH   4   7
ATOM      7  C   UNL A   1      31.892  27.253  24.539  1.00  0.00     0.308 C 
BRANCH   7   8
ATOM      8  C   UNL A   1      30.378  27.367  24.264  1.00  0.00     0.045 A 
ATOM      9  C   UNL A   1      28.811  30.536  22.742  1.00  0.00     0.119 A 
ATOM     10  C   UNL A   1      27.550  30.013  22.516  1.00  0.00     0.048 A 
ATOM     11  C   UNL A   1      29.809  29.782  23.361  1.00  0.00     0.057 A 
ATOM     12  C   UNL A   1      27.253  28.711  22.922  1.00  0.00     0.030 A 
ATOM     13  C   UNL A   1      29.575  28.444  23.731  1.00  0.00     0.013 A 
ATOM     14  C   UNL A   1      28.281  27.953  23.511  1.00  0.00     0.046 A 
ATOM     15  N   UNL A   1      28.264  26.651  23.939  1.00  0.00    -0.361 N 
ATOM     16  C   UNL A   1      29.493  26.300  24.417  1.00  0.00     0.094 A 
ATOM     17  H   UNL A   1      27.481  26.057  23.905  1.00  0.00     0.166 HD
BRANCH   9  18
ATOM     18  O   UNL A   1      29.152  31.773  22.262  1.00  0.00    -0.497 OA
ATOM     19  C   UNL A   1      28.100  32.306  21.464  1.00  0.00     0.278 C 
ENDBRANCH   9  18
ENDBRANCH   7   8
BRANCH   7  20
ATOM     20  N   UNL A   1      32.456  26.764  23.271  1.00  0.00    -0.312 N 
ATOM     21  C   UNL A   1      32.931  25.457  23.436  1.00  0.00     0.325 C 
ATOM     22  C   UNL A   1      32.025  26.868  21.862  1.00  0.00     0.325 C 
ATOM     23  H   UNL A   1      33.001  27.624  23.228  1.00  0.00     0.349 HD
ATOM     24  C   UNL A   1      31.858  24.486  22.923  1.00  0.00     0.324 C 
ATOM     25  C   UNL A   1      32.366  25.482  20.918  1.00  0.00     0.324 C 
ATOM     26  N   UNL A   1      32.402  24.158  21.626  1.00  0.00    -0.322 N 
ATOM     27  H   UNL A   1      31.933  23.532  20.970  1.00  0.00     0.348 HD
BRANCH  26  28
ATOM     28  C   UNL A   1      33.667  23.322  21.877  1.00  0.00     0.300 C 
BRANCH  28  29
ATOM     29  C   UNL A   1      34.007  22.470  23.139  1.00  0.00     0.014 A 
ATOM     30  C   UNL A   1      33.017  21.521  23.430  1.00  0.00     0.010 A 
ATOM     31  C   UNL A   1      35.126  22.569  24.104  1.00  0.00    -0.010 A 
ATOM     32  C   UNL A   1      33.190  20.584  24.436  1.00  0.00     0.001 A 
ATOM     33  C   UNL A   1      35.385  21.464  24.944  1.00  0.00    -0.018 A 
ATOM     34  C   UNL A   1      36.027  23.646  24.374  1.00  0.00     0.009 A 
ATOM     35  C   UNL A   1      34.403  20.493  25.104  1.00  0.00     0.009 A 
ATOM     36  C   UNL A   1      36.590  21.337  25.679  1.00  0.00     0.009 A 
ATOM     37  C   UNL A   1      37.196  23.565  25.159  1.00  0.00     0.001 A 
ATOM     38  C   UNL A   1      37.513  22.370  25.763  1.00  0.00     0.001 A 
ENDBRANCH  28  29
ENDBRANCH  26  28
ENDBRANCH   7  20
ENDBRANCH   4   7
ENDBRANCH   2   3
ENDBRANCH   1   2
BRANCH   1  39
ATOM     39  C   UNL A   1      32.562  32.399  26.549  1.00  0.00     0.118 C 
BRANCH  39  40
ATOM     40  N   UNL A   1      32.399  33.562  27.435  1.00  0.00    -0.352 N 
ATOM     41  C   UNL A   1      33.145  34.162  28.436  1.00  0.00     0.251 C 
ATOM     42  H   UNL A   1      31.547  34.029  27.278  1.00  0.00     0.163 HD
ATOM     43  O   UNL A   1      32.706  35.220  28.892  1.00  0.00    -0.269 OA
BRANCH  41  44
ATOM     44  C   UNL A   1      34.388  33.594  29.035  1.00  0.00     0.039 A 
ATOM     45  C   UNL A   1      35.616  34.256  28.844  1.00  0.00     0.014 A 
ATOM     46  C   UNL A   1      34.399  32.426  29.777  1.00  0.00     0.014 A 
ATOM     47  C   UNL A   1      36.793  33.788  29.461  1.00  0.00     0.010 A 
ATOM     48  C   UNL A   1      35.512  32.069  30.530  1.00  0.00     0.010 A 
ATOM     49  C   UNL A   1      36.741  32.717  30.363  1.00  0.00    -0.014 A 
BRANCH  49  50
ATOM     50  C   UNL A   1      37.926  32.187  31.103  1.00  0.00     0.031 A 
ATOM     51  C   UNL A   1      38.746  31.070  30.491  1.00  0.00     0.074 A 
ATOM     52  C   UNL A   1      38.194  32.601  32.358  1.00  0.00     0.049 A 
ATOM     53  N   UNL A   1      39.647  30.295  31.041  1.00  0.00    -0.248 NA
ATOM     54  C   UNL A   1      38.455  30.732  29.088  1.00  0.00     0.031 C 
ATOM     55  C   UNL A   1      37.453  33.628  33.092  1.00  0.00     0.029 A 
ATOM     56  N   UNL A   1      39.155  32.192  33.252  1.00  0.00    -0.354 N 
ATOM     57  C   UNL A   1      39.976  29.348  30.073  1.00  0.00     0.074 A 
ATOM     58  C   UNL A   1      39.112  29.593  28.940  1.00  0.00     0.031 C 
ATOM     59  C   UNL A   1      38.010  33.799  34.302  1.00  0.00     0.029 A 
ATOM     60  C   UNL A   1      39.105  32.848  34.462  1.00  0.00     0.049 A 
ATOM     61  H   UNL A   1      39.819  31.496  33.045  1.00  0.00     0.167 HD
ATOM     62  C   UNL A   1      40.933  28.386  30.106  1.00  0.00     0.034 A 
ATOM     63  C   UNL A   1      39.842  32.688  35.580  1.00  0.00     0.034 A 
ATOM     64  C   UNL A   1      41.831  28.204  31.219  1.00  0.00     0.049 A 
ATOM     65  C   UNL A   1      40.922  31.635  35.589  1.00  0.00     0.074 A 
ATOM     66  C   UNL A   1      42.895  27.328  31.337  1.00  0.00     0.029 A 
ATOM     67  N   UNL A   1      41.776  28.923  32.408  1.00  0.00    -0.354 N 
ATOM     68  N   UNL A   1      41.249  30.775  34.649  1.00  0.00    -0.248 NA
ATOM     69  C   UNL A   1      41.740  31.536  36.804  1.00  0.00     0.031 C 
ATOM     70  C   UNL A   1      43.439  27.469  32.618  1.00  0.00     0.029 A 
ATOM     71  C   UNL A   1      42.771  28.492  33.271  1.00  0.00     0.049 A 
ATOM     72  H   UNL A   1      41.125  29.634  32.607  1.00  0.00     0.167 HD
ATOM     73  C   UNL A   1      42.331  30.057  35.152  1.00  0.00     0.074 A 
ATOM     74  C   UNL A   1      42.613  30.600  36.465  1.00  0.00     0.031 C 
ATOM     75  C   UNL A   1      43.031  29.043  34.580  1.00  0.00     0.034 A 
BRANCH  62  76
ATOM     76  C   UNL A   1      41.048  27.464  28.910  1.00  0.00     0.023 A 
ATOM     77  C   UNL A   1      42.077  27.603  27.960  1.00  0.00     0.031 A 
ATOM     78  C   UNL A   1      40.094  26.452  28.691  1.00  0.00     0.131 A 
ATOM     79  C   UNL A   1      42.070  26.821  26.794  1.00  0.00     0.055 A 
ATOM     80  C   UNL A   1      40.152  25.610  27.578  1.00  0.00     0.041 A 
ATOM     81  F   UNL A   1      39.075  26.275  29.547  1.00  0.00    -0.206 F 
ATOM     82  C   UNL A   1      41.132  25.805  26.611  1.00  0.00     0.022 A 
BRANCH  79  83
ATOM     83  S   UNL A   1      43.207  27.271  25.453  1.00  0.00     0.124 S 
ATOM     84  O   UNL A   1      44.234  28.023  26.181  1.00  0.00    -0.237 OA
ATOM     85  O   UNL A   1      43.608  25.986  24.926  1.00  0.00    -0.237 OA
ATOM     86  O   UNL A   1      42.373  28.089  24.562  1.00  0.00    -0.744 OA
ENDBRANCH  79  83
ENDBRANCH  62  76
BRANCH  63  87
ATOM     87  C   UNL A   1      39.599  33.544  36.779  1.00  0.00     0.023 A 
ATOM     88  C   UNL A   1      38.962  33.025  37.917  1.00  0.00     0.031 A 
ATOM     89  C   UNL A   1      39.972  34.900  36.797  1.00  0.00     0.131 A 
ATOM     90  C   UNL A   1      38.675  33.863  39.006  1.00  0.00     0.055 A 
ATOM     91  C   UNL A   1      39.738  35.716  37.906  1.00  0.00     0.041 A 
ATOM     92  F   UNL A   1      40.588  35.450  35.738  1.00  0.00    -0.206 F 
ATOM     93  C   UNL A   1      39.074  35.201  39.015  1.00  0.00     0.022 A 
BRANCH  90  94
ATOM     94  S   UNL A   1      37.692  33.199  40.379  1.00  0.00     0.124 S 
ATOM     95  O   UNL A   1      37.632  34.344  41.282  1.00  0.00    -0.237 OA
ATOM     96  O   UNL A   1      36.444  32.842  39.713  1.00  0.00    -0.237 OA
ATOM     97  O   UNL A   1      38.489  32.070  40.853  1.00  0.00    -0.744 OA
ENDBRANCH  90  94
ENDBRANCH  63  87
BRANCH  75  98
ATOM     98  C   UNL A   1      44.202  28.494  35.360  1.00  0.00     0.023 A 
ATOM     99  C   UNL A   1      44.052  27.439  36.275  1.00  0.00     0.031 A 
ATOM    100  C   UNL A   1      45.483  29.049  35.193  1.00  0.00     0.131 A 
ATOM    101  C   UNL A   1      45.150  27.015  37.038  1.00  0.00     0.055 A 
ATOM    102  C   UNL A   1      46.587  28.573  35.901  1.00  0.00     0.041 A 
ATOM    103  F   UNL A   1      45.686  30.061  34.334  1.00  0.00    -0.206 F 
ATOM    104  C   UNL A   1      46.420  27.561  36.841  1.00  0.00     0.022 A 
BRANCH 101 105
ATOM    105  S   UNL A   1      44.871  25.816  38.369  1.00  0.00     0.124 S 
ATOM    106  O   UNL A   1      44.172  24.743  37.668  1.00  0.00    -0.237 OA
ATOM    107  O   UNL A   1      46.229  25.514  38.807  1.00  0.00    -0.237 OA
ATOM    108  O   UNL A   1      44.060  26.558  39.333  1.00  0.00    -0.744 OA
ENDBRANCH 101 105
ENDBRANCH  75  98
ENDBRANCH  49  50
ENDBRANCH  41  44
ENDBRANCH  39  40
ENDBRANCH   1  39
TORSDOF 18
ENDMDL
MODEL 2
REMARK VINA RESULT:     -13.4      5.345      9.468
REMARK SMILES COc1ccc2[nH]cc([C@H](C(=O)NCCCNC(=O)c3ccc(-c4c5nc(c(-c6cc(S(=O)(=O)[O-])ccc6F)c6ccc([nH]6)c(-c6cc(S(=O)(=O)[O-])ccc6F)c6nc(c(-c7cc(S(=O)(=O)[O-])ccc7F)c7ccc4[nH]7)C=C6)C=C5)cc3)[NH+]3CC[NH+](Cc4cccc5ccccc45)CC3)c2c1
REMARK SMILES IDX 15 1 14 2 13 3 11 4 12 5 10 7 9 8 3 9 4 10 101 11 5 12
REMARK SMILES IDX 100 13 6 14 7 15 8 16 2 18 1 19 83 20 84 21 99 22 85 24
REMARK SMILES IDX 98 25 86 26 87 28 88 29 89 30 97 31 90 32 92 33 96 34 91 35
REMARK SMILES IDX 93 36 95 37 94 38 16 39 17 40 18 41 19 43 20 44 21 45 82 46
REMARK SMILES IDX 22 47 81 48 23 49 24 50 25 51 75 52 26 53 80 54 74 55 76 56
REMARK SMILES IDX 27 57 79 58 73 59 72 60 28 62 60 63 40 64 59 65 41 66 44 67
REMARK SMILES IDX 58 68 77 69 42 70 43 71 57 73 78 74 45 75 29 76 30 77 38 78
REMARK SMILES IDX 31 79 37 80 39 81 36 82 32 83 33 84 34 85 35 86 61 87 62 88
REMARK SMILES IDX 70 89 63 90 69 91 71 92 68 93 64 94 65 95 66 96 67 97 46 98
REMARK SMILES IDX 47 99 55 100 48 101 54 102 56 103 53 104 49 105 50 106
REMARK SMILES IDX 51 107 52 108
REMARK H PARENT 13 6 7 17 83 23 86 27 17 42 76 61 44 72
REMARK Flexibility Score: inf
ROOT
ATOM      1  C   UNL A   1      37.950  19.935  25.260  1.00  0.00     0.042 C 
ENDROOT
BRANCH   1   2
ATOM      2  C   UNL A   1      37.490  21.387  25.413  1.00  0.00     0.118 C 
BRANCH   2   3
ATOM      3  N   UNL A   1      36.683  22.025  24.323  1.00  0.00    -0.351 N 
ATOM      4  C   UNL A   1      35.629  22.967  24.468  1.00  0.00     0.283 C 
ATOM      5  O   UNL A   1      36.000  24.152  24.515  1.00  0.00    -0.268 OA
ATOM      6  H   UNL A   1      36.907  21.760  23.401  1.00  0.00     0.163 HD
BRANCH   4   7
ATOM      7  C   UNL A   1      33.967  22.651  24.348  1.00  0.00     0.308 C 
BRANCH   7   8
ATOM      8  C   UNL A   1      33.505  21.404  25.131  1.00  0.00     0.045 A 
ATOM      9  C   UNL A   1      32.358  18.188  23.355  1.00  0.00     0.119 A 
ATOM     10  C   UNL A   1      32.295  17.383  24.480  1.00  0.00     0.048 A 
ATOM     11  C   UNL A   1      32.689  19.540  23.449  1.00  0.00     0.057 A 
ATOM     12  C   UNL A   1      32.553  17.927  25.739  1.00  0.00     0.030 A 
ATOM     13  C   UNL A   1      33.018  20.117  24.690  1.00  0.00     0.013 A 
ATOM     14  C   UNL A   1      32.921  19.281  25.811  1.00  0.00     0.046 A 
ATOM     15  N   UNL A   1      33.276  20.029  26.904  1.00  0.00    -0.361 N 
ATOM     16  C   UNL A   1      33.594  21.299  26.519  1.00  0.00     0.094 A 
ATOM     17  H   UNL A   1      33.298  19.697  27.830  1.00  0.00     0.166 HD
BRANCH   9  18
ATOM     18  O   UNL A   1      32.206  17.654  22.104  1.00  0.00    -0.497 OA
ATOM     19  C   UNL A   1      32.160  18.685  21.122  1.00  0.00     0.278 C 
ENDBRANCH   9  18
ENDBRANCH   7   8
BRANCH   7  20
ATOM     20  N   UNL A   1      33.062  23.720  24.801  1.00  0.00    -0.312 N 
ATOM     21  C   UNL A   1      32.410  24.287  23.700  1.00  0.00     0.325 C 
ATOM     22  C   UNL A   1      32.129  23.843  25.939  1.00  0.00     0.325 C 
ATOM     23  H   UNL A   1      33.845  24.105  25.327  1.00  0.00     0.349 HD
ATOM     24  C   UNL A   1      31.018  23.647  23.582  1.00  0.00     0.324 C 
ATOM     25  C   UNL A   1      30.702  24.721  25.587  1.00  0.00     0.324 C 
ATOM     26  N   UNL A   1      30.204  24.684  24.170  1.00  0.00    -0.322 N 
ATOM     27  H   UNL A   1      29.193  24.598  24.283  1.00  0.00     0.348 HD
BRANCH  26  28
ATOM     28  C   UNL A   1      30.225  25.870  23.193  1.00  0.00     0.300 C 
BRANCH  28  29
ATOM     29  C   UNL A   1      30.432  27.378  23.535  1.00  0.00     0.014 A 
ATOM     30  C   UNL A   1      29.478  28.204  22.924  1.00  0.00     0.010 A 
ATOM     31  C   UNL A   1      31.502  28.062  24.298  1.00  0.00    -0.010 A 
ATOM     32  C   UNL A   1      29.414  29.560  23.203  1.00  0.00     0.001 A 
ATOM     33  C   UNL A   1      31.263  29.377  24.752  1.00  0.00    -0.018 A 
ATOM     34  C   UNL A   1      32.814  27.621  24.658  1.00  0.00     0.009 A 
ATOM     35  C   UNL A   1      30.226  30.110  24.185  1.00  0.00     0.009 A 
ATOM     36  C   UNL A   1      32.080  30.003  25.725  1.00  0.00     0.009 A 
ATOM     37  C   UNL A   1      33.676  28.262  25.571  1.00  0.00     0.001 A 
ATOM     38  C   UNL A   1      33.269  29.436  26.163  1.00  0.00     0.001 A 
ENDBRANCH  28  29
ENDBRANCH  26  28
ENDBRANCH   7  20
ENDBRANCH   4   7
ENDBRANCH   2   3
ENDBRANCH   1   2
BRANCH   1  39
ATOM     39  C   UNL A   1      39.478  19.776  25.116  1.00  0.00     0.118 C 
BRANCH  39  40
ATOM     40  N   UNL A   1      40.225  19.345  26.307  1.00  0.00    -0.352 N 
ATOM     41  C   UNL A   1      40.944  19.973  27.312  1.00  0.00     0.251 C 
ATOM     42  H   UNL A   1      40.212  18.367  26.417  1.00  0.00     0.163 HD
ATOM     43  O   UNL A   1      41.354  19.255  28.227  1.00  0.00    -0.269 OA
BRANCH  41  44
ATOM     44  C   UNL A   1      41.306  21.420  27.330  1.00  0.00     0.039 A 
ATOM     45  C   UNL A   1      40.565  22.331  26.553  1.00  0.00     0.014 A 
ATOM     46  C   UNL A   1      42.355  21.923  28.080  1.00  0.00     0.014 A 
ATOM     47  C   UNL A   1      40.831  23.712  26.610  1.00  0.00     0.010 A 
ATOM     48  C   UNL A   1      42.500  23.292  28.277  1.00  0.00     0.010 A 
ATOM     49  C   UNL A   1      41.769  24.215  27.522  1.00  0.00    -0.014 A 
BRANCH  49  50
ATOM     50  C   UNL A   1      42.079  25.668  27.689  1.00  0.00     0.031 A 
ATOM     51  C   UNL A   1      43.425  26.198  27.237  1.00  0.00     0.074 A 
ATOM     52  C   UNL A   1      41.231  26.481  28.351  1.00  0.00     0.049 A 
ATOM     53  N   UNL A   1      44.006  27.342  27.499  1.00  0.00    -0.248 NA
ATOM     54  C   UNL A   1      44.260  25.281  26.443  1.00  0.00     0.031 C 
ATOM     55  C   UNL A   1      39.927  26.092  28.891  1.00  0.00     0.029 A 
ATOM     56  N   UNL A   1      41.347  27.804  28.703  1.00  0.00    -0.354 N 
ATOM     57  C   UNL A   1      45.287  27.250  26.960  1.00  0.00     0.074 A 
ATOM     58  C   UNL A   1      45.425  25.908  26.439  1.00  0.00     0.031 C 
ATOM     59  C   UNL A   1      39.348  27.159  29.466  1.00  0.00     0.029 A 
ATOM     60  C   UNL A   1      40.264  28.292  29.399  1.00  0.00     0.049 A 
ATOM     61  H   UNL A   1      42.132  28.353  28.477  1.00  0.00     0.167 HD
ATOM     62  C   UNL A   1      46.249  28.203  26.871  1.00  0.00     0.034 A 
ATOM     63  C   UNL A   1      40.041  29.507  29.940  1.00  0.00     0.034 A 
ATOM     64  C   UNL A   1      46.065  29.556  27.334  1.00  0.00     0.049 A 
ATOM     65  C   UNL A   1      41.108  30.565  29.805  1.00  0.00     0.074 A 
ATOM     66  C   UNL A   1      46.926  30.633  27.222  1.00  0.00     0.029 A 
ATOM     67  N   UNL A   1      44.932  30.021  27.992  1.00  0.00    -0.354 N 
ATOM     68  N   UNL A   1      42.299  30.475  29.254  1.00  0.00    -0.248 NA
ATOM     69  C   UNL A   1      40.800  31.890  30.355  1.00  0.00     0.031 C 
ATOM     70  C   UNL A   1      46.344  31.728  27.869  1.00  0.00     0.029 A 
ATOM     71  C   UNL A   1      45.084  31.361  28.312  1.00  0.00     0.049 A 
ATOM     72  H   UNL A   1      44.137  29.478  28.200  1.00  0.00     0.167 HD
ATOM     73  C   UNL A   1      42.865  31.743  29.366  1.00  0.00     0.074 A 
ATOM     74  C   UNL A   1      41.877  32.581  30.014  1.00  0.00     0.031 C 
ATOM     75  C   UNL A   1      44.088  32.178  28.966  1.00  0.00     0.034 A 
BRANCH  62  76
ATOM     76  C   UNL A   1      47.576  27.811  26.256  1.00  0.00     0.023 A 
ATOM     77  C   UNL A   1      47.811  27.902  24.872  1.00  0.00     0.031 A 
ATOM     78  C   UNL A   1      48.615  27.302  27.059  1.00  0.00     0.131 A 
ATOM     79  C   UNL A   1      49.002  27.399  24.324  1.00  0.00     0.055 A 
ATOM     80  C   UNL A   1      49.838  26.897  26.517  1.00  0.00     0.041 A 
ATOM     81  F   UNL A   1      48.454  27.170  28.385  1.00  0.00    -0.206 F 
ATOM     82  C   UNL A   1      50.029  26.925  25.140  1.00  0.00     0.022 A 
BRANCH  79  83
ATOM     83  S   UNL A   1      49.109  27.225  22.521  1.00  0.00     0.124 S 
ATOM     84  O   UNL A   1      48.484  25.914  22.317  1.00  0.00    -0.237 OA
ATOM     85  O   UNL A   1      48.367  28.370  22.041  1.00  0.00    -0.237 OA
ATOM     86  O   UNL A   1      50.555  27.255  22.263  1.00  0.00    -0.744 OA
ENDBRANCH  79  83
ENDBRANCH  62  76
BRANCH  63  87
ATOM     87  C   UNL A   1      38.759  29.801  30.648  1.00  0.00     0.023 A 
ATOM     88  C   UNL A   1      37.766  30.587  30.042  1.00  0.00     0.031 A 
ATOM     89  C   UNL A   1      38.519  29.327  31.950  1.00  0.00     0.131 A 
ATOM     90  C   UNL A   1      36.600  30.915  30.752  1.00  0.00     0.055 A 
ATOM     91  C   UNL A   1      37.331  29.606  32.630  1.00  0.00     0.041 A 
ATOM     92  F   UNL A   1      39.431  28.568  32.577  1.00  0.00    -0.206 F 
ATOM     93  C   UNL A   1      36.368  30.416  32.035  1.00  0.00     0.022 A 
BRANCH  90  94
ATOM     94  S   UNL A   1      35.426  32.079  30.004  1.00  0.00     0.124 S 
ATOM     95  O   UNL A   1      36.299  33.190  29.643  1.00  0.00    -0.237 OA
ATOM     96  O   UNL A   1      34.889  31.298  28.894  1.00  0.00    -0.237 OA
ATOM     97  O   UNL A   1      34.481  32.351  31.086  1.00  0.00    -0.744 OA
ENDBRANCH  90  94
ENDBRANCH  63  87
BRANCH  75  98
ATOM     98  C   UNL A   1      44.398  33.640  29.178  1.00  0.00     0.023 A 
ATOM     99  C   UNL A   1      43.844  34.639  28.362  1.00  0.00     0.031 A 
ATOM    100  C   UNL A   1      45.272  34.034  30.207  1.00  0.00     0.131 A 
ATOM    101  C   UNL A   1      44.222  35.978  28.544  1.00  0.00     0.055 A 
ATOM    102  C   UNL A   1      45.587  35.374  30.430  1.00  0.00     0.041 A 
ATOM    103  F   UNL A   1      45.833  33.121  31.017  1.00  0.00    -0.206 F 
ATOM    104  C   UNL A   1      45.073  36.354  29.585  1.00  0.00     0.022 A 
BRANCH 101 105
ATOM    105  S   UNL A   1      43.672  37.207  27.329  1.00  0.00     0.124 S 
ATOM    106  O   UNL A   1      44.939  37.786  26.890  1.00  0.00    -0.237 OA
ATOM    107  O   UNL A   1      42.973  36.386  26.348  1.00  0.00    -0.237 OA
ATOM    108  O   UNL A   1      42.819  38.102  28.109  1.00  0.00    -0.744 OA
ENDBRANCH 101 105
ENDBRANCH  75  98
ENDBRANCH  49  50
ENDBRANCH  41  44
ENDBRANCH  39  40
ENDBRANCH   1  39
TORSDOF 18
ENDMDL
MODEL 3
REMARK VINA RESULT:     -13.4      4.240      7.750
REMARK SMILES COc1ccc2[nH]cc([C@H](C(=O)NCCCNC(=O)c3ccc(-c4c5nc(c(-c6cc(S(=O)(=O)[O-])ccc6F)c6ccc([nH]6)c(-c6cc(S(=O)(=O)[O-])ccc6F)c6nc(c(-c7cc(S(=O)(=O)[O-])ccc7F)c7ccc4[nH]7)C=C6)C=C5)cc3)[NH+]3CC[NH+](Cc4cccc5ccccc45)CC3)c2c1
REMARK SMILES IDX 15 1 14 2 13 3 11 4 12 5 10 7 9 8 3 9 4 10 101 11 5 12
REMARK SMILES IDX 100 13 6 14 7 15 8 16 2 18 1 19 83 20 84 21 99 22 85 24
REMARK SMILES IDX 98 25 86 26 87 28 88 29 89 30 97 31 90 32 92 33 96 34 91 35
REMARK SMILES IDX 93 36 95 37 94 38 16 39 17 40 18 41 19 43 20 44 21 45 82 46
REMARK SMILES IDX 22 47 81 48 23 49 24 50 25 51 75 52 26 53 80 54 74 55 76 56
REMARK SMILES IDX 27 57 79 58 73 59 72 60 28 62 60 63 40 64 59 65 41 66 44 67
REMARK SMILES IDX 58 68 77 69 42 70 43 71 57 73 78 74 45 75 29 76 30 77 38 78
REMARK SMILES IDX 31 79 37 80 39 81 36 82 32 83 33 84 34 85 35 86 61 87 62 88
REMARK SMILES IDX 70 89 63 90 69 91 71 92 68 93 64 94 65 95 66 96 67 97 46 98
REMARK SMILES IDX 47 99 55 100 48 101 54 102 56 103 53 104 49 105 50 106
REMARK SMILES IDX 51 107 52 108
REMARK H PARENT 13 6 7 17 83 23 86 27 17 42 76 61 44 72
REMARK Flexibility Score: inf
ROOT
ATOM      1  C   UNL A   1      35.104  24.105  24.969  1.00  0.00     0.042 C 
ENDROOT
BRANCH   1   2
ATOM      2  C   UNL A   1      34.067  23.309  24.170  1.00  0.00     0.118 C 
BRANCH   2   3
ATOM      3  N   UNL A   1      32.840  24.002  23.659  1.00  0.00    -0.351 N 
ATOM      4  C   UNL A   1      32.761  25.292  23.069  1.00  0.00     0.283 C 
ATOM      5  O   UNL A   1      32.953  25.311  21.842  1.00  0.00    -0.268 OA
ATOM      6  H   UNL A   1      31.993  23.507  23.741  1.00  0.00     0.163 HD
BRANCH   4   7
ATOM      7  C   UNL A   1      32.215  26.714  23.817  1.00  0.00     0.308 C 
BRANCH   7   8
ATOM      8  C   UNL A   1      30.681  26.882  23.805  1.00  0.00     0.045 A 
ATOM      9  C   UNL A   1      28.994  30.148  22.665  1.00  0.00     0.119 A 
ATOM     10  C   UNL A   1      27.695  29.671  22.639  1.00  0.00     0.048 A 
ATOM     11  C   UNL A   1      30.054  29.343  23.083  1.00  0.00     0.057 A 
ATOM     12  C   UNL A   1      27.425  28.365  23.051  1.00  0.00     0.030 A 
ATOM     13  C   UNL A   1      29.839  28.000  23.448  1.00  0.00     0.013 A 
ATOM     14  C   UNL A   1      28.510  27.556  23.434  1.00  0.00     0.046 A 
ATOM     15  N   UNL A   1      28.520  26.241  23.820  1.00  0.00    -0.361 N 
ATOM     16  C   UNL A   1      29.798  25.837  24.074  1.00  0.00     0.094 A 
ATOM     17  H   UNL A   1      27.721  25.672  23.901  1.00  0.00     0.166 HD
BRANCH   9  18
ATOM     18  O   UNL A   1      29.293  31.390  22.172  1.00  0.00    -0.497 OA
ATOM     19  C   UNL A   1      28.256  32.315  22.486  1.00  0.00     0.278 C 
ENDBRANCH   9  18
ENDBRANCH   7   8
BRANCH   7  20
ATOM     20  N   UNL A   1      32.590  26.898  25.228  1.00  0.00    -0.312 N 
ATOM     21  C   UNL A   1      33.667  27.788  25.321  1.00  0.00     0.325 C 
ATOM     22  C   UNL A   1      31.809  27.067  26.470  1.00  0.00     0.325 C 
ATOM     23  H   UNL A   1      32.612  25.882  25.312  1.00  0.00     0.349 HD
ATOM     24  C   UNL A   1      33.112  29.181  25.656  1.00  0.00     0.324 C 
ATOM     25  C   UNL A   1      32.522  28.128  27.608  1.00  0.00     0.324 C 
ATOM     26  N   UNL A   1      33.384  29.235  27.073  1.00  0.00    -0.322 N 
ATOM     27  H   UNL A   1      33.126  30.032  27.657  1.00  0.00     0.348 HD
BRANCH  26  28
ATOM     28  C   UNL A   1      34.910  29.322  27.226  1.00  0.00     0.300 C 
BRANCH  28  29
ATOM     29  C   UNL A   1      35.732  30.457  27.912  1.00  0.00     0.014 A 
ATOM     30  C   UNL A   1      37.014  30.038  28.294  1.00  0.00     0.010 A 
ATOM     31  C   UNL A   1      35.349  31.835  28.298  1.00  0.00    -0.010 A 
ATOM     32  C   UNL A   1      37.943  30.931  28.804  1.00  0.00     0.001 A 
ATOM     33  C   UNL A   1      36.377  32.761  28.580  1.00  0.00    -0.018 A 
ATOM     34  C   UNL A   1      34.059  32.427  28.472  1.00  0.00     0.009 A 
ATOM     35  C   UNL A   1      37.658  32.289  28.841  1.00  0.00     0.009 A 
ATOM     36  C   UNL A   1      36.138  34.155  28.666  1.00  0.00     0.009 A 
ATOM     37  C   UNL A   1      33.798  33.804  28.629  1.00  0.00     0.001 A 
ATOM     38  C   UNL A   1      34.855  34.684  28.658  1.00  0.00     0.001 A 
ENDBRANCH  28  29
ENDBRANCH  26  28
ENDBRANCH   7  20
ENDBRANCH   4   7
ENDBRANCH   2   3
ENDBRANCH   1   2
BRANCH   1  39
ATOM     39  C   UNL A   1      35.743  23.312  26.126  1.00  0.00     0.118 C 
BRANCH  39  40
ATOM     40  N   UNL A   1      36.883  22.442  25.798  1.00  0.00    -0.352 N 
ATOM     41  C   UNL A   1      38.242  22.437  26.067  1.00  0.00     0.251 C 
ATOM     42  H   UNL A   1      36.612  21.670  25.250  1.00  0.00     0.163 HD
ATOM     43  O   UNL A   1      38.875  21.448  25.692  1.00  0.00    -0.269 OA
BRANCH  41  44
ATOM     44  C   UNL A   1      38.991  23.556  26.711  1.00  0.00     0.039 A 
ATOM     45  C   UNL A   1      40.075  23.268  27.562  1.00  0.00     0.014 A 
ATOM     46  C   UNL A   1      38.666  24.887  26.515  1.00  0.00     0.014 A 
ATOM     47  C   UNL A   1      40.849  24.302  28.121  1.00  0.00     0.010 A 
ATOM     48  C   UNL A   1      39.533  25.899  26.914  1.00  0.00     0.010 A 
ATOM     49  C   UNL A   1      40.620  25.635  27.754  1.00  0.00    -0.014 A 
BRANCH  49  50
ATOM     50  C   UNL A   1      41.424  26.791  28.255  1.00  0.00     0.031 A 
ATOM     51  C   UNL A   1      42.860  26.952  27.798  1.00  0.00     0.074 A 
ATOM     52  C   UNL A   1      40.930  27.614  29.202  1.00  0.00     0.049 A 
ATOM     53  N   UNL A   1      43.811  27.715  28.278  1.00  0.00    -0.248 NA
ATOM     54  C   UNL A   1      43.303  26.077  26.699  1.00  0.00     0.031 C 
ATOM     55  C   UNL A   1      39.584  27.541  29.774  1.00  0.00     0.029 A 
ATOM     56  N   UNL A   1      41.511  28.666  29.869  1.00  0.00    -0.354 N 
ATOM     57  C   UNL A   1      44.966  27.363  27.583  1.00  0.00     0.074 A 
ATOM     58  C   UNL A   1      44.613  26.258  26.719  1.00  0.00     0.031 C 
ATOM     59  C   UNL A   1      39.429  28.528  30.672  1.00  0.00     0.029 A 
ATOM     60  C   UNL A   1      40.682  29.264  30.793  1.00  0.00     0.049 A 
ATOM     61  H   UNL A   1      42.433  28.965  29.701  1.00  0.00     0.167 HD
ATOM     62  C   UNL A   1      46.200  27.927  27.631  1.00  0.00     0.034 A 
ATOM     63  C   UNL A   1      40.912  30.277  31.653  1.00  0.00     0.034 A 
ATOM     64  C   UNL A   1      46.512  29.073  28.448  1.00  0.00     0.049 A 
ATOM     65  C   UNL A   1      42.280  30.914  31.671  1.00  0.00     0.074 A 
ATOM     66  C   UNL A   1      47.693  29.790  28.517  1.00  0.00     0.029 A 
ATOM     67  N   UNL A   1      45.628  29.679  29.335  1.00  0.00    -0.354 N 
ATOM     68  N   UNL A   1      43.351  30.597  30.978  1.00  0.00    -0.248 NA
ATOM     69  C   UNL A   1      42.467  32.051  32.580  1.00  0.00     0.031 C 
ATOM     70  C   UNL A   1      47.547  30.783  29.492  1.00  0.00     0.029 A 
ATOM     71  C   UNL A   1      46.248  30.742  29.971  1.00  0.00     0.049 A 
ATOM     72  H   UNL A   1      44.699  29.393  29.488  1.00  0.00     0.167 HD
ATOM     73  C   UNL A   1      44.327  31.519  31.346  1.00  0.00     0.074 A 
ATOM     74  C   UNL A   1      43.711  32.414  32.304  1.00  0.00     0.031 C 
ATOM     75  C   UNL A   1      45.617  31.620  30.929  1.00  0.00     0.034 A 
BRANCH  62  76
ATOM     76  C   UNL A   1      47.291  27.311  26.781  1.00  0.00     0.023 A 
ATOM     77  C   UNL A   1      47.553  27.753  25.471  1.00  0.00     0.031 A 
ATOM     78  C   UNL A   1      48.060  26.238  27.270  1.00  0.00     0.131 A 
ATOM     79  C   UNL A   1      48.476  27.067  24.666  1.00  0.00     0.055 A 
ATOM     80  C   UNL A   1      49.049  25.625  26.497  1.00  0.00     0.041 A 
ATOM     81  F   UNL A   1      47.852  25.753  28.505  1.00  0.00    -0.206 F 
ATOM     82  C   UNL A   1      49.248  26.025  25.180  1.00  0.00     0.022 A 
BRANCH  79  83
ATOM     83  S   UNL A   1      48.526  27.456  22.895  1.00  0.00     0.124 S 
ATOM     84  O   UNL A   1      48.561  26.115  22.303  1.00  0.00    -0.237 OA
ATOM     85  O   UNL A   1      47.309  28.212  22.697  1.00  0.00    -0.237 OA
ATOM     86  O   UNL A   1      49.774  28.217  22.749  1.00  0.00    -0.744 OA
ENDBRANCH  79  83
ENDBRANCH  62  76
BRANCH  63  87
ATOM     87  C   UNL A   1      39.831  30.762  32.561  1.00  0.00     0.023 A 
ATOM     88  C   UNL A   1      39.035  31.865  32.209  1.00  0.00     0.031 A 
ATOM     89  C   UNL A   1      39.594  30.154  33.807  1.00  0.00     0.131 A 
ATOM     90  C   UNL A   1      38.074  32.353  33.108  1.00  0.00     0.055 A 
ATOM     91  C   UNL A   1      38.596  30.607  34.673  1.00  0.00     0.041 A 
ATOM     92  F   UNL A   1      40.322  29.095  34.196  1.00  0.00    -0.206 F 
ATOM     93  C   UNL A   1      37.837  31.722  34.330  1.00  0.00     0.022 A 
BRANCH  90  94
ATOM     94  S   UNL A   1      37.194  33.885  32.691  1.00  0.00     0.124 S 
ATOM     95  O   UNL A   1      35.934  33.370  32.164  1.00  0.00    -0.237 OA
ATOM     96  O   UNL A   1      37.122  34.555  33.985  1.00  0.00    -0.237 OA
ATOM     97  O   UNL A   1      38.068  34.523  31.710  1.00  0.00    -0.744 OA
ENDBRANCH  90  94
ENDBRANCH  63  87
BRANCH  75  98
ATOM     98  C   UNL A   1      46.424  32.772  31.476  1.00  0.00     0.023 A 
ATOM     99  C   UNL A   1      46.473  34.015  30.824  1.00  0.00     0.031 A 
ATOM    100  C   UNL A   1      47.166  32.615  32.661  1.00  0.00     0.131 A 
ATOM    101  C   UNL A   1      47.300  35.033  31.324  1.00  0.00     0.055 A 
ATOM    102  C   UNL A   1      47.928  33.655  33.192  1.00  0.00     0.041 A 
ATOM    103  F   UNL A   1      47.157  31.448  33.325  1.00  0.00    -0.206 F 
ATOM    104  C   UNL A   1      48.011  34.868  32.514  1.00  0.00     0.022 A 
BRANCH 101 105
ATOM    105  S   UNL A   1      47.520  36.536  30.334  1.00  0.00     0.124 S 
ATOM    106  O   UNL A   1      46.934  36.145  29.056  1.00  0.00    -0.237 OA
ATOM    107  O   UNL A   1      46.773  37.527  31.101  1.00  0.00    -0.237 OA
ATOM    108  O   UNL A   1      48.969  36.727  30.319  1.00  0.00    -0.744 OA
ENDBRANCH 101 105
ENDBRANCH  75  98
ENDBRANCH  49  50
ENDBRANCH  41  44
ENDBRANCH  39  40
ENDBRANCH   1  39
TORSDOF 18
ENDMDL
