MODEL 1
REMARK VINA RESULT:     -13.8      0.000      0.000
REMARK SMILES O=C(NCCCNC(=O)[C@H]1CC2=c3ccccc3=N[C@H]2[C@@H](c2ccccc2)[NH2+]1)c1ccc(-c2c3nc(c(-c4cc(S(=O)(=O)[O-])ccc4F)c4ccc([nH]4)c(-c4cc(S(=O)(=O)[O-])ccc4F)c4nc(c(-c5cc(S(=O)(=O)[O-])ccc5F)c5ccc2[nH]5)C=C4)C=C3)cc1
REMARK SMILES IDX 4 1 3 2 1 3 2 4 29 6 30 7 91 8 31 9 90 10 32 11 33 12 34 13
REMARK SMILES IDX 84 14 35 15 89 16 83 17 85 18 36 19 88 20 82 21 81 22 37 24
REMARK SMILES IDX 69 25 49 26 68 27 50 28 53 29 67 30 86 31 51 32 52 33 66 35
REMARK SMILES IDX 87 36 54 37 38 38 39 39 47 40 40 41 46 42 48 43 45 44 41 45
REMARK SMILES IDX 42 46 43 47 44 48 70 49 71 50 79 51 72 52 78 53 80 54 77 55
REMARK SMILES IDX 73 56 74 57 75 58 76 59 55 60 56 61 64 62 57 63 63 64 65 65
REMARK SMILES IDX 62 66 58 67 59 68 60 69 61 70 5 71 6 72 7 73 8 74 9 76 10 77
REMARK SMILES IDX 11 78 28 79 12 80 21 81 13 84 20 85 14 86 18 87 19 88 15 89
REMARK SMILES IDX 17 90 16 91 22 92 23 93 27 94 24 95 26 96 25 97
REMARK H PARENT 3 5 85 23 53 34 7 75 28 82 28 83
REMARK Flexibility Score: inf
ROOT
ATOM      1  C   UNL A   1      31.905  30.315  26.726  1.00  0.00     0.118 C 
ENDROOT
BRANCH   1   2
ATOM      2  N   UNL A   1      31.980  31.761  26.823  1.00  0.00    -0.352 N 
ATOM      3  O   UNL A   1      32.598  33.741  27.653  1.00  0.00    -0.269 OA
ATOM      4  C   UNL A   1      32.901  32.568  27.445  1.00  0.00     0.251 C 
ATOM      5  H   UNL A   1      31.251  32.243  26.370  1.00  0.00     0.163 HD
BRANCH   4   6
ATOM      6  C   UNL A   1      34.236  32.066  27.857  1.00  0.00     0.039 A 
ATOM      7  C   UNL A   1      34.377  30.705  28.151  1.00  0.00     0.014 A 
ATOM      8  C   UNL A   1      35.317  32.923  28.079  1.00  0.00     0.014 A 
ATOM      9  C   UNL A   1      35.579  30.219  28.676  1.00  0.00     0.010 A 
ATOM     10  C   UNL A   1      36.552  32.420  28.483  1.00  0.00     0.010 A 
ATOM     11  C   UNL A   1      36.676  31.077  28.856  1.00  0.00    -0.014 A 
BRANCH  11  12
ATOM     12  C   UNL A   1      37.907  30.620  29.557  1.00  0.00     0.031 A 
ATOM     13  C   UNL A   1      38.149  31.043  30.988  1.00  0.00     0.074 A 
ATOM     14  C   UNL A   1      38.803  29.838  28.923  1.00  0.00     0.049 A 
ATOM     15  N   UNL A   1      39.155  30.762  31.774  1.00  0.00    -0.248 NA
ATOM     16  C   UNL A   1      37.143  31.924  31.609  1.00  0.00     0.031 C 
ATOM     17  C   UNL A   1      38.696  29.396  27.533  1.00  0.00     0.029 A 
ATOM     18  N   UNL A   1      39.972  29.269  29.365  1.00  0.00    -0.354 N 
ATOM     19  C   UNL A   1      38.914  31.446  32.961  1.00  0.00     0.074 A 
ATOM     20  C   UNL A   1      37.708  32.214  32.771  1.00  0.00     0.031 C 
ATOM     21  C   UNL A   1      39.726  28.582  27.252  1.00  0.00     0.029 A 
ATOM     22  C   UNL A   1      40.589  28.473  28.427  1.00  0.00     0.049 A 
ATOM     23  H   UNL A   1      40.334  29.416  30.269  1.00  0.00     0.167 HD
ATOM     24  C   UNL A   1      39.613  31.409  34.119  1.00  0.00     0.034 A 
ATOM     25  C   UNL A   1      41.710  27.725  28.511  1.00  0.00     0.034 A 
ATOM     26  C   UNL A   1      40.777  30.588  34.317  1.00  0.00     0.049 A 
ATOM     27  C   UNL A   1      42.451  27.670  29.826  1.00  0.00     0.074 A 
ATOM     28  C   UNL A   1      41.525  30.431  35.470  1.00  0.00     0.029 A 
ATOM     29  N   UNL A   1      41.348  29.770  33.353  1.00  0.00    -0.354 N 
ATOM     30  N   UNL A   1      42.165  28.266  30.961  1.00  0.00    -0.248 NA
ATOM     31  C   UNL A   1      43.652  26.825  29.884  1.00  0.00     0.031 C 
ATOM     32  C   UNL A   1      42.579  29.564  35.189  1.00  0.00     0.029 A 
ATOM     33  C   UNL A   1      42.445  29.115  33.884  1.00  0.00     0.049 A 
ATOM     34  H   UNL A   1      41.021  29.671  32.430  1.00  0.00     0.167 HD
ATOM     35  C   UNL A   1      43.119  27.827  31.876  1.00  0.00     0.074 A 
ATOM     36  C   UNL A   1      43.982  26.907  31.166  1.00  0.00     0.031 C 
ATOM     37  C   UNL A   1      43.267  28.159  33.184  1.00  0.00     0.034 A 
BRANCH  24  38
ATOM     38  C   UNL A   1      39.133  32.235  35.289  1.00  0.00     0.023 A 
ATOM     39  C   UNL A   1      39.638  33.535  35.483  1.00  0.00     0.031 A 
ATOM     40  C   UNL A   1      38.294  31.694  36.280  1.00  0.00     0.131 A 
ATOM     41  C   UNL A   1      39.334  34.231  36.659  1.00  0.00     0.055 A 
ATOM     42  C   UNL A   1      37.953  32.413  37.425  1.00  0.00     0.041 A 
ATOM     43  F   UNL A   1      37.786  30.459  36.143  1.00  0.00    -0.206 F 
ATOM     44  C   UNL A   1      38.487  33.682  37.627  1.00  0.00     0.022 A 
BRANCH  41  45
ATOM     45  S   UNL A   1      40.085  35.845  37.010  1.00  0.00     0.124 S 
ATOM     46  O   UNL A   1      41.509  35.513  37.040  1.00  0.00    -0.237 OA
ATOM     47  O   UNL A   1      39.654  36.636  35.861  1.00  0.00    -0.237 OA
ATOM     48  O   UNL A   1      39.512  36.228  38.293  1.00  0.00    -0.744 OA
ENDBRANCH  41  45
ENDBRANCH  24  38
BRANCH  25  49
ATOM     49  C   UNL A   1      42.124  26.889  27.345  1.00  0.00     0.023 A 
ATOM     50  C   UNL A   1      41.873  25.505  27.310  1.00  0.00     0.031 A 
ATOM     51  C   UNL A   1      42.861  27.452  26.288  1.00  0.00     0.131 A 
ATOM     52  C   UNL A   1      42.401  24.727  26.269  1.00  0.00     0.055 A 
ATOM     53  C   UNL A   1      43.323  26.685  25.217  1.00  0.00     0.041 A 
ATOM     54  F   UNL A   1      43.143  28.764  26.285  1.00  0.00    -0.206 F 
ATOM     55  C   UNL A   1      43.107  25.311  25.213  1.00  0.00     0.022 A 
BRANCH  52  56
ATOM     56  S   UNL A   1      42.303  22.915  26.322  1.00  0.00     0.124 S 
ATOM     57  O   UNL A   1      43.216  22.595  27.419  1.00  0.00    -0.237 OA
ATOM     58  O   UNL A   1      40.884  22.701  26.603  1.00  0.00    -0.237 OA
ATOM     59  O   UNL A   1      42.740  22.507  24.995  1.00  0.00    -0.744 OA
ENDBRANCH  52  56
ENDBRANCH  25  49
BRANCH  37  60
ATOM     60  C   UNL A   1      44.365  27.503  33.987  1.00  0.00     0.023 A 
ATOM     61  C   UNL A   1      44.082  26.333  34.721  1.00  0.00     0.031 A 
ATOM     62  C   UNL A   1      45.616  28.114  34.168  1.00  0.00     0.131 A 
ATOM     63  C   UNL A   1      45.021  25.837  35.634  1.00  0.00     0.055 A 
ATOM     64  C   UNL A   1      46.569  27.586  35.041  1.00  0.00     0.041 A 
ATOM     65  F   UNL A   1      45.927  29.241  33.507  1.00  0.00    -0.206 F 
ATOM     66  C   UNL A   1      46.266  26.453  35.790  1.00  0.00     0.022 A 
BRANCH  63  67
ATOM     67  S   UNL A   1      44.617  24.447  36.728  1.00  0.00     0.124 S 
ATOM     68  O   UNL A   1      43.634  25.047  37.626  1.00  0.00    -0.237 OA
ATOM     69  O   UNL A   1      44.086  23.461  35.791  1.00  0.00    -0.237 OA
ATOM     70  O   UNL A   1      45.893  24.099  37.345  1.00  0.00    -0.744 OA
ENDBRANCH  63  67
ENDBRANCH  37  60
ENDBRANCH  11  12
ENDBRANCH   4   6
ENDBRANCH   1   2
BRANCH   1  71
ATOM     71  C   UNL A   1      32.171  29.836  25.308  1.00  0.00     0.042 C 
BRANCH  71  72
ATOM     72  C   UNL A   1      31.308  28.647  24.899  1.00  0.00     0.118 C 
BRANCH  72  73
ATOM     73  N   UNL A   1      31.303  27.608  25.920  1.00  0.00    -0.351 N 
ATOM     74  C   UNL A   1      31.678  26.294  25.886  1.00  0.00     0.278 C 
ATOM     75  H   UNL A   1      30.969  27.909  26.795  1.00  0.00     0.163 HD
ATOM     76  O   UNL A   1      31.420  25.610  26.881  1.00  0.00    -0.268 OA
BRANCH  74  77
ATOM     77  C   UNL A   1      32.428  25.690  24.679  1.00  0.00     0.277 C 
ATOM     78  C   UNL A   1      33.954  25.922  24.771  1.00  0.00     0.109 C 
ATOM     79  N   UNL A   1      31.990  24.279  24.518  1.00  0.00    -0.327 N 
ATOM     80  C   UNL A   1      34.703  24.725  24.302  1.00  0.00    -0.024 C 
ATOM     81  C   UNL A   1      32.657  23.563  23.391  1.00  0.00     0.243 C 
ATOM     82  H   UNL A   1      30.984  24.273  24.352  1.00  0.00     0.347 HD
ATOM     83  H   UNL A   1      32.247  23.789  25.375  1.00  0.00     0.347 HD
ATOM     84  C   UNL A   1      35.731  24.051  24.804  1.00  0.00     0.002 A 
ATOM     85  C   UNL A   1      34.137  24.038  23.095  1.00  0.00     0.196 C 
ATOM     86  C   UNL A   1      36.563  24.152  25.958  1.00  0.00     0.010 A 
ATOM     87  C   UNL A   1      35.904  22.970  23.815  1.00  0.00     0.066 A 
ATOM     88  N   UNL A   1      35.090  22.934  22.805  1.00  0.00    -0.270 NA
ATOM     89  C   UNL A   1      37.519  23.225  26.142  1.00  0.00     0.001 A 
ATOM     90  C   UNL A   1      37.005  22.018  24.065  1.00  0.00     0.028 A 
ATOM     91  C   UNL A   1      37.742  22.158  25.178  1.00  0.00     0.002 A 
BRANCH  81  92
ATOM     92  C   UNL A   1      32.493  22.037  23.512  1.00  0.00     0.012 A 
ATOM     93  C   UNL A   1      32.201  21.300  22.349  1.00  0.00     0.010 A 
ATOM     94  C   UNL A   1      32.660  21.317  24.709  1.00  0.00     0.010 A 
ATOM     95  C   UNL A   1      32.109  19.907  22.373  1.00  0.00     0.001 A 
ATOM     96  C   UNL A   1      32.553  19.923  24.736  1.00  0.00     0.001 A 
ATOM     97  C   UNL A   1      32.286  19.218  23.567  1.00  0.00     0.000 A 
ENDBRANCH  81  92
ENDBRANCH  74  77
ENDBRANCH  72  73
ENDBRANCH  71  72
ENDBRANCH   1  71
TORSDOF 14
ENDMDL
MODEL 2
REMARK VINA RESULT:     -13.8      4.720     10.073
REMARK SMILES O=C(NCCCNC(=O)[C@H]1CC2=c3ccccc3=N[C@H]2[C@@H](c2ccccc2)[NH2+]1)c1ccc(-c2c3nc(c(-c4cc(S(=O)(=O)[O-])ccc4F)c4ccc([nH]4)c(-c4cc(S(=O)(=O)[O-])ccc4F)c4nc(c(-c5cc(S(=O)(=O)[O-])ccc5F)c5ccc2[nH]5)C=C4)C=C3)cc1
REMARK SMILES IDX 4 1 3 2 1 3 2 4 29 6 30 7 91 8 31 9 90 10 32 11 33 12 34 13
REMARK SMILES IDX 84 14 35 15 89 16 83 17 85 18 36 19 88 20 82 21 81 22 37 24
REMARK SMILES IDX 69 25 49 26 68 27 50 28 53 29 67 30 86 31 51 32 52 33 66 35
REMARK SMILES IDX 87 36 54 37 38 38 39 39 47 40 40 41 46 42 48 43 45 44 41 45
REMARK SMILES IDX 42 46 43 47 44 48 70 49 71 50 79 51 72 52 78 53 80 54 77 55
REMARK SMILES IDX 73 56 74 57 75 58 76 59 55 60 56 61 64 62 57 63 63 64 65 65
REMARK SMILES IDX 62 66 58 67 59 68 60 69 61 70 5 71 6 72 7 73 8 74 9 76 10 77
REMARK SMILES IDX 11 78 28 79 12 80 21 81 13 84 20 85 14 86 18 87 19 88 15 89
REMARK SMILES IDX 17 90 16 91 22 92 23 93 27 94 24 95 26 96 25 97
REMARK H PARENT 3 5 85 23 53 34 7 75 28 82 28 83
REMARK Flexibility Score: inf
ROOT
ATOM      1  C   UNL A   1      37.316  22.040  24.967  1.00  0.00     0.118 C 
ENDROOT
BRANCH   1   2
ATOM      2  N   UNL A   1      38.287  21.085  25.466  1.00  0.00    -0.352 N 
ATOM      3  O   UNL A   1      40.275  20.341  26.167  1.00  0.00    -0.269 OA
ATOM      4  C   UNL A   1      39.483  21.281  26.111  1.00  0.00     0.251 C 
ATOM      5  H   UNL A   1      38.051  20.140  25.317  1.00  0.00     0.163 HD
BRANCH   4   6
ATOM      6  C   UNL A   1      39.834  22.579  26.741  1.00  0.00     0.039 A 
ATOM      7  C   UNL A   1      39.283  23.750  26.210  1.00  0.00     0.014 A 
ATOM      8  C   UNL A   1      40.784  22.679  27.760  1.00  0.00     0.014 A 
ATOM      9  C   UNL A   1      39.695  25.000  26.683  1.00  0.00     0.010 A 
ATOM     10  C   UNL A   1      41.102  23.916  28.317  1.00  0.00     0.010 A 
ATOM     11  C   UNL A   1      40.618  25.094  27.737  1.00  0.00    -0.014 A 
BRANCH  11  12
ATOM     12  C   UNL A   1      41.189  26.405  28.150  1.00  0.00     0.031 A 
ATOM     13  C   UNL A   1      42.611  26.749  27.770  1.00  0.00     0.074 A 
ATOM     14  C   UNL A   1      40.449  27.278  28.859  1.00  0.00     0.049 A 
ATOM     15  N   UNL A   1      43.299  27.829  28.035  1.00  0.00    -0.248 NA
ATOM     16  C   UNL A   1      43.373  25.733  27.021  1.00  0.00     0.031 C 
ATOM     17  C   UNL A   1      39.079  27.043  29.314  1.00  0.00     0.029 A 
ATOM     18  N   UNL A   1      40.738  28.542  29.312  1.00  0.00    -0.354 N 
ATOM     19  C   UNL A   1      44.569  27.611  27.509  1.00  0.00     0.074 A 
ATOM     20  C   UNL A   1      44.583  26.271  26.976  1.00  0.00     0.031 C 
ATOM     21  C   UNL A   1      38.628  28.144  29.934  1.00  0.00     0.029 A 
ATOM     22  C   UNL A   1      39.686  29.153  29.958  1.00  0.00     0.049 A 
ATOM     23  H   UNL A   1      41.616  28.971  29.187  1.00  0.00     0.167 HD
ATOM     24  C   UNL A   1      45.617  28.464  27.442  1.00  0.00     0.034 A 
ATOM     25  C   UNL A   1      39.581  30.390  30.487  1.00  0.00     0.034 A 
ATOM     26  C   UNL A   1      45.569  29.820  27.919  1.00  0.00     0.049 A 
ATOM     27  C   UNL A   1      40.752  31.336  30.365  1.00  0.00     0.074 A 
ATOM     28  C   UNL A   1      46.556  30.786  27.846  1.00  0.00     0.029 A 
ATOM     29  N   UNL A   1      44.474  30.409  28.532  1.00  0.00    -0.354 N 
ATOM     30  N   UNL A   1      41.920  31.137  29.798  1.00  0.00    -0.248 NA
ATOM     31  C   UNL A   1      40.589  32.682  30.933  1.00  0.00     0.031 C 
ATOM     32  C   UNL A   1      46.080  31.940  28.464  1.00  0.00     0.029 A 
ATOM     33  C   UNL A   1      44.767  31.723  28.853  1.00  0.00     0.049 A 
ATOM     34  H   UNL A   1      43.617  29.960  28.713  1.00  0.00     0.167 HD
ATOM     35  C   UNL A   1      42.605  32.345  29.895  1.00  0.00     0.074 A 
ATOM     36  C   UNL A   1      41.718  33.272  30.565  1.00  0.00     0.031 C 
ATOM     37  C   UNL A   1      43.857  32.656  29.471  1.00  0.00     0.034 A 
BRANCH  24  38
ATOM     38  C   UNL A   1      46.900  27.995  26.796  1.00  0.00     0.023 A 
ATOM     39  C   UNL A   1      47.053  28.081  25.400  1.00  0.00     0.031 A 
ATOM     40  C   UNL A   1      47.902  27.342  27.536  1.00  0.00     0.131 A 
ATOM     41  C   UNL A   1      48.160  27.485  24.784  1.00  0.00     0.055 A 
ATOM     42  C   UNL A   1      49.029  26.796  26.921  1.00  0.00     0.041 A 
ATOM     43  F   UNL A   1      47.804  27.234  28.871  1.00  0.00    -0.206 F 
ATOM     44  C   UNL A   1      49.154  26.851  25.537  1.00  0.00     0.022 A 
BRANCH  41  45
ATOM     45  S   UNL A   1      48.316  27.446  22.977  1.00  0.00     0.124 S 
ATOM     46  O   UNL A   1      49.618  28.079  22.774  1.00  0.00    -0.237 OA
ATOM     47  O   UNL A   1      48.269  26.013  22.699  1.00  0.00    -0.237 OA
ATOM     48  O   UNL A   1      47.173  28.219  22.508  1.00  0.00    -0.744 OA
ENDBRANCH  41  45
ENDBRANCH  24  38
BRANCH  25  49
ATOM     49  C   UNL A   1      38.280  30.828  31.076  1.00  0.00     0.023 A 
ATOM     50  C   UNL A   1      37.325  31.521  30.310  1.00  0.00     0.031 A 
ATOM     51  C   UNL A   1      38.016  30.639  32.444  1.00  0.00     0.131 A 
ATOM     52  C   UNL A   1      36.180  32.042  30.929  1.00  0.00     0.055 A 
ATOM     53  C   UNL A   1      36.840  31.097  33.041  1.00  0.00     0.041 A 
ATOM     54  F   UNL A   1      38.904  30.001  33.222  1.00  0.00    -0.206 F 
ATOM     55  C   UNL A   1      35.922  31.818  32.285  1.00  0.00     0.022 A 
BRANCH  52  56
ATOM     56  S   UNL A   1      35.055  33.143  30.024  1.00  0.00     0.124 S 
ATOM     57  O   UNL A   1      35.976  34.143  29.487  1.00  0.00    -0.237 OA
ATOM     58  O   UNL A   1      34.473  32.231  29.040  1.00  0.00    -0.237 OA
ATOM     59  O   UNL A   1      34.136  33.615  31.049  1.00  0.00    -0.744 OA
ENDBRANCH  52  56
ENDBRANCH  25  49
BRANCH  37  60
ATOM     60  C   UNL A   1      44.363  34.067  29.653  1.00  0.00     0.023 A 
ATOM     61  C   UNL A   1      44.048  35.046  28.688  1.00  0.00     0.031 A 
ATOM     62  C   UNL A   1      45.283  34.400  30.660  1.00  0.00     0.131 A 
ATOM     63  C   UNL A   1      44.681  36.294  28.727  1.00  0.00     0.055 A 
ATOM     64  C   UNL A   1      45.872  35.663  30.725  1.00  0.00     0.041 A 
ATOM     65  F   UNL A   1      45.632  33.497  31.591  1.00  0.00    -0.206 F 
ATOM     66  C   UNL A   1      45.584  36.610  29.746  1.00  0.00     0.022 A 
BRANCH  63  67
ATOM     67  S   UNL A   1      44.441  37.506  27.398  1.00  0.00     0.124 S 
ATOM     68  O   UNL A   1      43.310  36.934  26.671  1.00  0.00    -0.237 OA
ATOM     69  O   UNL A   1      44.150  38.727  28.143  1.00  0.00    -0.237 OA
ATOM     70  O   UNL A   1      45.711  37.499  26.678  1.00  0.00    -0.744 OA
ENDBRANCH  63  67
ENDBRANCH  37  60
ENDBRANCH  11  12
ENDBRANCH   4   6
ENDBRANCH   1   2
BRANCH   1  71
ATOM     71  C   UNL A   1      35.965  21.867  25.641  1.00  0.00     0.042 C 
BRANCH  71  72
ATOM     72  C   UNL A   1      34.830  21.584  24.662  1.00  0.00     0.118 C 
BRANCH  72  73
ATOM     73  N   UNL A   1      34.775  22.578  23.600  1.00  0.00    -0.351 N 
ATOM     74  C   UNL A   1      33.925  23.625  23.373  1.00  0.00     0.278 C 
ATOM     75  H   UNL A   1      35.481  22.479  22.921  1.00  0.00     0.163 HD
ATOM     76  O   UNL A   1      34.037  24.217  22.296  1.00  0.00    -0.268 OA
BRANCH  74  77
ATOM     77  C   UNL A   1      32.894  24.082  24.429  1.00  0.00     0.277 C 
ATOM     78  C   UNL A   1      33.570  24.763  25.640  1.00  0.00     0.109 C 
ATOM     79  N   UNL A   1      31.841  24.871  23.738  1.00  0.00    -0.327 N 
ATOM     80  C   UNL A   1      32.771  25.927  26.110  1.00  0.00    -0.024 C 
ATOM     81  C   UNL A   1      30.783  25.397  24.650  1.00  0.00     0.243 C 
ATOM     82  H   UNL A   1      31.397  24.273  23.041  1.00  0.00     0.347 HD
ATOM     83  H   UNL A   1      32.302  25.681  23.322  1.00  0.00     0.347 HD
ATOM     84  C   UNL A   1      33.097  27.174  26.430  1.00  0.00     0.002 A 
ATOM     85  C   UNL A   1      31.284  25.734  26.112  1.00  0.00     0.196 C 
ATOM     86  C   UNL A   1      34.297  27.943  26.484  1.00  0.00     0.010 A 
ATOM     87  C   UNL A   1      31.786  27.759  26.769  1.00  0.00     0.066 A 
ATOM     88  N   UNL A   1      30.738  26.999  26.672  1.00  0.00    -0.270 NA
ATOM     89  C   UNL A   1      34.214  29.236  26.843  1.00  0.00     0.001 A 
ATOM     90  C   UNL A   1      31.784  29.172  27.198  1.00  0.00     0.028 A 
ATOM     91  C   UNL A   1      32.946  29.845  27.211  1.00  0.00     0.002 A 
BRANCH  81  92
ATOM     92  C   UNL A   1      29.967  26.520  23.984  1.00  0.00     0.012 A 
ATOM     93  C   UNL A   1      28.562  26.459  24.054  1.00  0.00     0.010 A 
ATOM     94  C   UNL A   1      30.534  27.636  23.344  1.00  0.00     0.010 A 
ATOM     95  C   UNL A   1      27.762  27.478  23.535  1.00  0.00     0.001 A 
ATOM     96  C   UNL A   1      29.732  28.650  22.811  1.00  0.00     0.001 A 
ATOM     97  C   UNL A   1      28.347  28.575  22.913  1.00  0.00     0.000 A 
ENDBRANCH  81  92
ENDBRANCH  74  77
ENDBRANCH  72  73
ENDBRANCH  71  72
ENDBRANCH   1  71
TORSDOF 14
ENDMDL
MODEL 3
REMARK VINA RESULT:     -13.7      1.599      1.996
REMARK SMILES O=C(NCCCNC(=O)[C@H]1CC2=c3ccccc3=N[C@H]2[C@@H](c2ccccc2)[NH2+]1)c1ccc(-c2c3nc(c(-c4cc(S(=O)(=O)[O-])ccc4F)c4ccc([nH]4)c(-c4cc(S(=O)(=O)[O-])ccc4F)c4nc(c(-c5cc(S(=O)(=O)[O-])ccc5F)c5ccc2[nH]5)C=C4)C=C3)cc1
REMARK SMILES IDX 4 1 3 2 1 3 2 4 29 6 30 7 91 8 31 9 90 10 32 11 33 12 34 13
REMARK SMILES IDX 84 14 35 15 89 16 83 17 85 18 36 19 88 20 82 21 81 22 37 24
REMARK SMILES IDX 69 25 49 26 68 27 50 28 53 29 67 30 86 31 51 32 52 33 66 35
REMARK SMILES IDX 87 36 54 37 38 38 39 39 47 40 40 41 46 42 48 43 45 44 41 45
REMARK SMILES IDX 42 46 43 47 44 48 70 49 71 50 79 51 72 52 78 53 80 54 77 55
REMARK SMILES IDX 73 56 74 57 75 58 76 59 55 60 56 61 64 62 57 63 63 64 65 65
REMARK SMILES IDX 62 66 58 67 59 68 60 69 61 70 5 71 6 72 7 73 8 74 9 76 10 77
REMARK SMILES IDX 11 78 28 79 12 80 21 81 13 84 20 85 14 86 18 87 19 88 15 89
REMARK SMILES IDX 17 90 16 91 22 92 23 93 27 94 24 95 26 96 25 97
REMARK H PARENT 3 5 85 23 53 34 7 75 28 82 28 83
REMARK Flexibility Score: inf
ROOT
ATOM      1  C   UNL A   1      33.005  29.862  26.400  1.00  0.00     0.118 C 
ENDROOT
BRANCH   1   2
ATOM      2  N   UNL A   1      33.028  31.235  26.869  1.00  0.00    -0.352 N 
ATOM      3  O   UNL A   1      33.541  32.946  28.211  1.00  0.00    -0.269 OA
ATOM      4  C   UNL A   1      33.892  31.871  27.725  1.00  0.00     0.251 C 
ATOM      5  H   UNL A   1      32.306  31.804  26.515  1.00  0.00     0.163 HD
BRANCH   4   6
ATOM      6  C   UNL A   1      35.222  31.306  28.067  1.00  0.00     0.039 A 
ATOM      7  C   UNL A   1      35.299  29.962  28.446  1.00  0.00     0.014 A 
ATOM      8  C   UNL A   1      36.370  32.098  28.140  1.00  0.00     0.014 A 
ATOM      9  C   UNL A   1      36.506  29.429  28.909  1.00  0.00     0.010 A 
ATOM     10  C   UNL A   1      37.599  31.537  28.481  1.00  0.00     0.010 A 
ATOM     11  C   UNL A   1      37.668  30.217  28.939  1.00  0.00    -0.014 A 
BRANCH  11  12
ATOM     12  C   UNL A   1      38.920  29.723  29.573  1.00  0.00     0.031 A 
ATOM     13  C   UNL A   1      39.303  30.217  30.949  1.00  0.00     0.074 A 
ATOM     14  C   UNL A   1      39.711  28.844  28.926  1.00  0.00     0.049 A 
ATOM     15  N   UNL A   1      40.351  29.919  31.672  1.00  0.00    -0.248 NA
ATOM     16  C   UNL A   1      38.409  31.202  31.584  1.00  0.00     0.031 C 
ATOM     17  C   UNL A   1      39.464  28.324  27.582  1.00  0.00     0.029 A 
ATOM     18  N   UNL A   1      40.874  28.226  29.314  1.00  0.00    -0.354 N 
ATOM     19  C   UNL A   1      40.251  30.691  32.826  1.00  0.00     0.074 A 
ATOM     20  C   UNL A   1      39.083  31.525  32.677  1.00  0.00     0.031 C 
ATOM     21  C   UNL A   1      40.414  27.427  27.278  1.00  0.00     0.029 A 
ATOM     22  C   UNL A   1      41.362  27.333  28.387  1.00  0.00     0.049 A 
ATOM     23  H   UNL A   1      41.317  28.405  30.176  1.00  0.00     0.167 HD
ATOM     24  C   UNL A   1      41.038  30.679  33.926  1.00  0.00     0.034 A 
ATOM     25  C   UNL A   1      42.437  26.518  28.435  1.00  0.00     0.034 A 
ATOM     26  C   UNL A   1      42.161  29.796  34.089  1.00  0.00     0.049 A 
ATOM     27  C   UNL A   1      43.278  26.495  29.691  1.00  0.00     0.074 A 
ATOM     28  C   UNL A   1      42.989  29.661  35.189  1.00  0.00     0.029 A 
ATOM     29  N   UNL A   1      42.599  28.882  33.142  1.00  0.00    -0.354 N 
ATOM     30  N   UNL A   1      43.123  27.179  30.801  1.00  0.00    -0.248 NA
ATOM     31  C   UNL A   1      44.425  25.576  29.713  1.00  0.00     0.031 C 
ATOM     32  C   UNL A   1      43.960  28.709  34.886  1.00  0.00     0.029 A 
ATOM     33  C   UNL A   1      43.693  28.189  33.629  1.00  0.00     0.049 A 
ATOM     34  H   UNL A   1      42.192  28.748  32.255  1.00  0.00     0.167 HD
ATOM     35  C   UNL A   1      44.119  26.735  31.667  1.00  0.00     0.074 A 
ATOM     36  C   UNL A   1      44.863  25.716  30.957  1.00  0.00     0.031 C 
ATOM     37  C   UNL A   1      44.393  27.138  32.934  1.00  0.00     0.034 A 
BRANCH  24  38
ATOM     38  C   UNL A   1      40.707  31.608  35.071  1.00  0.00     0.023 A 
ATOM     39  C   UNL A   1      39.638  31.302  35.934  1.00  0.00     0.031 A 
ATOM     40  C   UNL A   1      41.350  32.849  35.223  1.00  0.00     0.131 A 
ATOM     41  C   UNL A   1      39.217  32.244  36.880  1.00  0.00     0.055 A 
ATOM     42  C   UNL A   1      40.959  33.763  36.202  1.00  0.00     0.041 A 
ATOM     43  F   UNL A   1      42.375  33.189  34.426  1.00  0.00    -0.206 F 
ATOM     44  C   UNL A   1      39.877  33.469  37.026  1.00  0.00     0.022 A 
BRANCH  41  45
ATOM     45  S   UNL A   1      37.752  31.946  37.908  1.00  0.00     0.124 S 
ATOM     46  O   UNL A   1      37.442  30.553  37.591  1.00  0.00    -0.237 OA
ATOM     47  O   UNL A   1      38.273  32.179  39.253  1.00  0.00    -0.237 OA
ATOM     48  O   UNL A   1      36.781  32.921  37.428  1.00  0.00    -0.744 OA
ENDBRANCH  41  45
ENDBRANCH  24  38
BRANCH  25  49
ATOM     49  C   UNL A   1      42.702  25.584  27.301  1.00  0.00     0.023 A 
ATOM     50  C   UNL A   1      42.207  24.267  27.304  1.00  0.00     0.031 A 
ATOM     51  C   UNL A   1      43.534  25.972  26.236  1.00  0.00     0.131 A 
ATOM     52  C   UNL A   1      42.594  23.375  26.294  1.00  0.00     0.055 A 
ATOM     53  C   UNL A   1      43.858  25.101  25.194  1.00  0.00     0.041 A 
ATOM     54  F   UNL A   1      44.047  27.211  26.196  1.00  0.00    -0.206 F 
ATOM     55  C   UNL A   1      43.400  23.788  25.230  1.00  0.00     0.022 A 
BRANCH  52  56
ATOM     56  S   UNL A   1      42.173  21.612  26.401  1.00  0.00     0.124 S 
ATOM     57  O   UNL A   1      42.416  21.328  27.814  1.00  0.00    -0.237 OA
ATOM     58  O   UNL A   1      40.768  21.615  25.993  1.00  0.00    -0.237 OA
ATOM     59  O   UNL A   1      43.088  20.981  25.462  1.00  0.00    -0.744 OA
ENDBRANCH  52  56
ENDBRANCH  25  49
BRANCH  37  60
ATOM     60  C   UNL A   1      45.510  26.461  33.693  1.00  0.00     0.023 A 
ATOM     61  C   UNL A   1      45.202  25.433  34.608  1.00  0.00     0.031 A 
ATOM     62  C   UNL A   1      46.831  26.936  33.648  1.00  0.00     0.131 A 
ATOM     63  C   UNL A   1      46.192  24.946  35.470  1.00  0.00     0.055 A 
ATOM     64  C   UNL A   1      47.826  26.411  34.474  1.00  0.00     0.041 A 
ATOM     65  F   UNL A   1      47.170  27.927  32.808  1.00  0.00    -0.206 F 
ATOM     66  C   UNL A   1      47.504  25.423  35.401  1.00  0.00     0.022 A 
BRANCH  63  67
ATOM     67  S   UNL A   1      45.788  23.761  36.783  1.00  0.00     0.124 S 
ATOM     68  O   UNL A   1      45.373  22.591  36.014  1.00  0.00    -0.237 OA
ATOM     69  O   UNL A   1      47.063  23.627  37.481  1.00  0.00    -0.237 OA
ATOM     70  O   UNL A   1      44.726  24.418  37.539  1.00  0.00    -0.744 OA
ENDBRANCH  63  67
ENDBRANCH  37  60
ENDBRANCH  11  12
ENDBRANCH   4   6
ENDBRANCH   1   2
BRANCH   1  71
ATOM     71  C   UNL A   1      31.918  29.054  27.089  1.00  0.00     0.042 C 
BRANCH  71  72
ATOM     72  C   UNL A   1      31.221  28.062  26.164  1.00  0.00     0.118 C 
BRANCH  72  73
ATOM     73  N   UNL A   1      31.022  26.772  26.810  1.00  0.00    -0.351 N 
ATOM     74  C   UNL A   1      31.238  25.493  26.378  1.00  0.00     0.278 C 
ATOM     75  H   UNL A   1      30.669  26.833  27.726  1.00  0.00     0.163 HD
ATOM     76  O   UNL A   1      30.833  24.579  27.103  1.00  0.00    -0.268 OA
BRANCH  74  77
ATOM     77  C   UNL A   1      31.990  25.191  25.063  1.00  0.00     0.277 C 
ATOM     78  C   UNL A   1      33.484  25.576  25.151  1.00  0.00     0.109 C 
ATOM     79  N   UNL A   1      31.698  23.787  24.673  1.00  0.00    -0.327 N 
ATOM     80  C   UNL A   1      34.334  24.569  24.460  1.00  0.00    -0.024 C 
ATOM     81  C   UNL A   1      32.383  23.353  23.420  1.00  0.00     0.243 C 
ATOM     82  H   UNL A   1      30.691  23.695  24.537  1.00  0.00     0.347 HD
ATOM     83  H   UNL A   1      32.047  23.191  25.424  1.00  0.00     0.347 HD
ATOM     84  C   UNL A   1      35.451  23.941  24.807  1.00  0.00     0.002 A 
ATOM     85  C   UNL A   1      33.788  24.036  23.168  1.00  0.00     0.196 C 
ATOM     86  C   UNL A   1      36.322  23.939  25.937  1.00  0.00     0.010 A 
ATOM     87  C   UNL A   1      35.692  23.070  23.642  1.00  0.00     0.066 A 
ATOM     88  N   UNL A   1      34.838  23.113  22.664  1.00  0.00    -0.270 NA
ATOM     89  C   UNL A   1      37.380  23.110  25.930  1.00  0.00     0.001 A 
ATOM     90  C   UNL A   1      36.899  22.220  23.690  1.00  0.00     0.028 A 
ATOM     91  C   UNL A   1      37.669  22.254  24.790  1.00  0.00     0.002 A 
BRANCH  81  92
ATOM     92  C   UNL A   1      32.389  21.820  23.279  1.00  0.00     0.012 A 
ATOM     93  C   UNL A   1      32.741  21.044  24.400  1.00  0.00     0.010 A 
ATOM     94  C   UNL A   1      32.020  21.133  22.108  1.00  0.00     0.010 A 
ATOM     95  C   UNL A   1      32.698  19.649  24.364  1.00  0.00     0.001 A 
ATOM     96  C   UNL A   1      31.992  19.735  22.067  1.00  0.00     0.001 A 
ATOM     97  C   UNL A   1      32.323  18.994  23.196  1.00  0.00     0.000 A 
ENDBRANCH  81  92
ENDBRANCH  74  77
ENDBRANCH  72  73
ENDBRANCH  71  72
ENDBRANCH   1  71
TORSDOF 14
ENDMDL
