MODEL 1
REMARK VINA RESULT:     -12.8      0.000      0.000
REMARK SMILES COc1ccc(C[NH2+]Cc2cccn2-c2sc(C)c(C)c2C(=O)NCCCNC(=O)c2ccc(-c3c4nc(c(-c5cc(S(=O)(=O)[O-])ccc5F)c5ccc([nH]5)c(-c5cc(S(=O)(=O)[O-])ccc5F)c5nc(c(-c6cc(S(=O)(=O)[O-])ccc6F)c6ccc3[nH]6)C=C5)C=C4)cc2)cc1
REMARK SMILES IDX 22 1 23 2 24 3 21 5 15 6 16 7 17 8 19 9 18 10 20 11 14 12
REMARK SMILES IDX 10 13 11 14 12 15 13 16 9 17 8 18 7 21 6 22 3 23 4 24 95 25
REMARK SMILES IDX 5 26 94 27 2 28 1 29 25 30 26 31 27 32 28 33 29 34 30 36
REMARK SMILES IDX 31 37 32 38 93 39 33 40 92 41 34 42 35 43 36 44 86 45 37 46
REMARK SMILES IDX 91 47 85 48 87 49 38 50 90 51 84 52 83 53 39 55 71 56 51 57
REMARK SMILES IDX 70 58 52 59 55 60 69 61 88 62 53 63 54 64 68 66 89 67 56 68
REMARK SMILES IDX 40 69 41 70 49 71 42 72 48 73 50 74 47 75 43 76 44 77 45 78
REMARK SMILES IDX 46 79 72 80 73 81 81 82 74 83 80 84 82 85 79 86 75 87 76 88
REMARK SMILES IDX 77 89 78 90 57 91 58 92 66 93 59 94 65 95 67 96 64 97 60 98
REMARK SMILES IDX 61 99 62 100 63 101
REMARK H PARENT 24 4 8 19 8 20 28 35 87 54 55 65
REMARK Flexibility Score: inf
ROOT
ATOM      1  C   UNL A   1      32.937  28.619  23.702  1.00  0.00     0.254 C 
ATOM      2  O   UNL A   1      33.624  28.698  22.675  1.00  0.00    -0.269 OA
ATOM      3  N   UNL A   1      33.220  29.642  24.550  1.00  0.00    -0.352 N 
ATOM      4  H   UNL A   1      33.943  30.209  24.196  1.00  0.00     0.163 HD
ENDROOT
BRANCH   1   5
ATOM      5  C   UNL A   1      31.964  27.507  23.862  1.00  0.00     0.078 A 
ATOM      6  C   UNL A   1      32.087  26.135  24.051  1.00  0.00     0.113 A 
ATOM      7  S   UNL A   1      30.607  25.293  24.168  1.00  0.00    -0.122 S 
ATOM      8  C   UNL A   1      29.698  26.691  23.895  1.00  0.00     0.007 A 
ATOM      9  C   UNL A   1      30.501  27.809  23.753  1.00  0.00    -0.022 A 
ATOM     10  C   UNL A   1      28.208  26.607  23.846  1.00  0.00     0.057 C 
ATOM     11  C   UNL A   1      29.929  29.184  23.515  1.00  0.00     0.046 C 
BRANCH   6  12
ATOM     12  N   UNL A   1      33.175  25.297  24.306  1.00  0.00    -0.306 N 
ATOM     13  C   UNL A   1      33.703  24.284  23.497  1.00  0.00     0.078 A 
ATOM     14  C   UNL A   1      34.709  23.651  24.215  1.00  0.00     0.029 A 
ATOM     15  C   UNL A   1      34.719  24.179  25.520  1.00  0.00     0.020 A 
ATOM     16  C   UNL A   1      33.713  25.115  25.575  1.00  0.00     0.092 A 
BRANCH  13  17
ATOM     17  C   UNL A   1      33.198  23.940  22.131  1.00  0.00     0.316 C 
BRANCH  17  18
ATOM     18  N   UNL A   1      32.672  22.594  22.011  1.00  0.00    -0.338 N 
ATOM     19  H   UNL A   1      31.935  22.600  21.305  1.00  0.00     0.346 HD
ATOM     20  H   UNL A   1      33.459  21.995  21.760  1.00  0.00     0.346 HD
BRANCH  18  21
ATOM     21  C   UNL A   1      32.115  22.053  23.243  1.00  0.00     0.297 C 
BRANCH  21  22
ATOM     22  C   UNL A   1      32.465  20.590  23.381  1.00  0.00     0.006 A 
ATOM     23  C   UNL A   1      33.152  17.880  23.638  1.00  0.00     0.118 A 
ATOM     24  C   UNL A   1      33.520  18.788  24.625  1.00  0.00     0.047 A 
ATOM     25  C   UNL A   1      32.394  18.304  22.548  1.00  0.00     0.047 A 
ATOM     26  C   UNL A   1      33.183  20.136  24.497  1.00  0.00     0.013 A 
ATOM     27  C   UNL A   1      32.064  19.656  22.418  1.00  0.00     0.013 A 
BRANCH  23  28
ATOM     28  O   UNL A   1      33.539  16.584  23.834  1.00  0.00    -0.497 OA
ATOM     29  C   UNL A   1      33.505  16.204  25.207  1.00  0.00     0.278 C 
ENDBRANCH  23  28
ENDBRANCH  21  22
ENDBRANCH  18  21
ENDBRANCH  17  18
ENDBRANCH  13  17
ENDBRANCH   6  12
ENDBRANCH   1   5
BRANCH   3  30
ATOM     30  C   UNL A   1      32.756  30.123  25.820  1.00  0.00     0.118 C 
BRANCH  30  31
ATOM     31  C   UNL A   1      33.228  29.227  26.961  1.00  0.00     0.042 C 
BRANCH  31  32
ATOM     32  C   UNL A   1      34.747  29.192  27.012  1.00  0.00     0.118 C 
BRANCH  32  33
ATOM     33  N   UNL A   1      35.286  30.494  27.371  1.00  0.00    -0.352 N 
ATOM     34  C   UNL A   1      36.449  30.827  28.017  1.00  0.00     0.251 C 
ATOM     35  H   UNL A   1      34.725  31.260  27.107  1.00  0.00     0.163 HD
ATOM     36  O   UNL A   1      36.579  31.983  28.415  1.00  0.00    -0.269 OA
BRANCH  34  37
ATOM     37  C   UNL A   1      37.505  29.824  28.296  1.00  0.00     0.039 A 
ATOM     38  C   UNL A   1      38.581  29.746  27.399  1.00  0.00     0.014 A 
ATOM     39  C   UNL A   1      37.460  28.956  29.390  1.00  0.00     0.014 A 
ATOM     40  C   UNL A   1      39.641  28.879  27.647  1.00  0.00     0.010 A 
ATOM     41  C   UNL A   1      38.536  28.124  29.672  1.00  0.00     0.010 A 
ATOM     42  C   UNL A   1      39.638  28.102  28.811  1.00  0.00    -0.014 A 
BRANCH  42  43
ATOM     43  C   UNL A   1      40.852  27.367  29.226  1.00  0.00     0.031 A 
ATOM     44  C   UNL A   1      41.115  26.109  28.372  1.00  0.00     0.074 A 
ATOM     45  C   UNL A   1      41.589  27.932  30.228  1.00  0.00     0.049 A 
ATOM     46  N   UNL A   1      41.903  25.096  28.578  1.00  0.00    -0.248 NA
ATOM     47  C   UNL A   1      40.342  25.931  27.107  1.00  0.00     0.031 C 
ATOM     48  C   UNL A   1      41.222  29.171  30.951  1.00  0.00     0.029 A 
ATOM     49  N   UNL A   1      42.783  27.604  30.832  1.00  0.00    -0.354 N 
ATOM     50  C   UNL A   1      41.922  24.332  27.389  1.00  0.00     0.074 A 
ATOM     51  C   UNL A   1      40.853  24.821  26.575  1.00  0.00     0.031 C 
ATOM     52  C   UNL A   1      42.120  29.448  31.923  1.00  0.00     0.029 A 
ATOM     53  C   UNL A   1      43.168  28.447  31.909  1.00  0.00     0.049 A 
ATOM     54  H   UNL A   1      43.331  26.841  30.538  1.00  0.00     0.167 HD
ATOM     55  C   UNL A   1      42.903  23.440  27.066  1.00  0.00     0.034 A 
ATOM     56  C   UNL A   1      44.241  28.336  32.749  1.00  0.00     0.034 A 
ATOM     57  C   UNL A   1      43.822  23.283  28.135  1.00  0.00     0.049 A 
ATOM     58  C   UNL A   1      45.068  27.266  32.176  1.00  0.00     0.074 A 
ATOM     59  C   UNL A   1      43.742  22.699  29.368  1.00  0.00     0.029 A 
ATOM     60  N   UNL A   1      44.990  24.001  28.060  1.00  0.00    -0.354 N 
ATOM     61  N   UNL A   1      45.818  27.392  31.124  1.00  0.00    -0.248 NA
ATOM     62  C   UNL A   1      45.027  25.935  32.796  1.00  0.00     0.031 C 
ATOM     63  C   UNL A   1      44.629  23.462  30.154  1.00  0.00     0.029 A 
ATOM     64  C   UNL A   1      45.284  24.396  29.339  1.00  0.00     0.049 A 
ATOM     65  H   UNL A   1      45.513  24.193  27.249  1.00  0.00     0.167 HD
ATOM     66  C   UNL A   1      46.098  26.090  30.796  1.00  0.00     0.074 A 
ATOM     67  C   UNL A   1      45.884  25.310  31.994  1.00  0.00     0.031 C 
ATOM     68  C   UNL A   1      45.951  25.670  29.515  1.00  0.00     0.034 A 
BRANCH  55  69
ATOM     69  C   UNL A   1      43.305  22.813  25.757  1.00  0.00     0.023 A 
ATOM     70  C   UNL A   1      43.443  21.403  25.739  1.00  0.00     0.031 A 
ATOM     71  C   UNL A   1      43.929  23.518  24.720  1.00  0.00     0.131 A 
ATOM     72  C   UNL A   1      44.260  20.764  24.797  1.00  0.00     0.055 A 
ATOM     73  C   UNL A   1      44.667  22.866  23.721  1.00  0.00     0.041 A 
ATOM     74  F   UNL A   1      43.932  24.859  24.702  1.00  0.00    -0.206 F 
ATOM     75  C   UNL A   1      44.864  21.487  23.774  1.00  0.00     0.022 A 
BRANCH  72  76
ATOM     76  S   UNL A   1      44.687  19.019  25.078  1.00  0.00     0.124 S 
ATOM     77  O   UNL A   1      44.997  18.558  23.730  1.00  0.00    -0.237 OA
ATOM     78  O   UNL A   1      45.823  19.125  25.990  1.00  0.00    -0.237 OA
ATOM     79  O   UNL A   1      43.471  18.460  25.664  1.00  0.00    -0.744 OA
ENDBRANCH  72  76
ENDBRANCH  55  69
BRANCH  56  80
ATOM     80  C   UNL A   1      44.754  28.955  34.037  1.00  0.00     0.023 A 
ATOM     81  C   UNL A   1      45.000  28.278  35.242  1.00  0.00     0.031 A 
ATOM     82  C   UNL A   1      45.093  30.345  34.057  1.00  0.00     0.131 A 
ATOM     83  C   UNL A   1      45.605  28.956  36.337  1.00  0.00     0.055 A 
ATOM     84  C   UNL A   1      45.753  30.986  35.105  1.00  0.00     0.041 A 
ATOM     85  F   UNL A   1      44.809  31.168  33.040  1.00  0.00    -0.206 F 
ATOM     86  C   UNL A   1      46.027  30.284  36.253  1.00  0.00     0.022 A 
BRANCH  83  87
ATOM     87  S   UNL A   1      45.900  28.127  37.926  1.00  0.00     0.124 S 
ATOM     88  O   UNL A   1      46.052  26.736  37.515  1.00  0.00    -0.237 OA
ATOM     89  O   UNL A   1      47.103  28.782  38.429  1.00  0.00    -0.237 OA
ATOM     90  O   UNL A   1      44.680  28.423  38.678  1.00  0.00    -0.744 OA
ENDBRANCH  83  87
ENDBRANCH  56  80
BRANCH  68  91
ATOM     91  C   UNL A   1      46.073  26.774  28.470  1.00  0.00     0.023 A 
ATOM     92  C   UNL A   1      45.213  27.888  28.517  1.00  0.00     0.031 A 
ATOM     93  C   UNL A   1      46.941  26.706  27.365  1.00  0.00     0.131 A 
ATOM     94  C   UNL A   1      45.236  28.859  27.495  1.00  0.00     0.055 A 
ATOM     95  C   UNL A   1      46.981  27.680  26.360  1.00  0.00     0.041 A 
ATOM     96  F   UNL A   1      47.776  25.680  27.210  1.00  0.00    -0.206 F 
ATOM     97  C   UNL A   1      46.121  28.765  26.420  1.00  0.00     0.022 A 
BRANCH  94  98
ATOM     98  S   UNL A   1      44.104  30.273  27.593  1.00  0.00     0.124 S 
ATOM     99  O   UNL A   1      44.799  31.289  26.800  1.00  0.00    -0.237 OA
ATOM    100  O   UNL A   1      42.881  29.744  27.022  1.00  0.00    -0.237 OA
ATOM    101  O   UNL A   1      44.041  30.560  29.030  1.00  0.00    -0.744 OA
ENDBRANCH  94  98
ENDBRANCH  68  91
ENDBRANCH  42  43
ENDBRANCH  34  37
ENDBRANCH  32  33
ENDBRANCH  31  32
ENDBRANCH  30  31
ENDBRANCH   3  30
TORSDOF 19
ENDMDL
MODEL 2
REMARK VINA RESULT:     -12.4      4.380      9.986
REMARK SMILES COc1ccc(C[NH2+]Cc2cccn2-c2sc(C)c(C)c2C(=O)NCCCNC(=O)c2ccc(-c3c4nc(c(-c5cc(S(=O)(=O)[O-])ccc5F)c5ccc([nH]5)c(-c5cc(S(=O)(=O)[O-])ccc5F)c5nc(c(-c6cc(S(=O)(=O)[O-])ccc6F)c6ccc3[nH]6)C=C5)C=C4)cc2)cc1
REMARK SMILES IDX 22 1 23 2 24 3 21 5 15 6 16 7 17 8 19 9 18 10 20 11 14 12
REMARK SMILES IDX 10 13 11 14 12 15 13 16 9 17 8 18 7 21 6 22 3 23 4 24 95 25
REMARK SMILES IDX 5 26 94 27 2 28 1 29 25 30 26 31 27 32 28 33 29 34 30 36
REMARK SMILES IDX 31 37 32 38 93 39 33 40 92 41 34 42 35 43 36 44 86 45 37 46
REMARK SMILES IDX 91 47 85 48 87 49 38 50 90 51 84 52 83 53 39 55 71 56 51 57
REMARK SMILES IDX 70 58 52 59 55 60 69 61 88 62 53 63 54 64 68 66 89 67 56 68
REMARK SMILES IDX 40 69 41 70 49 71 42 72 48 73 50 74 47 75 43 76 44 77 45 78
REMARK SMILES IDX 46 79 72 80 73 81 81 82 74 83 80 84 82 85 79 86 75 87 76 88
REMARK SMILES IDX 77 89 78 90 57 91 58 92 66 93 59 94 65 95 67 96 64 97 60 98
REMARK SMILES IDX 61 99 62 100 63 101
REMARK H PARENT 24 4 8 19 8 20 28 35 87 54 55 65
REMARK Flexibility Score: inf
ROOT
ATOM      1  C   UNL A   1      36.384  20.408  24.851  1.00  0.00     0.254 C 
ATOM      2  O   UNL A   1      37.094  19.457  25.203  1.00  0.00    -0.269 OA
ATOM      3  N   UNL A   1      37.148  21.481  24.518  1.00  0.00    -0.352 N 
ATOM      4  H   UNL A   1      38.104  21.298  24.666  1.00  0.00     0.163 HD
ENDROOT
BRANCH   1   5
ATOM      5  C   UNL A   1      34.905  20.265  24.835  1.00  0.00     0.078 A 
ATOM      6  C   UNL A   1      33.847  21.143  25.050  1.00  0.00     0.113 A 
ATOM      7  S   UNL A   1      32.297  20.441  24.914  1.00  0.00    -0.122 S 
ATOM      8  C   UNL A   1      32.931  18.900  24.635  1.00  0.00     0.007 A 
ATOM      9  C   UNL A   1      34.315  18.909  24.603  1.00  0.00    -0.022 A 
ATOM     10  C   UNL A   1      32.006  17.743  24.447  1.00  0.00     0.057 C 
ATOM     11  C   UNL A   1      35.121  17.658  24.356  1.00  0.00     0.046 C 
BRANCH   6  12
ATOM     12  N   UNL A   1      33.770  22.526  25.225  1.00  0.00    -0.306 N 
ATOM     13  C   UNL A   1      33.614  23.520  24.253  1.00  0.00     0.078 A 
ATOM     14  C   UNL A   1      33.704  24.751  24.890  1.00  0.00     0.029 A 
ATOM     15  C   UNL A   1      34.049  24.528  26.236  1.00  0.00     0.020 A 
ATOM     16  C   UNL A   1      34.173  23.168  26.392  1.00  0.00     0.092 A 
BRANCH  13  17
ATOM     17  C   UNL A   1      33.447  23.256  22.790  1.00  0.00     0.316 C 
BRANCH  17  18
ATOM     18  N   UNL A   1      32.167  23.673  22.251  1.00  0.00    -0.338 N 
ATOM     19  H   UNL A   1      32.306  24.542  21.735  1.00  0.00     0.346 HD
ATOM     20  H   UNL A   1      31.836  22.909  21.662  1.00  0.00     0.346 HD
BRANCH  18  21
ATOM     21  C   UNL A   1      31.136  23.900  23.254  1.00  0.00     0.297 C 
BRANCH  21  22
ATOM     22  C   UNL A   1      30.622  25.318  23.169  1.00  0.00     0.006 A 
ATOM     23  C   UNL A   1      29.697  27.965  23.025  1.00  0.00     0.118 A 
ATOM     24  C   UNL A   1      30.822  27.580  22.303  1.00  0.00     0.047 A 
ATOM     25  C   UNL A   1      28.994  27.023  23.776  1.00  0.00     0.047 A 
ATOM     26  C   UNL A   1      31.286  26.266  22.377  1.00  0.00     0.013 A 
ATOM     27  C   UNL A   1      29.465  25.710  23.854  1.00  0.00     0.013 A 
BRANCH  23  28
ATOM     28  O   UNL A   1      29.324  29.275  22.911  1.00  0.00    -0.497 OA
ATOM     29  C   UNL A   1      27.922  29.428  22.702  1.00  0.00     0.278 C 
ENDBRANCH  23  28
ENDBRANCH  21  22
ENDBRANCH  18  21
ENDBRANCH  17  18
ENDBRANCH  13  17
ENDBRANCH   6  12
ENDBRANCH   1   5
BRANCH   3  30
ATOM     30  C   UNL A   1      36.944  22.807  24.008  1.00  0.00     0.118 C 
BRANCH  30  31
ATOM     31  C   UNL A   1      37.736  23.838  24.809  1.00  0.00     0.042 C 
BRANCH  31  32
ATOM     32  C   UNL A   1      37.543  23.611  26.300  1.00  0.00     0.118 C 
BRANCH  32  33
ATOM     33  N   UNL A   1      38.763  23.109  26.912  1.00  0.00    -0.352 N 
ATOM     34  C   UNL A   1      39.812  23.782  27.483  1.00  0.00     0.251 C 
ATOM     35  H   UNL A   1      38.848  22.128  26.918  1.00  0.00     0.163 HD
ATOM     36  O   UNL A   1      40.839  23.152  27.726  1.00  0.00    -0.269 OA
BRANCH  34  37
ATOM     37  C   UNL A   1      39.756  25.240  27.750  1.00  0.00     0.039 A 
ATOM     38  C   UNL A   1      39.333  25.652  29.022  1.00  0.00     0.014 A 
ATOM     39  C   UNL A   1      40.084  26.202  26.791  1.00  0.00     0.014 A 
ATOM     40  C   UNL A   1      39.333  27.004  29.358  1.00  0.00     0.010 A 
ATOM     41  C   UNL A   1      40.134  27.547  27.133  1.00  0.00     0.010 A 
ATOM     42  C   UNL A   1      39.780  27.945  28.425  1.00  0.00    -0.014 A 
BRANCH  42  43
ATOM     43  C   UNL A   1      40.027  29.346  28.833  1.00  0.00     0.031 A 
ATOM     44  C   UNL A   1      38.727  30.143  29.066  1.00  0.00     0.074 A 
ATOM     45  C   UNL A   1      41.333  29.702  29.013  1.00  0.00     0.049 A 
ATOM     46  N   UNL A   1      38.527  31.423  29.177  1.00  0.00    -0.248 NA
ATOM     47  C   UNL A   1      37.436  29.396  29.145  1.00  0.00     0.031 C 
ATOM     48  C   UNL A   1      42.493  28.813  28.769  1.00  0.00     0.029 A 
ATOM     49  N   UNL A   1      41.955  30.854  29.443  1.00  0.00    -0.354 N 
ATOM     50  C   UNL A   1      37.188  31.603  29.594  1.00  0.00     0.074 A 
ATOM     51  C   UNL A   1      36.540  30.339  29.434  1.00  0.00     0.031 C 
ATOM     52  C   UNL A   1      43.656  29.467  28.984  1.00  0.00     0.029 A 
ATOM     53  C   UNL A   1      43.375  30.821  29.417  1.00  0.00     0.049 A 
ATOM     54  H   UNL A   1      41.451  31.643  29.747  1.00  0.00     0.167 HD
ATOM     55  C   UNL A   1      36.717  32.736  30.191  1.00  0.00     0.034 A 
ATOM     56  C   UNL A   1      44.266  31.819  29.700  1.00  0.00     0.034 A 
ATOM     57  C   UNL A   1      37.708  33.751  30.212  1.00  0.00     0.049 A 
ATOM     58  C   UNL A   1      43.455  32.909  30.261  1.00  0.00     0.074 A 
ATOM     59  C   UNL A   1      38.276  34.534  29.247  1.00  0.00     0.029 A 
ATOM     60  N   UNL A   1      38.417  33.900  31.378  1.00  0.00    -0.354 N 
ATOM     61  N   UNL A   1      42.957  32.920  31.459  1.00  0.00    -0.248 NA
ATOM     62  C   UNL A   1      43.136  34.060  29.407  1.00  0.00     0.031 C 
ATOM     63  C   UNL A   1      39.579  34.765  29.732  1.00  0.00     0.029 A 
ATOM     64  C   UNL A   1      39.703  34.206  31.012  1.00  0.00     0.049 A 
ATOM     65  H   UNL A   1      38.072  33.807  32.295  1.00  0.00     0.167 HD
ATOM     66  C   UNL A   1      42.034  33.932  31.392  1.00  0.00     0.074 A 
ATOM     67  C   UNL A   1      42.421  34.768  30.277  1.00  0.00     0.031 C 
ATOM     68  C   UNL A   1      40.777  33.732  31.859  1.00  0.00     0.034 A 
BRANCH  55  69
ATOM     69  C   UNL A   1      35.482  33.007  31.009  1.00  0.00     0.023 A 
ATOM     70  C   UNL A   1      34.697  34.124  30.632  1.00  0.00     0.031 A 
ATOM     71  C   UNL A   1      35.288  32.511  32.305  1.00  0.00     0.131 A 
ATOM     72  C   UNL A   1      33.859  34.767  31.553  1.00  0.00     0.055 A 
ATOM     73  C   UNL A   1      34.376  33.099  33.193  1.00  0.00     0.041 A 
ATOM     74  F   UNL A   1      36.049  31.516  32.783  1.00  0.00    -0.206 F 
ATOM     75  C   UNL A   1      33.680  34.251  32.832  1.00  0.00     0.022 A 
BRANCH  72  76
ATOM     76  S   UNL A   1      33.195  36.401  31.109  1.00  0.00     0.124 S 
ATOM     77  O   UNL A   1      33.636  36.547  29.728  1.00  0.00    -0.237 OA
ATOM     78  O   UNL A   1      31.759  36.210  31.302  1.00  0.00    -0.237 OA
ATOM     79  O   UNL A   1      33.835  37.300  32.067  1.00  0.00    -0.744 OA
ENDBRANCH  72  76
ENDBRANCH  55  69
BRANCH  56  80
ATOM     80  C   UNL A   1      45.753  32.096  29.571  1.00  0.00     0.023 A 
ATOM     81  C   UNL A   1      46.476  32.204  28.372  1.00  0.00     0.031 A 
ATOM     82  C   UNL A   1      46.523  32.339  30.752  1.00  0.00     0.131 A 
ATOM     83  C   UNL A   1      47.843  32.596  28.390  1.00  0.00     0.055 A 
ATOM     84  C   UNL A   1      47.840  32.794  30.761  1.00  0.00     0.041 A 
ATOM     85  F   UNL A   1      46.026  32.156  31.983  1.00  0.00    -0.206 F 
ATOM     86  C   UNL A   1      48.507  32.940  29.570  1.00  0.00     0.022 A 
BRANCH  83  87
ATOM     87  S   UNL A   1      48.824  32.705  26.865  1.00  0.00     0.124 S 
ATOM     88  O   UNL A   1      48.928  31.303  26.475  1.00  0.00    -0.237 OA
ATOM     89  O   UNL A   1      48.008  33.551  26.001  1.00  0.00    -0.237 OA
ATOM     90  O   UNL A   1      50.071  33.317  27.324  1.00  0.00    -0.744 OA
ENDBRANCH  83  87
ENDBRANCH  56  80
BRANCH  68  91
ATOM     91  C   UNL A   1      40.667  32.655  32.934  1.00  0.00     0.023 A 
ATOM     92  C   UNL A   1      40.633  31.295  32.570  1.00  0.00     0.031 A 
ATOM     93  C   UNL A   1      40.486  32.936  34.300  1.00  0.00     0.131 A 
ATOM     94  C   UNL A   1      40.417  30.295  33.539  1.00  0.00     0.055 A 
ATOM     95  C   UNL A   1      40.292  31.943  35.269  1.00  0.00     0.041 A 
ATOM     96  F   UNL A   1      40.473  34.191  34.747  1.00  0.00    -0.206 F 
ATOM     97  C   UNL A   1      40.254  30.612  34.889  1.00  0.00     0.022 A 
BRANCH  94  98
ATOM     98  S   UNL A   1      40.372  28.557  33.022  1.00  0.00     0.124 S 
ATOM     99  O   UNL A   1      40.677  27.849  34.267  1.00  0.00    -0.237 OA
ATOM    100  O   UNL A   1      39.022  28.408  32.517  1.00  0.00    -0.237 OA
ATOM    101  O   UNL A   1      41.425  28.478  32.003  1.00  0.00    -0.744 OA
ENDBRANCH  94  98
ENDBRANCH  68  91
ENDBRANCH  42  43
ENDBRANCH  34  37
ENDBRANCH  32  33
ENDBRANCH  31  32
ENDBRANCH  30  31
ENDBRANCH   3  30
TORSDOF 19
ENDMDL
MODEL 3
REMARK VINA RESULT:     -12.0      4.933      8.534
REMARK SMILES COc1ccc(C[NH2+]Cc2cccn2-c2sc(C)c(C)c2C(=O)NCCCNC(=O)c2ccc(-c3c4nc(c(-c5cc(S(=O)(=O)[O-])ccc5F)c5ccc([nH]5)c(-c5cc(S(=O)(=O)[O-])ccc5F)c5nc(c(-c6cc(S(=O)(=O)[O-])ccc6F)c6ccc3[nH]6)C=C5)C=C4)cc2)cc1
REMARK SMILES IDX 22 1 23 2 24 3 21 5 15 6 16 7 17 8 19 9 18 10 20 11 14 12
REMARK SMILES IDX 10 13 11 14 12 15 13 16 9 17 8 18 7 21 6 22 3 23 4 24 95 25
REMARK SMILES IDX 5 26 94 27 2 28 1 29 25 30 26 31 27 32 28 33 29 34 30 36
REMARK SMILES IDX 31 37 32 38 93 39 33 40 92 41 34 42 35 43 36 44 86 45 37 46
REMARK SMILES IDX 91 47 85 48 87 49 38 50 90 51 84 52 83 53 39 55 71 56 51 57
REMARK SMILES IDX 70 58 52 59 55 60 69 61 88 62 53 63 54 64 68 66 89 67 56 68
REMARK SMILES IDX 40 69 41 70 49 71 42 72 48 73 50 74 47 75 43 76 44 77 45 78
REMARK SMILES IDX 46 79 72 80 73 81 81 82 74 83 80 84 82 85 79 86 75 87 76 88
REMARK SMILES IDX 77 89 78 90 57 91 58 92 66 93 59 94 65 95 67 96 64 97 60 98
REMARK SMILES IDX 61 99 62 100 63 101
REMARK H PARENT 24 4 8 19 8 20 28 35 87 54 55 65
REMARK Flexibility Score: inf
ROOT
ATOM      1  C   UNL A   1      40.755  33.182  31.223  1.00  0.00     0.254 C 
ATOM      2  O   UNL A   1      41.703  32.700  30.589  1.00  0.00    -0.269 OA
ATOM      3  N   UNL A   1      40.035  34.028  30.442  1.00  0.00    -0.352 N 
ATOM      4  H   UNL A   1      40.438  34.120  29.548  1.00  0.00     0.163 HD
ENDROOT
BRANCH   1   5
ATOM      5  C   UNL A   1      40.540  32.800  32.643  1.00  0.00     0.078 A 
ATOM      6  C   UNL A   1      39.464  32.272  33.349  1.00  0.00     0.113 A 
ATOM      7  S   UNL A   1      39.753  32.022  35.013  1.00  0.00    -0.122 S 
ATOM      8  C   UNL A   1      41.308  32.675  34.922  1.00  0.00     0.007 A 
ATOM      9  C   UNL A   1      41.637  33.050  33.630  1.00  0.00    -0.022 A 
ATOM     10  C   UNL A   1      42.143  32.774  36.156  1.00  0.00     0.057 C 
ATOM     11  C   UNL A   1      42.978  33.648  33.283  1.00  0.00     0.046 C 
BRANCH   6  12
ATOM     12  N   UNL A   1      38.220  31.766  32.963  1.00  0.00    -0.306 N 
ATOM     13  C   UNL A   1      36.953  32.328  33.157  1.00  0.00     0.078 A 
ATOM     14  C   UNL A   1      36.011  31.412  32.705  1.00  0.00     0.029 A 
ATOM     15  C   UNL A   1      36.683  30.226  32.353  1.00  0.00     0.020 A 
ATOM     16  C   UNL A   1      38.017  30.437  32.607  1.00  0.00     0.092 A 
BRANCH  13  17
ATOM     17  C   UNL A   1      36.704  33.655  33.800  1.00  0.00     0.316 C 
BRANCH  17  18
ATOM     18  N   UNL A   1      35.397  33.784  34.416  1.00  0.00    -0.338 N 
ATOM     19  H   UNL A   1      34.735  33.223  33.880  1.00  0.00     0.346 HD
ATOM     20  H   UNL A   1      35.498  33.469  35.381  1.00  0.00     0.346 HD
BRANCH  18  21
ATOM     21  C   UNL A   1      34.892  35.149  34.475  1.00  0.00     0.297 C 
BRANCH  21  22
ATOM     22  C   UNL A   1      34.304  35.551  33.143  1.00  0.00     0.006 A 
ATOM     23  C   UNL A   1      33.181  36.309  30.685  1.00  0.00     0.118 A 
ATOM     24  C   UNL A   1      33.334  37.248  31.699  1.00  0.00     0.047 A 
ATOM     25  C   UNL A   1      33.636  35.004  30.868  1.00  0.00     0.047 A 
ATOM     26  C   UNL A   1      33.888  36.872  32.923  1.00  0.00     0.013 A 
ATOM     27  C   UNL A   1      34.184  34.628  32.097  1.00  0.00     0.013 A 
BRANCH  23  28
ATOM     28  O   UNL A   1      32.611  36.757  29.526  1.00  0.00    -0.497 OA
ATOM     29  C   UNL A   1      33.577  37.214  28.583  1.00  0.00     0.278 C 
ENDBRANCH  23  28
ENDBRANCH  21  22
ENDBRANCH  18  21
ENDBRANCH  17  18
ENDBRANCH  13  17
ENDBRANCH   6  12
ENDBRANCH   1   5
BRANCH   3  30
ATOM     30  C   UNL A   1      38.847  34.825  30.560  1.00  0.00     0.118 C 
BRANCH  30  31
ATOM     31  C   UNL A   1      37.610  34.047  30.121  1.00  0.00     0.042 C 
BRANCH  31  32
ATOM     32  C   UNL A   1      37.981  33.011  29.072  1.00  0.00     0.118 C 
BRANCH  32  33
ATOM     33  N   UNL A   1      36.796  32.351  28.550  1.00  0.00    -0.352 N 
ATOM     34  C   UNL A   1      36.604  31.052  28.156  1.00  0.00     0.251 C 
ATOM     35  H   UNL A   1      36.004  32.930  28.467  1.00  0.00     0.163 HD
ATOM     36  O   UNL A   1      35.580  30.783  27.530  1.00  0.00    -0.269 OA
BRANCH  34  37
ATOM     37  C   UNL A   1      37.617  29.998  28.408  1.00  0.00     0.039 A 
ATOM     38  C   UNL A   1      38.810  30.055  27.673  1.00  0.00     0.014 A 
ATOM     39  C   UNL A   1      37.422  28.958  29.321  1.00  0.00     0.014 A 
ATOM     40  C   UNL A   1      39.831  29.140  27.919  1.00  0.00     0.010 A 
ATOM     41  C   UNL A   1      38.453  28.073  29.608  1.00  0.00     0.010 A 
ATOM     42  C   UNL A   1      39.666  28.178  28.922  1.00  0.00    -0.014 A 
BRANCH  42  43
ATOM     43  C   UNL A   1      40.815  27.363  29.374  1.00  0.00     0.031 A 
ATOM     44  C   UNL A   1      41.088  26.149  28.461  1.00  0.00     0.074 A 
ATOM     45  C   UNL A   1      41.497  27.830  30.461  1.00  0.00     0.049 A 
ATOM     46  N   UNL A   1      41.816  25.091  28.656  1.00  0.00    -0.248 NA
ATOM     47  C   UNL A   1      40.406  26.087  27.134  1.00  0.00     0.031 C 
ATOM     48  C   UNL A   1      41.128  29.037  31.236  1.00  0.00     0.029 A 
ATOM     49  N   UNL A   1      42.628  27.410  31.127  1.00  0.00    -0.354 N 
ATOM     50  C   UNL A   1      41.893  24.402  27.424  1.00  0.00     0.074 A 
ATOM     51  C   UNL A   1      40.909  24.990  26.569  1.00  0.00     0.031 C 
ATOM     52  C   UNL A   1      41.961  29.210  32.287  1.00  0.00     0.029 A 
ATOM     53  C   UNL A   1      42.965  28.165  32.283  1.00  0.00     0.049 A 
ATOM     54  H   UNL A   1      43.164  26.642  30.824  1.00  0.00     0.167 HD
ATOM     55  C   UNL A   1      42.857  23.488  27.115  1.00  0.00     0.034 A 
ATOM     56  C   UNL A   1      43.966  27.952  33.189  1.00  0.00     0.034 A 
ATOM     57  C   UNL A   1      43.685  23.222  28.235  1.00  0.00     0.049 A 
ATOM     58  C   UNL A   1      44.789  26.883  32.609  1.00  0.00     0.074 A 
ATOM     59  C   UNL A   1      43.489  22.566  29.418  1.00  0.00     0.029 A 
ATOM     60  N   UNL A   1      44.885  23.888  28.292  1.00  0.00    -0.354 N 
ATOM     61  N   UNL A   1      45.620  27.039  31.624  1.00  0.00    -0.248 NA
ATOM     62  C   UNL A   1      44.645  25.519  33.135  1.00  0.00     0.031 C 
ATOM     63  C   UNL A   1      44.345  23.237  30.315  1.00  0.00     0.029 A 
ATOM     64  C   UNL A   1      45.098  24.189  29.612  1.00  0.00     0.049 A 
ATOM     65  H   UNL A   1      45.475  24.106  27.535  1.00  0.00     0.167 HD
ATOM     66  C   UNL A   1      45.870  25.749  31.232  1.00  0.00     0.074 A 
ATOM     67  C   UNL A   1      45.534  24.906  32.358  1.00  0.00     0.031 C 
ATOM     68  C   UNL A   1      45.802  25.417  29.920  1.00  0.00     0.034 A 
BRANCH  55  69
ATOM     69  C   UNL A   1      43.330  22.925  25.800  1.00  0.00     0.023 A 
ATOM     70  C   UNL A   1      43.466  21.518  25.719  1.00  0.00     0.031 A 
ATOM     71  C   UNL A   1      44.012  23.679  24.836  1.00  0.00     0.131 A 
ATOM     72  C   UNL A   1      44.333  20.924  24.792  1.00  0.00     0.055 A 
ATOM     73  C   UNL A   1      44.803  23.075  23.848  1.00  0.00     0.041 A 
ATOM     74  F   UNL A   1      44.018  25.019  24.887  1.00  0.00    -0.206 F 
ATOM     75  C   UNL A   1      44.994  21.695  23.842  1.00  0.00     0.022 A 
BRANCH  72  76
ATOM     76  S   UNL A   1      44.742  19.164  25.008  1.00  0.00     0.124 S 
ATOM     77  O   UNL A   1      45.998  19.229  25.744  1.00  0.00    -0.237 OA
ATOM     78  O   UNL A   1      43.589  18.672  25.758  1.00  0.00    -0.237 OA
ATOM     79  O   UNL A   1      44.846  18.669  23.637  1.00  0.00    -0.744 OA
ENDBRANCH  72  76
ENDBRANCH  55  69
BRANCH  56  80
ATOM     80  C   UNL A   1      44.406  28.465  34.549  1.00  0.00     0.023 A 
ATOM     81  C   UNL A   1      44.768  27.679  35.655  1.00  0.00     0.031 A 
ATOM     82  C   UNL A   1      44.541  29.875  34.753  1.00  0.00     0.131 A 
ATOM     83  C   UNL A   1      45.287  28.289  36.831  1.00  0.00     0.055 A 
ATOM     84  C   UNL A   1      45.119  30.462  35.878  1.00  0.00     0.041 A 
ATOM     85  F   UNL A   1      44.123  30.774  33.853  1.00  0.00    -0.206 F 
ATOM     86  C   UNL A   1      45.511  29.664  36.924  1.00  0.00     0.022 A 
BRANCH  83  87
ATOM     87  S   UNL A   1      45.726  27.310  38.297  1.00  0.00     0.124 S 
ATOM     88  O   UNL A   1      44.722  27.748  39.261  1.00  0.00    -0.237 OA
ATOM     89  O   UNL A   1      45.607  25.933  37.830  1.00  0.00    -0.237 OA
ATOM     90  O   UNL A   1      47.093  27.747  38.582  1.00  0.00    -0.744 OA
ENDBRANCH  83  87
ENDBRANCH  56  80
BRANCH  68  91
ATOM     91  C   UNL A   1      46.048  26.577  28.961  1.00  0.00     0.023 A 
ATOM     92  C   UNL A   1      44.972  27.373  28.524  1.00  0.00     0.031 A 
ATOM     93  C   UNL A   1      47.299  26.854  28.380  1.00  0.00     0.131 A 
ATOM     94  C   UNL A   1      45.164  28.375  27.552  1.00  0.00     0.055 A 
ATOM     95  C   UNL A   1      47.498  27.863  27.430  1.00  0.00     0.041 A 
ATOM     96  F   UNL A   1      48.378  26.142  28.702  1.00  0.00    -0.206 F 
ATOM     97  C   UNL A   1      46.424  28.629  27.007  1.00  0.00     0.022 A 
BRANCH  94  98
ATOM     98  S   UNL A   1      43.746  29.369  27.014  1.00  0.00     0.124 S 
ATOM     99  O   UNL A   1      44.375  30.380  26.161  1.00  0.00    -0.237 OA
ATOM    100  O   UNL A   1      42.910  28.396  26.340  1.00  0.00    -0.237 OA
ATOM    101  O   UNL A   1      43.198  29.890  28.271  1.00  0.00    -0.744 OA
ENDBRANCH  94  98
ENDBRANCH  68  91
ENDBRANCH  42  43
ENDBRANCH  34  37
ENDBRANCH  32  33
ENDBRANCH  31  32
ENDBRANCH  30  31
ENDBRANCH   3  30
TORSDOF 19
ENDMDL
