MODEL 1
REMARK VINA RESULT:     -13.3      0.000      0.000
REMARK SMILES C[N@@H+]1CC[C@H]2CN(C(=O)c3csc(-c4ccncc4)n3)C[C@@]2(C(=O)NCCCNC(=O)c2ccc(-c3c4nc(c(-c5cc(S(=O)(=O)[O-])ccc5F)c5ccc([nH]5)c(-c5cc(S(=O)(=O)[O-])ccc5F)c5nc(c(-c6cc(S(=O)(=O)[O-])ccc6F)c6ccc3[nH]6)C=C5)C=C4)cc2)C1
REMARK SMILES IDX 27 1 26 2 25 3 23 4 24 5 22 7 1 8 2 9 3 10 95 11 4 13 5 14
REMARK SMILES IDX 21 15 6 16 7 17 8 18 9 19 10 20 11 21 20 22 12 23 13 24
REMARK SMILES IDX 14 25 15 26 19 27 16 28 18 29 17 30 28 31 29 32 30 33 31 35
REMARK SMILES IDX 32 36 33 37 94 38 34 39 93 40 35 41 36 42 37 43 87 44 38 45
REMARK SMILES IDX 92 46 86 47 88 48 39 49 91 50 85 51 84 52 40 54 72 55 52 56
REMARK SMILES IDX 71 57 53 58 56 59 70 60 89 61 54 62 55 63 69 65 90 66 57 67
REMARK SMILES IDX 41 68 42 69 50 70 43 71 49 72 51 73 48 74 44 75 45 76 46 77
REMARK SMILES IDX 47 78 73 79 74 80 82 81 75 82 81 83 83 84 80 85 76 86 77 87
REMARK SMILES IDX 78 88 79 89 58 90 59 91 67 92 60 93 66 94 68 95 65 96 61 97
REMARK SMILES IDX 62 98 63 99 64 100
REMARK H PARENT 25 6 2 12 29 34 88 53 56 64
REMARK Flexibility Score: inf
ROOT
ATOM      1  C   UNL A   1      35.548  22.513  24.437  1.00  0.00     0.042 C 
ENDROOT
BRANCH   1   2
ATOM      2  C   UNL A   1      35.006  23.943  24.447  1.00  0.00     0.117 C 
BRANCH   2   3
ATOM      3  N   UNL A   1      34.309  24.422  23.254  1.00  0.00    -0.355 N 
ATOM      4  C   UNL A   1      33.511  25.509  23.008  1.00  0.00     0.234 C 
ATOM      5  O   UNL A   1      33.583  25.960  21.858  1.00  0.00    -0.274 OA
ATOM      6  H   UNL A   1      34.440  23.846  22.466  1.00  0.00     0.163 HD
BRANCH   4   7
ATOM      7  C   UNL A   1      32.443  26.031  23.992  1.00  0.00     0.120 C 
ATOM      8  C   UNL A   1      34.022  28.832  22.917  1.00  0.00     0.332 C 
ATOM      9  N   UNL A   1      32.975  28.563  23.900  1.00  0.00    -0.336 N 
ATOM     10  C   UNL A   1      33.547  28.480  25.246  1.00  0.00     0.262 C 
ATOM     11  C   UNL A   1      32.064  27.462  23.528  1.00  0.00     0.281 C 
ATOM     12  H   UNL A   1      32.341  29.362  23.909  1.00  0.00     0.347 HD
ATOM     13  C   UNL A   1      32.842  27.466  26.128  1.00  0.00     0.068 C 
ATOM     14  C   UNL A   1      32.940  26.078  25.493  1.00  0.00     0.037 C 
ATOM     15  C   UNL A   1      31.253  25.066  24.078  1.00  0.00     0.143 C 
ATOM     16  C   UNL A   1      32.090  25.082  26.286  1.00  0.00     0.125 C 
ATOM     17  N   UNL A   1      31.479  24.276  25.274  1.00  0.00    -0.336 N 
BRANCH  17  18
ATOM     18  C   UNL A   1      31.115  22.968  25.525  1.00  0.00     0.273 C 
ATOM     19  O   UNL A   1      30.397  22.659  26.472  1.00  0.00    -0.267 OA
BRANCH  18  20
ATOM     20  C   UNL A   1      31.705  21.944  24.659  1.00  0.00     0.139 A 
ATOM     21  C   UNL A   1      31.735  22.017  23.280  1.00  0.00     0.101 A 
ATOM     22  N   UNL A   1      32.159  20.728  25.181  1.00  0.00    -0.231 NA
ATOM     23  S   UNL A   1      32.361  20.563  22.621  1.00  0.00    -0.122 S 
ATOM     24  C   UNL A   1      32.474  19.904  24.205  1.00  0.00     0.124 A 
BRANCH  24  25
ATOM     25  C   UNL A   1      32.825  18.497  24.387  1.00  0.00     0.013 A 
ATOM     26  C   UNL A   1      33.490  17.815  23.363  1.00  0.00     0.031 A 
ATOM     27  C   UNL A   1      32.503  17.807  25.557  1.00  0.00     0.031 A 
ATOM     28  C   UNL A   1      33.823  16.487  23.561  1.00  0.00     0.111 A 
ATOM     29  C   UNL A   1      32.871  16.474  25.656  1.00  0.00     0.111 A 
ATOM     30  N   UNL A   1      33.530  15.803  24.686  1.00  0.00    -0.265 NA
ENDBRANCH  24  25
ENDBRANCH  18  20
ENDBRANCH  17  18
ENDBRANCH   4   7
ENDBRANCH   2   3
ENDBRANCH   1   2
BRANCH   1  31
ATOM     31  C   UNL A   1      35.787  21.905  25.822  1.00  0.00     0.118 C 
BRANCH  31  32
ATOM     32  N   UNL A   1      36.839  20.896  25.804  1.00  0.00    -0.352 N 
ATOM     33  C   UNL A   1      38.208  20.992  25.789  1.00  0.00     0.251 C 
ATOM     34  H   UNL A   1      36.504  19.970  25.801  1.00  0.00     0.163 HD
ATOM     35  O   UNL A   1      38.843  20.019  25.382  1.00  0.00    -0.269 OA
BRANCH  33  36
ATOM     36  C   UNL A   1      38.934  22.200  26.254  1.00  0.00     0.039 A 
ATOM     37  C   UNL A   1      38.504  23.456  25.801  1.00  0.00     0.014 A 
ATOM     38  C   UNL A   1      40.103  22.117  27.013  1.00  0.00     0.014 A 
ATOM     39  C   UNL A   1      39.212  24.616  26.141  1.00  0.00     0.010 A 
ATOM     40  C   UNL A   1      40.775  23.280  27.403  1.00  0.00     0.010 A 
ATOM     41  C   UNL A   1      40.343  24.542  26.967  1.00  0.00    -0.014 A 
BRANCH  41  42
ATOM     42  C   UNL A   1      41.092  25.763  27.376  1.00  0.00     0.031 A 
ATOM     43  C   UNL A   1      40.427  26.817  28.223  1.00  0.00     0.074 A 
ATOM     44  C   UNL A   1      42.346  25.960  26.924  1.00  0.00     0.049 A 
ATOM     45  N   UNL A   1      40.868  27.998  28.578  1.00  0.00    -0.248 NA
ATOM     46  C   UNL A   1      39.074  26.511  28.706  1.00  0.00     0.031 C 
ATOM     47  C   UNL A   1      43.096  25.027  26.081  1.00  0.00     0.029 A 
ATOM     48  N   UNL A   1      43.207  27.015  27.096  1.00  0.00    -0.354 N 
ATOM     49  C   UNL A   1      39.836  28.589  29.301  1.00  0.00     0.074 A 
ATOM     50  C   UNL A   1      38.733  27.649  29.290  1.00  0.00     0.031 C 
ATOM     51  C   UNL A   1      44.307  25.543  25.824  1.00  0.00     0.029 A 
ATOM     52  C   UNL A   1      44.407  26.861  26.442  1.00  0.00     0.049 A 
ATOM     53  H   UNL A   1      42.985  27.807  27.636  1.00  0.00     0.167 HD
ATOM     54  C   UNL A   1      39.814  29.795  29.926  1.00  0.00     0.034 A 
ATOM     55  C   UNL A   1      45.462  27.693  26.339  1.00  0.00     0.034 A 
ATOM     56  C   UNL A   1      40.931  30.710  29.948  1.00  0.00     0.049 A 
ATOM     57  C   UNL A   1      45.409  29.034  27.020  1.00  0.00     0.074 A 
ATOM     58  C   UNL A   1      41.044  31.921  30.611  1.00  0.00     0.029 A 
ATOM     59  N   UNL A   1      42.128  30.521  29.269  1.00  0.00    -0.354 N 
ATOM     60  N   UNL A   1      44.441  29.562  27.732  1.00  0.00    -0.248 NA
ATOM     61  C   UNL A   1      46.596  29.889  26.886  1.00  0.00     0.031 C 
ATOM     62  C   UNL A   1      42.281  32.490  30.285  1.00  0.00     0.029 A 
ATOM     63  C   UNL A   1      42.970  31.605  29.472  1.00  0.00     0.049 A 
ATOM     64  H   UNL A   1      42.348  29.731  28.724  1.00  0.00     0.167 HD
ATOM     65  C   UNL A   1      44.915  30.800  28.156  1.00  0.00     0.074 A 
ATOM     66  C   UNL A   1      46.257  30.935  27.626  1.00  0.00     0.031 C 
ATOM     67  C   UNL A   1      44.300  31.736  28.923  1.00  0.00     0.034 A 
BRANCH  54  68
ATOM     68  C   UNL A   1      38.524  30.201  30.604  1.00  0.00     0.023 A 
ATOM     69  C   UNL A   1      37.490  30.847  29.904  1.00  0.00     0.031 A 
ATOM     70  C   UNL A   1      38.344  29.980  31.981  1.00  0.00     0.131 A 
ATOM     71  C   UNL A   1      36.371  31.334  30.596  1.00  0.00     0.055 A 
ATOM     72  C   UNL A   1      37.187  30.389  32.649  1.00  0.00     0.041 A 
ATOM     73  F   UNL A   1      39.300  29.382  32.710  1.00  0.00    -0.206 F 
ATOM     74  C   UNL A   1      36.201  31.089  31.960  1.00  0.00     0.022 A 
BRANCH  71  75
ATOM     75  S   UNL A   1      35.229  32.441  29.722  1.00  0.00     0.124 S 
ATOM     76  O   UNL A   1      36.149  33.426  29.156  1.00  0.00    -0.237 OA
ATOM     77  O   UNL A   1      34.590  31.542  28.768  1.00  0.00    -0.237 OA
ATOM     78  O   UNL A   1      34.363  32.947  30.784  1.00  0.00    -0.744 OA
ENDBRANCH  71  75
ENDBRANCH  54  68
BRANCH  55  79
ATOM     79  C   UNL A   1      46.663  27.287  25.557  1.00  0.00     0.023 A 
ATOM     80  C   UNL A   1      46.857  27.758  24.249  1.00  0.00     0.031 A 
ATOM     81  C   UNL A   1      47.620  26.408  26.094  1.00  0.00     0.131 A 
ATOM     82  C   UNL A   1      47.964  27.320  23.507  1.00  0.00     0.055 A 
ATOM     83  C   UNL A   1      48.741  26.008  25.366  1.00  0.00     0.041 A 
ATOM     84  F   UNL A   1      47.483  25.938  27.344  1.00  0.00    -0.206 F 
ATOM     85  C   UNL A   1      48.912  26.456  24.060  1.00  0.00     0.022 A 
BRANCH  82  86
ATOM     86  S   UNL A   1      48.113  27.853  21.781  1.00  0.00     0.124 S 
ATOM     87  O   UNL A   1      46.845  28.541  21.569  1.00  0.00    -0.237 OA
ATOM     88  O   UNL A   1      49.302  28.698  21.827  1.00  0.00    -0.237 OA
ATOM     89  O   UNL A   1      48.274  26.597  21.050  1.00  0.00    -0.744 OA
ENDBRANCH  82  86
ENDBRANCH  55  79
BRANCH  67  90
ATOM     90  C   UNL A   1      45.101  32.967  29.266  1.00  0.00     0.023 A 
ATOM     91  C   UNL A   1      45.121  34.094  28.426  1.00  0.00     0.031 A 
ATOM     92  C   UNL A   1      45.876  33.000  30.439  1.00  0.00     0.131 A 
ATOM     93  C   UNL A   1      45.940  35.188  28.745  1.00  0.00     0.055 A 
ATOM     94  C   UNL A   1      46.648  34.112  30.777  1.00  0.00     0.041 A 
ATOM     95  F   UNL A   1      45.896  31.949  31.274  1.00  0.00    -0.206 F 
ATOM     96  C   UNL A   1      46.693  35.209  29.922  1.00  0.00     0.022 A 
BRANCH  93  97
ATOM     97  S   UNL A   1      46.076  36.552  27.556  1.00  0.00     0.124 S 
ATOM     98  O   UNL A   1      47.435  37.027  27.794  1.00  0.00    -0.237 OA
ATOM     99  O   UNL A   1      45.850  35.878  26.281  1.00  0.00    -0.237 OA
ATOM    100  O   UNL A   1      45.017  37.473  27.966  1.00  0.00    -0.744 OA
ENDBRANCH  93  97
ENDBRANCH  67  90
ENDBRANCH  41  42
ENDBRANCH  33  36
ENDBRANCH  31  32
ENDBRANCH   1  31
TORSDOF 16
ENDMDL
MODEL 2
REMARK VINA RESULT:     -13.0      2.329      7.558
REMARK SMILES C[N@@H+]1CC[C@H]2CN(C(=O)c3csc(-c4ccncc4)n3)C[C@@]2(C(=O)NCCCNC(=O)c2ccc(-c3c4nc(c(-c5cc(S(=O)(=O)[O-])ccc5F)c5ccc([nH]5)c(-c5cc(S(=O)(=O)[O-])ccc5F)c5nc(c(-c6cc(S(=O)(=O)[O-])ccc6F)c6ccc3[nH]6)C=C5)C=C4)cc2)C1
REMARK SMILES IDX 27 1 26 2 25 3 23 4 24 5 22 7 1 8 2 9 3 10 95 11 4 13 5 14
REMARK SMILES IDX 21 15 6 16 7 17 8 18 9 19 10 20 11 21 20 22 12 23 13 24
REMARK SMILES IDX 14 25 15 26 19 27 16 28 18 29 17 30 28 31 29 32 30 33 31 35
REMARK SMILES IDX 32 36 33 37 94 38 34 39 93 40 35 41 36 42 37 43 87 44 38 45
REMARK SMILES IDX 92 46 86 47 88 48 39 49 91 50 85 51 84 52 40 54 72 55 52 56
REMARK SMILES IDX 71 57 53 58 56 59 70 60 89 61 54 62 55 63 69 65 90 66 57 67
REMARK SMILES IDX 41 68 42 69 50 70 43 71 49 72 51 73 48 74 44 75 45 76 46 77
REMARK SMILES IDX 47 78 73 79 74 80 82 81 75 82 81 83 83 84 80 85 76 86 77 87
REMARK SMILES IDX 78 88 79 89 58 90 59 91 67 92 60 93 66 94 68 95 65 96 61 97
REMARK SMILES IDX 62 98 63 99 64 100
REMARK H PARENT 25 6 2 12 29 34 88 53 56 64
REMARK Flexibility Score: inf
ROOT
ATOM      1  C   UNL A   1      36.110  23.084  24.213  1.00  0.00     0.042 C 
ENDROOT
BRANCH   1   2
ATOM      2  C   UNL A   1      34.837  23.824  23.800  1.00  0.00     0.117 C 
BRANCH   2   3
ATOM      3  N   UNL A   1      34.720  25.238  24.153  1.00  0.00    -0.355 N 
ATOM      4  C   UNL A   1      33.681  26.006  24.615  1.00  0.00     0.234 C 
ATOM      5  O   UNL A   1      34.011  26.934  25.363  1.00  0.00    -0.274 OA
ATOM      6  H   UNL A   1      35.557  25.742  24.035  1.00  0.00     0.163 HD
BRANCH   4   7
ATOM      7  C   UNL A   1      32.231  25.885  24.102  1.00  0.00     0.120 C 
ATOM      8  C   UNL A   1      33.493  28.538  22.409  1.00  0.00     0.332 C 
ATOM      9  N   UNL A   1      32.178  27.907  22.486  1.00  0.00    -0.336 N 
ATOM     10  C   UNL A   1      31.321  28.626  23.432  1.00  0.00     0.262 C 
ATOM     11  C   UNL A   1      32.219  26.441  22.653  1.00  0.00     0.281 C 
ATOM     12  H   UNL A   1      31.733  27.999  21.572  1.00  0.00     0.347 HD
ATOM     13  C   UNL A   1      30.376  27.710  24.189  1.00  0.00     0.068 C 
ATOM     14  C   UNL A   1      31.184  26.681  24.981  1.00  0.00     0.037 C 
ATOM     15  C   UNL A   1      31.720  24.443  24.222  1.00  0.00     0.143 C 
ATOM     16  C   UNL A   1      30.241  25.652  25.609  1.00  0.00     0.125 C 
ATOM     17  N   UNL A   1      30.931  24.411  25.440  1.00  0.00    -0.336 N 
BRANCH  17  18
ATOM     18  C   UNL A   1      30.741  23.360  26.316  1.00  0.00     0.273 C 
ATOM     19  O   UNL A   1      29.851  23.368  27.162  1.00  0.00    -0.267 OA
BRANCH  18  20
ATOM     20  C   UNL A   1      31.716  22.268  26.255  1.00  0.00     0.139 A 
ATOM     21  C   UNL A   1      32.924  22.268  26.926  1.00  0.00     0.101 A 
ATOM     22  N   UNL A   1      31.545  21.193  25.377  1.00  0.00    -0.231 NA
ATOM     23  S   UNL A   1      33.850  20.896  26.479  1.00  0.00    -0.122 S 
ATOM     24  C   UNL A   1      32.623  20.440  25.365  1.00  0.00     0.124 A 
BRANCH  24  25
ATOM     25  C   UNL A   1      32.851  19.331  24.441  1.00  0.00     0.013 A 
ATOM     26  C   UNL A   1      32.151  19.287  23.231  1.00  0.00     0.031 A 
ATOM     27  C   UNL A   1      33.744  18.301  24.741  1.00  0.00     0.031 A 
ATOM     28  C   UNL A   1      32.392  18.234  22.367  1.00  0.00     0.111 A 
ATOM     29  C   UNL A   1      33.908  17.284  23.813  1.00  0.00     0.111 A 
ATOM     30  N   UNL A   1      33.257  17.233  22.631  1.00  0.00    -0.265 NA
ENDBRANCH  24  25
ENDBRANCH  18  20
ENDBRANCH  17  18
ENDBRANCH   4   7
ENDBRANCH   2   3
ENDBRANCH   1   2
BRANCH   1  31
ATOM     31  C   UNL A   1      36.579  23.358  25.645  1.00  0.00     0.118 C 
BRANCH  31  32
ATOM     32  N   UNL A   1      37.647  22.454  26.054  1.00  0.00    -0.352 N 
ATOM     33  C   UNL A   1      38.959  22.672  26.393  1.00  0.00     0.251 C 
ATOM     34  H   UNL A   1      37.376  21.509  26.096  1.00  0.00     0.163 HD
ATOM     35  O   UNL A   1      39.734  21.719  26.316  1.00  0.00    -0.269 OA
BRANCH  33  36
ATOM     36  C   UNL A   1      39.462  23.990  26.855  1.00  0.00     0.039 A 
ATOM     37  C   UNL A   1      39.252  24.357  28.193  1.00  0.00     0.014 A 
ATOM     38  C   UNL A   1      40.015  24.923  25.975  1.00  0.00     0.014 A 
ATOM     39  C   UNL A   1      39.629  25.626  28.651  1.00  0.00     0.010 A 
ATOM     40  C   UNL A   1      40.447  26.167  26.446  1.00  0.00     0.010 A 
ATOM     41  C   UNL A   1      40.254  26.536  27.786  1.00  0.00    -0.014 A 
BRANCH  41  42
ATOM     42  C   UNL A   1      40.702  27.877  28.256  1.00  0.00     0.031 A 
ATOM     43  C   UNL A   1      42.170  28.192  28.377  1.00  0.00     0.074 A 
ATOM     44  C   UNL A   1      39.788  28.787  28.648  1.00  0.00     0.049 A 
ATOM     45  N   UNL A   1      42.756  29.251  28.879  1.00  0.00    -0.248 NA
ATOM     46  C   UNL A   1      43.102  27.163  27.896  1.00  0.00     0.031 C 
ATOM     47  C   UNL A   1      38.337  28.599  28.601  1.00  0.00     0.029 A 
ATOM     48  N   UNL A   1      39.942  30.044  29.176  1.00  0.00    -0.354 N 
ATOM     49  C   UNL A   1      44.123  29.003  28.803  1.00  0.00     0.074 A 
ATOM     50  C   UNL A   1      44.272  27.673  28.248  1.00  0.00     0.031 C 
ATOM     51  C   UNL A   1      37.735  29.706  29.064  1.00  0.00     0.029 A 
ATOM     52  C   UNL A   1      38.753  30.663  29.483  1.00  0.00     0.049 A 
ATOM     53  H   UNL A   1      40.821  30.463  29.320  1.00  0.00     0.167 HD
ATOM     54  C   UNL A   1      45.157  29.814  29.150  1.00  0.00     0.034 A 
ATOM     55  C   UNL A   1      38.510  31.860  30.053  1.00  0.00     0.034 A 
ATOM     56  C   UNL A   1      44.991  31.147  29.680  1.00  0.00     0.049 A 
ATOM     57  C   UNL A   1      39.670  32.733  30.452  1.00  0.00     0.074 A 
ATOM     58  C   UNL A   1      45.966  32.080  29.993  1.00  0.00     0.029 A 
ATOM     59  N   UNL A   1      43.771  31.737  29.982  1.00  0.00    -0.354 N 
ATOM     60  N   UNL A   1      40.957  32.501  30.338  1.00  0.00    -0.248 NA
ATOM     61  C   UNL A   1      39.341  34.033  31.053  1.00  0.00     0.031 C 
ATOM     62  C   UNL A   1      45.340  33.206  30.542  1.00  0.00     0.029 A 
ATOM     63  C   UNL A   1      43.970  33.006  30.509  1.00  0.00     0.049 A 
ATOM     64  H   UNL A   1      42.892  31.316  29.844  1.00  0.00     0.167 HD
ATOM     65  C   UNL A   1      41.591  33.640  30.825  1.00  0.00     0.074 A 
ATOM     66  C   UNL A   1      40.545  34.559  31.226  1.00  0.00     0.031 C 
ATOM     67  C   UNL A   1      42.919  33.906  30.923  1.00  0.00     0.034 A 
BRANCH  54  68
ATOM     68  C   UNL A   1      46.555  29.256  28.998  1.00  0.00     0.023 A 
ATOM     69  C   UNL A   1      47.189  29.176  27.746  1.00  0.00     0.031 A 
ATOM     70  C   UNL A   1      47.247  28.756  30.116  1.00  0.00     0.131 A 
ATOM     71  C   UNL A   1      48.425  28.524  27.626  1.00  0.00     0.055 A 
ATOM     72  C   UNL A   1      48.517  28.187  30.003  1.00  0.00     0.041 A 
ATOM     73  F   UNL A   1      46.691  28.790  31.338  1.00  0.00    -0.206 F 
ATOM     74  C   UNL A   1      49.106  28.049  28.748  1.00  0.00     0.022 A 
BRANCH  71  75
ATOM     75  S   UNL A   1      49.046  28.152  25.962  1.00  0.00     0.124 S 
ATOM     76  O   UNL A   1      49.427  26.747  26.097  1.00  0.00    -0.237 OA
ATOM     77  O   UNL A   1      47.883  28.420  25.125  1.00  0.00    -0.237 OA
ATOM     78  O   UNL A   1      50.164  29.078  25.798  1.00  0.00    -0.744 OA
ENDBRANCH  71  75
ENDBRANCH  54  68
BRANCH  55  79
ATOM     79  C   UNL A   1      37.109  32.308  30.288  1.00  0.00     0.023 A 
ATOM     80  C   UNL A   1      36.384  32.949  29.271  1.00  0.00     0.031 A 
ATOM     81  C   UNL A   1      36.483  32.123  31.533  1.00  0.00     0.131 A 
ATOM     82  C   UNL A   1      35.087  33.416  29.527  1.00  0.00     0.055 A 
ATOM     83  C   UNL A   1      35.177  32.553  31.770  1.00  0.00     0.041 A 
ATOM     84  F   UNL A   1      37.132  31.507  32.534  1.00  0.00    -0.206 F 
ATOM     85  C   UNL A   1      34.474  33.213  30.766  1.00  0.00     0.022 A 
BRANCH  82  86
ATOM     86  S   UNL A   1      34.230  34.348  28.229  1.00  0.00     0.124 S 
ATOM     87  O   UNL A   1      33.071  33.502  27.969  1.00  0.00    -0.237 OA
ATOM     88  O   UNL A   1      33.962  35.618  28.895  1.00  0.00    -0.237 OA
ATOM     89  O   UNL A   1      35.214  34.409  27.150  1.00  0.00    -0.744 OA
ENDBRANCH  82  86
ENDBRANCH  55  79
BRANCH  67  90
ATOM     90  C   UNL A   1      43.302  35.268  31.445  1.00  0.00     0.023 A 
ATOM     91  C   UNL A   1      43.554  36.347  30.581  1.00  0.00     0.031 A 
ATOM     92  C   UNL A   1      43.441  35.479  32.828  1.00  0.00     0.131 A 
ATOM     93  C   UNL A   1      43.983  37.576  31.105  1.00  0.00     0.055 A 
ATOM     94  C   UNL A   1      43.817  36.719  33.347  1.00  0.00     0.041 A 
ATOM     95  F   UNL A   1      43.216  34.481  33.697  1.00  0.00    -0.206 F 
ATOM     96  C   UNL A   1      44.103  37.772  32.483  1.00  0.00     0.022 A 
BRANCH  93  97
ATOM     97  S   UNL A   1      44.466  38.894  29.955  1.00  0.00     0.124 S 
ATOM     98  O   UNL A   1      44.537  38.178  28.686  1.00  0.00    -0.237 OA
ATOM     99  O   UNL A   1      43.367  39.845  30.091  1.00  0.00    -0.237 OA
ATOM    100  O   UNL A   1      45.751  39.354  30.480  1.00  0.00    -0.744 OA
ENDBRANCH  93  97
ENDBRANCH  67  90
ENDBRANCH  41  42
ENDBRANCH  33  36
ENDBRANCH  31  32
ENDBRANCH   1  31
TORSDOF 16
ENDMDL
MODEL 3
REMARK VINA RESULT:     -12.9      1.827      4.489
REMARK SMILES C[N@@H+]1CC[C@H]2CN(C(=O)c3csc(-c4ccncc4)n3)C[C@@]2(C(=O)NCCCNC(=O)c2ccc(-c3c4nc(c(-c5cc(S(=O)(=O)[O-])ccc5F)c5ccc([nH]5)c(-c5cc(S(=O)(=O)[O-])ccc5F)c5nc(c(-c6cc(S(=O)(=O)[O-])ccc6F)c6ccc3[nH]6)C=C5)C=C4)cc2)C1
REMARK SMILES IDX 27 1 26 2 25 3 23 4 24 5 22 7 1 8 2 9 3 10 95 11 4 13 5 14
REMARK SMILES IDX 21 15 6 16 7 17 8 18 9 19 10 20 11 21 20 22 12 23 13 24
REMARK SMILES IDX 14 25 15 26 19 27 16 28 18 29 17 30 28 31 29 32 30 33 31 35
REMARK SMILES IDX 32 36 33 37 94 38 34 39 93 40 35 41 36 42 37 43 87 44 38 45
REMARK SMILES IDX 92 46 86 47 88 48 39 49 91 50 85 51 84 52 40 54 72 55 52 56
REMARK SMILES IDX 71 57 53 58 56 59 70 60 89 61 54 62 55 63 69 65 90 66 57 67
REMARK SMILES IDX 41 68 42 69 50 70 43 71 49 72 51 73 48 74 44 75 45 76 46 77
REMARK SMILES IDX 47 78 73 79 74 80 82 81 75 82 81 83 83 84 80 85 76 86 77 87
REMARK SMILES IDX 78 88 79 89 58 90 59 91 67 92 60 93 66 94 68 95 65 96 61 97
REMARK SMILES IDX 62 98 63 99 64 100
REMARK H PARENT 25 6 2 12 29 34 88 53 56 64
REMARK Flexibility Score: inf
ROOT
ATOM      1  C   UNL A   1      36.712  21.997  24.194  1.00  0.00     0.042 C 
ENDROOT
BRANCH   1   2
ATOM      2  C   UNL A   1      36.146  23.346  23.746  1.00  0.00     0.117 C 
BRANCH   2   3
ATOM      3  N   UNL A   1      35.361  24.116  24.709  1.00  0.00    -0.355 N 
ATOM      4  C   UNL A   1      34.150  23.901  25.316  1.00  0.00     0.234 C 
ATOM      5  O   UNL A   1      34.049  24.366  26.458  1.00  0.00    -0.274 OA
ATOM      6  H   UNL A   1      35.789  24.961  24.978  1.00  0.00     0.163 HD
BRANCH   4   7
ATOM      7  C   UNL A   1      32.919  23.317  24.592  1.00  0.00     0.120 C 
ATOM      8  C   UNL A   1      33.516  21.132  27.115  1.00  0.00     0.332 C 
ATOM      9  N   UNL A   1      32.572  21.173  26.001  1.00  0.00    -0.336 N 
ATOM     10  C   UNL A   1      33.067  20.369  24.881  1.00  0.00     0.262 C 
ATOM     11  C   UNL A   1      32.105  22.529  25.654  1.00  0.00     0.281 C 
ATOM     12  H   UNL A   1      31.706  20.729  26.309  1.00  0.00     0.347 HD
ATOM     13  C   UNL A   1      32.699  20.951  23.527  1.00  0.00     0.068 C 
ATOM     14  C   UNL A   1      33.292  22.354  23.393  1.00  0.00     0.037 C 
ATOM     15  C   UNL A   1      32.120  24.418  23.883  1.00  0.00     0.143 C 
ATOM     16  C   UNL A   1      32.786  23.011  22.107  1.00  0.00     0.125 C 
ATOM     17  N   UNL A   1      32.536  24.366  22.493  1.00  0.00    -0.336 N 
BRANCH  17  18
ATOM     18  C   UNL A   1      32.621  25.398  21.579  1.00  0.00     0.273 C 
ATOM     19  O   UNL A   1      33.057  25.231  20.444  1.00  0.00    -0.267 OA
BRANCH  18  20
ATOM     20  C   UNL A   1      32.252  26.732  22.059  1.00  0.00     0.139 A 
ATOM     21  C   UNL A   1      33.112  27.580  22.732  1.00  0.00     0.101 A 
ATOM     22  N   UNL A   1      30.932  27.188  21.992  1.00  0.00    -0.231 NA
ATOM     23  S   UNL A   1      32.272  28.976  23.266  1.00  0.00    -0.122 S 
ATOM     24  C   UNL A   1      30.808  28.325  22.641  1.00  0.00     0.124 A 
BRANCH  24  25
ATOM     25  C   UNL A   1      29.537  28.994  22.911  1.00  0.00     0.013 A 
ATOM     26  C   UNL A   1      29.530  30.357  23.220  1.00  0.00     0.031 A 
ATOM     27  C   UNL A   1      28.326  28.302  22.881  1.00  0.00     0.031 A 
ATOM     28  C   UNL A   1      28.314  30.973  23.461  1.00  0.00     0.111 A 
ATOM     29  C   UNL A   1      27.162  29.006  23.147  1.00  0.00     0.111 A 
ATOM     30  N   UNL A   1      27.130  30.327  23.428  1.00  0.00    -0.265 NA
ENDBRANCH  24  25
ENDBRANCH  18  20
ENDBRANCH  17  18
ENDBRANCH   4   7
ENDBRANCH   2   3
ENDBRANCH   1   2
BRANCH   1  31
ATOM     31  C   UNL A   1      36.905  21.850  25.706  1.00  0.00     0.118 C 
BRANCH  31  32
ATOM     32  N   UNL A   1      37.933  20.870  26.033  1.00  0.00    -0.352 N 
ATOM     33  C   UNL A   1      39.274  20.994  26.297  1.00  0.00     0.251 C 
ATOM     34  H   UNL A   1      37.603  19.943  26.073  1.00  0.00     0.163 HD
ATOM     35  O   UNL A   1      39.978  19.995  26.157  1.00  0.00    -0.269 OA
BRANCH  33  36
ATOM     36  C   UNL A   1      39.890  22.266  26.754  1.00  0.00     0.039 A 
ATOM     37  C   UNL A   1      39.495  23.462  26.135  1.00  0.00     0.014 A 
ATOM     38  C   UNL A   1      40.935  22.294  27.679  1.00  0.00     0.014 A 
ATOM     39  C   UNL A   1      40.112  24.673  26.470  1.00  0.00     0.010 A 
ATOM     40  C   UNL A   1      41.509  23.512  28.058  1.00  0.00     0.010 A 
ATOM     41  C   UNL A   1      41.111  24.714  27.454  1.00  0.00    -0.014 A 
BRANCH  41  42
ATOM     42  C   UNL A   1      41.756  25.995  27.859  1.00  0.00     0.031 A 
ATOM     43  C   UNL A   1      40.980  27.029  28.633  1.00  0.00     0.074 A 
ATOM     44  C   UNL A   1      43.016  26.262  27.464  1.00  0.00     0.049 A 
ATOM     45  N   UNL A   1      41.323  28.247  28.969  1.00  0.00    -0.248 NA
ATOM     46  C   UNL A   1      39.626  26.648  29.057  1.00  0.00     0.031 C 
ATOM     47  C   UNL A   1      43.869  25.355  26.692  1.00  0.00     0.029 A 
ATOM     48  N   UNL A   1      43.796  27.376  27.642  1.00  0.00    -0.354 N 
ATOM     49  C   UNL A   1      40.218  28.790  29.617  1.00  0.00     0.074 A 
ATOM     50  C   UNL A   1      39.181  27.779  29.584  1.00  0.00     0.031 C 
ATOM     51  C   UNL A   1      45.056  25.942  26.479  1.00  0.00     0.029 A 
ATOM     52  C   UNL A   1      45.037  27.282  27.056  1.00  0.00     0.049 A 
ATOM     53  H   UNL A   1      43.495  28.169  28.143  1.00  0.00     0.167 HD
ATOM     54  C   UNL A   1      40.085  30.011  30.199  1.00  0.00     0.034 A 
ATOM     55  C   UNL A   1      46.039  28.179  26.977  1.00  0.00     0.034 A 
ATOM     56  C   UNL A   1      41.138  30.999  30.245  1.00  0.00     0.049 A 
ATOM     57  C   UNL A   1      45.863  29.535  27.608  1.00  0.00     0.074 A 
ATOM     58  C   UNL A   1      41.137  32.234  30.871  1.00  0.00     0.029 A 
ATOM     59  N   UNL A   1      42.378  30.869  29.635  1.00  0.00    -0.354 N 
ATOM     60  N   UNL A   1      44.827  30.019  28.251  1.00  0.00    -0.248 NA
ATOM     61  C   UNL A   1      46.998  30.463  27.505  1.00  0.00     0.031 C 
ATOM     62  C   UNL A   1      42.350  32.874  30.588  1.00  0.00     0.029 A 
ATOM     63  C   UNL A   1      43.137  32.013  29.842  1.00  0.00     0.049 A 
ATOM     64  H   UNL A   1      42.678  30.079  29.129  1.00  0.00     0.167 HD
ATOM     65  C   UNL A   1      45.197  31.298  28.656  1.00  0.00     0.074 A 
ATOM     66  C   UNL A   1      46.553  31.506  28.190  1.00  0.00     0.031 C 
ATOM     67  C   UNL A   1      44.482  32.215  29.357  1.00  0.00     0.034 A 
BRANCH  54  68
ATOM     68  C   UNL A   1      38.738  30.351  30.796  1.00  0.00     0.023 A 
ATOM     69  C   UNL A   1      37.771  31.079  30.079  1.00  0.00     0.031 A 
ATOM     70  C   UNL A   1      38.432  29.981  32.118  1.00  0.00     0.131 A 
ATOM     71  C   UNL A   1      36.593  31.496  30.716  1.00  0.00     0.055 A 
ATOM     72  C   UNL A   1      37.218  30.325  32.718  1.00  0.00     0.041 A 
ATOM     73  F   UNL A   1      39.318  29.298  32.861  1.00  0.00    -0.206 F 
ATOM     74  C   UNL A   1      36.298  31.105  32.022  1.00  0.00     0.022 A 
BRANCH  71  75
ATOM     75  S   UNL A   1      35.535  32.702  29.868  1.00  0.00     0.124 S 
ATOM     76  O   UNL A   1      36.320  33.927  30.000  1.00  0.00    -0.237 OA
ATOM     77  O   UNL A   1      35.440  32.146  28.523  1.00  0.00    -0.237 OA
ATOM     78  O   UNL A   1      34.298  32.678  30.645  1.00  0.00    -0.744 OA
ENDBRANCH  71  75
ENDBRANCH  54  68
BRANCH  55  79
ATOM     79  C   UNL A   1      47.304  27.830  26.272  1.00  0.00     0.023 A 
ATOM     80  C   UNL A   1      47.406  27.967  24.879  1.00  0.00     0.031 A 
ATOM     81  C   UNL A   1      48.417  27.335  26.973  1.00  0.00     0.131 A 
ATOM     82  C   UNL A   1      48.585  27.579  24.224  1.00  0.00     0.055 A 
ATOM     83  C   UNL A   1      49.602  26.990  26.322  1.00  0.00     0.041 A 
ATOM     84  F   UNL A   1      48.371  27.195  28.307  1.00  0.00    -0.206 F 
ATOM     85  C   UNL A   1      49.687  27.102  24.937  1.00  0.00     0.022 A 
BRANCH  82  86
ATOM     86  S   UNL A   1      48.634  27.655  22.414  1.00  0.00     0.124 S 
ATOM     87  O   UNL A   1      49.853  28.421  22.180  1.00  0.00    -0.237 OA
ATOM     88  O   UNL A   1      48.685  26.242  22.053  1.00  0.00    -0.237 OA
ATOM     89  O   UNL A   1      47.389  28.339  22.068  1.00  0.00    -0.744 OA
ENDBRANCH  82  86
ENDBRANCH  55  79
BRANCH  67  90
ATOM     90  C   UNL A   1      45.183  33.507  29.697  1.00  0.00     0.023 A 
ATOM     91  C   UNL A   1      45.105  34.633  28.860  1.00  0.00     0.031 A 
ATOM     92  C   UNL A   1      45.959  33.601  30.866  1.00  0.00     0.131 A 
ATOM     93  C   UNL A   1      45.833  35.790  29.175  1.00  0.00     0.055 A 
ATOM     94  C   UNL A   1      46.640  34.772  31.201  1.00  0.00     0.041 A 
ATOM     95  F   UNL A   1      46.070  32.554  31.699  1.00  0.00    -0.206 F 
ATOM     96  C   UNL A   1      46.589  35.870  30.348  1.00  0.00     0.022 A 
BRANCH  93  97
ATOM     97  S   UNL A   1      45.850  37.161  27.988  1.00  0.00     0.124 S 
ATOM     98  O   UNL A   1      45.913  38.323  28.868  1.00  0.00    -0.237 OA
ATOM     99  O   UNL A   1      47.054  36.885  27.210  1.00  0.00    -0.237 OA
ATOM    100  O   UNL A   1      44.592  37.002  27.260  1.00  0.00    -0.744 OA
ENDBRANCH  93  97
ENDBRANCH  67  90
ENDBRANCH  41  42
ENDBRANCH  33  36
ENDBRANCH  31  32
ENDBRANCH   1  31
TORSDOF 16
ENDMDL
