MODEL 1
REMARK VINA RESULT:     -12.4      0.000      0.000
REMARK SMILES O=C(NCCCNC(=O)c1cc(=O)[nH]c2c(Br)cccc12)c1ccc(-c2c3nc(c(-c4cc(S(=O)(=O)[O-])ccc4F)c4ccc([nH]4)c(-c4cc(S(=O)(=O)[O-])ccc4F)c4nc(c(-c5cc(S(=O)(=O)[O-])ccc5F)c5ccc2[nH]5)C=C4)C=C3)cc1
REMARK SMILES IDX 1 1 2 2 3 3 22 5 23 6 84 7 24 8 83 9 25 10 26 11 27 12 77 13
REMARK SMILES IDX 28 14 82 15 76 16 78 17 29 18 81 19 75 20 74 21 30 23 62 24
REMARK SMILES IDX 42 25 61 26 43 27 46 28 60 29 79 30 44 31 45 32 59 34 80 35
REMARK SMILES IDX 47 36 31 37 32 38 40 39 33 40 39 41 41 42 38 43 34 44 35 45
REMARK SMILES IDX 36 46 37 47 63 48 64 49 72 50 65 51 71 52 73 53 70 54 66 55
REMARK SMILES IDX 67 56 68 57 69 58 48 59 49 60 57 61 50 62 56 63 58 64 55 65
REMARK SMILES IDX 51 66 52 67 53 68 54 69 4 70 5 71 6 72 7 73 8 74 9 76 10 77
REMARK SMILES IDX 11 78 21 79 12 80 15 81 20 82 13 83 14 84 16 85 19 86 17 88
REMARK SMILES IDX 18 89
REMARK H PARENT 3 4 78 22 46 33 7 75 14 87
REMARK Flexibility Score: inf
ROOT
ATOM      1  O   UNL A   1      39.365  19.873  25.749  1.00  0.00    -0.269 OA
ATOM      2  C   UNL A   1      38.721  20.919  25.754  1.00  0.00     0.251 C 
ATOM      3  N   UNL A   1      37.407  20.893  25.353  1.00  0.00    -0.352 N 
ATOM      4  H   UNL A   1      37.032  19.992  25.229  1.00  0.00     0.163 HD
ENDROOT
BRANCH   2   5
ATOM      5  C   UNL A   1      39.362  22.183  26.179  1.00  0.00     0.039 A 
ATOM      6  C   UNL A   1      40.465  22.123  27.035  1.00  0.00     0.014 A 
ATOM      7  C   UNL A   1      38.860  23.426  25.782  1.00  0.00     0.014 A 
ATOM      8  C   UNL A   1      41.077  23.304  27.462  1.00  0.00     0.010 A 
ATOM      9  C   UNL A   1      39.540  24.593  26.115  1.00  0.00     0.010 A 
ATOM     10  C   UNL A   1      40.633  24.551  26.989  1.00  0.00    -0.014 A 
BRANCH  10  11
ATOM     11  C   UNL A   1      41.275  25.813  27.440  1.00  0.00     0.031 A 
ATOM     12  C   UNL A   1      42.692  26.134  27.042  1.00  0.00     0.074 A 
ATOM     13  C   UNL A   1      40.590  26.666  28.226  1.00  0.00     0.049 A 
ATOM     14  N   UNL A   1      43.403  27.198  27.312  1.00  0.00    -0.248 NA
ATOM     15  C   UNL A   1      43.416  25.115  26.264  1.00  0.00     0.031 C 
ATOM     16  C   UNL A   1      39.238  26.432  28.733  1.00  0.00     0.029 A 
ATOM     17  N   UNL A   1      40.927  27.898  28.729  1.00  0.00    -0.354 N 
ATOM     18  C   UNL A   1      44.649  26.977  26.738  1.00  0.00     0.074 A 
ATOM     19  C   UNL A   1      44.629  25.642  26.189  1.00  0.00     0.031 C 
ATOM     20  C   UNL A   1      38.841  27.506  29.429  1.00  0.00     0.029 A 
ATOM     21  C   UNL A   1      39.924  28.489  29.461  1.00  0.00     0.049 A 
ATOM     22  H   UNL A   1      41.805  28.319  28.579  1.00  0.00     0.167 HD
ATOM     23  C   UNL A   1      45.699  27.826  26.634  1.00  0.00     0.034 A 
ATOM     24  C   UNL A   1      39.874  29.686  30.080  1.00  0.00     0.034 A 
ATOM     25  C   UNL A   1      45.698  29.162  27.173  1.00  0.00     0.049 A 
ATOM     26  C   UNL A   1      41.050  30.619  29.958  1.00  0.00     0.074 A 
ATOM     27  C   UNL A   1      46.689  30.122  27.077  1.00  0.00     0.029 A 
ATOM     28  N   UNL A   1      44.665  29.729  27.907  1.00  0.00    -0.354 N 
ATOM     29  N   UNL A   1      42.183  30.438  29.320  1.00  0.00    -0.248 NA
ATOM     30  C   UNL A   1      40.939  31.925  30.621  1.00  0.00     0.031 C 
ATOM     31  C   UNL A   1      46.287  31.238  27.814  1.00  0.00     0.029 A 
ATOM     32  C   UNL A   1      45.010  31.012  28.301  1.00  0.00     0.049 A 
ATOM     33  H   UNL A   1      43.812  29.285  28.116  1.00  0.00     0.167 HD
ATOM     34  C   UNL A   1      42.919  31.606  29.499  1.00  0.00     0.074 A 
ATOM     35  C   UNL A   1      42.080  32.505  30.268  1.00  0.00     0.031 C 
ATOM     36  C   UNL A   1      44.176  31.901  29.079  1.00  0.00     0.034 A 
BRANCH  23  37
ATOM     37  C   UNL A   1      46.925  27.361  25.882  1.00  0.00     0.023 A 
ATOM     38  C   UNL A   1      47.136  27.760  24.550  1.00  0.00     0.031 A 
ATOM     39  C   UNL A   1      47.829  26.439  26.447  1.00  0.00     0.131 A 
ATOM     40  C   UNL A   1      48.203  27.219  23.820  1.00  0.00     0.055 A 
ATOM     41  C   UNL A   1      48.923  25.948  25.734  1.00  0.00     0.041 A 
ATOM     42  F   UNL A   1      47.673  26.018  27.713  1.00  0.00    -0.206 F 
ATOM     43  C   UNL A   1      49.105  26.327  24.409  1.00  0.00     0.022 A 
BRANCH  40  44
ATOM     44  S   UNL A   1      48.422  27.592  22.060  1.00  0.00     0.124 S 
ATOM     45  O   UNL A   1      47.146  28.218  21.724  1.00  0.00    -0.237 OA
ATOM     46  O   UNL A   1      49.572  28.491  22.080  1.00  0.00    -0.237 OA
ATOM     47  O   UNL A   1      48.652  26.287  21.450  1.00  0.00    -0.744 OA
ENDBRANCH  40  44
ENDBRANCH  23  37
BRANCH  24  48
ATOM     48  C   UNL A   1      38.619  30.069  30.792  1.00  0.00     0.023 A 
ATOM     49  C   UNL A   1      37.585  30.743  30.114  1.00  0.00     0.031 A 
ATOM     50  C   UNL A   1      38.501  29.907  32.182  1.00  0.00     0.131 A 
ATOM     51  C   UNL A   1      36.532  31.312  30.840  1.00  0.00     0.055 A 
ATOM     52  C   UNL A   1      37.406  30.406  32.891  1.00  0.00     0.041 A 
ATOM     53  F   UNL A   1      39.466  29.284  32.875  1.00  0.00    -0.206 F 
ATOM     54  C   UNL A   1      36.426  31.133  32.223  1.00  0.00     0.022 A 
BRANCH  51  55
ATOM     55  S   UNL A   1      35.358  32.441  30.039  1.00  0.00     0.124 S 
ATOM     56  O   UNL A   1      34.403  32.704  31.109  1.00  0.00    -0.237 OA
ATOM     57  O   UNL A   1      36.225  33.560  29.677  1.00  0.00    -0.237 OA
ATOM     58  O   UNL A   1      34.848  31.666  28.913  1.00  0.00    -0.744 OA
ENDBRANCH  51  55
ENDBRANCH  24  48
BRANCH  36  59
ATOM     59  C   UNL A   1      44.767  33.242  29.457  1.00  0.00     0.023 A 
ATOM     60  C   UNL A   1      44.540  34.374  28.651  1.00  0.00     0.031 A 
ATOM     61  C   UNL A   1      45.666  33.366  30.532  1.00  0.00     0.131 A 
ATOM     62  C   UNL A   1      45.236  35.565  28.904  1.00  0.00     0.055 A 
ATOM     63  C   UNL A   1      46.311  34.571  30.816  1.00  0.00     0.041 A 
ATOM     64  F   UNL A   1      45.933  32.313  31.323  1.00  0.00    -0.206 F 
ATOM     65  C   UNL A   1      46.109  35.672  29.990  1.00  0.00     0.022 A 
BRANCH  62  66
ATOM     66  S   UNL A   1      45.111  36.983  27.780  1.00  0.00     0.124 S 
ATOM     67  O   UNL A   1      44.381  36.410  26.651  1.00  0.00    -0.237 OA
ATOM     68  O   UNL A   1      44.362  37.946  28.583  1.00  0.00    -0.237 OA
ATOM     69  O   UNL A   1      46.499  37.340  27.506  1.00  0.00    -0.744 OA
ENDBRANCH  62  66
ENDBRANCH  36  59
ENDBRANCH  10  11
ENDBRANCH   2   5
BRANCH   3  70
ATOM     70  C   UNL A   1      36.481  21.982  25.081  1.00  0.00     0.118 C 
BRANCH  70  71
ATOM     71  C   UNL A   1      35.381  22.100  26.125  1.00  0.00     0.042 C 
BRANCH  71  72
ATOM     72  C   UNL A   1      34.270  21.071  25.985  1.00  0.00     0.118 C 
BRANCH  72  73
ATOM     73  N   UNL A   1      33.631  21.106  24.676  1.00  0.00    -0.352 N 
ATOM     74  C   UNL A   1      32.613  21.890  24.217  1.00  0.00     0.252 C 
ATOM     75  H   UNL A   1      33.989  20.464  24.021  1.00  0.00     0.163 HD
ATOM     76  O   UNL A   1      32.161  21.707  23.089  1.00  0.00    -0.269 OA
BRANCH  74  77
ATOM     77  C   UNL A   1      32.059  22.944  25.104  1.00  0.00     0.054 A 
ATOM     78  C   UNL A   1      31.129  22.548  25.987  1.00  0.00     0.086 A 
ATOM     79  C   UNL A   1      32.550  24.334  25.117  1.00  0.00     0.012 A 
ATOM     80  C   UNL A   1      30.461  23.513  26.876  1.00  0.00     0.249 A 
ATOM     81  C   UNL A   1      31.947  25.246  26.000  1.00  0.00     0.063 A 
ATOM     82  C   UNL A   1      33.590  24.784  24.291  1.00  0.00     0.011 A 
ATOM     83  O   UNL A   1      29.545  23.154  27.610  1.00  0.00    -0.270 OA
ATOM     84  N   UNL A   1      30.903  24.800  26.830  1.00  0.00    -0.321 N 
ATOM     85  C   UNL A   1      32.384  26.576  26.056  1.00  0.00     0.042 A 
ATOM     86  C   UNL A   1      34.027  26.109  24.353  1.00  0.00     0.002 A 
ATOM     87  H   UNL A   1      30.465  25.459  27.415  1.00  0.00     0.170 HD
ATOM     88  Br  UNL A   1      31.603  27.828  27.251  1.00  0.00    -0.049 Br
ATOM     89  C   UNL A   1      33.427  27.006  25.236  1.00  0.00     0.018 A 
ENDBRANCH  74  77
ENDBRANCH  72  73
ENDBRANCH  71  72
ENDBRANCH  70  71
ENDBRANCH   3  70
TORSDOF 13
ENDMDL
MODEL 2
REMARK VINA RESULT:     -12.3      1.192      1.663
REMARK SMILES O=C(NCCCNC(=O)c1cc(=O)[nH]c2c(Br)cccc12)c1ccc(-c2c3nc(c(-c4cc(S(=O)(=O)[O-])ccc4F)c4ccc([nH]4)c(-c4cc(S(=O)(=O)[O-])ccc4F)c4nc(c(-c5cc(S(=O)(=O)[O-])ccc5F)c5ccc2[nH]5)C=C4)C=C3)cc1
REMARK SMILES IDX 1 1 2 2 3 3 22 5 23 6 84 7 24 8 83 9 25 10 26 11 27 12 77 13
REMARK SMILES IDX 28 14 82 15 76 16 78 17 29 18 81 19 75 20 74 21 30 23 62 24
REMARK SMILES IDX 42 25 61 26 43 27 46 28 60 29 79 30 44 31 45 32 59 34 80 35
REMARK SMILES IDX 47 36 31 37 32 38 40 39 33 40 39 41 41 42 38 43 34 44 35 45
REMARK SMILES IDX 36 46 37 47 63 48 64 49 72 50 65 51 71 52 73 53 70 54 66 55
REMARK SMILES IDX 67 56 68 57 69 58 48 59 49 60 57 61 50 62 56 63 58 64 55 65
REMARK SMILES IDX 51 66 52 67 53 68 54 69 4 70 5 71 6 72 7 73 8 74 9 76 10 77
REMARK SMILES IDX 11 78 21 79 12 80 15 81 20 82 13 83 14 84 16 85 19 86 17 88
REMARK SMILES IDX 18 89
REMARK H PARENT 3 4 78 22 46 33 7 75 14 87
REMARK Flexibility Score: inf
ROOT
ATOM      1  O   UNL A   1      39.935  20.893  26.135  1.00  0.00    -0.269 OA
ATOM      2  C   UNL A   1      39.174  21.839  26.323  1.00  0.00     0.251 C 
ATOM      3  N   UNL A   1      37.833  21.671  26.079  1.00  0.00    -0.352 N 
ATOM      4  H   UNL A   1      37.558  20.742  25.909  1.00  0.00     0.163 HD
ENDROOT
BRANCH   2   5
ATOM      5  C   UNL A   1      39.706  23.136  26.796  1.00  0.00     0.039 A 
ATOM      6  C   UNL A   1      39.368  24.297  26.096  1.00  0.00     0.014 A 
ATOM      7  C   UNL A   1      40.570  23.216  27.891  1.00  0.00     0.014 A 
ATOM      8  C   UNL A   1      39.870  25.532  26.514  1.00  0.00     0.010 A 
ATOM      9  C   UNL A   1      40.975  24.456  28.374  1.00  0.00     0.010 A 
ATOM     10  C   UNL A   1      40.663  25.626  27.671  1.00  0.00    -0.014 A 
BRANCH  10  11
ATOM     11  C   UNL A   1      41.205  26.934  28.123  1.00  0.00     0.031 A 
ATOM     12  C   UNL A   1      42.637  27.304  27.845  1.00  0.00     0.074 A 
ATOM     13  C   UNL A   1      40.411  27.785  28.802  1.00  0.00     0.049 A 
ATOM     14  N   UNL A   1      43.273  28.411  28.132  1.00  0.00    -0.248 NA
ATOM     15  C   UNL A   1      43.476  26.290  27.186  1.00  0.00     0.031 C 
ATOM     16  C   UNL A   1      39.028  27.509  29.190  1.00  0.00     0.029 A 
ATOM     17  N   UNL A   1      40.646  29.051  29.277  1.00  0.00    -0.354 N 
ATOM     18  C   UNL A   1      44.577  28.226  27.688  1.00  0.00     0.074 A 
ATOM     19  C   UNL A   1      44.667  26.869  27.200  1.00  0.00     0.031 C 
ATOM     20  C   UNL A   1      38.521  28.591  29.796  1.00  0.00     0.029 A 
ATOM     21  C   UNL A   1      39.553  29.623  29.885  1.00  0.00     0.049 A 
ATOM     22  H   UNL A   1      41.514  29.507  29.191  1.00  0.00     0.167 HD
ATOM     23  C   UNL A   1      45.595  29.118  27.644  1.00  0.00     0.034 A 
ATOM     24  C   UNL A   1      39.392  30.841  30.441  1.00  0.00     0.034 A 
ATOM     25  C   UNL A   1      45.485  30.474  28.119  1.00  0.00     0.049 A 
ATOM     26  C   UNL A   1      40.533  31.823  30.388  1.00  0.00     0.074 A 
ATOM     27  C   UNL A   1      46.437  31.474  28.074  1.00  0.00     0.029 A 
ATOM     28  N   UNL A   1      44.363  31.020  28.727  1.00  0.00    -0.354 N 
ATOM     29  N   UNL A   1      41.729  31.669  29.868  1.00  0.00    -0.248 NA
ATOM     30  C   UNL A   1      40.304  33.148  30.978  1.00  0.00     0.031 C 
ATOM     31  C   UNL A   1      45.920  32.599  28.718  1.00  0.00     0.029 A 
ATOM     32  C   UNL A   1      44.613  32.334  29.094  1.00  0.00     0.049 A 
ATOM     33  H   UNL A   1      43.513  30.546  28.876  1.00  0.00     0.167 HD
ATOM     34  C   UNL A   1      42.393  32.877  30.062  1.00  0.00     0.074 A 
ATOM     35  C   UNL A   1      41.447  33.767  30.707  1.00  0.00     0.031 C 
ATOM     36  C   UNL A   1      43.671  33.214  29.748  1.00  0.00     0.034 A 
BRANCH  23  37
ATOM     37  C   UNL A   1      46.906  28.681  27.032  1.00  0.00     0.023 A 
ATOM     38  C   UNL A   1      46.997  28.431  25.651  1.00  0.00     0.031 A 
ATOM     39  C   UNL A   1      48.036  28.408  27.830  1.00  0.00     0.131 A 
ATOM     40  C   UNL A   1      48.178  27.901  25.114  1.00  0.00     0.055 A 
ATOM     41  C   UNL A   1      49.227  27.934  27.282  1.00  0.00     0.041 A 
ATOM     42  F   UNL A   1      48.003  28.621  29.156  1.00  0.00    -0.206 F 
ATOM     43  C   UNL A   1      49.297  27.664  25.920  1.00  0.00     0.022 A 
BRANCH  40  44
ATOM     44  S   UNL A   1      48.287  27.426  23.368  1.00  0.00     0.124 S 
ATOM     45  O   UNL A   1      48.052  25.986  23.434  1.00  0.00    -0.237 OA
ATOM     46  O   UNL A   1      47.208  28.208  22.773  1.00  0.00    -0.237 OA
ATOM     47  O   UNL A   1      49.638  27.818  22.981  1.00  0.00    -0.744 OA
ENDBRANCH  40  44
ENDBRANCH  23  37
BRANCH  24  48
ATOM     48  C   UNL A   1      38.059  31.194  31.015  1.00  0.00     0.023 A 
ATOM     49  C   UNL A   1      37.067  31.791  30.214  1.00  0.00     0.031 A 
ATOM     50  C   UNL A   1      37.815  31.083  32.394  1.00  0.00     0.131 A 
ATOM     51  C   UNL A   1      35.926  32.340  30.812  1.00  0.00     0.055 A 
ATOM     52  C   UNL A   1      36.637  31.557  32.974  1.00  0.00     0.041 A 
ATOM     53  F   UNL A   1      38.736  30.533  33.201  1.00  0.00    -0.206 F 
ATOM     54  C   UNL A   1      35.696  32.211  32.185  1.00  0.00     0.022 A 
BRANCH  51  55
ATOM     55  S   UNL A   1      34.788  33.380  29.855  1.00  0.00     0.124 S 
ATOM     56  O   UNL A   1      34.167  32.413  28.957  1.00  0.00    -0.237 OA
ATOM     57  O   UNL A   1      33.923  33.915  30.904  1.00  0.00    -0.237 OA
ATOM     58  O   UNL A   1      35.666  34.358  29.219  1.00  0.00    -0.744 OA
ENDBRANCH  51  55
ENDBRANCH  24  48
BRANCH  36  59
ATOM     59  C   UNL A   1      44.164  34.595  30.119  1.00  0.00     0.023 A 
ATOM     60  C   UNL A   1      43.998  35.675  29.229  1.00  0.00     0.031 A 
ATOM     61  C   UNL A   1      44.922  34.811  31.285  1.00  0.00     0.131 A 
ATOM     62  C   UNL A   1      44.616  36.904  29.498  1.00  0.00     0.055 A 
ATOM     63  C   UNL A   1      45.485  36.054  31.576  1.00  0.00     0.041 A 
ATOM     64  F   UNL A   1      45.127  33.812  32.160  1.00  0.00    -0.206 F 
ATOM     65  C   UNL A   1      45.347  37.102  30.672  1.00  0.00     0.022 A 
BRANCH  62  66
ATOM     66  S   UNL A   1      44.580  38.257  28.289  1.00  0.00     0.124 S 
ATOM     67  O   UNL A   1      45.968  38.714  28.306  1.00  0.00    -0.237 OA
ATOM     68  O   UNL A   1      44.164  37.568  27.070  1.00  0.00    -0.237 OA
ATOM     69  O   UNL A   1      43.609  39.197  28.841  1.00  0.00    -0.744 OA
ENDBRANCH  62  66
ENDBRANCH  36  59
ENDBRANCH  10  11
ENDBRANCH   2   5
BRANCH   3  70
ATOM     70  C   UNL A   1      36.753  22.646  26.031  1.00  0.00     0.118 C 
BRANCH  70  71
ATOM     71  C   UNL A   1      35.854  22.475  24.816  1.00  0.00     0.042 C 
BRANCH  71  72
ATOM     72  C   UNL A   1      34.628  21.608  25.059  1.00  0.00     0.118 C 
BRANCH  72  73
ATOM     73  N   UNL A   1      33.727  21.573  23.914  1.00  0.00    -0.352 N 
ATOM     74  C   UNL A   1      32.543  22.219  23.709  1.00  0.00     0.252 C 
ATOM     75  H   UNL A   1      34.018  20.992  23.174  1.00  0.00     0.163 HD
ATOM     76  O   UNL A   1      31.889  21.991  22.695  1.00  0.00    -0.269 OA
BRANCH  74  77
ATOM     77  C   UNL A   1      32.059  23.178  24.734  1.00  0.00     0.054 A 
ATOM     78  C   UNL A   1      31.245  22.679  25.678  1.00  0.00     0.086 A 
ATOM     79  C   UNL A   1      32.506  24.581  24.808  1.00  0.00     0.012 A 
ATOM     80  C   UNL A   1      30.652  23.546  26.710  1.00  0.00     0.249 A 
ATOM     81  C   UNL A   1      31.978  25.398  25.822  1.00  0.00     0.063 A 
ATOM     82  C   UNL A   1      33.434  25.134  23.913  1.00  0.00     0.011 A 
ATOM     83  O   UNL A   1      29.834  23.096  27.507  1.00  0.00    -0.270 OA
ATOM     84  N   UNL A   1      31.048  24.848  26.721  1.00  0.00    -0.321 N 
ATOM     85  C   UNL A   1      32.379  26.736  25.939  1.00  0.00     0.042 A 
ATOM     86  C   UNL A   1      33.836  26.467  24.035  1.00  0.00     0.002 A 
ATOM     87  H   UNL A   1      30.658  25.443  27.402  1.00  0.00     0.170 HD
ATOM     88  Br  UNL A   1      31.699  27.860  27.309  1.00  0.00    -0.049 Br
ATOM     89  C   UNL A   1      33.310  27.268  25.048  1.00  0.00     0.018 A 
ENDBRANCH  74  77
ENDBRANCH  72  73
ENDBRANCH  71  72
ENDBRANCH  70  71
ENDBRANCH   3  70
TORSDOF 13
ENDMDL
MODEL 3
REMARK VINA RESULT:     -12.2      1.723      1.968
REMARK SMILES O=C(NCCCNC(=O)c1cc(=O)[nH]c2c(Br)cccc12)c1ccc(-c2c3nc(c(-c4cc(S(=O)(=O)[O-])ccc4F)c4ccc([nH]4)c(-c4cc(S(=O)(=O)[O-])ccc4F)c4nc(c(-c5cc(S(=O)(=O)[O-])ccc5F)c5ccc2[nH]5)C=C4)C=C3)cc1
REMARK SMILES IDX 1 1 2 2 3 3 22 5 23 6 84 7 24 8 83 9 25 10 26 11 27 12 77 13
REMARK SMILES IDX 28 14 82 15 76 16 78 17 29 18 81 19 75 20 74 21 30 23 62 24
REMARK SMILES IDX 42 25 61 26 43 27 46 28 60 29 79 30 44 31 45 32 59 34 80 35
REMARK SMILES IDX 47 36 31 37 32 38 40 39 33 40 39 41 41 42 38 43 34 44 35 45
REMARK SMILES IDX 36 46 37 47 63 48 64 49 72 50 65 51 71 52 73 53 70 54 66 55
REMARK SMILES IDX 67 56 68 57 69 58 48 59 49 60 57 61 50 62 56 63 58 64 55 65
REMARK SMILES IDX 51 66 52 67 53 68 54 69 4 70 5 71 6 72 7 73 8 74 9 76 10 77
REMARK SMILES IDX 11 78 21 79 12 80 15 81 20 82 13 83 14 84 16 85 19 86 17 88
REMARK SMILES IDX 18 89
REMARK H PARENT 3 4 78 22 46 33 7 75 14 87
REMARK Flexibility Score: inf
ROOT
ATOM      1  O   UNL A   1      39.700  20.628  26.053  1.00  0.00    -0.269 OA
ATOM      2  C   UNL A   1      38.980  21.612  26.201  1.00  0.00     0.251 C 
ATOM      3  N   UNL A   1      37.638  21.500  25.930  1.00  0.00    -0.352 N 
ATOM      4  H   UNL A   1      37.324  20.580  25.777  1.00  0.00     0.163 HD
ENDROOT
BRANCH   2   5
ATOM      5  C   UNL A   1      39.561  22.895  26.654  1.00  0.00     0.039 A 
ATOM      6  C   UNL A   1      40.491  22.881  27.696  1.00  0.00     0.014 A 
ATOM      7  C   UNL A   1      39.164  24.113  26.096  1.00  0.00     0.014 A 
ATOM      8  C   UNL A   1      41.041  24.082  28.152  1.00  0.00     0.010 A 
ATOM      9  C   UNL A   1      39.797  25.294  26.472  1.00  0.00     0.010 A 
ATOM     10  C   UNL A   1      40.715  25.299  27.529  1.00  0.00    -0.014 A 
BRANCH  10  11
ATOM     11  C   UNL A   1      41.292  26.582  28.008  1.00  0.00     0.031 A 
ATOM     12  C   UNL A   1      42.729  26.927  27.721  1.00  0.00     0.074 A 
ATOM     13  C   UNL A   1      40.528  27.432  28.720  1.00  0.00     0.049 A 
ATOM     14  N   UNL A   1      43.394  28.011  28.029  1.00  0.00    -0.248 NA
ATOM     15  C   UNL A   1      43.536  25.913  27.023  1.00  0.00     0.031 C 
ATOM     16  C   UNL A   1      39.144  27.177  29.120  1.00  0.00     0.029 A 
ATOM     17  N   UNL A   1      40.797  28.679  29.227  1.00  0.00    -0.354 N 
ATOM     18  C   UNL A   1      44.688  27.809  27.562  1.00  0.00     0.074 A 
ATOM     19  C   UNL A   1      44.740  26.465  27.037  1.00  0.00     0.031 C 
ATOM     20  C   UNL A   1      38.670  28.253  29.762  1.00  0.00     0.029 A 
ATOM     21  C   UNL A   1      39.726  29.259  29.864  1.00  0.00     0.049 A 
ATOM     22  H   UNL A   1      41.675  29.117  29.141  1.00  0.00     0.167 HD
ATOM     23  C   UNL A   1      45.725  28.679  27.529  1.00  0.00     0.034 A 
ATOM     24  C   UNL A   1      39.600  30.465  30.456  1.00  0.00     0.034 A 
ATOM     25  C   UNL A   1      45.652  30.023  28.042  1.00  0.00     0.049 A 
ATOM     26  C   UNL A   1      40.763  31.422  30.413  1.00  0.00     0.074 A 
ATOM     27  C   UNL A   1      46.627  31.003  28.011  1.00  0.00     0.029 A 
ATOM     28  N   UNL A   1      44.551  30.578  28.680  1.00  0.00    -0.354 N 
ATOM     29  N   UNL A   1      41.948  31.255  29.873  1.00  0.00    -0.248 NA
ATOM     30  C   UNL A   1      40.572  32.735  31.042  1.00  0.00     0.031 C 
ATOM     31  C   UNL A   1      46.144  32.121  28.692  1.00  0.00     0.029 A 
ATOM     32  C   UNL A   1      44.836  31.875  29.078  1.00  0.00     0.049 A 
ATOM     33  H   UNL A   1      43.693  30.119  28.827  1.00  0.00     0.167 HD
ATOM     34  C   UNL A   1      42.642  32.442  30.091  1.00  0.00     0.074 A 
ATOM     35  C   UNL A   1      41.725  33.335  30.773  1.00  0.00     0.031 C 
ATOM     36  C   UNL A   1      43.923  32.758  29.769  1.00  0.00     0.034 A 
BRANCH  23  37
ATOM     37  C   UNL A   1      47.018  28.229  26.888  1.00  0.00     0.023 A 
ATOM     38  C   UNL A   1      47.144  28.202  25.487  1.00  0.00     0.031 A 
ATOM     39  C   UNL A   1      48.085  27.726  27.658  1.00  0.00     0.131 A 
ATOM     40  C   UNL A   1      48.296  27.660  24.901  1.00  0.00     0.055 A 
ATOM     41  C   UNL A   1      49.253  27.240  27.071  1.00  0.00     0.041 A 
ATOM     42  F   UNL A   1      48.016  27.720  29.000  1.00  0.00    -0.206 F 
ATOM     43  C   UNL A   1      49.356  27.192  25.685  1.00  0.00     0.022 A 
BRANCH  40  44
ATOM     44  S   UNL A   1      48.436  27.471  23.104  1.00  0.00     0.124 S 
ATOM     45  O   UNL A   1      47.280  28.229  22.631  1.00  0.00    -0.237 OA
ATOM     46  O   UNL A   1      49.735  28.081  22.834  1.00  0.00    -0.237 OA
ATOM     47  O   UNL A   1      48.361  26.029  22.895  1.00  0.00    -0.744 OA
ENDBRANCH  40  44
ENDBRANCH  23  37
BRANCH  24  48
ATOM     48  C   UNL A   1      38.284  30.832  31.057  1.00  0.00     0.023 A 
ATOM     49  C   UNL A   1      37.277  31.427  30.273  1.00  0.00     0.031 A 
ATOM     50  C   UNL A   1      38.072  30.736  32.442  1.00  0.00     0.131 A 
ATOM     51  C   UNL A   1      36.154  31.989  30.892  1.00  0.00     0.055 A 
ATOM     52  C   UNL A   1      36.911  31.224  33.045  1.00  0.00     0.041 A 
ATOM     53  F   UNL A   1      39.007  30.189  33.234  1.00  0.00    -0.206 F 
ATOM     54  C   UNL A   1      35.955  31.876  32.272  1.00  0.00     0.022 A 
BRANCH  51  55
ATOM     55  S   UNL A   1      35.000  33.027  29.951  1.00  0.00     0.124 S 
ATOM     56  O   UNL A   1      35.895  33.990  29.320  1.00  0.00    -0.237 OA
ATOM     57  O   UNL A   1      34.388  32.050  29.053  1.00  0.00    -0.237 OA
ATOM     58  O   UNL A   1      34.110  33.568  30.974  1.00  0.00    -0.744 OA
ENDBRANCH  51  55
ENDBRANCH  24  48
BRANCH  36  59
ATOM     59  C   UNL A   1      44.453  34.117  30.170  1.00  0.00     0.023 A 
ATOM     60  C   UNL A   1      45.012  34.315  31.449  1.00  0.00     0.031 A 
ATOM     61  C   UNL A   1      44.276  35.243  29.345  1.00  0.00     0.131 A 
ATOM     62  C   UNL A   1      45.332  35.610  31.879  1.00  0.00     0.055 A 
ATOM     63  C   UNL A   1      44.652  36.523  29.757  1.00  0.00     0.041 A 
ATOM     64  F   UNL A   1      43.732  35.115  28.124  1.00  0.00    -0.206 F 
ATOM     65  C   UNL A   1      45.167  36.712  31.035  1.00  0.00     0.022 A 
BRANCH  62  66
ATOM     66  S   UNL A   1      45.878  35.926  33.581  1.00  0.00     0.124 S 
ATOM     67  O   UNL A   1      44.623  36.285  34.238  1.00  0.00    -0.237 OA
ATOM     68  O   UNL A   1      46.437  34.633  33.968  1.00  0.00    -0.237 OA
ATOM     69  O   UNL A   1      46.843  37.012  33.446  1.00  0.00    -0.744 OA
ENDBRANCH  62  66
ENDBRANCH  36  59
ENDBRANCH  10  11
ENDBRANCH   2   5
BRANCH   3  70
ATOM     70  C   UNL A   1      36.605  22.521  25.835  1.00  0.00     0.118 C 
BRANCH  70  71
ATOM     71  C   UNL A   1      35.689  22.326  24.636  1.00  0.00     0.042 C 
BRANCH  71  72
ATOM     72  C   UNL A   1      34.409  21.564  24.942  1.00  0.00     0.118 C 
BRANCH  72  73
ATOM     73  N   UNL A   1      33.474  21.560  23.824  1.00  0.00    -0.352 N 
ATOM     74  C   UNL A   1      32.303  22.238  23.656  1.00  0.00     0.252 C 
ATOM     75  H   UNL A   1      33.728  20.976  23.072  1.00  0.00     0.163 HD
ATOM     76  O   UNL A   1      31.614  22.033  22.660  1.00  0.00    -0.269 OA
BRANCH  74  77
ATOM     77  C   UNL A   1      31.874  23.204  24.700  1.00  0.00     0.054 A 
ATOM     78  C   UNL A   1      31.052  22.728  25.648  1.00  0.00     0.086 A 
ATOM     79  C   UNL A   1      32.382  24.585  24.784  1.00  0.00     0.012 A 
ATOM     80  C   UNL A   1      30.510  23.606  26.699  1.00  0.00     0.249 A 
ATOM     81  C   UNL A   1      31.903  25.410  25.816  1.00  0.00     0.063 A 
ATOM     82  C   UNL A   1      33.321  25.109  23.884  1.00  0.00     0.011 A 
ATOM     83  O   UNL A   1      29.684  23.181  27.502  1.00  0.00    -0.270 OA
ATOM     84  N   UNL A   1      30.962  24.890  26.721  1.00  0.00    -0.321 N 
ATOM     85  C   UNL A   1      32.363  26.729  25.944  1.00  0.00     0.042 A 
ATOM     86  C   UNL A   1      33.781  26.422  24.017  1.00  0.00     0.002 A 
ATOM     87  H   UNL A   1      30.607  25.492  27.415  1.00  0.00     0.170 HD
ATOM     88  Br  UNL A   1      31.749  27.862  27.337  1.00  0.00    -0.049 Br
ATOM     89  C   UNL A   1      33.305  27.232  25.047  1.00  0.00     0.018 A 
ENDBRANCH  74  77
ENDBRANCH  72  73
ENDBRANCH  71  72
ENDBRANCH  70  71
ENDBRANCH   3  70
TORSDOF 13
ENDMDL
