MODEL 1
REMARK VINA RESULT:     -12.2      0.000      0.000
REMARK SMILES Cc1cc2cc(-c3ccc([C@@H](C)C(=O)NCCCNC(=O)c4ccc(-c5c6nc(c(-c7cc(S(=O)(=O)[O-])ccc7F)c7ccc([nH]7)c(-c7cc(S(=O)(=O)[O-])ccc7F)c7nc(c(-c8cc(S(=O)(=O)[O-])ccc8F)c8ccc5[nH]8)C=C7)C=C6)cc4)cc3)ccc2[nH]1
REMARK SMILES IDX 17 1 16 2 15 3 13 4 14 5 11 7 12 8 10 9 7 10 8 11 86 12 9 13
REMARK SMILES IDX 85 14 6 15 1 16 2 17 3 18 90 19 4 20 89 21 5 23 88 24 87 25
REMARK SMILES IDX 18 26 19 27 20 28 21 30 22 31 23 32 84 33 24 34 83 35 25 36
REMARK SMILES IDX 26 37 27 38 77 39 28 40 82 41 76 42 78 43 29 44 81 45 75 46
REMARK SMILES IDX 74 47 30 49 62 50 42 51 61 52 43 53 46 54 60 55 79 56 44 57
REMARK SMILES IDX 45 58 59 60 80 61 47 62 31 63 32 64 40 65 33 66 39 67 41 68
REMARK SMILES IDX 38 69 34 70 35 71 36 72 37 73 63 74 64 75 72 76 65 77 71 78
REMARK SMILES IDX 73 79 70 80 66 81 67 82 68 83 69 84 48 85 49 86 57 87 50 88
REMARK SMILES IDX 56 89 58 90 55 91 51 92 52 93 53 94 54 95
REMARK H PARENT 15 6 90 22 19 29 78 48 46 59
REMARK Flexibility Score: inf
ROOT
ATOM      1  C   UNL A   1      33.762  28.493  23.700  1.00  0.00     0.042 C 
ENDROOT
BRANCH   1   2
ATOM      2  C   UNL A   1      32.534  27.714  23.232  1.00  0.00     0.117 C 
BRANCH   2   3
ATOM      3  N   UNL A   1      32.744  27.043  21.963  1.00  0.00    -0.356 N 
ATOM      4  C   UNL A   1      32.873  25.728  21.631  1.00  0.00     0.227 C 
ATOM      5  O   UNL A   1      33.070  25.487  20.433  1.00  0.00    -0.274 OA
ATOM      6  H   UNL A   1      32.807  27.655  21.195  1.00  0.00     0.163 HD
BRANCH   4   7
ATOM      7  C   UNL A   1      32.769  24.568  22.632  1.00  0.00     0.105 C 
ATOM      8  C   UNL A   1      31.520  24.605  23.512  1.00  0.00     0.023 C 
BRANCH   7   9
ATOM      9  C   UNL A   1      34.073  24.273  23.355  1.00  0.00    -0.036 A 
ATOM     10  C   UNL A   1      36.432  23.623  24.828  1.00  0.00    -0.018 A 
ATOM     11  C   UNL A   1      36.180  23.084  23.557  1.00  0.00     0.009 A 
ATOM     12  C   UNL A   1      35.481  24.516  25.341  1.00  0.00     0.009 A 
ATOM     13  C   UNL A   1      35.048  23.431  22.819  1.00  0.00     0.005 A 
ATOM     14  C   UNL A   1      34.313  24.823  24.624  1.00  0.00     0.005 A 
BRANCH  10  15
ATOM     15  C   UNL A   1      37.659  23.247  25.564  1.00  0.00    -0.018 A 
ATOM     16  C   UNL A   1      42.162  19.586  27.549  1.00  0.00     0.064 C 
ATOM     17  C   UNL A   1      41.083  20.512  27.125  1.00  0.00     0.013 A 
ATOM     18  C   UNL A   1      40.058  20.330  26.222  1.00  0.00     0.031 A 
ATOM     19  N   UNL A   1      40.962  21.785  27.631  1.00  0.00    -0.359 N 
ATOM     20  C   UNL A   1      39.325  21.543  26.147  1.00  0.00     0.000 A 
ATOM     21  C   UNL A   1      39.910  22.441  27.032  1.00  0.00     0.046 A 
ATOM     22  H   UNL A   1      41.545  22.171  28.324  1.00  0.00     0.166 HD
ATOM     23  C   UNL A   1      38.205  21.956  25.404  1.00  0.00     0.019 A 
ATOM     24  C   UNL A   1      39.423  23.741  27.207  1.00  0.00     0.027 A 
ATOM     25  C   UNL A   1      38.293  24.120  26.463  1.00  0.00     0.011 A 
ENDBRANCH  10  15
ENDBRANCH   7   9
ENDBRANCH   4   7
ENDBRANCH   2   3
ENDBRANCH   1   2
BRANCH   1  26
ATOM     26  C   UNL A   1      33.860  28.655  25.213  1.00  0.00     0.118 C 
BRANCH  26  27
ATOM     27  N   UNL A   1      33.203  29.868  25.682  1.00  0.00    -0.352 N 
ATOM     28  C   UNL A   1      33.468  30.676  26.763  1.00  0.00     0.251 C 
ATOM     29  H   UNL A   1      32.440  30.158  25.132  1.00  0.00     0.163 HD
ATOM     30  O   UNL A   1      32.630  31.516  27.083  1.00  0.00    -0.269 OA
BRANCH  28  31
ATOM     31  C   UNL A   1      34.719  30.543  27.548  1.00  0.00     0.039 A 
ATOM     32  C   UNL A   1      34.939  29.359  28.260  1.00  0.00     0.014 A 
ATOM     33  C   UNL A   1      35.647  31.583  27.640  1.00  0.00     0.014 A 
ATOM     34  C   UNL A   1      36.111  29.195  29.005  1.00  0.00     0.010 A 
ATOM     35  C   UNL A   1      36.851  31.390  28.321  1.00  0.00     0.010 A 
ATOM     36  C   UNL A   1      37.098  30.194  29.011  1.00  0.00    -0.014 A 
BRANCH  36  37
ATOM     37  C   UNL A   1      38.392  29.996  29.720  1.00  0.00     0.031 A 
ATOM     38  C   UNL A   1      38.623  30.608  31.075  1.00  0.00     0.074 A 
ATOM     39  C   UNL A   1      39.384  29.314  29.113  1.00  0.00     0.049 A 
ATOM     40  N   UNL A   1      39.710  30.617  31.805  1.00  0.00    -0.248 NA
ATOM     41  C   UNL A   1      37.491  31.325  31.678  1.00  0.00     0.031 C 
ATOM     42  C   UNL A   1      39.298  28.705  27.783  1.00  0.00     0.029 A 
ATOM     43  N   UNL A   1      40.663  29.027  29.525  1.00  0.00    -0.354 N 
ATOM     44  C   UNL A   1      39.398  31.349  32.946  1.00  0.00     0.074 A 
ATOM     45  C   UNL A   1      38.035  31.812  32.783  1.00  0.00     0.031 C 
ATOM     46  C   UNL A   1      40.462  28.101  27.500  1.00  0.00     0.029 A 
ATOM     47  C   UNL A   1      41.398  28.324  28.598  1.00  0.00     0.049 A 
ATOM     48  H   UNL A   1      41.019  29.298  30.402  1.00  0.00     0.167 HD
ATOM     49  C   UNL A   1      40.169  31.596  34.035  1.00  0.00     0.034 A 
ATOM     50  C   UNL A   1      42.686  27.925  28.616  1.00  0.00     0.034 A 
ATOM     51  C   UNL A   1      41.521  31.117  34.189  1.00  0.00     0.049 A 
ATOM     52  C   UNL A   1      43.533  28.244  29.820  1.00  0.00     0.074 A 
ATOM     53  C   UNL A   1      42.365  31.254  35.279  1.00  0.00     0.029 A 
ATOM     54  N   UNL A   1      42.236  30.418  33.226  1.00  0.00    -0.354 N 
ATOM     55  N   UNL A   1      43.204  28.894  30.912  1.00  0.00    -0.248 NA
ATOM     56  C   UNL A   1      44.923  27.771  29.795  1.00  0.00     0.031 C 
ATOM     57  C   UNL A   1      43.607  30.701  34.949  1.00  0.00     0.029 A 
ATOM     58  C   UNL A   1      43.519  30.150  33.681  1.00  0.00     0.049 A 
ATOM     59  H   UNL A   1      41.883  30.150  32.346  1.00  0.00     0.167 HD
ATOM     60  C   UNL A   1      44.341  28.882  31.715  1.00  0.00     0.074 A 
ATOM     61  C   UNL A   1      45.355  28.144  30.990  1.00  0.00     0.031 C 
ATOM     62  C   UNL A   1      44.527  29.428  32.943  1.00  0.00     0.034 A 
BRANCH  49  63
ATOM     63  C   UNL A   1      39.575  32.445  35.133  1.00  0.00     0.023 A 
ATOM     64  C   UNL A   1      38.960  31.871  36.261  1.00  0.00     0.031 A 
ATOM     65  C   UNL A   1      39.618  33.848  35.051  1.00  0.00     0.131 A 
ATOM     66  C   UNL A   1      38.357  32.693  37.225  1.00  0.00     0.055 A 
ATOM     67  C   UNL A   1      39.084  34.662  36.053  1.00  0.00     0.041 A 
ATOM     68  F   UNL A   1      40.174  34.453  33.991  1.00  0.00    -0.206 F 
ATOM     69  C   UNL A   1      38.437  34.085  37.141  1.00  0.00     0.022 A 
BRANCH  66  70
ATOM     70  S   UNL A   1      37.357  31.917  38.523  1.00  0.00     0.124 S 
ATOM     71  O   UNL A   1      38.219  32.070  39.692  1.00  0.00    -0.237 OA
ATOM     72  O   UNL A   1      36.143  32.726  38.513  1.00  0.00    -0.237 OA
ATOM     73  O   UNL A   1      37.193  30.542  38.054  1.00  0.00    -0.744 OA
ENDBRANCH  66  70
ENDBRANCH  49  63
BRANCH  50  74
ATOM     74  C   UNL A   1      43.269  27.214  27.443  1.00  0.00     0.023 A 
ATOM     75  C   UNL A   1      43.211  25.815  27.334  1.00  0.00     0.031 A 
ATOM     76  C   UNL A   1      43.937  27.926  26.433  1.00  0.00     0.131 A 
ATOM     77  C   UNL A   1      43.850  25.170  26.263  1.00  0.00     0.055 A 
ATOM     78  C   UNL A   1      44.513  27.285  25.338  1.00  0.00     0.041 A 
ATOM     79  F   UNL A   1      44.032  29.264  26.491  1.00  0.00    -0.206 F 
ATOM     80  C   UNL A   1      44.487  25.896  25.256  1.00  0.00     0.022 A 
BRANCH  77  81
ATOM     81  S   UNL A   1      43.923  23.358  26.258  1.00  0.00     0.124 S 
ATOM     82  O   UNL A   1      43.692  23.046  27.663  1.00  0.00    -0.237 OA
ATOM     83  O   UNL A   1      42.845  23.014  25.337  1.00  0.00    -0.237 OA
ATOM     84  O   UNL A   1      45.272  23.075  25.770  1.00  0.00    -0.744 OA
ENDBRANCH  77  81
ENDBRANCH  50  74
BRANCH  62  85
ATOM     85  C   UNL A   1      45.873  29.208  33.590  1.00  0.00     0.023 A 
ATOM     86  C   UNL A   1      46.155  28.047  34.334  1.00  0.00     0.031 A 
ATOM     87  C   UNL A   1      46.879  30.184  33.481  1.00  0.00     0.131 A 
ATOM     88  C   UNL A   1      47.389  27.919  34.987  1.00  0.00     0.055 A 
ATOM     89  C   UNL A   1      48.129  30.022  34.082  1.00  0.00     0.041 A 
ATOM     90  F   UNL A   1      46.664  31.313  32.787  1.00  0.00    -0.206 F 
ATOM     91  C   UNL A   1      48.384  28.890  34.852  1.00  0.00     0.022 A 
BRANCH  88  92
ATOM     92  S   UNL A   1      47.645  26.506  36.096  1.00  0.00     0.124 S 
ATOM     93  O   UNL A   1      46.991  26.959  37.320  1.00  0.00    -0.237 OA
ATOM     94  O   UNL A   1      46.978  25.422  35.381  1.00  0.00    -0.237 OA
ATOM     95  O   UNL A   1      49.099  26.391  36.176  1.00  0.00    -0.744 OA
ENDBRANCH  88  92
ENDBRANCH  62  85
ENDBRANCH  36  37
ENDBRANCH  28  31
ENDBRANCH  26  27
ENDBRANCH   1  26
TORSDOF 15
ENDMDL
MODEL 2
REMARK VINA RESULT:     -12.1      0.525      7.493
REMARK SMILES Cc1cc2cc(-c3ccc([C@@H](C)C(=O)NCCCNC(=O)c4ccc(-c5c6nc(c(-c7cc(S(=O)(=O)[O-])ccc7F)c7ccc([nH]7)c(-c7cc(S(=O)(=O)[O-])ccc7F)c7nc(c(-c8cc(S(=O)(=O)[O-])ccc8F)c8ccc5[nH]8)C=C7)C=C6)cc4)cc3)ccc2[nH]1
REMARK SMILES IDX 17 1 16 2 15 3 13 4 14 5 11 7 12 8 10 9 7 10 8 11 86 12 9 13
REMARK SMILES IDX 85 14 6 15 1 16 2 17 3 18 90 19 4 20 89 21 5 23 88 24 87 25
REMARK SMILES IDX 18 26 19 27 20 28 21 30 22 31 23 32 84 33 24 34 83 35 25 36
REMARK SMILES IDX 26 37 27 38 77 39 28 40 82 41 76 42 78 43 29 44 81 45 75 46
REMARK SMILES IDX 74 47 30 49 62 50 42 51 61 52 43 53 46 54 60 55 79 56 44 57
REMARK SMILES IDX 45 58 59 60 80 61 47 62 31 63 32 64 40 65 33 66 39 67 41 68
REMARK SMILES IDX 38 69 34 70 35 71 36 72 37 73 63 74 64 75 72 76 65 77 71 78
REMARK SMILES IDX 73 79 70 80 66 81 67 82 68 83 69 84 48 85 49 86 57 87 50 88
REMARK SMILES IDX 56 89 58 90 55 91 51 92 52 93 53 94 54 95
REMARK H PARENT 15 6 90 22 19 29 78 48 46 59
REMARK Flexibility Score: inf
ROOT
ATOM      1  C   UNL A   1      33.749  28.412  24.033  1.00  0.00     0.042 C 
ENDROOT
BRANCH   1   2
ATOM      2  C   UNL A   1      32.489  28.041  23.252  1.00  0.00     0.117 C 
BRANCH   2   3
ATOM      3  N   UNL A   1      32.780  27.334  22.018  1.00  0.00    -0.356 N 
ATOM      4  C   UNL A   1      32.846  26.008  21.715  1.00  0.00     0.227 C 
ATOM      5  O   UNL A   1      33.148  25.732  20.546  1.00  0.00    -0.274 OA
ATOM      6  H   UNL A   1      32.967  27.926  21.255  1.00  0.00     0.163 HD
BRANCH   4   7
ATOM      7  C   UNL A   1      32.553  24.876  22.711  1.00  0.00     0.105 C 
ATOM      8  C   UNL A   1      31.294  25.086  23.551  1.00  0.00     0.023 C 
BRANCH   7   9
ATOM      9  C   UNL A   1      33.781  24.407  23.473  1.00  0.00    -0.036 A 
ATOM     10  C   UNL A   1      36.188  23.620  24.796  1.00  0.00    -0.018 A 
ATOM     11  C   UNL A   1      35.276  24.511  25.383  1.00  0.00     0.009 A 
ATOM     12  C   UNL A   1      35.856  23.112  23.532  1.00  0.00     0.009 A 
ATOM     13  C   UNL A   1      34.081  24.865  24.756  1.00  0.00     0.005 A 
ATOM     14  C   UNL A   1      34.682  23.513  22.874  1.00  0.00     0.005 A 
BRANCH  10  15
ATOM     15  C   UNL A   1      37.430  23.251  25.509  1.00  0.00    -0.018 A 
ATOM     16  C   UNL A   1      42.004  19.621  27.385  1.00  0.00     0.064 C 
ATOM     17  C   UNL A   1      40.908  20.538  26.988  1.00  0.00     0.013 A 
ATOM     18  C   UNL A   1      39.871  20.355  26.099  1.00  0.00     0.031 A 
ATOM     19  N   UNL A   1      40.780  21.804  27.510  1.00  0.00    -0.359 N 
ATOM     20  C   UNL A   1      39.123  21.560  26.048  1.00  0.00     0.000 A 
ATOM     21  C   UNL A   1      39.712  22.455  26.934  1.00  0.00     0.046 A 
ATOM     22  H   UNL A   1      41.369  22.190  28.198  1.00  0.00     0.166 HD
ATOM     23  C   UNL A   1      37.988  21.968  25.326  1.00  0.00     0.019 A 
ATOM     24  C   UNL A   1      39.213  23.747  27.131  1.00  0.00     0.027 A 
ATOM     25  C   UNL A   1      38.067  24.122  26.408  1.00  0.00     0.011 A 
ENDBRANCH  10  15
ENDBRANCH   7   9
ENDBRANCH   4   7
ENDBRANCH   2   3
ENDBRANCH   1   2
BRANCH   1  26
ATOM     26  C   UNL A   1      33.548  28.489  25.542  1.00  0.00     0.118 C 
BRANCH  26  27
ATOM     27  N   UNL A   1      32.977  29.763  25.960  1.00  0.00    -0.352 N 
ATOM     28  C   UNL A   1      33.390  30.666  26.910  1.00  0.00     0.251 C 
ATOM     29  H   UNL A   1      32.157  30.020  25.479  1.00  0.00     0.163 HD
ATOM     30  O   UNL A   1      32.615  31.561  27.241  1.00  0.00    -0.269 OA
BRANCH  28  31
ATOM     31  C   UNL A   1      34.726  30.573  27.547  1.00  0.00     0.039 A 
ATOM     32  C   UNL A   1      35.501  31.734  27.647  1.00  0.00     0.014 A 
ATOM     33  C   UNL A   1      35.249  29.358  27.992  1.00  0.00     0.014 A 
ATOM     34  C   UNL A   1      36.763  31.686  28.247  1.00  0.00     0.010 A 
ATOM     35  C   UNL A   1      36.475  29.324  28.660  1.00  0.00     0.010 A 
ATOM     36  C   UNL A   1      37.247  30.488  28.796  1.00  0.00    -0.014 A 
BRANCH  36  37
ATOM     37  C   UNL A   1      38.545  30.440  29.524  1.00  0.00     0.031 A 
ATOM     38  C   UNL A   1      39.713  29.680  28.956  1.00  0.00     0.074 A 
ATOM     39  C   UNL A   1      38.653  31.034  30.729  1.00  0.00     0.049 A 
ATOM     40  N   UNL A   1      40.889  29.455  29.483  1.00  0.00    -0.248 NA
ATOM     41  C   UNL A   1      39.524  29.071  27.631  1.00  0.00     0.031 C 
ATOM     42  C   UNL A   1      37.581  31.769  31.405  1.00  0.00     0.029 A 
ATOM     43  N   UNL A   1      39.706  31.104  31.607  1.00  0.00    -0.354 N 
ATOM     44  C   UNL A   1      41.577  28.669  28.563  1.00  0.00     0.074 A 
ATOM     45  C   UNL A   1      40.663  28.414  27.470  1.00  0.00     0.031 C 
ATOM     46  C   UNL A   1      38.038  32.233  32.579  1.00  0.00     0.029 A 
ATOM     47  C   UNL A   1      39.414  31.784  32.768  1.00  0.00     0.049 A 
ATOM     48  H   UNL A   1      40.588  30.707  31.423  1.00  0.00     0.167 HD
ATOM     49  C   UNL A   1      42.856  28.219  28.618  1.00  0.00     0.034 A 
ATOM     50  C   UNL A   1      40.158  32.000  33.872  1.00  0.00     0.034 A 
ATOM     51  C   UNL A   1      43.760  28.493  29.708  1.00  0.00     0.049 A 
ATOM     52  C   UNL A   1      41.562  31.457  33.925  1.00  0.00     0.074 A 
ATOM     53  C   UNL A   1      45.094  28.142  29.830  1.00  0.00     0.029 A 
ATOM     54  N   UNL A   1      43.426  29.175  30.871  1.00  0.00    -0.354 N 
ATOM     55  N   UNL A   1      42.213  30.760  33.022  1.00  0.00    -0.248 NA
ATOM     56  C   UNL A   1      42.335  31.737  35.142  1.00  0.00     0.031 C 
ATOM     57  C   UNL A   1      45.545  28.548  31.091  1.00  0.00     0.029 A 
ATOM     58  C   UNL A   1      44.516  29.222  31.729  1.00  0.00     0.049 A 
ATOM     59  H   UNL A   1      42.543  29.568  31.060  1.00  0.00     0.167 HD
ATOM     60  C   UNL A   1      43.480  30.543  33.554  1.00  0.00     0.074 A 
ATOM     61  C   UNL A   1      43.508  31.199  34.845  1.00  0.00     0.031 C 
ATOM     62  C   UNL A   1      44.528  29.864  33.021  1.00  0.00     0.034 A 
BRANCH  49  63
ATOM     63  C   UNL A   1      43.343  27.362  27.474  1.00  0.00     0.023 A 
ATOM     64  C   UNL A   1      43.238  25.960  27.504  1.00  0.00     0.031 A 
ATOM     65  C   UNL A   1      43.926  27.953  26.339  1.00  0.00     0.131 A 
ATOM     66  C   UNL A   1      43.767  25.195  26.454  1.00  0.00     0.055 A 
ATOM     67  C   UNL A   1      44.381  27.190  25.262  1.00  0.00     0.041 A 
ATOM     68  F   UNL A   1      44.071  29.285  26.261  1.00  0.00    -0.206 F 
ATOM     69  C   UNL A   1      44.315  25.801  25.321  1.00  0.00     0.022 A 
BRANCH  66  70
ATOM     70  S   UNL A   1      43.844  23.393  26.647  1.00  0.00     0.124 S 
ATOM     71  O   UNL A   1      42.914  22.945  25.612  1.00  0.00    -0.237 OA
ATOM     72  O   UNL A   1      45.254  23.110  26.404  1.00  0.00    -0.237 OA
ATOM     73  O   UNL A   1      43.391  23.176  28.019  1.00  0.00    -0.744 OA
ENDBRANCH  66  70
ENDBRANCH  49  63
BRANCH  50  74
ATOM     74  C   UNL A   1      39.582  32.730  35.036  1.00  0.00     0.023 A 
ATOM     75  C   UNL A   1      38.982  32.045  36.105  1.00  0.00     0.031 A 
ATOM     76  C   UNL A   1      39.582  34.135  35.072  1.00  0.00     0.131 A 
ATOM     77  C   UNL A   1      38.368  32.766  37.142  1.00  0.00     0.055 A 
ATOM     78  C   UNL A   1      39.028  34.844  36.137  1.00  0.00     0.041 A 
ATOM     79  F   UNL A   1      40.132  34.842  34.073  1.00  0.00    -0.206 F 
ATOM     80  C   UNL A   1      38.400  34.161  37.172  1.00  0.00     0.022 A 
BRANCH  77  81
ATOM     81  S   UNL A   1      37.435  31.853  38.401  1.00  0.00     0.124 S 
ATOM     82  O   UNL A   1      37.287  30.546  37.773  1.00  0.00    -0.237 OA
ATOM     83  O   UNL A   1      38.333  31.917  39.549  1.00  0.00    -0.237 OA
ATOM     84  O   UNL A   1      36.200  32.625  38.533  1.00  0.00    -0.744 OA
ENDBRANCH  77  81
ENDBRANCH  50  74
BRANCH  62  85
ATOM     85  C   UNL A   1      45.804  29.838  33.826  1.00  0.00     0.023 A 
ATOM     86  C   UNL A   1      46.069  28.819  34.759  1.00  0.00     0.031 A 
ATOM     87  C   UNL A   1      46.757  30.860  33.674  1.00  0.00     0.131 A 
ATOM     88  C   UNL A   1      47.228  28.877  35.545  1.00  0.00     0.055 A 
ATOM     89  C   UNL A   1      47.941  30.878  34.415  1.00  0.00     0.041 A 
ATOM     90  F   UNL A   1      46.555  31.860  32.801  1.00  0.00    -0.206 F 
ATOM     91  C   UNL A   1      48.174  29.890  35.367  1.00  0.00     0.022 A 
BRANCH  88  92
ATOM     92  S   UNL A   1      47.442  27.659  36.873  1.00  0.00     0.124 S 
ATOM     93  O   UNL A   1      46.205  27.816  37.631  1.00  0.00    -0.237 OA
ATOM     94  O   UNL A   1      47.581  26.409  36.132  1.00  0.00    -0.237 OA
ATOM     95  O   UNL A   1      48.652  28.109  37.559  1.00  0.00    -0.744 OA
ENDBRANCH  88  92
ENDBRANCH  62  85
ENDBRANCH  36  37
ENDBRANCH  28  31
ENDBRANCH  26  27
ENDBRANCH   1  26
TORSDOF 15
ENDMDL
MODEL 3
REMARK VINA RESULT:     -12.1      2.696      8.278
REMARK SMILES Cc1cc2cc(-c3ccc([C@@H](C)C(=O)NCCCNC(=O)c4ccc(-c5c6nc(c(-c7cc(S(=O)(=O)[O-])ccc7F)c7ccc([nH]7)c(-c7cc(S(=O)(=O)[O-])ccc7F)c7nc(c(-c8cc(S(=O)(=O)[O-])ccc8F)c8ccc5[nH]8)C=C7)C=C6)cc4)cc3)ccc2[nH]1
REMARK SMILES IDX 17 1 16 2 15 3 13 4 14 5 11 7 12 8 10 9 7 10 8 11 86 12 9 13
REMARK SMILES IDX 85 14 6 15 1 16 2 17 3 18 90 19 4 20 89 21 5 23 88 24 87 25
REMARK SMILES IDX 18 26 19 27 20 28 21 30 22 31 23 32 84 33 24 34 83 35 25 36
REMARK SMILES IDX 26 37 27 38 77 39 28 40 82 41 76 42 78 43 29 44 81 45 75 46
REMARK SMILES IDX 74 47 30 49 62 50 42 51 61 52 43 53 46 54 60 55 79 56 44 57
REMARK SMILES IDX 45 58 59 60 80 61 47 62 31 63 32 64 40 65 33 66 39 67 41 68
REMARK SMILES IDX 38 69 34 70 35 71 36 72 37 73 63 74 64 75 72 76 65 77 71 78
REMARK SMILES IDX 73 79 70 80 66 81 67 82 68 83 69 84 48 85 49 86 57 87 50 88
REMARK SMILES IDX 56 89 58 90 55 91 51 92 52 93 53 94 54 95
REMARK H PARENT 15 6 90 22 19 29 78 48 46 59
REMARK Flexibility Score: inf
ROOT
ATOM      1  C   UNL A   1      31.700  31.334  26.453  1.00  0.00     0.042 C 
ENDROOT
BRANCH   1   2
ATOM      2  C   UNL A   1      31.791  29.809  26.434  1.00  0.00     0.117 C 
BRANCH   2   3
ATOM      3  N   UNL A   1      31.207  29.226  25.241  1.00  0.00    -0.356 N 
ATOM      4  C   UNL A   1      31.755  28.600  24.163  1.00  0.00     0.227 C 
ATOM      5  O   UNL A   1      30.962  28.232  23.286  1.00  0.00    -0.274 OA
ATOM      6  H   UNL A   1      30.226  29.298  25.202  1.00  0.00     0.163 HD
BRANCH   4   7
ATOM      7  C   UNL A   1      33.256  28.318  23.996  1.00  0.00     0.105 C 
ATOM      8  C   UNL A   1      33.912  29.065  22.835  1.00  0.00     0.023 C 
BRANCH   7   9
ATOM      9  C   UNL A   1      33.612  26.846  24.114  1.00  0.00    -0.036 A 
ATOM     10  C   UNL A   1      34.122  24.050  24.401  1.00  0.00    -0.018 A 
ATOM     11  C   UNL A   1      33.956  24.648  23.142  1.00  0.00     0.009 A 
ATOM     12  C   UNL A   1      34.048  24.891  25.520  1.00  0.00     0.009 A 
ATOM     13  C   UNL A   1      33.747  26.020  22.998  1.00  0.00     0.005 A 
ATOM     14  C   UNL A   1      33.779  26.262  25.380  1.00  0.00     0.005 A 
BRANCH  10  15
ATOM     15  C   UNL A   1      34.370  22.595  24.505  1.00  0.00    -0.018 A 
ATOM     16  C   UNL A   1      32.996  16.618  24.558  1.00  0.00     0.064 C 
ATOM     17  C   UNL A   1      33.384  18.049  24.584  1.00  0.00     0.013 A 
ATOM     18  C   UNL A   1      32.643  19.178  24.310  1.00  0.00     0.031 A 
ATOM     19  N   UNL A   1      34.652  18.463  24.920  1.00  0.00    -0.359 N 
ATOM     20  C   UNL A   1      33.499  20.302  24.438  1.00  0.00     0.000 A 
ATOM     21  C   UNL A   1      34.752  19.833  24.814  1.00  0.00     0.046 A 
ATOM     22  H   UNL A   1      35.383  17.865  25.195  1.00  0.00     0.166 HD
ATOM     23  C   UNL A   1      33.316  21.686  24.271  1.00  0.00     0.019 A 
ATOM     24  C   UNL A   1      35.836  20.690  25.033  1.00  0.00     0.027 A 
ATOM     25  C   UNL A   1      35.619  22.070  24.874  1.00  0.00     0.011 A 
ENDBRANCH  10  15
ENDBRANCH   7   9
ENDBRANCH   4   7
ENDBRANCH   2   3
ENDBRANCH   1   2
BRANCH   1  26
ATOM     26  C   UNL A   1      32.967  32.029  26.938  1.00  0.00     0.118 C 
BRANCH  26  27
ATOM     27  N   UNL A   1      32.710  33.385  27.405  1.00  0.00    -0.352 N 
ATOM     28  C   UNL A   1      33.245  34.093  28.455  1.00  0.00     0.251 C 
ATOM     29  H   UNL A   1      32.039  33.877  26.879  1.00  0.00     0.163 HD
ATOM     30  O   UNL A   1      32.701  35.143  28.789  1.00  0.00    -0.269 OA
BRANCH  28  31
ATOM     31  C   UNL A   1      34.439  33.612  29.192  1.00  0.00     0.039 A 
ATOM     32  C   UNL A   1      34.259  32.680  30.220  1.00  0.00     0.014 A 
ATOM     33  C   UNL A   1      35.718  34.104  28.927  1.00  0.00     0.014 A 
ATOM     34  C   UNL A   1      35.362  32.199  30.933  1.00  0.00     0.010 A 
ATOM     35  C   UNL A   1      36.827  33.567  29.586  1.00  0.00     0.010 A 
ATOM     36  C   UNL A   1      36.662  32.608  30.595  1.00  0.00    -0.014 A 
BRANCH  36  37
ATOM     37  C   UNL A   1      37.854  32.033  31.278  1.00  0.00     0.031 A 
ATOM     38  C   UNL A   1      38.641  30.921  30.637  1.00  0.00     0.074 A 
ATOM     39  C   UNL A   1      38.191  32.472  32.507  1.00  0.00     0.049 A 
ATOM     40  N   UNL A   1      39.650  30.239  31.116  1.00  0.00    -0.248 NA
ATOM     41  C   UNL A   1      38.221  30.505  29.291  1.00  0.00     0.031 C 
ATOM     42  C   UNL A   1      37.486  33.518  33.251  1.00  0.00     0.029 A 
ATOM     43  N   UNL A   1      39.203  32.090  33.354  1.00  0.00    -0.354 N 
ATOM     44  C   UNL A   1      39.979  29.306  30.137  1.00  0.00     0.074 A 
ATOM     45  C   UNL A   1      39.025  29.477  29.062  1.00  0.00     0.031 C 
ATOM     46  C   UNL A   1      38.097  33.707  34.431  1.00  0.00     0.029 A 
ATOM     47  C   UNL A   1      39.203  32.762  34.555  1.00  0.00     0.049 A 
ATOM     48  H   UNL A   1      39.867  31.401  33.123  1.00  0.00     0.167 HD
ATOM     49  C   UNL A   1      40.994  28.405  30.130  1.00  0.00     0.034 A 
ATOM     50  C   UNL A   1      39.985  32.619  35.644  1.00  0.00     0.034 A 
ATOM     51  C   UNL A   1      41.946  28.255  31.203  1.00  0.00     0.049 A 
ATOM     52  C   UNL A   1      41.080  31.584  35.626  1.00  0.00     0.074 A 
ATOM     53  C   UNL A   1      43.049  27.420  31.266  1.00  0.00     0.029 A 
ATOM     54  N   UNL A   1      41.908  28.945  32.408  1.00  0.00    -0.354 N 
ATOM     55  N   UNL A   1      41.408  30.746  34.670  1.00  0.00    -0.248 NA
ATOM     56  C   UNL A   1      41.914  31.482  36.830  1.00  0.00     0.031 C 
ATOM     57  C   UNL A   1      43.634  27.553  32.530  1.00  0.00     0.029 A 
ATOM     58  C   UNL A   1      42.943  28.528  33.232  1.00  0.00     0.049 A 
ATOM     59  H   UNL A   1      41.242  29.631  32.643  1.00  0.00     0.167 HD
ATOM     60  C   UNL A   1      42.504  30.036  35.151  1.00  0.00     0.074 A 
ATOM     61  C   UNL A   1      42.792  30.559  36.471  1.00  0.00     0.031 C 
ATOM     62  C   UNL A   1      43.211  29.044  34.553  1.00  0.00     0.034 A 
BRANCH  49  63
ATOM     63  C   UNL A   1      41.108  27.493  28.931  1.00  0.00     0.023 A 
ATOM     64  C   UNL A   1      42.100  27.679  27.953  1.00  0.00     0.031 A 
ATOM     65  C   UNL A   1      40.208  26.425  28.762  1.00  0.00     0.131 A 
ATOM     66  C   UNL A   1      42.128  26.854  26.818  1.00  0.00     0.055 A 
ATOM     67  C   UNL A   1      40.290  25.559  27.669  1.00  0.00     0.041 A 
ATOM     68  F   UNL A   1      39.229  26.209  29.653  1.00  0.00    -0.206 F 
ATOM     69  C   UNL A   1      41.247  25.780  26.682  1.00  0.00     0.022 A 
BRANCH  66  70
ATOM     70  S   UNL A   1      43.253  27.283  25.462  1.00  0.00     0.124 S 
ATOM     71  O   UNL A   1      44.297  28.023  26.167  1.00  0.00    -0.237 OA
ATOM     72  O   UNL A   1      43.636  25.975  24.943  1.00  0.00    -0.237 OA
ATOM     73  O   UNL A   1      42.422  28.089  24.569  1.00  0.00    -0.744 OA
ENDBRANCH  66  70
ENDBRANCH  49  63
BRANCH  50  74
ATOM     74  C   UNL A   1      39.740  33.445  36.860  1.00  0.00     0.023 A 
ATOM     75  C   UNL A   1      39.064  32.924  37.974  1.00  0.00     0.031 A 
ATOM     76  C   UNL A   1      40.142  34.790  36.904  1.00  0.00     0.131 A 
ATOM     77  C   UNL A   1      38.769  33.756  39.066  1.00  0.00     0.055 A 
ATOM     78  C   UNL A   1      39.905  35.594  38.018  1.00  0.00     0.041 A 
ATOM     79  F   UNL A   1      40.785  35.345  35.863  1.00  0.00    -0.206 F 
ATOM     80  C   UNL A   1      39.199  35.083  39.102  1.00  0.00     0.022 A 
BRANCH  77  81
ATOM     81  S   UNL A   1      37.726  33.105  40.399  1.00  0.00     0.124 S 
ATOM     82  O   UNL A   1      37.787  34.182  41.379  1.00  0.00    -0.237 OA
ATOM     83  O   UNL A   1      36.447  32.924  39.721  1.00  0.00    -0.237 OA
ATOM     84  O   UNL A   1      38.404  31.869  40.787  1.00  0.00    -0.744 OA
ENDBRANCH  77  81
ENDBRANCH  50  74
BRANCH  62  85
ATOM     85  C   UNL A   1      44.391  28.493  35.315  1.00  0.00     0.023 A 
ATOM     86  C   UNL A   1      44.238  27.494  36.293  1.00  0.00     0.031 A 
ATOM     87  C   UNL A   1      45.684  28.991  35.075  1.00  0.00     0.131 A 
ATOM     88  C   UNL A   1      45.349  27.068  37.036  1.00  0.00     0.055 A 
ATOM     89  C   UNL A   1      46.796  28.518  35.774  1.00  0.00     0.041 A 
ATOM     90  F   UNL A   1      45.888  29.948  34.155  1.00  0.00    -0.206 F 
ATOM     91  C   UNL A   1      46.629  27.560  36.771  1.00  0.00     0.022 A 
BRANCH  88  92
ATOM     92  S   UNL A   1      45.085  25.926  38.421  1.00  0.00     0.124 S 
ATOM     93  O   UNL A   1      44.909  24.651  37.733  1.00  0.00    -0.237 OA
ATOM     94  O   UNL A   1      46.320  26.072  39.185  1.00  0.00    -0.237 OA
ATOM     95  O   UNL A   1      43.888  26.450  39.074  1.00  0.00    -0.744 OA
ENDBRANCH  88  92
ENDBRANCH  62  85
ENDBRANCH  36  37
ENDBRANCH  28  31
ENDBRANCH  26  27
ENDBRANCH   1  26
TORSDOF 15
ENDMDL
