MODEL 1
REMARK VINA RESULT:     -11.4      0.000      0.000
REMARK SMILES COc1ccc(-c2ccc(/C=C3\SC(=S)N([C@H](Cc4ccccc4)C(=O)NCCCNC(=O)c4ccc(-c5c6nc(c(-c7cc(S(=O)(=O)[O-])ccc7F)c7ccc([nH]7)c(-c7cc(S(=O)(=O)[O-])ccc7F)c7nc(c(-c8cc(S(=O)(=O)[O-])ccc8F)c8ccc5[nH]8)C=C7)C=C6)cc4)C3=O)o2)cc1
REMARK SMILES IDX 28 1 27 2 25 3 26 4 17 6 16 7 11 8 12 9 13 10 97 11 14 12
REMARK SMILES IDX 98 13 15 14 10 15 7 16 8 17 99 18 9 19 6 20 3 21 4 22 101 23
REMARK SMILES IDX 5 24 100 25 2 26 1 27 18 28 19 29 20 30 24 31 21 32 23 33
REMARK SMILES IDX 22 34 29 35 30 36 31 37 32 38 33 40 34 41 35 42 96 43 36 44
REMARK SMILES IDX 95 45 37 46 38 47 39 48 89 49 40 50 94 51 88 52 90 53 41 54
REMARK SMILES IDX 93 55 87 56 86 57 42 59 74 60 54 61 73 62 55 63 58 64 72 65
REMARK SMILES IDX 91 66 56 67 57 68 71 70 92 71 59 72 43 73 44 74 52 75 45 76
REMARK SMILES IDX 51 77 53 78 50 79 46 80 47 81 48 82 49 83 75 84 76 85 84 86
REMARK SMILES IDX 77 87 83 88 85 89 82 90 78 91 79 92 80 93 81 94 60 95 61 96
REMARK SMILES IDX 69 97 62 98 68 99 70 100 67 101 63 102 64 103 65 104 66 105
REMARK H PARENT 27 5 31 39 90 58 58 69
REMARK Flexibility Score: inf
ROOT
ATOM      1  C   UNL A   1      49.915  23.069  35.085  1.00  0.00     0.117 C 
ENDROOT
BRANCH   1   2
ATOM      2  N   UNL A   1      49.823  21.641  34.862  1.00  0.00    -0.354 N 
ATOM      3  C   UNL A   1      48.748  20.806  34.942  1.00  0.00     0.243 C 
ATOM      4  O   UNL A   1      48.931  19.611  34.690  1.00  0.00    -0.273 OA
ATOM      5  H   UNL A   1      50.670  21.203  34.614  1.00  0.00     0.163 HD
BRANCH   3   6
ATOM      6  C   UNL A   1      47.376  21.286  35.480  1.00  0.00     0.185 C 
BRANCH   6   7
ATOM      7  N   UNL A   1      46.749  20.467  36.570  1.00  0.00    -0.280 N 
ATOM      8  C   UNL A   1      44.626  17.654  37.454  1.00  0.00     0.068 C 
ATOM      9  C   UNL A   1      45.598  18.575  37.430  1.00  0.00     0.084 C 
ATOM     10  S   UNL A   1      46.595  19.047  38.733  1.00  0.00    -0.054 SA
ATOM     11  C   UNL A   1      45.967  19.361  36.227  1.00  0.00     0.267 C 
ATOM     12  C   UNL A   1      47.143  20.486  37.904  1.00  0.00     0.149 C 
ATOM     13  O   UNL A   1      45.595  19.023  35.111  1.00  0.00    -0.268 OA
ATOM     14  S   UNL A   1      47.993  21.593  38.811  1.00  0.00    -0.052 S 
BRANCH   8  15
ATOM     15  C   UNL A   1      44.294  16.962  38.652  1.00  0.00     0.128 A 
ATOM     16  C   UNL A   1      44.017  16.614  40.820  1.00  0.00     0.134 A 
ATOM     17  C   UNL A   1      43.445  15.533  40.193  1.00  0.00     0.051 A 
ATOM     18  O   UNL A   1      44.542  17.472  39.905  1.00  0.00    -0.457 OA
ATOM     19  C   UNL A   1      43.653  15.737  38.814  1.00  0.00     0.051 A 
BRANCH  16  20
ATOM     20  C   UNL A   1      44.195  16.968  42.211  1.00  0.00     0.017 A 
ATOM     21  C   UNL A   1      44.542  17.714  44.885  1.00  0.00     0.118 A 
ATOM     22  C   UNL A   1      44.741  16.389  44.498  1.00  0.00     0.047 A 
ATOM     23  C   UNL A   1      44.210  18.676  43.934  1.00  0.00     0.047 A 
ATOM     24  C   UNL A   1      44.551  16.011  43.167  1.00  0.00     0.016 A 
ATOM     25  C   UNL A   1      44.038  18.303  42.601  1.00  0.00     0.016 A 
BRANCH  21  26
ATOM     26  O   UNL A   1      44.744  18.002  46.208  1.00  0.00    -0.497 OA
ATOM     27  C   UNL A   1      44.385  16.931  47.077  1.00  0.00     0.278 C 
ENDBRANCH  21  26
ENDBRANCH  16  20
ENDBRANCH   8  15
ENDBRANCH   6   7
BRANCH   6  28
ATOM     28  C   UNL A   1      46.512  21.531  34.206  1.00  0.00     0.071 C 
BRANCH  28  29
ATOM     29  C   UNL A   1      45.315  22.465  34.302  1.00  0.00    -0.045 A 
ATOM     30  C   UNL A   1      44.920  23.141  33.134  1.00  0.00     0.004 A 
ATOM     31  C   UNL A   1      44.539  22.640  35.456  1.00  0.00     0.004 A 
ATOM     32  C   UNL A   1      43.787  23.957  33.123  1.00  0.00     0.000 A 
ATOM     33  C   UNL A   1      43.393  23.438  35.439  1.00  0.00     0.000 A 
ATOM     34  C   UNL A   1      43.018  24.098  34.273  1.00  0.00     0.000 A 
ENDBRANCH  28  29
ENDBRANCH   6  28
ENDBRANCH   3   6
ENDBRANCH   1   2
BRANCH   1  35
ATOM     35  C   UNL A   1      49.368  23.873  33.914  1.00  0.00     0.042 C 
BRANCH  35  36
ATOM     36  C   UNL A   1      48.247  24.841  34.283  1.00  0.00     0.118 C 
BRANCH  36  37
ATOM     37  N   UNL A   1      48.456  25.477  35.576  1.00  0.00    -0.352 N 
ATOM     38  C   UNL A   1      47.830  26.564  36.137  1.00  0.00     0.251 C 
ATOM     39  H   UNL A   1      49.152  25.063  36.136  1.00  0.00     0.163 HD
ATOM     40  O   UNL A   1      48.297  27.067  37.155  1.00  0.00    -0.269 OA
BRANCH  38  41
ATOM     41  C   UNL A   1      46.624  27.143  35.504  1.00  0.00     0.039 A 
ATOM     42  C   UNL A   1      46.769  28.226  34.633  1.00  0.00     0.014 A 
ATOM     43  C   UNL A   1      45.353  26.625  35.766  1.00  0.00     0.014 A 
ATOM     44  C   UNL A   1      45.651  28.732  33.966  1.00  0.00     0.010 A 
ATOM     45  C   UNL A   1      44.257  27.070  35.033  1.00  0.00     0.010 A 
ATOM     46  C   UNL A   1      44.392  28.128  34.123  1.00  0.00    -0.014 A 
BRANCH  46  47
ATOM     47  C   UNL A   1      43.213  28.582  33.340  1.00  0.00     0.031 A 
ATOM     48  C   UNL A   1      42.167  29.456  33.980  1.00  0.00     0.074 A 
ATOM     49  C   UNL A   1      43.051  28.156  32.071  1.00  0.00     0.049 A 
ATOM     50  N   UNL A   1      41.034  29.888  33.489  1.00  0.00    -0.248 NA
ATOM     51  C   UNL A   1      42.416  29.872  35.369  1.00  0.00     0.031 C 
ATOM     52  C   UNL A   1      43.976  27.275  31.352  1.00  0.00     0.029 A 
ATOM     53  N   UNL A   1      42.052  28.395  31.160  1.00  0.00    -0.354 N 
ATOM     54  C   UNL A   1      40.431  30.616  34.508  1.00  0.00     0.074 A 
ATOM     55  C   UNL A   1      41.293  30.509  35.665  1.00  0.00     0.031 C 
ATOM     56  C   UNL A   1      43.517  27.076  30.107  1.00  0.00     0.029 A 
ATOM     57  C   UNL A   1      42.239  27.763  29.951  1.00  0.00     0.049 A 
ATOM     58  H   UNL A   1      41.273  28.965  31.354  1.00  0.00     0.167 HD
ATOM     59  C   UNL A   1      39.277  31.328  34.475  1.00  0.00     0.034 A 
ATOM     60  C   UNL A   1      41.464  27.726  28.849  1.00  0.00     0.034 A 
ATOM     61  C   UNL A   1      38.431  31.429  33.309  1.00  0.00     0.049 A 
ATOM     62  C   UNL A   1      40.165  28.493  28.849  1.00  0.00     0.074 A 
ATOM     63  C   UNL A   1      37.269  32.163  33.149  1.00  0.00     0.029 A 
ATOM     64  N   UNL A   1      38.648  30.767  32.107  1.00  0.00    -0.354 N 
ATOM     65  N   UNL A   1      39.634  29.219  29.806  1.00  0.00    -0.248 NA
ATOM     66  C   UNL A   1      39.368  28.444  27.618  1.00  0.00     0.031 C 
ATOM     67  C   UNL A   1      36.742  31.882  31.884  1.00  0.00     0.029 A 
ATOM     68  C   UNL A   1      37.623  31.046  31.216  1.00  0.00     0.049 A 
ATOM     69  H   UNL A   1      39.419  30.184  31.915  1.00  0.00     0.167 HD
ATOM     70  C   UNL A   1      38.456  29.740  29.276  1.00  0.00     0.074 A 
ATOM     71  C   UNL A   1      38.365  29.257  27.914  1.00  0.00     0.031 C 
ATOM     72  C   UNL A   1      37.537  30.550  29.861  1.00  0.00     0.034 A 
BRANCH  59  73
ATOM     73  C   UNL A   1      38.851  32.029  35.745  1.00  0.00     0.023 A 
ATOM     74  C   UNL A   1      38.250  31.333  36.808  1.00  0.00     0.031 A 
ATOM     75  C   UNL A   1      39.031  33.416  35.889  1.00  0.00     0.131 A 
ATOM     76  C   UNL A   1      37.778  32.033  37.929  1.00  0.00     0.055 A 
ATOM     77  C   UNL A   1      38.641  34.094  37.045  1.00  0.00     0.041 A 
ATOM     78  F   UNL A   1      39.579  34.140  34.900  1.00  0.00    -0.206 F 
ATOM     79  C   UNL A   1      37.996  33.406  38.068  1.00  0.00     0.022 A 
BRANCH  76  80
ATOM     80  S   UNL A   1      36.743  31.151  39.128  1.00  0.00     0.124 S 
ATOM     81  O   UNL A   1      36.649  29.826  38.519  1.00  0.00    -0.237 OA
ATOM     82  O   UNL A   1      37.533  31.237  40.351  1.00  0.00    -0.237 OA
ATOM     83  O   UNL A   1      35.498  31.916  39.134  1.00  0.00    -0.744 OA
ENDBRANCH  76  80
ENDBRANCH  59  73
BRANCH  60  84
ATOM     84  C   UNL A   1      41.879  26.930  27.657  1.00  0.00     0.023 A 
ATOM     85  C   UNL A   1      41.688  25.541  27.611  1.00  0.00     0.031 A 
ATOM     86  C   UNL A   1      42.515  27.543  26.562  1.00  0.00     0.131 A 
ATOM     87  C   UNL A   1      42.174  24.802  26.520  1.00  0.00     0.055 A 
ATOM     88  C   UNL A   1      42.942  26.813  25.452  1.00  0.00     0.041 A 
ATOM     89  F   UNL A   1      42.722  28.870  26.551  1.00  0.00    -0.206 F 
ATOM     90  C   UNL A   1      42.785  25.431  25.433  1.00  0.00     0.022 A 
BRANCH  87  91
ATOM     91  S   UNL A   1      42.084  22.992  26.587  1.00  0.00     0.124 S 
ATOM     92  O   UNL A   1      40.689  22.779  26.958  1.00  0.00    -0.237 OA
ATOM     93  O   UNL A   1      42.449  22.620  25.224  1.00  0.00    -0.237 OA
ATOM     94  O   UNL A   1      43.064  22.641  27.611  1.00  0.00    -0.744 OA
ENDBRANCH  87  91
ENDBRANCH  60  84
BRANCH  72  95
ATOM     95  C   UNL A   1      36.377  31.007  29.008  1.00  0.00     0.023 A 
ATOM     96  C   UNL A   1      35.428  30.105  28.497  1.00  0.00     0.031 A 
ATOM     97  C   UNL A   1      36.227  32.370  28.692  1.00  0.00     0.131 A 
ATOM     98  C   UNL A   1      34.407  30.568  27.652  1.00  0.00     0.055 A 
ATOM     99  C   UNL A   1      35.170  32.833  27.910  1.00  0.00     0.041 A 
ATOM    100  F   UNL A   1      37.107  33.277  29.148  1.00  0.00    -0.206 F 
ATOM    101  C   UNL A   1      34.260  31.928  27.372  1.00  0.00     0.022 A 
BRANCH  98 102
ATOM    102  S   UNL A   1      33.333  29.353  26.838  1.00  0.00     0.124 S 
ATOM    103  O   UNL A   1      33.279  29.863  25.472  1.00  0.00    -0.237 OA
ATOM    104  O   UNL A   1      34.072  28.109  27.024  1.00  0.00    -0.237 OA
ATOM    105  O   UNL A   1      32.081  29.446  27.586  1.00  0.00    -0.744 OA
ENDBRANCH  98 102
ENDBRANCH  72  95
ENDBRANCH  46  47
ENDBRANCH  38  41
ENDBRANCH  36  37
ENDBRANCH  35  36
ENDBRANCH   1  35
TORSDOF 19
ENDMDL
MODEL 2
REMARK VINA RESULT:     -11.3      5.835     11.890
REMARK SMILES COc1ccc(-c2ccc(/C=C3\SC(=S)N([C@H](Cc4ccccc4)C(=O)NCCCNC(=O)c4ccc(-c5c6nc(c(-c7cc(S(=O)(=O)[O-])ccc7F)c7ccc([nH]7)c(-c7cc(S(=O)(=O)[O-])ccc7F)c7nc(c(-c8cc(S(=O)(=O)[O-])ccc8F)c8ccc5[nH]8)C=C7)C=C6)cc4)C3=O)o2)cc1
REMARK SMILES IDX 28 1 27 2 25 3 26 4 17 6 16 7 11 8 12 9 13 10 97 11 14 12
REMARK SMILES IDX 98 13 15 14 10 15 7 16 8 17 99 18 9 19 6 20 3 21 4 22 101 23
REMARK SMILES IDX 5 24 100 25 2 26 1 27 18 28 19 29 20 30 24 31 21 32 23 33
REMARK SMILES IDX 22 34 29 35 30 36 31 37 32 38 33 40 34 41 35 42 96 43 36 44
REMARK SMILES IDX 95 45 37 46 38 47 39 48 89 49 40 50 94 51 88 52 90 53 41 54
REMARK SMILES IDX 93 55 87 56 86 57 42 59 74 60 54 61 73 62 55 63 58 64 72 65
REMARK SMILES IDX 91 66 56 67 57 68 71 70 92 71 59 72 43 73 44 74 52 75 45 76
REMARK SMILES IDX 51 77 53 78 50 79 46 80 47 81 48 82 49 83 75 84 76 85 84 86
REMARK SMILES IDX 77 87 83 88 85 89 82 90 78 91 79 92 80 93 81 94 60 95 61 96
REMARK SMILES IDX 69 97 62 98 68 99 70 100 67 101 63 102 64 103 65 104 66 105
REMARK H PARENT 27 5 31 39 90 58 58 69
REMARK Flexibility Score: inf
ROOT
ATOM      1  C   UNL A   1      43.066  23.394  25.330  1.00  0.00     0.117 C 
ENDROOT
BRANCH   1   2
ATOM      2  N   UNL A   1      43.076  22.889  26.688  1.00  0.00    -0.354 N 
ATOM      3  C   UNL A   1      42.121  22.956  27.658  1.00  0.00     0.243 C 
ATOM      4  O   UNL A   1      42.373  22.431  28.747  1.00  0.00    -0.273 OA
ATOM      5  H   UNL A   1      43.904  22.425  26.953  1.00  0.00     0.163 HD
BRANCH   3   6
ATOM      6  C   UNL A   1      40.827  23.790  27.478  1.00  0.00     0.185 C 
BRANCH   6   7
ATOM      7  N   UNL A   1      39.629  23.075  26.923  1.00  0.00    -0.280 N 
ATOM      8  C   UNL A   1      36.203  23.303  25.737  1.00  0.00     0.068 C 
ATOM      9  C   UNL A   1      37.489  22.967  25.898  1.00  0.00     0.084 C 
ATOM     10  S   UNL A   1      38.252  21.540  25.353  1.00  0.00    -0.054 SA
ATOM     11  C   UNL A   1      38.484  23.810  26.604  1.00  0.00     0.267 C 
ATOM     12  C   UNL A   1      39.653  21.801  26.367  1.00  0.00     0.149 C 
ATOM     13  O   UNL A   1      38.260  24.990  26.844  1.00  0.00    -0.268 OA
ATOM     14  S   UNL A   1      40.723  20.533  26.502  1.00  0.00    -0.052 S 
BRANCH   8  15
ATOM     15  C   UNL A   1      35.288  22.431  25.084  1.00  0.00     0.128 A 
ATOM     16  C   UNL A   1      34.192  20.563  24.627  1.00  0.00     0.134 A 
ATOM     17  C   UNL A   1      33.576  21.546  23.892  1.00  0.00     0.051 A 
ATOM     18  O   UNL A   1      35.230  21.080  25.337  1.00  0.00    -0.457 OA
ATOM     19  C   UNL A   1      34.295  22.729  24.154  1.00  0.00     0.051 A 
BRANCH  16  20
ATOM     20  C   UNL A   1      33.978  19.137  24.745  1.00  0.00     0.017 A 
ATOM     21  C   UNL A   1      33.519  16.391  25.017  1.00  0.00     0.118 A 
ATOM     22  C   UNL A   1      34.697  16.847  24.426  1.00  0.00     0.047 A 
ATOM     23  C   UNL A   1      32.587  17.302  25.510  1.00  0.00     0.047 A 
ATOM     24  C   UNL A   1      34.920  18.218  24.274  1.00  0.00     0.016 A 
ATOM     25  C   UNL A   1      32.818  18.671  25.374  1.00  0.00     0.016 A 
BRANCH  21  26
ATOM     26  O   UNL A   1      33.374  15.034  25.125  1.00  0.00    -0.497 OA
ATOM     27  C   UNL A   1      32.154  14.648  25.753  1.00  0.00     0.278 C 
ENDBRANCH  21  26
ENDBRANCH  16  20
ENDBRANCH   8  15
ENDBRANCH   6   7
BRANCH   6  28
ATOM     28  C   UNL A   1      41.284  25.075  26.724  1.00  0.00     0.071 C 
BRANCH  28  29
ATOM     29  C   UNL A   1      40.980  26.432  27.340  1.00  0.00    -0.045 A 
ATOM     30  C   UNL A   1      40.972  26.525  28.743  1.00  0.00     0.004 A 
ATOM     31  C   UNL A   1      40.778  27.608  26.604  1.00  0.00     0.004 A 
ATOM     32  C   UNL A   1      40.776  27.750  29.383  1.00  0.00     0.000 A 
ATOM     33  C   UNL A   1      40.604  28.837  27.244  1.00  0.00     0.000 A 
ATOM     34  C   UNL A   1      40.601  28.908  28.633  1.00  0.00     0.000 A 
ENDBRANCH  28  29
ENDBRANCH   6  28
ENDBRANCH   3   6
ENDBRANCH   1   2
BRANCH   1  35
ATOM     35  C   UNL A   1      44.434  23.296  24.668  1.00  0.00     0.042 C 
BRANCH  35  36
ATOM     36  C   UNL A   1      45.578  23.866  25.500  1.00  0.00     0.118 C 
BRANCH  36  37
ATOM     37  N   UNL A   1      46.481  24.701  24.720  1.00  0.00    -0.352 N 
ATOM     38  C   UNL A   1      46.691  26.059  24.766  1.00  0.00     0.251 C 
ATOM     39  H   UNL A   1      47.026  24.218  24.057  1.00  0.00     0.163 HD
ATOM     40  O   UNL A   1      47.348  26.595  23.878  1.00  0.00    -0.269 OA
BRANCH  38  41
ATOM     41  C   UNL A   1      46.104  26.870  25.856  1.00  0.00     0.039 A 
ATOM     42  C   UNL A   1      44.721  27.062  25.890  1.00  0.00     0.014 A 
ATOM     43  C   UNL A   1      46.912  27.444  26.841  1.00  0.00     0.014 A 
ATOM     44  C   UNL A   1      44.145  27.757  26.956  1.00  0.00     0.010 A 
ATOM     45  C   UNL A   1      46.329  28.057  27.947  1.00  0.00     0.010 A 
ATOM     46  C   UNL A   1      44.938  28.220  28.018  1.00  0.00    -0.014 A 
BRANCH  46  47
ATOM     47  C   UNL A   1      44.333  28.866  29.213  1.00  0.00     0.031 A 
ATOM     48  C   UNL A   1      43.951  30.322  29.177  1.00  0.00     0.074 A 
ATOM     49  C   UNL A   1      44.185  28.157  30.351  1.00  0.00     0.049 A 
ATOM     50  N   UNL A   1      43.486  31.080  30.136  1.00  0.00    -0.248 NA
ATOM     51  C   UNL A   1      44.150  31.023  27.900  1.00  0.00     0.031 C 
ATOM     52  C   UNL A   1      44.553  26.749  30.522  1.00  0.00     0.029 A 
ATOM     53  N   UNL A   1      43.695  28.520  31.581  1.00  0.00    -0.354 N 
ATOM     54  C   UNL A   1      43.345  32.348  29.583  1.00  0.00     0.074 A 
ATOM     55  C   UNL A   1      43.840  32.269  28.226  1.00  0.00     0.031 C 
ATOM     56  C   UNL A   1      44.248  26.362  31.770  1.00  0.00     0.029 A 
ATOM     57  C   UNL A   1      43.716  27.503  32.509  1.00  0.00     0.049 A 
ATOM     58  H   UNL A   1      43.360  29.423  31.781  1.00  0.00     0.167 HD
ATOM     59  C   UNL A   1      42.830  33.468  30.149  1.00  0.00     0.034 A 
ATOM     60  C   UNL A   1      43.364  27.492  33.810  1.00  0.00     0.034 A 
ATOM     61  C   UNL A   1      42.336  33.527  31.504  1.00  0.00     0.049 A 
ATOM     62  C   UNL A   1      42.830  28.761  34.428  1.00  0.00     0.074 A 
ATOM     63  C   UNL A   1      41.747  34.594  32.160  1.00  0.00     0.029 A 
ATOM     64  N   UNL A   1      42.383  32.480  32.416  1.00  0.00    -0.354 N 
ATOM     65  N   UNL A   1      42.657  29.940  33.876  1.00  0.00    -0.248 NA
ATOM     66  C   UNL A   1      42.437  28.694  35.840  1.00  0.00     0.031 C 
ATOM     67  C   UNL A   1      41.514  34.219  33.487  1.00  0.00     0.029 A 
ATOM     68  C   UNL A   1      41.869  32.888  33.638  1.00  0.00     0.049 A 
ATOM     69  H   UNL A   1      42.731  31.579  32.223  1.00  0.00     0.167 HD
ATOM     70  C   UNL A   1      42.101  30.744  34.867  1.00  0.00     0.074 A 
ATOM     71  C   UNL A   1      41.955  29.911  36.043  1.00  0.00     0.031 C 
ATOM     72  C   UNL A   1      41.737  32.051  34.809  1.00  0.00     0.034 A 
BRANCH  59  73
ATOM     73  C   UNL A   1      42.802  34.725  29.309  1.00  0.00     0.023 A 
ATOM     74  C   UNL A   1      43.972  35.454  29.029  1.00  0.00     0.031 A 
ATOM     75  C   UNL A   1      41.588  35.213  28.795  1.00  0.00     0.131 A 
ATOM     76  C   UNL A   1      43.892  36.669  28.331  1.00  0.00     0.055 A 
ATOM     77  C   UNL A   1      41.527  36.376  28.024  1.00  0.00     0.041 A 
ATOM     78  F   UNL A   1      40.434  34.575  29.046  1.00  0.00    -0.206 F 
ATOM     79  C   UNL A   1      42.681  37.120  27.801  1.00  0.00     0.022 A 
BRANCH  76  80
ATOM     80  S   UNL A   1      45.365  37.724  28.258  1.00  0.00     0.124 S 
ATOM     81  O   UNL A   1      46.421  36.782  28.625  1.00  0.00    -0.237 OA
ATOM     82  O   UNL A   1      45.364  38.172  26.870  1.00  0.00    -0.237 OA
ATOM     83  O   UNL A   1      45.093  38.762  29.250  1.00  0.00    -0.744 OA
ENDBRANCH  76  80
ENDBRANCH  59  73
BRANCH  60  84
ATOM     84  C   UNL A   1      43.512  26.251  34.625  1.00  0.00     0.023 A 
ATOM     85  C   UNL A   1      44.779  25.751  34.962  1.00  0.00     0.031 A 
ATOM     86  C   UNL A   1      42.385  25.520  35.044  1.00  0.00     0.131 A 
ATOM     87  C   UNL A   1      44.893  24.531  35.647  1.00  0.00     0.055 A 
ATOM     88  C   UNL A   1      42.501  24.339  35.778  1.00  0.00     0.041 A 
ATOM     89  F   UNL A   1      41.147  25.952  34.752  1.00  0.00    -0.206 F 
ATOM     90  C   UNL A   1      43.762  23.830  36.071  1.00  0.00     0.022 A 
BRANCH  87  91
ATOM     91  S   UNL A   1      46.544  23.821  35.890  1.00  0.00     0.124 S 
ATOM     92  O   UNL A   1      47.216  24.882  36.632  1.00  0.00    -0.237 OA
ATOM     93  O   UNL A   1      46.243  22.606  36.638  1.00  0.00    -0.237 OA
ATOM     94  O   UNL A   1      47.026  23.609  34.527  1.00  0.00    -0.744 OA
ENDBRANCH  87  91
ENDBRANCH  60  84
BRANCH  72  95
ATOM     95  C   UNL A   1      41.097  32.644  36.041  1.00  0.00     0.023 A 
ATOM     96  C   UNL A   1      39.804  32.282  36.456  1.00  0.00     0.031 A 
ATOM     97  C   UNL A   1      41.792  33.598  36.807  1.00  0.00     0.131 A 
ATOM     98  C   UNL A   1      39.225  32.911  37.568  1.00  0.00     0.055 A 
ATOM     99  C   UNL A   1      41.238  34.169  37.953  1.00  0.00     0.041 A 
ATOM    100  F   UNL A   1      43.029  33.987  36.456  1.00  0.00    -0.206 F 
ATOM    101  C   UNL A   1      39.940  33.837  38.332  1.00  0.00     0.022 A 
BRANCH  98 102
ATOM    102  S   UNL A   1      37.481  32.581  37.946  1.00  0.00     0.124 S 
ATOM    103  O   UNL A   1      36.796  33.359  36.919  1.00  0.00    -0.237 OA
ATOM    104  O   UNL A   1      37.401  31.131  37.806  1.00  0.00    -0.237 OA
ATOM    105  O   UNL A   1      37.324  33.081  39.310  1.00  0.00    -0.744 OA
ENDBRANCH  98 102
ENDBRANCH  72  95
ENDBRANCH  46  47
ENDBRANCH  38  41
ENDBRANCH  36  37
ENDBRANCH  35  36
ENDBRANCH   1  35
TORSDOF 19
ENDMDL
MODEL 3
REMARK VINA RESULT:     -10.7     10.844     19.495
REMARK SMILES COc1ccc(-c2ccc(/C=C3\SC(=S)N([C@H](Cc4ccccc4)C(=O)NCCCNC(=O)c4ccc(-c5c6nc(c(-c7cc(S(=O)(=O)[O-])ccc7F)c7ccc([nH]7)c(-c7cc(S(=O)(=O)[O-])ccc7F)c7nc(c(-c8cc(S(=O)(=O)[O-])ccc8F)c8ccc5[nH]8)C=C7)C=C6)cc4)C3=O)o2)cc1
REMARK SMILES IDX 28 1 27 2 25 3 26 4 17 6 16 7 11 8 12 9 13 10 97 11 14 12
REMARK SMILES IDX 98 13 15 14 10 15 7 16 8 17 99 18 9 19 6 20 3 21 4 22 101 23
REMARK SMILES IDX 5 24 100 25 2 26 1 27 18 28 19 29 20 30 24 31 21 32 23 33
REMARK SMILES IDX 22 34 29 35 30 36 31 37 32 38 33 40 34 41 35 42 96 43 36 44
REMARK SMILES IDX 95 45 37 46 38 47 39 48 89 49 40 50 94 51 88 52 90 53 41 54
REMARK SMILES IDX 93 55 87 56 86 57 42 59 74 60 54 61 73 62 55 63 58 64 72 65
REMARK SMILES IDX 91 66 56 67 57 68 71 70 92 71 59 72 43 73 44 74 52 75 45 76
REMARK SMILES IDX 51 77 53 78 50 79 46 80 47 81 48 82 49 83 75 84 76 85 84 86
REMARK SMILES IDX 77 87 83 88 85 89 82 90 78 91 79 92 80 93 81 94 60 95 61 96
REMARK SMILES IDX 69 97 62 98 68 99 70 100 67 101 63 102 64 103 65 104 66 105
REMARK H PARENT 27 5 31 39 90 58 58 69
REMARK Flexibility Score: inf
ROOT
ATOM      1  C   UNL A   1      46.719  38.269  26.200  1.00  0.00     0.117 C 
ENDROOT
BRANCH   1   2
ATOM      2  N   UNL A   1      47.438  39.444  26.648  1.00  0.00    -0.354 N 
ATOM      3  C   UNL A   1      47.131  40.766  26.518  1.00  0.00     0.243 C 
ATOM      4  O   UNL A   1      47.917  41.586  27.003  1.00  0.00    -0.273 OA
ATOM      5  H   UNL A   1      48.283  39.259  27.120  1.00  0.00     0.163 HD
BRANCH   3   6
ATOM      6  C   UNL A   1      45.933  41.248  25.661  1.00  0.00     0.185 C 
BRANCH   6   7
ATOM      7  N   UNL A   1      46.239  42.193  24.536  1.00  0.00    -0.280 N 
ATOM      8  C   UNL A   1      47.320  42.608  21.092  1.00  0.00     0.068 C 
ATOM      9  C   UNL A   1      46.699  42.743  22.271  1.00  0.00     0.084 C 
ATOM     10  S   UNL A   1      45.882  44.127  22.847  1.00  0.00    -0.054 SA
ATOM     11  C   UNL A   1      46.629  41.675  23.297  1.00  0.00     0.267 C 
ATOM     12  C   UNL A   1      45.846  43.526  24.490  1.00  0.00     0.149 C 
ATOM     13  O   UNL A   1      46.894  40.512  23.022  1.00  0.00    -0.268 OA
ATOM     14  S   UNL A   1      45.381  44.604  25.669  1.00  0.00    -0.052 S 
BRANCH   8  15
ATOM     15  C   UNL A   1      47.387  43.686  20.165  1.00  0.00     0.128 A 
ATOM     16  C   UNL A   1      46.678  45.326  18.858  1.00  0.00     0.134 A 
ATOM     17  C   UNL A   1      48.047  45.431  18.879  1.00  0.00     0.051 A 
ATOM     18  O   UNL A   1      46.270  44.273  19.617  1.00  0.00    -0.457 OA
ATOM     19  C   UNL A   1      48.502  44.366  19.681  1.00  0.00     0.051 A 
BRANCH  16  20
ATOM     20  C   UNL A   1      45.640  46.066  18.175  1.00  0.00     0.017 A 
ATOM     21  C   UNL A   1      43.676  47.536  16.830  1.00  0.00     0.118 A 
ATOM     22  C   UNL A   1      43.321  46.704  17.891  1.00  0.00     0.047 A 
ATOM     23  C   UNL A   1      45.014  47.667  16.463  1.00  0.00     0.047 A 
ATOM     24  C   UNL A   1      44.298  45.957  18.553  1.00  0.00     0.016 A 
ATOM     25  C   UNL A   1      45.992  46.934  17.136  1.00  0.00     0.016 A 
BRANCH  21  26
ATOM     26  O   UNL A   1      42.660  48.231  16.231  1.00  0.00    -0.497 OA
ATOM     27  C   UNL A   1      41.500  48.347  17.051  1.00  0.00     0.278 C 
ENDBRANCH  21  26
ENDBRANCH  16  20
ENDBRANCH   8  15
ENDBRANCH   6   7
BRANCH   6  28
ATOM     28  C   UNL A   1      44.867  41.717  26.696  1.00  0.00     0.071 C 
BRANCH  28  29
ATOM     29  C   UNL A   1      43.818  40.722  27.168  1.00  0.00    -0.045 A 
ATOM     30  C   UNL A   1      43.902  40.266  28.496  1.00  0.00     0.004 A 
ATOM     31  C   UNL A   1      42.734  40.287  26.393  1.00  0.00     0.004 A 
ATOM     32  C   UNL A   1      42.934  39.411  29.026  1.00  0.00     0.000 A 
ATOM     33  C   UNL A   1      41.754  39.450  26.930  1.00  0.00     0.000 A 
ATOM     34  C   UNL A   1      41.855  39.010  28.246  1.00  0.00     0.000 A 
ENDBRANCH  28  29
ENDBRANCH   6  28
ENDBRANCH   3   6
ENDBRANCH   1   2
BRANCH   1  35
ATOM     35  C   UNL A   1      47.645  37.088  25.944  1.00  0.00     0.042 C 
BRANCH  35  36
ATOM     36  C   UNL A   1      47.032  35.727  26.259  1.00  0.00     0.118 C 
BRANCH  36  37
ATOM     37  N   UNL A   1      46.136  35.256  25.212  1.00  0.00    -0.352 N 
ATOM     38  C   UNL A   1      44.904  34.654  25.307  1.00  0.00     0.251 C 
ATOM     39  H   UNL A   1      46.463  35.391  24.293  1.00  0.00     0.163 HD
ATOM     40  O   UNL A   1      44.405  34.146  24.307  1.00  0.00    -0.269 OA
BRANCH  38  41
ATOM     41  C   UNL A   1      44.201  34.590  26.608  1.00  0.00     0.039 A 
ATOM     42  C   UNL A   1      44.188  33.383  27.313  1.00  0.00     0.014 A 
ATOM     43  C   UNL A   1      43.553  35.711  27.133  1.00  0.00     0.014 A 
ATOM     44  C   UNL A   1      43.598  33.327  28.577  1.00  0.00     0.010 A 
ATOM     45  C   UNL A   1      43.047  35.677  28.429  1.00  0.00     0.010 A 
ATOM     46  C   UNL A   1      43.064  34.485  29.168  1.00  0.00    -0.014 A 
BRANCH  46  47
ATOM     47  C   UNL A   1      42.530  34.471  30.556  1.00  0.00     0.031 A 
ATOM     48  C   UNL A   1      41.053  34.308  30.799  1.00  0.00     0.074 A 
ATOM     49  C   UNL A   1      43.368  34.668  31.594  1.00  0.00     0.049 A 
ATOM     50  N   UNL A   1      40.390  34.348  31.925  1.00  0.00    -0.248 NA
ATOM     51  C   UNL A   1      40.209  34.104  29.612  1.00  0.00     0.031 C 
ATOM     52  C   UNL A   1      44.814  34.876  31.484  1.00  0.00     0.029 A 
ATOM     53  N   UNL A   1      43.129  34.734  32.944  1.00  0.00    -0.354 N 
ATOM     54  C   UNL A   1      39.052  34.185  31.585  1.00  0.00     0.074 A 
ATOM     55  C   UNL A   1      38.994  34.114  30.141  1.00  0.00     0.031 C 
ATOM     56  C   UNL A   1      45.334  35.015  32.713  1.00  0.00     0.029 A 
ATOM     57  C   UNL A   1      44.258  34.964  33.698  1.00  0.00     0.049 A 
ATOM     58  H   UNL A   1      42.233  34.627  33.337  1.00  0.00     0.167 HD
ATOM     59  C   UNL A   1      37.974  34.082  32.402  1.00  0.00     0.034 A 
ATOM     60  C   UNL A   1      44.409  35.131  35.027  1.00  0.00     0.034 A 
ATOM     61  C   UNL A   1      38.051  34.149  33.842  1.00  0.00     0.049 A 
ATOM     62  C   UNL A   1      43.191  35.051  35.912  1.00  0.00     0.074 A 
ATOM     63  C   UNL A   1      37.031  34.004  34.767  1.00  0.00     0.029 A 
ATOM     64  N   UNL A   1      39.210  34.393  34.568  1.00  0.00    -0.354 N 
ATOM     65  N   UNL A   1      41.937  34.846  35.576  1.00  0.00    -0.248 NA
ATOM     66  C   UNL A   1      43.409  35.215  37.354  1.00  0.00     0.031 C 
ATOM     67  C   UNL A   1      37.557  34.241  36.041  1.00  0.00     0.029 A 
ATOM     68  C   UNL A   1      38.924  34.439  35.924  1.00  0.00     0.049 A 
ATOM     69  H   UNL A   1      40.106  34.514  34.176  1.00  0.00     0.167 HD
ATOM     70  C   UNL A   1      41.225  34.821  36.772  1.00  0.00     0.074 A 
ATOM     71  C   UNL A   1      42.190  35.017  37.834  1.00  0.00     0.031 C 
ATOM     72  C   UNL A   1      39.894  34.646  36.975  1.00  0.00     0.034 A 
BRANCH  59  73
ATOM     73  C   UNL A   1      36.620  33.911  31.753  1.00  0.00     0.023 A 
ATOM     74  C   UNL A   1      35.677  34.954  31.723  1.00  0.00     0.031 A 
ATOM     75  C   UNL A   1      36.256  32.683  31.172  1.00  0.00     0.131 A 
ATOM     76  C   UNL A   1      34.394  34.727  31.201  1.00  0.00     0.055 A 
ATOM     77  C   UNL A   1      35.009  32.491  30.573  1.00  0.00     0.041 A 
ATOM     78  F   UNL A   1      37.103  31.642  31.188  1.00  0.00    -0.206 F 
ATOM     79  C   UNL A   1      34.063  33.511  30.599  1.00  0.00     0.022 A 
BRANCH  76  80
ATOM     80  S   UNL A   1      33.119  35.990  31.457  1.00  0.00     0.124 S 
ATOM     81  O   UNL A   1      32.123  35.251  32.230  1.00  0.00    -0.237 OA
ATOM     82  O   UNL A   1      33.844  37.029  32.180  1.00  0.00    -0.237 OA
ATOM     83  O   UNL A   1      32.708  36.344  30.100  1.00  0.00    -0.744 OA
ENDBRANCH  76  80
ENDBRANCH  59  73
BRANCH  60  84
ATOM     84  C   UNL A   1      45.757  35.404  35.607  1.00  0.00     0.023 A 
ATOM     85  C   UNL A   1      46.257  36.713  35.694  1.00  0.00     0.031 A 
ATOM     86  C   UNL A   1      46.584  34.353  36.045  1.00  0.00     0.131 A 
ATOM     87  C   UNL A   1      47.565  36.933  36.155  1.00  0.00     0.055 A 
ATOM     88  C   UNL A   1      47.860  34.583  36.560  1.00  0.00     0.041 A 
ATOM     89  F   UNL A   1      46.155  33.082  35.988  1.00  0.00    -0.206 F 
ATOM     90  C   UNL A   1      48.363  35.879  36.604  1.00  0.00     0.022 A 
BRANCH  87  91
ATOM     91  S   UNL A   1      48.245  38.613  36.067  1.00  0.00     0.124 S 
ATOM     92  O   UNL A   1      49.669  38.366  36.263  1.00  0.00    -0.237 OA
ATOM     93  O   UNL A   1      47.844  39.031  34.728  1.00  0.00    -0.237 OA
ATOM     94  O   UNL A   1      47.574  39.309  37.163  1.00  0.00    -0.744 OA
ENDBRANCH  87  91
ENDBRANCH  60  84
BRANCH  72  95
ATOM     95  C   UNL A   1      39.413  34.607  38.406  1.00  0.00     0.023 A 
ATOM     96  C   UNL A   1      39.155  33.397  39.072  1.00  0.00     0.031 A 
ATOM     97  C   UNL A   1      39.201  35.806  39.112  1.00  0.00     0.131 A 
ATOM     98  C   UNL A   1      38.644  33.412  40.379  1.00  0.00     0.055 A 
ATOM     99  C   UNL A   1      38.760  35.813  40.435  1.00  0.00     0.041 A 
ATOM    100  F   UNL A   1      39.426  36.993  38.526  1.00  0.00    -0.206 F 
ATOM    101  C   UNL A   1      38.465  34.612  41.072  1.00  0.00     0.022 A 
BRANCH  98 102
ATOM    102  S   UNL A   1      38.117  31.845  41.127  1.00  0.00     0.124 S 
ATOM    103  O   UNL A   1      37.590  31.122  39.975  1.00  0.00    -0.237 OA
ATOM    104  O   UNL A   1      39.363  31.332  41.686  1.00  0.00    -0.237 OA
ATOM    105  O   UNL A   1      37.119  32.255  42.113  1.00  0.00    -0.744 OA
ENDBRANCH  98 102
ENDBRANCH  72  95
ENDBRANCH  46  47
ENDBRANCH  38  41
ENDBRANCH  36  37
ENDBRANCH  35  36
ENDBRANCH   1  35
TORSDOF 19
ENDMDL
