MODEL 1
REMARK VINA RESULT:     -10.6      0.000      0.000
REMARK SMILES C=CC[N@@H+](CC(=O)NCCCNC(=O)c1ccc(-c2c3nc(c(-c4cc(S(=O)(=O)[O-])ccc4F)c4ccc([nH]4)c(-c4cc(S(=O)(=O)[O-])ccc4F)c4nc(c(-c5cc(S(=O)(=O)[O-])ccc5F)c5ccc2[nH]5)C=C4)C=C3)cc1)CC(=O)Nc1ccccc1
REMARK SMILES IDX 9 1 8 2 6 3 7 4 5 6 4 7 3 9 2 10 1 11 78 12 79 13 80 14
REMARK SMILES IDX 81 15 82 17 83 18 87 19 84 20 86 21 85 22 10 23 11 24 12 25
REMARK SMILES IDX 13 26 14 28 15 29 16 30 77 31 17 32 76 33 18 34 19 35 20 36
REMARK SMILES IDX 70 37 21 38 75 39 69 40 71 41 22 42 74 43 68 44 67 45 23 47
REMARK SMILES IDX 55 48 35 49 54 50 36 51 39 52 53 53 72 54 37 55 38 56 52 58
REMARK SMILES IDX 73 59 40 60 24 61 25 62 33 63 26 64 32 65 34 66 31 67 27 68
REMARK SMILES IDX 28 69 29 70 30 71 56 72 57 73 65 74 58 75 64 76 66 77 63 78
REMARK SMILES IDX 59 79 60 80 61 81 62 82 41 83 42 84 50 85 43 86 49 87 51 88
REMARK SMILES IDX 48 89 44 90 45 91 46 92 47 93
REMARK H PARENT 8 5 4 8 81 16 12 27 71 46 39 57
REMARK Flexibility Score: inf
ROOT
ATOM      1  C   UNL A   1      35.181  21.567  26.190  1.00  0.00     0.118 C 
ENDROOT
BRANCH   1   2
ATOM      2  N   UNL A   1      34.184  20.663  25.662  1.00  0.00    -0.351 N 
ATOM      3  C   UNL A   1      33.082  20.923  24.916  1.00  0.00     0.275 C 
ATOM      4  O   UNL A   1      32.180  20.090  24.995  1.00  0.00    -0.269 OA
ATOM      5  H   UNL A   1      34.327  19.713  25.878  1.00  0.00     0.163 HD
BRANCH   3   6
ATOM      6  C   UNL A   1      33.034  22.133  23.974  1.00  0.00     0.364 C 
BRANCH   6   7
ATOM      7  N   UNL A   1      32.114  23.208  24.368  1.00  0.00    -0.316 N 
ATOM      8  H   UNL A   1      31.298  22.738  24.761  1.00  0.00     0.349 HD
BRANCH   7   9
ATOM      9  C   UNL A   1      31.614  23.937  23.213  1.00  0.00     0.291 C 
BRANCH   9  10
ATOM     10  C   UNL A   1      32.596  24.829  22.518  1.00  0.00     0.025 C 
ATOM     11  C   UNL A   1      32.232  25.616  21.494  1.00  0.00     0.010 C 
ENDBRANCH   9  10
ENDBRANCH   7   9
BRANCH   7  12
ATOM     12  C   UNL A   1      32.472  23.997  25.566  1.00  0.00     0.364 C 
BRANCH  12  13
ATOM     13  C   UNL A   1      31.363  24.347  26.568  1.00  0.00     0.279 C 
ATOM     14  O   UNL A   1      30.879  23.477  27.303  1.00  0.00    -0.268 OA
ATOM     15  N   UNL A   1      31.006  25.651  26.827  1.00  0.00    -0.321 N 
ATOM     16  H   UNL A   1      30.635  25.775  27.730  1.00  0.00     0.170 HD
BRANCH  15  17
ATOM     17  C   UNL A   1      31.054  26.848  26.081  1.00  0.00     0.041 A 
ATOM     18  C   UNL A   1      30.458  26.855  24.816  1.00  0.00     0.026 A 
ATOM     19  C   UNL A   1      31.772  27.977  26.458  1.00  0.00     0.026 A 
ATOM     20  C   UNL A   1      30.573  27.970  23.970  1.00  0.00     0.002 A 
ATOM     21  C   UNL A   1      31.936  29.073  25.605  1.00  0.00     0.002 A 
ATOM     22  C   UNL A   1      31.325  29.074  24.360  1.00  0.00     0.000 A 
ENDBRANCH  15  17
ENDBRANCH  12  13
ENDBRANCH   7  12
ENDBRANCH   6   7
ENDBRANCH   3   6
ENDBRANCH   1   2
BRANCH   1  23
ATOM     23  C   UNL A   1      36.292  21.835  25.174  1.00  0.00     0.042 C 
BRANCH  23  24
ATOM     24  C   UNL A   1      37.495  22.573  25.750  1.00  0.00     0.118 C 
BRANCH  24  25
ATOM     25  N   UNL A   1      38.575  21.652  26.048  1.00  0.00    -0.352 N 
ATOM     26  C   UNL A   1      39.882  21.956  26.339  1.00  0.00     0.251 C 
ATOM     27  H   UNL A   1      38.342  20.696  26.040  1.00  0.00     0.163 HD
ATOM     28  O   UNL A   1      40.749  21.103  26.189  1.00  0.00    -0.269 OA
BRANCH  26  29
ATOM     29  C   UNL A   1      40.232  23.318  26.804  1.00  0.00     0.039 A 
ATOM     30  C   UNL A   1      40.081  24.397  25.930  1.00  0.00     0.014 A 
ATOM     31  C   UNL A   1      40.742  23.526  28.089  1.00  0.00     0.014 A 
ATOM     32  C   UNL A   1      40.417  25.684  26.357  1.00  0.00     0.010 A 
ATOM     33  C   UNL A   1      40.986  24.819  28.543  1.00  0.00     0.010 A 
ATOM     34  C   UNL A   1      40.856  25.910  27.673  1.00  0.00    -0.014 A 
BRANCH  34  35
ATOM     35  C   UNL A   1      41.237  27.271  28.136  1.00  0.00     0.031 A 
ATOM     36  C   UNL A   1      42.690  27.678  28.148  1.00  0.00     0.074 A 
ATOM     37  C   UNL A   1      40.291  28.122  28.578  1.00  0.00     0.049 A 
ATOM     38  N   UNL A   1      43.235  28.794  28.561  1.00  0.00    -0.248 NA
ATOM     39  C   UNL A   1      43.659  26.685  27.660  1.00  0.00     0.031 C 
ATOM     40  C   UNL A   1      38.860  27.828  28.652  1.00  0.00     0.029 A 
ATOM     41  N   UNL A   1      40.390  29.406  29.054  1.00  0.00    -0.354 N 
ATOM     42  C   UNL A   1      44.607  28.630  28.399  1.00  0.00     0.074 A 
ATOM     43  C   UNL A   1      44.813  27.282  27.914  1.00  0.00     0.031 C 
ATOM     44  C   UNL A   1      38.212  28.909  29.114  1.00  0.00     0.029 A 
ATOM     45  C   UNL A   1      39.182  29.957  29.416  1.00  0.00     0.049 A 
ATOM     46  H   UNL A   1      41.246  29.888  29.129  1.00  0.00     0.167 HD
ATOM     47  C   UNL A   1      45.602  29.527  28.609  1.00  0.00     0.034 A 
ATOM     48  C   UNL A   1      38.892  31.165  29.941  1.00  0.00     0.034 A 
ATOM     49  C   UNL A   1      45.378  30.873  29.075  1.00  0.00     0.049 A 
ATOM     50  C   UNL A   1      40.016  32.141  30.183  1.00  0.00     0.074 A 
ATOM     51  C   UNL A   1      46.302  31.885  29.266  1.00  0.00     0.029 A 
ATOM     52  N   UNL A   1      44.140  31.395  29.432  1.00  0.00    -0.354 N 
ATOM     53  N   UNL A   1      41.304  31.988  29.971  1.00  0.00    -0.248 NA
ATOM     54  C   UNL A   1      39.647  33.456  30.722  1.00  0.00     0.031 C 
ATOM     55  C   UNL A   1      45.637  32.992  29.806  1.00  0.00     0.029 A 
ATOM     56  C   UNL A   1      44.283  32.702  29.873  1.00  0.00     0.049 A 
ATOM     57  H   UNL A   1      43.286  30.908  29.379  1.00  0.00     0.167 HD
ATOM     58  C   UNL A   1      41.892  33.200  30.324  1.00  0.00     0.074 A 
ATOM     59  C   UNL A   1      40.817  34.076  30.743  1.00  0.00     0.031 C 
ATOM     60  C   UNL A   1      43.202  33.559  30.299  1.00  0.00     0.034 A 
BRANCH  47  61
ATOM     61  C   UNL A   1      47.020  29.067  28.359  1.00  0.00     0.023 A 
ATOM     62  C   UNL A   1      47.508  28.840  27.059  1.00  0.00     0.031 A 
ATOM     63  C   UNL A   1      47.892  28.827  29.437  1.00  0.00     0.131 A 
ATOM     64  C   UNL A   1      48.796  28.313  26.874  1.00  0.00     0.055 A 
ATOM     65  C   UNL A   1      49.201  28.384  29.241  1.00  0.00     0.041 A 
ATOM     66  F   UNL A   1      47.480  29.006  30.701  1.00  0.00    -0.206 F 
ATOM     67  C   UNL A   1      49.656  28.109  27.955  1.00  0.00     0.022 A 
BRANCH  64  68
ATOM     68  S   UNL A   1      49.276  27.760  25.214  1.00  0.00     0.124 S 
ATOM     69  O   UNL A   1      49.532  26.339  25.440  1.00  0.00    -0.237 OA
ATOM     70  O   UNL A   1      48.094  28.079  24.422  1.00  0.00    -0.237 OA
ATOM     71  O   UNL A   1      50.463  28.559  24.917  1.00  0.00    -0.744 OA
ENDBRANCH  64  68
ENDBRANCH  47  61
BRANCH  48  72
ATOM     72  C   UNL A   1      37.484  31.521  30.283  1.00  0.00     0.023 A 
ATOM     73  C   UNL A   1      36.593  31.983  29.302  1.00  0.00     0.031 A 
ATOM     74  C   UNL A   1      37.020  31.442  31.609  1.00  0.00     0.131 A 
ATOM     75  C   UNL A   1      35.300  32.394  29.667  1.00  0.00     0.055 A 
ATOM     76  C   UNL A   1      35.717  31.799  31.958  1.00  0.00     0.041 A 
ATOM     77  F   UNL A   1      37.829  31.002  32.587  1.00  0.00    -0.206 F 
ATOM     78  C   UNL A   1      34.853  32.292  30.986  1.00  0.00     0.022 A 
BRANCH  75  79
ATOM     79  S   UNL A   1      34.239  33.149  28.404  1.00  0.00     0.124 S 
ATOM     80  O   UNL A   1      33.617  31.977  27.799  1.00  0.00    -0.237 OA
ATOM     81  O   UNL A   1      33.365  33.995  29.211  1.00  0.00    -0.237 OA
ATOM     82  O   UNL A   1      35.182  33.866  27.551  1.00  0.00    -0.744 OA
ENDBRANCH  75  79
ENDBRANCH  48  72
BRANCH  60  83
ATOM     83  C   UNL A   1      43.532  34.977  30.698  1.00  0.00     0.023 A 
ATOM     84  C   UNL A   1      43.497  36.036  29.773  1.00  0.00     0.031 A 
ATOM     85  C   UNL A   1      43.895  35.271  32.025  1.00  0.00     0.131 A 
ATOM     86  C   UNL A   1      43.876  37.326  30.174  1.00  0.00     0.055 A 
ATOM     87  C   UNL A   1      44.207  36.568  32.432  1.00  0.00     0.041 A 
ATOM     88  F   UNL A   1      43.948  34.299  32.951  1.00  0.00    -0.206 F 
ATOM     89  C   UNL A   1      44.213  37.603  31.502  1.00  0.00     0.022 A 
BRANCH  86  90
ATOM     90  S   UNL A   1      44.016  38.622  28.913  1.00  0.00     0.124 S 
ATOM     91  O   UNL A   1      43.081  38.156  27.894  1.00  0.00    -0.237 OA
ATOM     92  O   UNL A   1      43.615  39.818  29.647  1.00  0.00    -0.237 OA
ATOM     93  O   UNL A   1      45.426  38.575  28.528  1.00  0.00    -0.744 OA
ENDBRANCH  86  90
ENDBRANCH  60  83
ENDBRANCH  34  35
ENDBRANCH  26  29
ENDBRANCH  24  25
ENDBRANCH  23  24
ENDBRANCH   1  23
TORSDOF 19
ENDMDL
MODEL 2
REMARK VINA RESULT:     -10.6      3.135      8.648
REMARK SMILES C=CC[N@@H+](CC(=O)NCCCNC(=O)c1ccc(-c2c3nc(c(-c4cc(S(=O)(=O)[O-])ccc4F)c4ccc([nH]4)c(-c4cc(S(=O)(=O)[O-])ccc4F)c4nc(c(-c5cc(S(=O)(=O)[O-])ccc5F)c5ccc2[nH]5)C=C4)C=C3)cc1)CC(=O)Nc1ccccc1
REMARK SMILES IDX 9 1 8 2 6 3 7 4 5 6 4 7 3 9 2 10 1 11 78 12 79 13 80 14
REMARK SMILES IDX 81 15 82 17 83 18 87 19 84 20 86 21 85 22 10 23 11 24 12 25
REMARK SMILES IDX 13 26 14 28 15 29 16 30 77 31 17 32 76 33 18 34 19 35 20 36
REMARK SMILES IDX 70 37 21 38 75 39 69 40 71 41 22 42 74 43 68 44 67 45 23 47
REMARK SMILES IDX 55 48 35 49 54 50 36 51 39 52 53 53 72 54 37 55 38 56 52 58
REMARK SMILES IDX 73 59 40 60 24 61 25 62 33 63 26 64 32 65 34 66 31 67 27 68
REMARK SMILES IDX 28 69 29 70 30 71 56 72 57 73 65 74 58 75 64 76 66 77 63 78
REMARK SMILES IDX 59 79 60 80 61 81 62 82 41 83 42 84 50 85 43 86 49 87 51 88
REMARK SMILES IDX 48 89 44 90 45 91 46 92 47 93
REMARK H PARENT 8 5 4 8 81 16 12 27 71 46 39 57
REMARK Flexibility Score: inf
ROOT
ATOM      1  C   UNL A   1      36.906  20.558  25.003  1.00  0.00     0.118 C 
ENDROOT
BRANCH   1   2
ATOM      2  N   UNL A   1      37.080  21.895  25.527  1.00  0.00    -0.351 N 
ATOM      3  C   UNL A   1      36.754  23.093  24.981  1.00  0.00     0.275 C 
ATOM      4  O   UNL A   1      37.406  24.055  25.386  1.00  0.00    -0.269 OA
ATOM      5  H   UNL A   1      37.500  21.942  26.416  1.00  0.00     0.163 HD
BRANCH   3   6
ATOM      6  C   UNL A   1      35.582  23.220  23.999  1.00  0.00     0.364 C 
BRANCH   6   7
ATOM      7  N   UNL A   1      34.522  24.157  24.391  1.00  0.00    -0.316 N 
ATOM      8  H   UNL A   1      34.937  25.086  24.311  1.00  0.00     0.349 HD
BRANCH   7   9
ATOM      9  C   UNL A   1      34.175  24.017  25.796  1.00  0.00     0.291 C 
BRANCH   9  10
ATOM     10  C   UNL A   1      32.714  23.906  26.109  1.00  0.00     0.025 C 
ATOM     11  C   UNL A   1      32.258  23.084  27.067  1.00  0.00     0.010 C 
ENDBRANCH   9  10
ENDBRANCH   7   9
BRANCH   7  12
ATOM     12  C   UNL A   1      33.414  24.361  23.435  1.00  0.00     0.364 C 
BRANCH  12  13
ATOM     13  C   UNL A   1      33.340  25.694  22.675  1.00  0.00     0.279 C 
ATOM     14  O   UNL A   1      33.653  25.755  21.479  1.00  0.00    -0.268 OA
ATOM     15  N   UNL A   1      32.749  26.809  23.224  1.00  0.00    -0.321 N 
ATOM     16  H   UNL A   1      32.385  27.423  22.546  1.00  0.00     0.170 HD
BRANCH  15  17
ATOM     17  C   UNL A   1      32.550  27.264  24.545  1.00  0.00     0.041 A 
ATOM     18  C   UNL A   1      33.670  27.696  25.264  1.00  0.00     0.026 A 
ATOM     19  C   UNL A   1      31.342  27.185  25.228  1.00  0.00     0.026 A 
ATOM     20  C   UNL A   1      33.566  28.046  26.619  1.00  0.00     0.002 A 
ATOM     21  C   UNL A   1      31.236  27.483  26.589  1.00  0.00     0.002 A 
ATOM     22  C   UNL A   1      32.350  27.926  27.286  1.00  0.00     0.000 A 
ENDBRANCH  15  17
ENDBRANCH  12  13
ENDBRANCH   7  12
ENDBRANCH   6   7
ENDBRANCH   3   6
ENDBRANCH   1   2
BRANCH   1  23
ATOM     23  C   UNL A   1      38.228  19.792  24.965  1.00  0.00     0.042 C 
BRANCH  23  24
ATOM     24  C   UNL A   1      39.271  20.306  25.951  1.00  0.00     0.118 C 
BRANCH  24  25
ATOM     25  N   UNL A   1      40.337  19.340  26.130  1.00  0.00    -0.352 N 
ATOM     26  C   UNL A   1      41.690  19.573  26.141  1.00  0.00     0.251 C 
ATOM     27  H   UNL A   1      40.057  18.405  26.258  1.00  0.00     0.163 HD
ATOM     28  O   UNL A   1      42.465  18.650  25.914  1.00  0.00    -0.269 OA
BRANCH  26  29
ATOM     29  C   UNL A   1      42.196  20.942  26.396  1.00  0.00     0.039 A 
ATOM     30  C   UNL A   1      42.501  21.323  27.704  1.00  0.00     0.014 A 
ATOM     31  C   UNL A   1      42.334  21.859  25.350  1.00  0.00     0.014 A 
ATOM     32  C   UNL A   1      42.971  22.615  27.956  1.00  0.00     0.010 A 
ATOM     33  C   UNL A   1      42.891  23.112  25.590  1.00  0.00     0.010 A 
ATOM     34  C   UNL A   1      43.187  23.516  26.899  1.00  0.00    -0.014 A 
BRANCH  34  35
ATOM     35  C   UNL A   1      43.666  24.901  27.153  1.00  0.00     0.031 A 
ATOM     36  C   UNL A   1      42.712  25.935  27.698  1.00  0.00     0.074 A 
ATOM     37  C   UNL A   1      44.937  25.239  26.861  1.00  0.00     0.049 A 
ATOM     38  N   UNL A   1      42.915  27.206  27.939  1.00  0.00    -0.248 NA
ATOM     39  C   UNL A   1      41.340  25.486  27.978  1.00  0.00     0.031 C 
ATOM     40  C   UNL A   1      45.940  24.337  26.292  1.00  0.00     0.029 A 
ATOM     41  N   UNL A   1      45.603  26.431  26.996  1.00  0.00    -0.354 N 
ATOM     42  C   UNL A   1      41.696  27.708  28.381  1.00  0.00     0.074 A 
ATOM     43  C   UNL A   1      40.744  26.621  28.310  1.00  0.00     0.031 C 
ATOM     44  C   UNL A   1      47.100  24.999  26.157  1.00  0.00     0.029 A 
ATOM     45  C   UNL A   1      46.914  26.384  26.581  1.00  0.00     0.049 A 
ATOM     46  H   UNL A   1      45.182  27.245  27.357  1.00  0.00     0.167 HD
ATOM     47  C   UNL A   1      41.402  28.954  28.830  1.00  0.00     0.034 A 
ATOM     48  C   UNL A   1      47.855  27.348  26.538  1.00  0.00     0.034 A 
ATOM     49  C   UNL A   1      42.368  30.022  28.913  1.00  0.00     0.049 A 
ATOM     50  C   UNL A   1      47.502  28.730  27.026  1.00  0.00     0.074 A 
ATOM     51  C   UNL A   1      42.197  31.303  29.407  1.00  0.00     0.029 A 
ATOM     52  N   UNL A   1      43.687  29.935  28.483  1.00  0.00    -0.354 N 
ATOM     53  N   UNL A   1      46.357  29.175  27.494  1.00  0.00    -0.248 NA
ATOM     54  C   UNL A   1      48.569  29.738  26.993  1.00  0.00     0.031 C 
ATOM     55  C   UNL A   1      43.387  32.012  29.209  1.00  0.00     0.029 A 
ATOM     56  C   UNL A   1      44.329  31.150  28.669  1.00  0.00     0.049 A 
ATOM     57  H   UNL A   1      44.104  29.129  28.101  1.00  0.00     0.167 HD
ATOM     58  C   UNL A   1      46.579  30.506  27.838  1.00  0.00     0.074 A 
ATOM     59  C   UNL A   1      47.969  30.784  27.541  1.00  0.00     0.031 C 
ATOM     60  C   UNL A   1      45.714  31.415  28.357  1.00  0.00     0.034 A 
BRANCH  47  61
ATOM     61  C   UNL A   1      39.973  29.228  29.241  1.00  0.00     0.023 A 
ATOM     62  C   UNL A   1      39.593  29.312  30.593  1.00  0.00     0.031 A 
ATOM     63  C   UNL A   1      38.969  29.382  28.268  1.00  0.00     0.131 A 
ATOM     64  C   UNL A   1      38.239  29.463  30.934  1.00  0.00     0.055 A 
ATOM     65  C   UNL A   1      37.637  29.618  28.614  1.00  0.00     0.041 A 
ATOM     66  F   UNL A   1      39.264  29.293  26.962  1.00  0.00    -0.206 F 
ATOM     67  C   UNL A   1      37.263  29.644  29.954  1.00  0.00     0.022 A 
BRANCH  64  68
ATOM     68  S   UNL A   1      37.758  29.271  32.673  1.00  0.00     0.124 S 
ATOM     69  O   UNL A   1      38.822  30.004  33.356  1.00  0.00    -0.237 OA
ATOM     70  O   UNL A   1      36.436  29.888  32.704  1.00  0.00    -0.237 OA
ATOM     71  O   UNL A   1      37.778  27.824  32.877  1.00  0.00    -0.744 OA
ENDBRANCH  64  68
ENDBRANCH  47  61
BRANCH  48  72
ATOM     72  C   UNL A   1      49.218  27.051  26.007  1.00  0.00     0.023 A 
ATOM     73  C   UNL A   1      50.299  26.821  26.872  1.00  0.00     0.031 A 
ATOM     74  C   UNL A   1      49.466  27.032  24.622  1.00  0.00     0.131 A 
ATOM     75  C   UNL A   1      51.588  26.630  26.347  1.00  0.00     0.055 A 
ATOM     76  C   UNL A   1      50.738  26.787  24.103  1.00  0.00     0.041 A 
ATOM     77  F   UNL A   1      48.467  27.241  23.750  1.00  0.00    -0.206 F 
ATOM     78  C   UNL A   1      51.811  26.598  24.968  1.00  0.00     0.022 A 
BRANCH  75  79
ATOM     79  S   UNL A   1      52.986  26.512  27.495  1.00  0.00     0.124 S 
ATOM     80  O   UNL A   1      53.417  27.902  27.585  1.00  0.00    -0.237 OA
ATOM     81  O   UNL A   1      52.352  25.958  28.688  1.00  0.00    -0.237 OA
ATOM     82  O   UNL A   1      53.914  25.613  26.812  1.00  0.00    -0.744 OA
ENDBRANCH  75  79
ENDBRANCH  48  72
BRANCH  60  83
ATOM     83  C   UNL A   1      46.267  32.784  28.676  1.00  0.00     0.023 A 
ATOM     84  C   UNL A   1      46.049  33.887  27.832  1.00  0.00     0.031 A 
ATOM     85  C   UNL A   1      47.030  32.982  29.840  1.00  0.00     0.131 A 
ATOM     86  C   UNL A   1      46.637  35.124  28.135  1.00  0.00     0.055 A 
ATOM     87  C   UNL A   1      47.558  34.231  30.169  1.00  0.00     0.041 A 
ATOM     88  F   UNL A   1      47.272  31.964  30.681  1.00  0.00    -0.206 F 
ATOM     89  C   UNL A   1      47.375  35.308  29.307  1.00  0.00     0.022 A 
BRANCH  86  90
ATOM     90  S   UNL A   1      46.507  36.469  26.925  1.00  0.00     0.124 S 
ATOM     91  O   UNL A   1      46.860  37.636  27.728  1.00  0.00    -0.237 OA
ATOM     92  O   UNL A   1      47.479  36.075  25.912  1.00  0.00    -0.237 OA
ATOM     93  O   UNL A   1      45.109  36.411  26.498  1.00  0.00    -0.744 OA
ENDBRANCH  86  90
ENDBRANCH  60  83
ENDBRANCH  34  35
ENDBRANCH  26  29
ENDBRANCH  24  25
ENDBRANCH  23  24
ENDBRANCH   1  23
TORSDOF 19
ENDMDL
MODEL 3
REMARK VINA RESULT:     -10.6      1.583      2.122
REMARK SMILES C=CC[N@@H+](CC(=O)NCCCNC(=O)c1ccc(-c2c3nc(c(-c4cc(S(=O)(=O)[O-])ccc4F)c4ccc([nH]4)c(-c4cc(S(=O)(=O)[O-])ccc4F)c4nc(c(-c5cc(S(=O)(=O)[O-])ccc5F)c5ccc2[nH]5)C=C4)C=C3)cc1)CC(=O)Nc1ccccc1
REMARK SMILES IDX 9 1 8 2 6 3 7 4 5 6 4 7 3 9 2 10 1 11 78 12 79 13 80 14
REMARK SMILES IDX 81 15 82 17 83 18 87 19 84 20 86 21 85 22 10 23 11 24 12 25
REMARK SMILES IDX 13 26 14 28 15 29 16 30 77 31 17 32 76 33 18 34 19 35 20 36
REMARK SMILES IDX 70 37 21 38 75 39 69 40 71 41 22 42 74 43 68 44 67 45 23 47
REMARK SMILES IDX 55 48 35 49 54 50 36 51 39 52 53 53 72 54 37 55 38 56 52 58
REMARK SMILES IDX 73 59 40 60 24 61 25 62 33 63 26 64 32 65 34 66 31 67 27 68
REMARK SMILES IDX 28 69 29 70 30 71 56 72 57 73 65 74 58 75 64 76 66 77 63 78
REMARK SMILES IDX 59 79 60 80 61 81 62 82 41 83 42 84 50 85 43 86 49 87 51 88
REMARK SMILES IDX 48 89 44 90 45 91 46 92 47 93
REMARK H PARENT 8 5 4 8 81 16 12 27 71 46 39 57
REMARK Flexibility Score: inf
ROOT
ATOM      1  C   UNL A   1      35.027  21.706  26.329  1.00  0.00     0.118 C 
ENDROOT
BRANCH   1   2
ATOM      2  N   UNL A   1      34.136  20.670  25.857  1.00  0.00    -0.351 N 
ATOM      3  C   UNL A   1      33.103  20.744  24.981  1.00  0.00     0.275 C 
ATOM      4  O   UNL A   1      32.240  19.875  25.104  1.00  0.00    -0.269 OA
ATOM      5  H   UNL A   1      34.304  19.774  26.228  1.00  0.00     0.163 HD
BRANCH   3   6
ATOM      6  C   UNL A   1      33.088  21.796  23.864  1.00  0.00     0.364 C 
BRANCH   6   7
ATOM      7  N   UNL A   1      32.647  23.139  24.262  1.00  0.00    -0.316 N 
ATOM      8  H   UNL A   1      33.087  23.313  25.166  1.00  0.00     0.349 HD
BRANCH   7   9
ATOM      9  C   UNL A   1      31.217  23.179  24.522  1.00  0.00     0.291 C 
BRANCH   9  10
ATOM     10  C   UNL A   1      30.810  23.457  25.936  1.00  0.00     0.025 C 
ATOM     11  C   UNL A   1      31.716  23.648  26.907  1.00  0.00     0.010 C 
ENDBRANCH   9  10
ENDBRANCH   7   9
BRANCH   7  12
ATOM     12  C   UNL A   1      33.239  24.284  23.539  1.00  0.00     0.364 C 
BRANCH  12  13
ATOM     13  C   UNL A   1      32.303  25.395  23.039  1.00  0.00     0.279 C 
ATOM     14  O   UNL A   1      31.835  25.357  21.894  1.00  0.00    -0.268 OA
ATOM     15  N   UNL A   1      31.800  26.354  23.888  1.00  0.00    -0.321 N 
ATOM     16  H   UNL A   1      30.934  26.716  23.588  1.00  0.00     0.170 HD
BRANCH  15  17
ATOM     17  C   UNL A   1      32.251  26.933  25.093  1.00  0.00     0.041 A 
ATOM     18  C   UNL A   1      31.292  27.302  26.042  1.00  0.00     0.026 A 
ATOM     19  C   UNL A   1      33.571  27.289  25.345  1.00  0.00     0.026 A 
ATOM     20  C   UNL A   1      31.659  27.993  27.207  1.00  0.00     0.002 A 
ATOM     21  C   UNL A   1      33.941  28.020  26.477  1.00  0.00     0.002 A 
ATOM     22  C   UNL A   1      32.983  28.364  27.418  1.00  0.00     0.000 A 
ENDBRANCH  15  17
ENDBRANCH  12  13
ENDBRANCH   7  12
ENDBRANCH   6   7
ENDBRANCH   3   6
ENDBRANCH   1   2
BRANCH   1  23
ATOM     23  C   UNL A   1      36.068  22.077  25.272  1.00  0.00     0.042 C 
BRANCH  23  24
ATOM     24  C   UNL A   1      37.283  22.810  25.828  1.00  0.00     0.118 C 
BRANCH  24  25
ATOM     25  N   UNL A   1      38.359  21.883  26.120  1.00  0.00    -0.352 N 
ATOM     26  C   UNL A   1      39.670  22.180  26.404  1.00  0.00     0.251 C 
ATOM     27  H   UNL A   1      38.122  20.928  26.112  1.00  0.00     0.163 HD
ATOM     28  O   UNL A   1      40.532  21.322  26.248  1.00  0.00    -0.269 OA
BRANCH  26  29
ATOM     29  C   UNL A   1      40.029  23.540  26.869  1.00  0.00     0.039 A 
ATOM     30  C   UNL A   1      39.996  24.601  25.962  1.00  0.00     0.014 A 
ATOM     31  C   UNL A   1      40.433  23.760  28.189  1.00  0.00     0.014 A 
ATOM     32  C   UNL A   1      40.342  25.886  26.390  1.00  0.00     0.010 A 
ATOM     33  C   UNL A   1      40.685  25.054  28.636  1.00  0.00     0.010 A 
ATOM     34  C   UNL A   1      40.673  26.128  27.734  1.00  0.00    -0.014 A 
BRANCH  34  35
ATOM     35  C   UNL A   1      41.064  27.485  28.200  1.00  0.00     0.031 A 
ATOM     36  C   UNL A   1      42.522  27.870  28.245  1.00  0.00     0.074 A 
ATOM     37  C   UNL A   1      40.121  28.353  28.616  1.00  0.00     0.049 A 
ATOM     38  N   UNL A   1      43.074  28.980  28.665  1.00  0.00    -0.248 NA
ATOM     39  C   UNL A   1      43.487  26.860  27.784  1.00  0.00     0.031 C 
ATOM     40  C   UNL A   1      38.683  28.080  28.657  1.00  0.00     0.029 A 
ATOM     41  N   UNL A   1      40.227  29.637  29.087  1.00  0.00    -0.354 N 
ATOM     42  C   UNL A   1      44.447  28.794  28.537  1.00  0.00     0.074 A 
ATOM     43  C   UNL A   1      44.644  27.441  28.063  1.00  0.00     0.031 C 
ATOM     44  C   UNL A   1      38.041  29.174  29.098  1.00  0.00     0.029 A 
ATOM     45  C   UNL A   1      39.020  30.208  29.419  1.00  0.00     0.049 A 
ATOM     46  H   UNL A   1      41.088  30.107  29.181  1.00  0.00     0.167 HD
ATOM     47  C   UNL A   1      45.450  29.677  28.766  1.00  0.00     0.034 A 
ATOM     48  C   UNL A   1      38.736  31.422  29.930  1.00  0.00     0.034 A 
ATOM     49  C   UNL A   1      45.235  31.029  29.221  1.00  0.00     0.049 A 
ATOM     50  C   UNL A   1      39.868  32.383  30.194  1.00  0.00     0.074 A 
ATOM     51  C   UNL A   1      46.170  32.028  29.429  1.00  0.00     0.029 A 
ATOM     52  N   UNL A   1      43.997  31.571  29.546  1.00  0.00    -0.354 N 
ATOM     53  N   UNL A   1      41.158  32.210  30.014  1.00  0.00    -0.248 NA
ATOM     54  C   UNL A   1      39.506  33.706  30.719  1.00  0.00     0.031 C 
ATOM     55  C   UNL A   1      45.509  33.147  29.948  1.00  0.00     0.029 A 
ATOM     56  C   UNL A   1      44.150  32.878  29.984  1.00  0.00     0.049 A 
ATOM     57  H   UNL A   1      43.137  31.097  29.475  1.00  0.00     0.167 HD
ATOM     58  C   UNL A   1      41.756  33.414  30.376  1.00  0.00     0.074 A 
ATOM     59  C   UNL A   1      40.685  34.308  30.765  1.00  0.00     0.031 C 
ATOM     60  C   UNL A   1      43.072  33.753  30.381  1.00  0.00     0.034 A 
BRANCH  47  61
ATOM     61  C   UNL A   1      46.867  29.195  28.552  1.00  0.00     0.023 A 
ATOM     62  C   UNL A   1      47.394  28.990  27.265  1.00  0.00     0.031 A 
ATOM     63  C   UNL A   1      47.696  28.910  29.652  1.00  0.00     0.131 A 
ATOM     64  C   UNL A   1      48.677  28.441  27.110  1.00  0.00     0.055 A 
ATOM     65  C   UNL A   1      49.003  28.446  29.490  1.00  0.00     0.041 A 
ATOM     66  F   UNL A   1      47.245  29.067  30.907  1.00  0.00    -0.206 F 
ATOM     67  C   UNL A   1      49.495  28.193  28.213  1.00  0.00     0.022 A 
BRANCH  64  68
ATOM     68  S   UNL A   1      49.202  27.919  25.453  1.00  0.00     0.124 S 
ATOM     69  O   UNL A   1      50.395  28.739  25.250  1.00  0.00    -0.237 OA
ATOM     70  O   UNL A   1      49.432  26.490  25.631  1.00  0.00    -0.237 OA
ATOM     71  O   UNL A   1      48.063  28.269  24.607  1.00  0.00    -0.744 OA
ENDBRANCH  64  68
ENDBRANCH  47  61
BRANCH  48  72
ATOM     72  C   UNL A   1      37.326  31.802  30.237  1.00  0.00     0.023 A 
ATOM     73  C   UNL A   1      36.484  32.330  29.247  1.00  0.00     0.031 A 
ATOM     74  C   UNL A   1      36.811  31.678  31.541  1.00  0.00     0.131 A 
ATOM     75  C   UNL A   1      35.189  32.760  29.582  1.00  0.00     0.055 A 
ATOM     76  C   UNL A   1      35.506  32.055  31.859  1.00  0.00     0.041 A 
ATOM     77  F   UNL A   1      37.571  31.174  32.526  1.00  0.00    -0.206 F 
ATOM     78  C   UNL A   1      34.691  32.613  30.879  1.00  0.00     0.022 A 
BRANCH  75  79
ATOM     79  S   UNL A   1      34.195  33.596  28.317  1.00  0.00     0.124 S 
ATOM     80  O   UNL A   1      35.218  34.025  27.370  1.00  0.00    -0.237 OA
ATOM     81  O   UNL A   1      33.313  32.523  27.868  1.00  0.00    -0.237 OA
ATOM     82  O   UNL A   1      33.538  34.672  29.056  1.00  0.00    -0.744 OA
ENDBRANCH  75  79
ENDBRANCH  48  72
BRANCH  60  83
ATOM     83  C   UNL A   1      43.414  35.169  30.781  1.00  0.00     0.023 A 
ATOM     84  C   UNL A   1      43.496  35.559  32.129  1.00  0.00     0.031 A 
ATOM     85  C   UNL A   1      43.653  36.142  29.795  1.00  0.00     0.131 A 
ATOM     86  C   UNL A   1      43.752  36.900  32.453  1.00  0.00     0.055 A 
ATOM     87  C   UNL A   1      43.972  37.459  30.125  1.00  0.00     0.041 A 
ATOM     88  F   UNL A   1      43.586  35.826  28.491  1.00  0.00    -0.206 F 
ATOM     89  C   UNL A   1      44.009  37.849  31.460  1.00  0.00     0.022 A 
BRANCH  86  90
ATOM     90  S   UNL A   1      43.649  37.410  34.191  1.00  0.00     0.124 S 
ATOM     91  O   UNL A   1      45.052  37.640  34.523  1.00  0.00    -0.237 OA
ATOM     92  O   UNL A   1      42.808  38.599  34.119  1.00  0.00    -0.237 OA
ATOM     93  O   UNL A   1      43.037  36.257  34.851  1.00  0.00    -0.744 OA
ENDBRANCH  86  90
ENDBRANCH  60  83
ENDBRANCH  34  35
ENDBRANCH  26  29
ENDBRANCH  24  25
ENDBRANCH  23  24
ENDBRANCH   1  23
TORSDOF 19
ENDMDL
