MODEL 1
REMARK VINA RESULT:     -13.2      0.000      0.000
REMARK SMILES O=C(NCCCNC(=O)c1cc(S(=O)(=O)Nc2cc(F)ccc2F)cc2c1OCCO2)c1ccc(-c2c3nc(c(-c4cc(S(=O)(=O)[O-])ccc4F)c4ccc([nH]4)c(-c4cc(S(=O)(=O)[O-])ccc4F)c4nc(c(-c5cc(S(=O)(=O)[O-])ccc5F)c5ccc2[nH]5)C=C4)C=C3)cc1
REMARK SMILES IDX 5 1 4 2 3 3 1 4 2 5 32 7 33 8 94 9 34 10 93 11 35 12 36 13
REMARK SMILES IDX 37 14 87 15 38 16 92 17 86 18 88 19 39 20 91 21 85 22 84 23
REMARK SMILES IDX 40 25 72 26 52 27 71 28 53 29 56 30 70 31 89 32 54 33 55 34
REMARK SMILES IDX 69 36 90 37 57 38 41 39 42 40 50 41 43 42 49 43 51 44 48 45
REMARK SMILES IDX 44 46 45 47 46 48 47 49 73 50 74 51 82 52 75 53 81 54 83 55
REMARK SMILES IDX 80 56 76 57 77 58 78 59 79 60 58 61 59 62 67 63 60 64 66 65
REMARK SMILES IDX 68 66 65 67 61 68 62 69 63 70 64 71 6 72 7 73 8 74 9 76
REMARK SMILES IDX 10 77 11 78 27 79 12 80 26 81 28 82 25 83 31 84 29 85 30 86
REMARK SMILES IDX 13 87 14 88 15 89 16 90 17 92 18 93 23 94 19 95 22 96 24 97
REMARK SMILES IDX 20 98 21 99
REMARK H PARENT 3 6 88 24 56 35 7 75 16 91
REMARK Flexibility Score: inf
ROOT
ATOM      1  C   UNL A   1      31.729  28.471  25.724  1.00  0.00     0.042 C 
ENDROOT
BRANCH   1   2
ATOM      2  C   UNL A   1      32.804  29.503  25.418  1.00  0.00     0.118 C 
BRANCH   2   3
ATOM      3  N   UNL A   1      32.484  30.837  25.909  1.00  0.00    -0.352 N 
ATOM      4  O   UNL A   1      32.468  32.643  27.237  1.00  0.00    -0.269 OA
ATOM      5  C   UNL A   1      33.021  31.589  26.927  1.00  0.00     0.251 C 
ATOM      6  H   UNL A   1      31.750  31.280  25.425  1.00  0.00     0.163 HD
BRANCH   5   7
ATOM      7  C   UNL A   1      34.229  31.150  27.669  1.00  0.00     0.039 A 
ATOM      8  C   UNL A   1      34.444  29.813  27.999  1.00  0.00     0.014 A 
ATOM      9  C   UNL A   1      35.203  32.101  28.000  1.00  0.00     0.014 A 
ATOM     10  C   UNL A   1      35.526  29.455  28.797  1.00  0.00     0.010 A 
ATOM     11  C   UNL A   1      36.345  31.722  28.716  1.00  0.00     0.010 A 
ATOM     12  C   UNL A   1      36.499  30.400  29.156  1.00  0.00    -0.014 A 
BRANCH  12  13
ATOM     13  C   UNL A   1      37.679  29.962  29.951  1.00  0.00     0.031 A 
ATOM     14  C   UNL A   1      38.727  29.059  29.357  1.00  0.00     0.074 A 
ATOM     15  C   UNL A   1      37.823  30.423  31.209  1.00  0.00     0.049 A 
ATOM     16  N   UNL A   1      39.834  28.612  29.895  1.00  0.00    -0.248 NA
ATOM     17  C   UNL A   1      38.497  28.585  27.984  1.00  0.00     0.031 C 
ATOM     18  C   UNL A   1      36.864  31.288  31.903  1.00  0.00     0.029 A 
ATOM     19  N   UNL A   1      38.834  30.255  32.122  1.00  0.00    -0.354 N 
ATOM     20  C   UNL A   1      40.423  27.791  28.940  1.00  0.00     0.074 A 
ATOM     21  C   UNL A   1      39.532  27.778  27.798  1.00  0.00     0.031 C 
ATOM     22  C   UNL A   1      37.356  31.617  33.106  1.00  0.00     0.029 A 
ATOM     23  C   UNL A   1      38.633  30.939  33.298  1.00  0.00     0.049 A 
ATOM     24  H   UNL A   1      39.627  29.697  31.951  1.00  0.00     0.167 HD
ATOM     25  C   UNL A   1      41.600  27.119  29.006  1.00  0.00     0.034 A 
ATOM     26  C   UNL A   1      39.382  31.005  34.415  1.00  0.00     0.034 A 
ATOM     27  C   UNL A   1      42.486  27.153  30.145  1.00  0.00     0.049 A 
ATOM     28  C   UNL A   1      40.680  30.249  34.465  1.00  0.00     0.074 A 
ATOM     29  C   UNL A   1      43.720  26.542  30.300  1.00  0.00     0.029 A 
ATOM     30  N   UNL A   1      42.235  27.834  31.331  1.00  0.00    -0.354 N 
ATOM     31  N   UNL A   1      41.227  29.491  33.544  1.00  0.00    -0.248 NA
ATOM     32  C   UNL A   1      41.462  30.361  35.702  1.00  0.00     0.031 C 
ATOM     33  C   UNL A   1      44.184  26.803  31.595  1.00  0.00     0.029 A 
ATOM     34  C   UNL A   1      43.274  27.633  32.229  1.00  0.00     0.049 A 
ATOM     35  H   UNL A   1      41.435  28.379  31.508  1.00  0.00     0.167 HD
ATOM     36  C   UNL A   1      42.424  29.040  34.089  1.00  0.00     0.074 A 
ATOM     37  C   UNL A   1      42.529  29.632  35.408  1.00  0.00     0.031 C 
ATOM     38  C   UNL A   1      43.351  28.208  33.550  1.00  0.00     0.034 A 
BRANCH  25  39
ATOM     39  C   UNL A   1      41.975  26.254  27.826  1.00  0.00     0.023 A 
ATOM     40  C   UNL A   1      41.558  24.916  27.723  1.00  0.00     0.031 A 
ATOM     41  C   UNL A   1      42.777  26.775  26.795  1.00  0.00     0.131 A 
ATOM     42  C   UNL A   1      41.996  24.127  26.647  1.00  0.00     0.055 A 
ATOM     43  C   UNL A   1      43.151  26.006  25.691  1.00  0.00     0.041 A 
ATOM     44  F   UNL A   1      43.222  28.041  26.848  1.00  0.00    -0.206 F 
ATOM     45  C   UNL A   1      42.771  24.669  25.619  1.00  0.00     0.022 A 
BRANCH  42  46
ATOM     46  S   UNL A   1      41.644  22.347  26.675  1.00  0.00     0.124 S 
ATOM     47  O   UNL A   1      42.436  21.908  27.821  1.00  0.00    -0.237 OA
ATOM     48  O   UNL A   1      40.196  22.316  26.848  1.00  0.00    -0.237 OA
ATOM     49  O   UNL A   1      42.128  21.881  25.377  1.00  0.00    -0.744 OA
ENDBRANCH  42  46
ENDBRANCH  25  39
BRANCH  26  50
ATOM     50  C   UNL A   1      38.905  31.791  35.587  1.00  0.00     0.023 A 
ATOM     51  C   UNL A   1      38.249  31.170  36.661  1.00  0.00     0.031 A 
ATOM     52  C   UNL A   1      39.092  33.183  35.640  1.00  0.00     0.131 A 
ATOM     53  C   UNL A   1      37.777  31.947  37.731  1.00  0.00     0.055 A 
ATOM     54  C   UNL A   1      38.663  33.944  36.726  1.00  0.00     0.041 A 
ATOM     55  F   UNL A   1      39.723  33.821  34.640  1.00  0.00    -0.206 F 
ATOM     56  C   UNL A   1      37.992  33.327  37.776  1.00  0.00     0.022 A 
BRANCH  53  57
ATOM     57  S   UNL A   1      36.824  31.133  39.042  1.00  0.00     0.124 S 
ATOM     58  O   UNL A   1      37.725  31.251  40.183  1.00  0.00    -0.237 OA
ATOM     59  O   UNL A   1      35.617  31.951  39.090  1.00  0.00    -0.237 OA
ATOM     60  O   UNL A   1      36.635  29.776  38.534  1.00  0.00    -0.744 OA
ENDBRANCH  53  57
ENDBRANCH  26  50
BRANCH  38  61
ATOM     61  C   UNL A   1      44.566  27.917  34.393  1.00  0.00     0.023 A 
ATOM     62  C   UNL A   1      44.608  26.814  35.264  1.00  0.00     0.031 A 
ATOM     63  C   UNL A   1      45.680  28.772  34.348  1.00  0.00     0.131 A 
ATOM     64  C   UNL A   1      45.719  26.628  36.099  1.00  0.00     0.055 A 
ATOM     65  C   UNL A   1      46.805  28.551  35.144  1.00  0.00     0.041 A 
ATOM     66  F   UNL A   1      45.689  29.841  33.536  1.00  0.00    -0.206 F 
ATOM     67  C   UNL A   1      46.824  27.481  36.034  1.00  0.00     0.022 A 
BRANCH  64  68
ATOM     68  S   UNL A   1      45.666  25.303  37.336  1.00  0.00     0.124 S 
ATOM     69  O   UNL A   1      47.046  25.272  37.809  1.00  0.00    -0.237 OA
ATOM     70  O   UNL A   1      44.678  25.802  38.287  1.00  0.00    -0.237 OA
ATOM     71  O   UNL A   1      45.248  24.131  36.568  1.00  0.00    -0.744 OA
ENDBRANCH  64  68
ENDBRANCH  38  61
ENDBRANCH  12  13
ENDBRANCH   5   7
ENDBRANCH   2   3
ENDBRANCH   1   2
BRANCH   1  72
ATOM     72  C   UNL A   1      32.173  27.316  26.608  1.00  0.00     0.118 C 
BRANCH  72  73
ATOM     73  N   UNL A   1      31.200  26.236  26.718  1.00  0.00    -0.352 N 
ATOM     74  C   UNL A   1      31.259  24.956  26.217  1.00  0.00     0.255 C 
ATOM     75  H   UNL A   1      30.383  26.454  27.222  1.00  0.00     0.163 HD
ATOM     76  O   UNL A   1      30.330  24.172  26.396  1.00  0.00    -0.269 OA
BRANCH  74  77
ATOM     77  C   UNL A   1      32.378  24.557  25.337  1.00  0.00     0.087 A 
ATOM     78  C   UNL A   1      33.273  23.626  25.872  1.00  0.00     0.040 A 
ATOM     79  C   UNL A   1      32.488  24.962  24.007  1.00  0.00     0.174 A 
ATOM     80  C   UNL A   1      34.162  22.955  25.037  1.00  0.00     0.092 A 
ATOM     81  C   UNL A   1      33.453  24.359  23.193  1.00  0.00     0.163 A 
ATOM     82  O   UNL A   1      31.627  25.923  23.538  1.00  0.00    -0.485 OA
ATOM     83  C   UNL A   1      34.261  23.334  23.692  1.00  0.00     0.072 A 
ATOM     84  O   UNL A   1      33.620  24.672  21.868  1.00  0.00    -0.486 OA
ATOM     85  C   UNL A   1      31.519  25.871  22.113  1.00  0.00     0.271 C 
ATOM     86  C   UNL A   1      32.905  25.855  21.494  1.00  0.00     0.271 C 
BRANCH  80  87
ATOM     87  S   UNL A   1      35.074  21.507  25.540  1.00  0.00     0.262 S 
ATOM     88  O   UNL A   1      35.927  21.157  24.427  1.00  0.00    -0.201 OA
ATOM     89  O   UNL A   1      35.626  21.816  26.844  1.00  0.00    -0.201 OA
BRANCH  87  90
ATOM     90  N   UNL A   1      34.009  20.250  25.810  1.00  0.00    -0.277 N 
ATOM     91  H   UNL A   1      33.664  20.144  26.726  1.00  0.00     0.180 HD
BRANCH  90  92
ATOM     92  C   UNL A   1      33.553  19.315  24.835  1.00  0.00     0.087 A 
ATOM     93  C   UNL A   1      34.132  18.066  24.616  1.00  0.00     0.069 A 
ATOM     94  C   UNL A   1      32.524  19.749  23.983  1.00  0.00     0.147 A 
ATOM     95  C   UNL A   1      33.768  17.344  23.478  1.00  0.00     0.125 A 
ATOM     96  C   UNL A   1      32.151  19.017  22.862  1.00  0.00     0.044 A 
ATOM     97  F   UNL A   1      31.946  20.941  24.204  1.00  0.00    -0.205 F 
ATOM     98  F   UNL A   1      34.405  16.200  23.197  1.00  0.00    -0.207 F 
ATOM     99  C   UNL A   1      32.800  17.815  22.594  1.00  0.00     0.042 A 
ENDBRANCH  90  92
ENDBRANCH  87  90
ENDBRANCH  80  87
ENDBRANCH  74  77
ENDBRANCH  72  73
ENDBRANCH   1  72
TORSDOF 16
ENDMDL
MODEL 2
REMARK VINA RESULT:     -12.9      2.066      7.781
REMARK SMILES O=C(NCCCNC(=O)c1cc(S(=O)(=O)Nc2cc(F)ccc2F)cc2c1OCCO2)c1ccc(-c2c3nc(c(-c4cc(S(=O)(=O)[O-])ccc4F)c4ccc([nH]4)c(-c4cc(S(=O)(=O)[O-])ccc4F)c4nc(c(-c5cc(S(=O)(=O)[O-])ccc5F)c5ccc2[nH]5)C=C4)C=C3)cc1
REMARK SMILES IDX 5 1 4 2 3 3 1 4 2 5 32 7 33 8 94 9 34 10 93 11 35 12 36 13
REMARK SMILES IDX 37 14 87 15 38 16 92 17 86 18 88 19 39 20 91 21 85 22 84 23
REMARK SMILES IDX 40 25 72 26 52 27 71 28 53 29 56 30 70 31 89 32 54 33 55 34
REMARK SMILES IDX 69 36 90 37 57 38 41 39 42 40 50 41 43 42 49 43 51 44 48 45
REMARK SMILES IDX 44 46 45 47 46 48 47 49 73 50 74 51 82 52 75 53 81 54 83 55
REMARK SMILES IDX 80 56 76 57 77 58 78 59 79 60 58 61 59 62 67 63 60 64 66 65
REMARK SMILES IDX 68 66 65 67 61 68 62 69 63 70 64 71 6 72 7 73 8 74 9 76
REMARK SMILES IDX 10 77 11 78 27 79 12 80 26 81 28 82 25 83 31 84 29 85 30 86
REMARK SMILES IDX 13 87 14 88 15 89 16 90 17 92 18 93 23 94 19 95 22 96 24 97
REMARK SMILES IDX 20 98 21 99
REMARK H PARENT 3 6 88 24 56 35 7 75 16 91
REMARK Flexibility Score: inf
ROOT
ATOM      1  C   UNL A   1      33.961  28.563  25.024  1.00  0.00     0.042 C 
ENDROOT
BRANCH   1   2
ATOM      2  C   UNL A   1      33.114  28.893  26.244  1.00  0.00     0.118 C 
BRANCH   2   3
ATOM      3  N   UNL A   1      32.929  30.323  26.452  1.00  0.00    -0.352 N 
ATOM      4  O   UNL A   1      33.174  32.370  27.330  1.00  0.00    -0.269 OA
ATOM      5  C   UNL A   1      33.628  31.234  27.209  1.00  0.00     0.251 C 
ATOM      6  H   UNL A   1      32.164  30.706  25.964  1.00  0.00     0.163 HD
BRANCH   5   7
ATOM      7  C   UNL A   1      34.894  30.873  27.893  1.00  0.00     0.039 A 
ATOM      8  C   UNL A   1      35.969  31.758  27.965  1.00  0.00     0.014 A 
ATOM      9  C   UNL A   1      34.989  29.628  28.529  1.00  0.00     0.014 A 
ATOM     10  C   UNL A   1      37.181  31.342  28.509  1.00  0.00     0.010 A 
ATOM     11  C   UNL A   1      36.177  29.250  29.167  1.00  0.00     0.010 A 
ATOM     12  C   UNL A   1      37.299  30.090  29.129  1.00  0.00    -0.014 A 
BRANCH  12  13
ATOM     13  C   UNL A   1      38.592  29.711  29.763  1.00  0.00     0.031 A 
ATOM     14  C   UNL A   1      38.987  30.254  31.111  1.00  0.00     0.074 A 
ATOM     15  C   UNL A   1      39.396  28.835  29.128  1.00  0.00     0.049 A 
ATOM     16  N   UNL A   1      40.057  30.000  31.822  1.00  0.00    -0.248 NA
ATOM     17  C   UNL A   1      38.068  31.216  31.737  1.00  0.00     0.031 C 
ATOM     18  C   UNL A   1      39.131  28.255  27.808  1.00  0.00     0.029 A 
ATOM     19  N   UNL A   1      40.580  28.257  29.510  1.00  0.00    -0.354 N 
ATOM     20  C   UNL A   1      39.953  30.782  32.967  1.00  0.00     0.074 A 
ATOM     21  C   UNL A   1      38.727  31.543  32.840  1.00  0.00     0.031 C 
ATOM     22  C   UNL A   1      40.092  27.368  27.515  1.00  0.00     0.029 A 
ATOM     23  C   UNL A   1      41.075  27.358  28.593  1.00  0.00     0.049 A 
ATOM     24  H   UNL A   1      41.033  28.465  30.359  1.00  0.00     0.167 HD
ATOM     25  C   UNL A   1      40.796  30.851  34.029  1.00  0.00     0.034 A 
ATOM     26  C   UNL A   1      42.200  26.618  28.607  1.00  0.00     0.034 A 
ATOM     27  C   UNL A   1      42.007  30.075  34.150  1.00  0.00     0.049 A 
ATOM     28  C   UNL A   1      43.118  26.715  29.793  1.00  0.00     0.074 A 
ATOM     29  C   UNL A   1      42.910  30.040  35.199  1.00  0.00     0.029 A 
ATOM     30  N   UNL A   1      42.491  29.197  33.187  1.00  0.00    -0.354 N 
ATOM     31  N   UNL A   1      42.993  27.449  30.873  1.00  0.00    -0.248 NA
ATOM     32  C   UNL A   1      44.327  25.883  29.761  1.00  0.00     0.031 C 
ATOM     33  C   UNL A   1      43.966  29.190  34.847  1.00  0.00     0.029 A 
ATOM     34  C   UNL A   1      43.691  28.640  33.605  1.00  0.00     0.049 A 
ATOM     35  H   UNL A   1      42.047  29.000  32.331  1.00  0.00     0.167 HD
ATOM     36  C   UNL A   1      44.106  27.161  31.655  1.00  0.00     0.074 A 
ATOM     37  C   UNL A   1      44.875  26.168  30.933  1.00  0.00     0.031 C 
ATOM     38  C   UNL A   1      44.461  27.672  32.861  1.00  0.00     0.034 A 
BRANCH  25  39
ATOM     39  C   UNL A   1      40.455  31.833  35.125  1.00  0.00     0.023 A 
ATOM     40  C   UNL A   1      39.452  31.571  36.072  1.00  0.00     0.031 A 
ATOM     41  C   UNL A   1      41.138  33.060  35.211  1.00  0.00     0.131 A 
ATOM     42  C   UNL A   1      39.115  32.546  37.024  1.00  0.00     0.055 A 
ATOM     43  C   UNL A   1      40.847  33.998  36.204  1.00  0.00     0.041 A 
ATOM     44  F   UNL A   1      42.093  33.374  34.322  1.00  0.00    -0.206 F 
ATOM     45  C   UNL A   1      39.821  33.749  37.111  1.00  0.00     0.022 A 
BRANCH  42  46
ATOM     46  S   UNL A   1      37.656  32.275  38.068  1.00  0.00     0.124 S 
ATOM     47  O   UNL A   1      38.147  32.695  39.378  1.00  0.00    -0.237 OA
ATOM     48  O   UNL A   1      36.661  33.143  37.449  1.00  0.00    -0.237 OA
ATOM     49  O   UNL A   1      37.402  30.841  37.936  1.00  0.00    -0.744 OA
ENDBRANCH  42  46
ENDBRANCH  25  39
BRANCH  26  50
ATOM     50  C   UNL A   1      42.533  25.748  27.445  1.00  0.00     0.023 A 
ATOM     51  C   UNL A   1      42.114  24.410  27.394  1.00  0.00     0.031 A 
ATOM     52  C   UNL A   1      43.288  26.248  26.369  1.00  0.00     0.131 A 
ATOM     53  C   UNL A   1      42.478  23.607  26.302  1.00  0.00     0.055 A 
ATOM     54  C   UNL A   1      43.609  25.460  25.265  1.00  0.00     0.041 A 
ATOM     55  F   UNL A   1      43.704  27.525  26.368  1.00  0.00    -0.206 F 
ATOM     56  C   UNL A   1      43.212  24.128  25.231  1.00  0.00     0.022 A 
BRANCH  53  57
ATOM     57  S   UNL A   1      42.029  21.851  26.325  1.00  0.00     0.124 S 
ATOM     58  O   UNL A   1      42.342  21.480  27.699  1.00  0.00    -0.237 OA
ATOM     59  O   UNL A   1      40.611  21.897  25.980  1.00  0.00    -0.237 OA
ATOM     60  O   UNL A   1      42.897  21.263  25.306  1.00  0.00    -0.744 OA
ENDBRANCH  53  57
ENDBRANCH  26  50
BRANCH  38  61
ATOM     61  C   UNL A   1      45.731  27.139  33.471  1.00  0.00     0.023 A 
ATOM     62  C   UNL A   1      45.726  26.013  34.313  1.00  0.00     0.031 A 
ATOM     63  C   UNL A   1      46.956  27.786  33.234  1.00  0.00     0.131 A 
ATOM     64  C   UNL A   1      46.915  25.602  34.934  1.00  0.00     0.055 A 
ATOM     65  C   UNL A   1      48.145  27.340  33.813  1.00  0.00     0.041 A 
ATOM     66  F   UNL A   1      47.015  28.868  32.440  1.00  0.00    -0.206 F 
ATOM     67  C   UNL A   1      48.126  26.250  34.679  1.00  0.00     0.022 A 
BRANCH  64  68
ATOM     68  S   UNL A   1      46.841  24.260  36.152  1.00  0.00     0.124 S 
ATOM     69  O   UNL A   1      45.862  23.358  35.552  1.00  0.00    -0.237 OA
ATOM     70  O   UNL A   1      48.219  23.780  36.174  1.00  0.00    -0.237 OA
ATOM     71  O   UNL A   1      46.399  24.929  37.374  1.00  0.00    -0.744 OA
ENDBRANCH  64  68
ENDBRANCH  38  61
ENDBRANCH  12  13
ENDBRANCH   5   7
ENDBRANCH   2   3
ENDBRANCH   1   2
BRANCH   1  72
ATOM     72  C   UNL A   1      33.374  28.999  23.691  1.00  0.00     0.118 C 
BRANCH  72  73
ATOM     73  N   UNL A   1      33.723  28.135  22.569  1.00  0.00    -0.352 N 
ATOM     74  C   UNL A   1      33.138  26.959  22.160  1.00  0.00     0.255 C 
ATOM     75  H   UNL A   1      34.489  28.435  22.027  1.00  0.00     0.163 HD
ATOM     76  O   UNL A   1      33.577  26.348  21.189  1.00  0.00    -0.269 OA
BRANCH  74  77
ATOM     77  C   UNL A   1      32.065  26.346  22.971  1.00  0.00     0.087 A 
ATOM     78  C   UNL A   1      32.444  25.256  23.761  1.00  0.00     0.040 A 
ATOM     79  C   UNL A   1      30.779  26.878  23.069  1.00  0.00     0.174 A 
ATOM     80  C   UNL A   1      31.609  24.812  24.782  1.00  0.00     0.092 A 
ATOM     81  C   UNL A   1      29.903  26.360  24.029  1.00  0.00     0.163 A 
ATOM     82  O   UNL A   1      30.429  27.909  22.233  1.00  0.00    -0.485 OA
ATOM     83  C   UNL A   1      30.325  25.359  24.907  1.00  0.00     0.072 A 
ATOM     84  O   UNL A   1      28.630  26.835  24.216  1.00  0.00    -0.486 OA
ATOM     85  C   UNL A   1      29.328  28.653  22.761  1.00  0.00     0.271 C 
ATOM     86  C   UNL A   1      28.212  27.704  23.158  1.00  0.00     0.271 C 
BRANCH  80  87
ATOM     87  S   UNL A   1      32.141  23.693  26.065  1.00  0.00     0.262 S 
ATOM     88  O   UNL A   1      31.373  24.030  27.242  1.00  0.00    -0.201 OA
ATOM     89  O   UNL A   1      32.088  22.367  25.485  1.00  0.00    -0.201 OA
BRANCH  87  90
ATOM     90  N   UNL A   1      33.757  23.957  26.392  1.00  0.00    -0.277 N 
ATOM     91  H   UNL A   1      33.972  24.636  27.071  1.00  0.00     0.180 HD
BRANCH  90  92
ATOM     92  C   UNL A   1      34.856  23.288  25.776  1.00  0.00     0.087 A 
ATOM     93  C   UNL A   1      35.518  23.750  24.640  1.00  0.00     0.069 A 
ATOM     94  C   UNL A   1      35.200  22.033  26.304  1.00  0.00     0.147 A 
ATOM     95  C   UNL A   1      36.405  22.897  23.983  1.00  0.00     0.125 A 
ATOM     96  C   UNL A   1      36.101  21.195  25.657  1.00  0.00     0.044 A 
ATOM     97  F   UNL A   1      34.583  21.593  27.413  1.00  0.00    -0.205 F 
ATOM     98  F   UNL A   1      36.955  23.288  22.826  1.00  0.00    -0.207 F 
ATOM     99  C   UNL A   1      36.687  21.622  24.470  1.00  0.00     0.042 A 
ENDBRANCH  90  92
ENDBRANCH  87  90
ENDBRANCH  80  87
ENDBRANCH  74  77
ENDBRANCH  72  73
ENDBRANCH   1  72
TORSDOF 16
ENDMDL
MODEL 3
REMARK VINA RESULT:     -12.8      2.691      7.974
REMARK SMILES O=C(NCCCNC(=O)c1cc(S(=O)(=O)Nc2cc(F)ccc2F)cc2c1OCCO2)c1ccc(-c2c3nc(c(-c4cc(S(=O)(=O)[O-])ccc4F)c4ccc([nH]4)c(-c4cc(S(=O)(=O)[O-])ccc4F)c4nc(c(-c5cc(S(=O)(=O)[O-])ccc5F)c5ccc2[nH]5)C=C4)C=C3)cc1
REMARK SMILES IDX 5 1 4 2 3 3 1 4 2 5 32 7 33 8 94 9 34 10 93 11 35 12 36 13
REMARK SMILES IDX 37 14 87 15 38 16 92 17 86 18 88 19 39 20 91 21 85 22 84 23
REMARK SMILES IDX 40 25 72 26 52 27 71 28 53 29 56 30 70 31 89 32 54 33 55 34
REMARK SMILES IDX 69 36 90 37 57 38 41 39 42 40 50 41 43 42 49 43 51 44 48 45
REMARK SMILES IDX 44 46 45 47 46 48 47 49 73 50 74 51 82 52 75 53 81 54 83 55
REMARK SMILES IDX 80 56 76 57 77 58 78 59 79 60 58 61 59 62 67 63 60 64 66 65
REMARK SMILES IDX 68 66 65 67 61 68 62 69 63 70 64 71 6 72 7 73 8 74 9 76
REMARK SMILES IDX 10 77 11 78 27 79 12 80 26 81 28 82 25 83 31 84 29 85 30 86
REMARK SMILES IDX 13 87 14 88 15 89 16 90 17 92 18 93 23 94 19 95 22 96 24 97
REMARK SMILES IDX 20 98 21 99
REMARK H PARENT 3 6 88 24 56 35 7 75 16 91
REMARK Flexibility Score: inf
ROOT
ATOM      1  C   UNL A   1      34.035  28.101  25.676  1.00  0.00     0.042 C 
ENDROOT
BRANCH   1   2
ATOM      2  C   UNL A   1      33.400  28.546  26.985  1.00  0.00     0.118 C 
BRANCH   2   3
ATOM      3  N   UNL A   1      33.340  29.994  27.138  1.00  0.00    -0.352 N 
ATOM      4  O   UNL A   1      33.844  32.056  27.856  1.00  0.00    -0.269 OA
ATOM      5  C   UNL A   1      34.201  30.886  27.733  1.00  0.00     0.251 C 
ATOM      6  H   UNL A   1      32.538  30.408  26.746  1.00  0.00     0.163 HD
BRANCH   5   7
ATOM      7  C   UNL A   1      35.529  30.467  28.245  1.00  0.00     0.039 A 
ATOM      8  C   UNL A   1      36.712  30.823  27.598  1.00  0.00     0.014 A 
ATOM      9  C   UNL A   1      35.596  29.737  29.439  1.00  0.00     0.014 A 
ATOM     10  C   UNL A   1      37.930  30.313  28.038  1.00  0.00     0.010 A 
ATOM     11  C   UNL A   1      36.833  29.311  29.938  1.00  0.00     0.010 A 
ATOM     12  C   UNL A   1      38.011  29.561  29.220  1.00  0.00    -0.014 A 
BRANCH  12  13
ATOM     13  C   UNL A   1      39.342  29.095  29.695  1.00  0.00     0.031 A 
ATOM     14  C   UNL A   1      40.013  29.734  30.882  1.00  0.00     0.074 A 
ATOM     15  C   UNL A   1      39.927  28.054  29.071  1.00  0.00     0.049 A 
ATOM     16  N   UNL A   1      41.153  29.427  31.450  1.00  0.00    -0.248 NA
ATOM     17  C   UNL A   1      39.323  30.873  31.505  1.00  0.00     0.031 C 
ATOM     18  C   UNL A   1      39.384  27.364  27.897  1.00  0.00     0.029 A 
ATOM     19  N   UNL A   1      41.089  27.375  29.343  1.00  0.00    -0.354 N 
ATOM     20  C   UNL A   1      41.328  30.343  32.482  1.00  0.00     0.074 A 
ATOM     21  C   UNL A   1      40.188  31.237  32.440  1.00  0.00     0.031 C 
ATOM     22  C   UNL A   1      40.180  26.332  27.584  1.00  0.00     0.029 A 
ATOM     23  C   UNL A   1      41.322  26.320  28.492  1.00  0.00     0.049 A 
ATOM     24  H   UNL A   1      41.697  27.620  30.077  1.00  0.00     0.167 HD
ATOM     25  C   UNL A   1      42.338  30.425  33.384  1.00  0.00     0.034 A 
ATOM     26  C   UNL A   1      42.346  25.447  28.434  1.00  0.00     0.034 A 
ATOM     27  C   UNL A   1      43.460  29.518  33.423  1.00  0.00     0.049 A 
ATOM     28  C   UNL A   1      43.454  25.561  29.443  1.00  0.00     0.074 A 
ATOM     29  C   UNL A   1      44.517  29.488  34.319  1.00  0.00     0.029 A 
ATOM     30  N   UNL A   1      43.678  28.479  32.526  1.00  0.00    -0.354 N 
ATOM     31  N   UNL A   1      43.592  26.425  30.421  1.00  0.00    -0.248 NA
ATOM     32  C   UNL A   1      44.542  24.581  29.340  1.00  0.00     0.031 C 
ATOM     33  C   UNL A   1      45.399  28.473  33.928  1.00  0.00     0.029 A 
ATOM     34  C   UNL A   1      44.863  27.824  32.828  1.00  0.00     0.049 A 
ATOM     35  H   UNL A   1      43.078  28.243  31.782  1.00  0.00     0.167 HD
ATOM     36  C   UNL A   1      44.782  26.087  31.056  1.00  0.00     0.074 A 
ATOM     37  C   UNL A   1      45.306  24.926  30.366  1.00  0.00     0.031 C 
ATOM     38  C   UNL A   1      45.387  26.684  32.114  1.00  0.00     0.034 A 
BRANCH  25  39
ATOM     39  C   UNL A   1      42.295  31.563  34.376  1.00  0.00     0.023 A 
ATOM     40  C   UNL A   1      41.432  31.551  35.485  1.00  0.00     0.031 A 
ATOM     41  C   UNL A   1      43.122  32.687  34.197  1.00  0.00     0.131 A 
ATOM     42  C   UNL A   1      41.369  32.665  36.336  1.00  0.00     0.055 A 
ATOM     43  C   UNL A   1      43.105  33.764  35.088  1.00  0.00     0.041 A 
ATOM     44  F   UNL A   1      43.952  32.765  33.146  1.00  0.00    -0.206 F 
ATOM     45  C   UNL A   1      42.216  33.762  36.159  1.00  0.00     0.022 A 
BRANCH  42  46
ATOM     46  S   UNL A   1      40.074  32.716  37.606  1.00  0.00     0.124 S 
ATOM     47  O   UNL A   1      40.839  32.438  38.819  1.00  0.00    -0.237 OA
ATOM     48  O   UNL A   1      39.557  34.073  37.473  1.00  0.00    -0.237 OA
ATOM     49  O   UNL A   1      39.154  31.655  37.201  1.00  0.00    -0.744 OA
ENDBRANCH  42  46
ENDBRANCH  25  39
BRANCH  26  50
ATOM     50  C   UNL A   1      42.383  24.413  27.363  1.00  0.00     0.023 A 
ATOM     51  C   UNL A   1      41.619  23.239  27.459  1.00  0.00     0.031 A 
ATOM     52  C   UNL A   1      43.197  24.584  26.229  1.00  0.00     0.131 A 
ATOM     53  C   UNL A   1      41.708  22.267  26.449  1.00  0.00     0.055 A 
ATOM     54  C   UNL A   1      43.246  23.637  25.208  1.00  0.00     0.041 A 
ATOM     55  F   UNL A   1      43.939  25.695  26.089  1.00  0.00    -0.206 F 
ATOM     56  C   UNL A   1      42.506  22.465  25.319  1.00  0.00     0.022 A 
BRANCH  53  57
ATOM     57  S   UNL A   1      40.806  20.708  26.662  1.00  0.00     0.124 S 
ATOM     58  O   UNL A   1      39.510  21.031  26.078  1.00  0.00    -0.237 OA
ATOM     59  O   UNL A   1      41.636  19.774  25.906  1.00  0.00    -0.237 OA
ATOM     60  O   UNL A   1      40.808  20.509  28.110  1.00  0.00    -0.744 OA
ENDBRANCH  53  57
ENDBRANCH  26  50
BRANCH  38  61
ATOM     61  C   UNL A   1      46.675  26.066  32.590  1.00  0.00     0.023 A 
ATOM     62  C   UNL A   1      46.688  25.055  33.568  1.00  0.00     0.031 A 
ATOM     63  C   UNL A   1      47.907  26.516  32.084  1.00  0.00     0.131 A 
ATOM     64  C   UNL A   1      47.911  24.568  34.051  1.00  0.00     0.055 A 
ATOM     65  C   UNL A   1      49.119  25.989  32.532  1.00  0.00     0.041 A 
ATOM     66  F   UNL A   1      47.950  27.481  31.152  1.00  0.00    -0.206 F 
ATOM     67  C   UNL A   1      49.126  25.019  33.530  1.00  0.00     0.022 A 
BRANCH  64  68
ATOM     68  S   UNL A   1      47.895  23.398  35.437  1.00  0.00     0.124 S 
ATOM     69  O   UNL A   1      48.838  22.379  34.986  1.00  0.00    -0.237 OA
ATOM     70  O   UNL A   1      48.340  24.227  36.552  1.00  0.00    -0.237 OA
ATOM     71  O   UNL A   1      46.501  22.964  35.505  1.00  0.00    -0.744 OA
ENDBRANCH  64  68
ENDBRANCH  38  61
ENDBRANCH  12  13
ENDBRANCH   5   7
ENDBRANCH   2   3
ENDBRANCH   1   2
BRANCH   1  72
ATOM     72  C   UNL A   1      33.603  28.885  24.447  1.00  0.00     0.118 C 
BRANCH  72  73
ATOM     73  N   UNL A   1      33.887  28.222  23.180  1.00  0.00    -0.352 N 
ATOM     74  C   UNL A   1      33.086  27.387  22.435  1.00  0.00     0.255 C 
ATOM     75  H   UNL A   1      34.780  28.394  22.804  1.00  0.00     0.163 HD
ATOM     76  O   UNL A   1      33.498  26.900  21.386  1.00  0.00    -0.269 OA
BRANCH  74  77
ATOM     77  C   UNL A   1      31.775  26.955  22.964  1.00  0.00     0.087 A 
ATOM     78  C   UNL A   1      31.788  25.810  23.767  1.00  0.00     0.040 A 
ATOM     79  C   UNL A   1      30.602  27.693  22.801  1.00  0.00     0.174 A 
ATOM     80  C   UNL A   1      30.685  25.503  24.559  1.00  0.00     0.092 A 
ATOM     81  C   UNL A   1      29.462  27.321  23.522  1.00  0.00     0.163 A 
ATOM     82  O   UNL A   1      30.619  28.775  21.956  1.00  0.00    -0.485 OA
ATOM     83  C   UNL A   1      29.511  26.255  24.425  1.00  0.00     0.072 A 
ATOM     84  O   UNL A   1      28.273  27.999  23.448  1.00  0.00    -0.486 OA
ATOM     85  C   UNL A   1      29.562  29.687  22.264  1.00  0.00     0.271 C 
ATOM     86  C   UNL A   1      28.247  28.935  22.364  1.00  0.00     0.271 C 
BRANCH  80  87
ATOM     87  S   UNL A   1      30.731  24.301  25.876  1.00  0.00     0.262 S 
ATOM     88  O   UNL A   1      29.625  24.615  26.751  1.00  0.00    -0.201 OA
ATOM     89  O   UNL A   1      30.838  23.008  25.232  1.00  0.00    -0.201 OA
BRANCH  87  90
ATOM     90  N   UNL A   1      32.153  24.475  26.733  1.00  0.00    -0.277 N 
ATOM     91  H   UNL A   1      32.162  25.143  27.456  1.00  0.00     0.180 HD
BRANCH  90  92
ATOM     92  C   UNL A   1      33.357  23.743  26.514  1.00  0.00     0.087 A 
ATOM     93  C   UNL A   1      34.275  24.028  25.504  1.00  0.00     0.069 A 
ATOM     94  C   UNL A   1      33.552  22.604  27.312  1.00  0.00     0.147 A 
ATOM     95  C   UNL A   1      35.281  23.102  25.227  1.00  0.00     0.125 A 
ATOM     96  C   UNL A   1      34.569  21.695  27.045  1.00  0.00     0.044 A 
ATOM     97  F   UNL A   1      32.685  22.338  28.303  1.00  0.00    -0.205 F 
ATOM     98  F   UNL A   1      36.093  23.310  24.182  1.00  0.00    -0.207 F 
ATOM     99  C   UNL A   1      35.424  21.934  25.974  1.00  0.00     0.042 A 
ENDBRANCH  90  92
ENDBRANCH  87  90
ENDBRANCH  80  87
ENDBRANCH  74  77
ENDBRANCH  72  73
ENDBRANCH   1  72
TORSDOF 16
ENDMDL
