MODEL 1
REMARK VINA RESULT:     -13.2      0.000      0.000
REMARK SMILES O=C(NCCCNC(=O)[C@@]1(Cc2ccnc3ccccc23)CCC[NH2+]C1)c1ccc(-c2c3nc(c(-c4cc(S(=O)(=O)[O-])ccc4F)c4ccc([nH]4)c(-c4cc(S(=O)(=O)[O-])ccc4F)c4nc(c(-c5cc(S(=O)(=O)[O-])ccc5F)c5ccc2[nH]5)C=C4)C=C3)cc1
REMARK SMILES IDX 4 1 3 2 1 3 2 4 27 6 28 7 89 8 29 9 88 10 30 11 31 12 32 13
REMARK SMILES IDX 82 14 33 15 87 16 81 17 83 18 34 19 86 20 80 21 79 22 35 24
REMARK SMILES IDX 67 25 47 26 66 27 48 28 51 29 65 30 84 31 49 32 50 33 64 35
REMARK SMILES IDX 85 36 52 37 36 38 37 39 45 40 38 41 44 42 46 43 43 44 39 45
REMARK SMILES IDX 40 46 41 47 42 48 68 49 69 50 77 51 70 52 76 53 78 54 75 55
REMARK SMILES IDX 71 56 72 57 73 58 74 59 53 60 54 61 62 62 55 63 61 64 63 65
REMARK SMILES IDX 60 66 56 67 57 68 58 69 59 70 5 71 6 72 7 73 8 74 9 76 10 77
REMARK SMILES IDX 22 78 26 79 23 80 25 81 24 82 11 85 12 86 13 87 21 88 14 89
REMARK SMILES IDX 16 90 20 91 15 92 17 93 19 94 18 95
REMARK H PARENT 3 5 83 23 51 34 7 75 25 83 25 84
REMARK Flexibility Score: inf
ROOT
ATOM      1  C   UNL A   1      33.650  28.965  25.005  1.00  0.00     0.118 C 
ENDROOT
BRANCH   1   2
ATOM      2  N   UNL A   1      32.937  30.141  25.503  1.00  0.00    -0.352 N 
ATOM      3  O   UNL A   1      32.215  31.587  27.070  1.00  0.00    -0.269 OA
ATOM      4  C   UNL A   1      33.099  30.838  26.679  1.00  0.00     0.251 C 
ATOM      5  H   UNL A   1      32.234  30.487  24.907  1.00  0.00     0.163 HD
BRANCH   4   6
ATOM      6  C   UNL A   1      34.350  30.678  27.447  1.00  0.00     0.039 A 
ATOM      7  C   UNL A   1      34.677  29.428  27.966  1.00  0.00     0.014 A 
ATOM      8  C   UNL A   1      35.216  31.761  27.626  1.00  0.00     0.014 A 
ATOM      9  C   UNL A   1      35.758  29.299  28.816  1.00  0.00     0.010 A 
ATOM     10  C   UNL A   1      36.392  31.591  28.363  1.00  0.00     0.010 A 
ATOM     11  C   UNL A   1      36.662  30.360  28.981  1.00  0.00    -0.014 A 
BRANCH  11  12
ATOM     12  C   UNL A   1      37.917  30.079  29.722  1.00  0.00     0.031 A 
ATOM     13  C   UNL A   1      38.126  30.559  31.127  1.00  0.00     0.074 A 
ATOM     14  C   UNL A   1      38.827  29.284  29.121  1.00  0.00     0.049 A 
ATOM     15  N   UNL A   1      39.128  30.320  31.932  1.00  0.00    -0.248 NA
ATOM     16  C   UNL A   1      37.086  31.424  31.704  1.00  0.00     0.031 C 
ATOM     17  C   UNL A   1      38.717  28.776  27.746  1.00  0.00     0.029 A 
ATOM     18  N   UNL A   1      39.982  28.714  29.585  1.00  0.00    -0.354 N 
ATOM     19  C   UNL A   1      38.852  31.011  33.106  1.00  0.00     0.074 A 
ATOM     20  C   UNL A   1      37.600  31.708  32.893  1.00  0.00     0.031 C 
ATOM     21  C   UNL A   1      39.704  27.903  27.516  1.00  0.00     0.029 A 
ATOM     22  C   UNL A   1      40.578  27.867  28.679  1.00  0.00     0.049 A 
ATOM     23  H   UNL A   1      40.351  28.894  30.479  1.00  0.00     0.167 HD
ATOM     24  C   UNL A   1      39.574  31.048  34.253  1.00  0.00     0.034 A 
ATOM     25  C   UNL A   1      41.718  27.155  28.761  1.00  0.00     0.034 A 
ATOM     26  C   UNL A   1      40.824  30.343  34.434  1.00  0.00     0.049 A 
ATOM     27  C   UNL A   1      42.505  27.236  30.037  1.00  0.00     0.074 A 
ATOM     28  C   UNL A   1      41.648  30.318  35.546  1.00  0.00     0.029 A 
ATOM     29  N   UNL A   1      41.430  29.536  33.477  1.00  0.00    -0.354 N 
ATOM     30  N   UNL A   1      42.231  27.905  31.134  1.00  0.00    -0.248 NA
ATOM     31  C   UNL A   1      43.753  26.469  30.089  1.00  0.00     0.031 C 
ATOM     32  C   UNL A   1      42.777  29.549  35.241  1.00  0.00     0.029 A 
ATOM     33  C   UNL A   1      42.625  29.029  33.965  1.00  0.00     0.049 A 
ATOM     34  H   UNL A   1      41.064  29.352  32.582  1.00  0.00     0.167 HD
ATOM     35  C   UNL A   1      43.276  27.636  32.009  1.00  0.00     0.074 A 
ATOM     36  C   UNL A   1      44.155  26.706  31.328  1.00  0.00     0.031 C 
ATOM     37  C   UNL A   1      43.501  28.124  33.256  1.00  0.00     0.034 A 
BRANCH  24  38
ATOM     38  C   UNL A   1      39.054  31.908  35.380  1.00  0.00     0.023 A 
ATOM     39  C   UNL A   1      38.459  31.348  36.524  1.00  0.00     0.031 A 
ATOM     40  C   UNL A   1      39.148  33.309  35.308  1.00  0.00     0.131 A 
ATOM     41  C   UNL A   1      37.933  32.185  37.523  1.00  0.00     0.055 A 
ATOM     42  C   UNL A   1      38.689  34.134  36.337  1.00  0.00     0.041 A 
ATOM     43  F   UNL A   1      39.686  33.903  34.230  1.00  0.00    -0.206 F 
ATOM     44  C   UNL A   1      38.068  33.573  37.449  1.00  0.00     0.022 A 
BRANCH  41  45
ATOM     45  S   UNL A   1      36.967  31.437  38.863  1.00  0.00     0.124 S 
ATOM     46  O   UNL A   1      35.776  32.284  38.878  1.00  0.00    -0.237 OA
ATOM     47  O   UNL A   1      36.773  30.071  38.391  1.00  0.00    -0.237 OA
ATOM     48  O   UNL A   1      37.836  31.576  40.030  1.00  0.00    -0.744 OA
ENDBRANCH  41  45
ENDBRANCH  24  38
BRANCH  25  49
ATOM     49  C   UNL A   1      42.202  26.366  27.591  1.00  0.00     0.023 A 
ATOM     50  C   UNL A   1      41.835  25.025  27.408  1.00  0.00     0.031 A 
ATOM     51  C   UNL A   1      43.082  26.940  26.652  1.00  0.00     0.131 A 
ATOM     52  C   UNL A   1      42.381  24.290  26.345  1.00  0.00     0.055 A 
ATOM     53  C   UNL A   1      43.567  26.226  25.557  1.00  0.00     0.041 A 
ATOM     54  F   UNL A   1      43.468  28.219  26.777  1.00  0.00    -0.206 F 
ATOM     55  C   UNL A   1      43.230  24.886  25.408  1.00  0.00     0.022 A 
BRANCH  52  56
ATOM     56  S   UNL A   1      42.055  22.508  26.264  1.00  0.00     0.124 S 
ATOM     57  O   UNL A   1      42.687  22.145  25.001  1.00  0.00    -0.237 OA
ATOM     58  O   UNL A   1      42.714  22.026  27.473  1.00  0.00    -0.237 OA
ATOM     59  O   UNL A   1      40.596  22.428  26.278  1.00  0.00    -0.744 OA
ENDBRANCH  52  56
ENDBRANCH  25  49
BRANCH  37  60
ATOM     60  C   UNL A   1      44.747  27.631  33.949  1.00  0.00     0.023 A 
ATOM     61  C   UNL A   1      44.733  26.465  34.735  1.00  0.00     0.031 A 
ATOM     62  C   UNL A   1      45.941  28.368  33.875  1.00  0.00     0.131 A 
ATOM     63  C   UNL A   1      45.865  26.115  35.482  1.00  0.00     0.055 A 
ATOM     64  C   UNL A   1      47.088  27.972  34.565  1.00  0.00     0.041 A 
ATOM     65  F   UNL A   1      46.009  29.490  33.143  1.00  0.00    -0.206 F 
ATOM     66  C   UNL A   1      47.048  26.851  35.390  1.00  0.00     0.022 A 
BRANCH  63  67
ATOM     67  S   UNL A   1      45.728  24.759  36.679  1.00  0.00     0.124 S 
ATOM     68  O   UNL A   1      44.317  24.400  36.569  1.00  0.00    -0.237 OA
ATOM     69  O   UNL A   1      46.676  23.782  36.153  1.00  0.00    -0.237 OA
ATOM     70  O   UNL A   1      46.113  25.378  37.945  1.00  0.00    -0.744 OA
ENDBRANCH  63  67
ENDBRANCH  37  60
ENDBRANCH  11  12
ENDBRANCH   4   6
ENDBRANCH   1   2
BRANCH   1  71
ATOM     71  C   UNL A   1      33.651  28.926  23.480  1.00  0.00     0.042 C 
BRANCH  71  72
ATOM     72  C   UNL A   1      32.344  28.340  22.958  1.00  0.00     0.117 C 
BRANCH  72  73
ATOM     73  N   UNL A   1      32.614  27.321  21.963  1.00  0.00    -0.355 N 
ATOM     74  C   UNL A   1      32.860  25.992  21.989  1.00  0.00     0.232 C 
ATOM     75  H   UNL A   1      32.617  27.684  21.047  1.00  0.00     0.163 HD
ATOM     76  O   UNL A   1      33.278  25.559  20.903  1.00  0.00    -0.274 OA
BRANCH  74  77
ATOM     77  C   UNL A   1      32.497  24.997  23.126  1.00  0.00     0.102 C 
ATOM     78  C   UNL A   1      33.014  25.316  24.547  1.00  0.00     0.029 C 
ATOM     79  C   UNL A   1      30.946  25.068  23.130  1.00  0.00     0.277 C 
ATOM     80  C   UNL A   1      32.237  24.652  25.692  1.00  0.00     0.063 C 
ATOM     81  N   UNL A   1      30.278  24.362  24.216  1.00  0.00    -0.345 N 
ATOM     82  C   UNL A   1      30.729  24.790  25.530  1.00  0.00     0.260 C 
ATOM     83  H   UNL A   1      29.275  24.529  24.146  1.00  0.00     0.346 HD
ATOM     84  H   UNL A   1      30.505  23.371  24.123  1.00  0.00     0.346 HD
BRANCH  77  85
ATOM     85  C   UNL A   1      33.087  23.615  22.605  1.00  0.00     0.059 C 
BRANCH  85  86
ATOM     86  C   UNL A   1      33.352  22.503  23.601  1.00  0.00    -0.036 A 
ATOM     87  C   UNL A   1      32.307  21.621  23.912  1.00  0.00     0.024 A 
ATOM     88  C   UNL A   1      34.644  22.236  24.116  1.00  0.00     0.003 A 
ATOM     89  C   UNL A   1      32.609  20.455  24.588  1.00  0.00     0.112 A 
ATOM     90  C   UNL A   1      34.857  20.970  24.701  1.00  0.00     0.070 A 
ATOM     91  C   UNL A   1      35.733  23.137  24.028  1.00  0.00     0.010 A 
ATOM     92  N   UNL A   1      33.861  20.099  24.944  1.00  0.00    -0.256 NA
ATOM     93  C   UNL A   1      36.158  20.591  25.000  1.00  0.00     0.029 A 
ATOM     94  C   UNL A   1      37.025  22.743  24.364  1.00  0.00     0.001 A 
ATOM     95  C   UNL A   1      37.245  21.451  24.813  1.00  0.00     0.002 A 
ENDBRANCH  85  86
ENDBRANCH  77  85
ENDBRANCH  74  77
ENDBRANCH  72  73
ENDBRANCH  71  72
ENDBRANCH   1  71
TORSDOF 15
ENDMDL
MODEL 2
REMARK VINA RESULT:     -13.1      5.031     10.129
REMARK SMILES O=C(NCCCNC(=O)[C@@]1(Cc2ccnc3ccccc23)CCC[NH2+]C1)c1ccc(-c2c3nc(c(-c4cc(S(=O)(=O)[O-])ccc4F)c4ccc([nH]4)c(-c4cc(S(=O)(=O)[O-])ccc4F)c4nc(c(-c5cc(S(=O)(=O)[O-])ccc5F)c5ccc2[nH]5)C=C4)C=C3)cc1
REMARK SMILES IDX 4 1 3 2 1 3 2 4 27 6 28 7 89 8 29 9 88 10 30 11 31 12 32 13
REMARK SMILES IDX 82 14 33 15 87 16 81 17 83 18 34 19 86 20 80 21 79 22 35 24
REMARK SMILES IDX 67 25 47 26 66 27 48 28 51 29 65 30 84 31 49 32 50 33 64 35
REMARK SMILES IDX 85 36 52 37 36 38 37 39 45 40 38 41 44 42 46 43 43 44 39 45
REMARK SMILES IDX 40 46 41 47 42 48 68 49 69 50 77 51 70 52 76 53 78 54 75 55
REMARK SMILES IDX 71 56 72 57 73 58 74 59 53 60 54 61 62 62 55 63 61 64 63 65
REMARK SMILES IDX 60 66 56 67 57 68 58 69 59 70 5 71 6 72 7 73 8 74 9 76 10 77
REMARK SMILES IDX 22 78 26 79 23 80 25 81 24 82 11 85 12 86 13 87 21 88 14 89
REMARK SMILES IDX 16 90 20 91 15 92 17 93 19 94 18 95
REMARK H PARENT 3 5 83 23 51 34 7 75 25 83 25 84
REMARK Flexibility Score: inf
ROOT
ATOM      1  C   UNL A   1      35.721  22.743  26.341  1.00  0.00     0.118 C 
ENDROOT
BRANCH   1   2
ATOM      2  N   UNL A   1      36.571  21.599  26.010  1.00  0.00    -0.352 N 
ATOM      3  O   UNL A   1      38.413  20.577  25.217  1.00  0.00    -0.269 OA
ATOM      4  C   UNL A   1      37.928  21.544  25.787  1.00  0.00     0.251 C 
ATOM      5  H   UNL A   1      36.101  20.737  25.936  1.00  0.00     0.163 HD
BRANCH   4   6
ATOM      6  C   UNL A   1      38.782  22.653  26.255  1.00  0.00     0.039 A 
ATOM      7  C   UNL A   1      38.491  23.955  25.857  1.00  0.00     0.014 A 
ATOM      8  C   UNL A   1      39.856  22.405  27.117  1.00  0.00     0.014 A 
ATOM      9  C   UNL A   1      39.369  24.978  26.157  1.00  0.00     0.010 A 
ATOM     10  C   UNL A   1      40.659  23.470  27.544  1.00  0.00     0.010 A 
ATOM     11  C   UNL A   1      40.431  24.763  27.049  1.00  0.00    -0.014 A 
BRANCH  11  12
ATOM     12  C   UNL A   1      41.193  25.953  27.503  1.00  0.00     0.031 A 
ATOM     13  C   UNL A   1      42.575  26.243  26.998  1.00  0.00     0.074 A 
ATOM     14  C   UNL A   1      40.556  26.826  28.311  1.00  0.00     0.049 A 
ATOM     15  N   UNL A   1      43.330  27.284  27.234  1.00  0.00    -0.248 NA
ATOM     16  C   UNL A   1      43.196  25.236  26.125  1.00  0.00     0.031 C 
ATOM     17  C   UNL A   1      39.210  26.624  28.867  1.00  0.00     0.029 A 
ATOM     18  N   UNL A   1      40.909  28.069  28.763  1.00  0.00    -0.354 N 
ATOM     19  C   UNL A   1      44.520  27.058  26.551  1.00  0.00     0.074 A 
ATOM     20  C   UNL A   1      44.397  25.760  25.920  1.00  0.00     0.031 C 
ATOM     21  C   UNL A   1      38.820  27.736  29.498  1.00  0.00     0.029 A 
ATOM     22  C   UNL A   1      39.919  28.690  29.491  1.00  0.00     0.049 A 
ATOM     23  H   UNL A   1      41.786  28.479  28.586  1.00  0.00     0.167 HD
ATOM     24  C   UNL A   1      45.604  27.867  26.458  1.00  0.00     0.034 A 
ATOM     25  C   UNL A   1      39.902  29.886  30.108  1.00  0.00     0.034 A 
ATOM     26  C   UNL A   1      45.699  29.157  27.104  1.00  0.00     0.049 A 
ATOM     27  C   UNL A   1      41.129  30.748  30.002  1.00  0.00     0.074 A 
ATOM     28  C   UNL A   1      46.752  30.055  27.090  1.00  0.00     0.029 A 
ATOM     29  N   UNL A   1      44.700  29.734  27.881  1.00  0.00    -0.354 N 
ATOM     30  N   UNL A   1      42.250  30.510  29.359  1.00  0.00    -0.248 NA
ATOM     31  C   UNL A   1      41.090  32.034  30.703  1.00  0.00     0.031 C 
ATOM     32  C   UNL A   1      46.415  31.142  27.905  1.00  0.00     0.029 A 
ATOM     33  C   UNL A   1      45.121  30.963  28.367  1.00  0.00     0.049 A 
ATOM     34  H   UNL A   1      43.821  29.329  28.059  1.00  0.00     0.167 HD
ATOM     35  C   UNL A   1      43.051  31.623  29.579  1.00  0.00     0.074 A 
ATOM     36  C   UNL A   1      42.264  32.549  30.370  1.00  0.00     0.031 C 
ATOM     37  C   UNL A   1      44.327  31.857  29.179  1.00  0.00     0.034 A 
BRANCH  24  38
ATOM     38  C   UNL A   1      46.787  27.362  25.665  1.00  0.00     0.023 A 
ATOM     39  C   UNL A   1      47.048  27.809  24.358  1.00  0.00     0.031 A 
ATOM     40  C   UNL A   1      47.664  26.414  26.221  1.00  0.00     0.131 A 
ATOM     41  C   UNL A   1      48.123  27.270  23.633  1.00  0.00     0.055 A 
ATOM     42  C   UNL A   1      48.774  25.935  25.522  1.00  0.00     0.041 A 
ATOM     43  F   UNL A   1      47.455  25.931  27.457  1.00  0.00    -0.206 F 
ATOM     44  C   UNL A   1      49.003  26.356  24.216  1.00  0.00     0.022 A 
BRANCH  41  45
ATOM     45  S   UNL A   1      48.286  27.695  21.877  1.00  0.00     0.124 S 
ATOM     46  O   UNL A   1      49.436  28.597  21.897  1.00  0.00    -0.237 OA
ATOM     47  O   UNL A   1      48.506  26.394  21.255  1.00  0.00    -0.237 OA
ATOM     48  O   UNL A   1      47.009  28.331  21.558  1.00  0.00    -0.744 OA
ENDBRANCH  41  45
ENDBRANCH  24  38
BRANCH  25  49
ATOM     49  C   UNL A   1      38.722  30.303  30.918  1.00  0.00     0.023 A 
ATOM     50  C   UNL A   1      37.644  30.994  30.343  1.00  0.00     0.031 A 
ATOM     51  C   UNL A   1      38.674  30.046  32.302  1.00  0.00     0.131 A 
ATOM     52  C   UNL A   1      36.592  31.446  31.154  1.00  0.00     0.055 A 
ATOM     53  C   UNL A   1      37.593  30.437  33.092  1.00  0.00     0.041 A 
ATOM     54  F   UNL A   1      39.676  29.389  32.906  1.00  0.00    -0.206 F 
ATOM     55  C   UNL A   1      36.550  31.157  32.521  1.00  0.00     0.022 A 
BRANCH  52  56
ATOM     56  S   UNL A   1      35.329  32.519  30.418  1.00  0.00     0.124 S 
ATOM     57  O   UNL A   1      34.968  31.775  29.217  1.00  0.00    -0.237 OA
ATOM     58  O   UNL A   1      34.321  32.564  31.472  1.00  0.00    -0.237 OA
ATOM     59  O   UNL A   1      36.041  33.773  30.186  1.00  0.00    -0.744 OA
ENDBRANCH  52  56
ENDBRANCH  25  49
BRANCH  37  60
ATOM     60  C   UNL A   1      44.923  33.180  29.592  1.00  0.00     0.023 A 
ATOM     61  C   UNL A   1      44.809  34.319  28.774  1.00  0.00     0.031 A 
ATOM     62  C   UNL A   1      45.664  33.288  30.780  1.00  0.00     0.131 A 
ATOM     63  C   UNL A   1      45.495  35.492  29.113  1.00  0.00     0.055 A 
ATOM     64  C   UNL A   1      46.285  34.482  31.149  1.00  0.00     0.041 A 
ATOM     65  F   UNL A   1      45.808  32.232  31.595  1.00  0.00    -0.206 F 
ATOM     66  C   UNL A   1      46.220  35.587  30.304  1.00  0.00     0.022 A 
BRANCH  63  67
ATOM     67  S   UNL A   1      45.537  36.850  27.911  1.00  0.00     0.124 S 
ATOM     68  O   UNL A   1      46.959  37.180  27.878  1.00  0.00    -0.237 OA
ATOM     69  O   UNL A   1      45.002  36.218  26.709  1.00  0.00    -0.237 OA
ATOM     70  O   UNL A   1      44.678  37.868  28.512  1.00  0.00    -0.744 OA
ENDBRANCH  63  67
ENDBRANCH  37  60
ENDBRANCH  11  12
ENDBRANCH   4   6
ENDBRANCH   1   2
BRANCH   1  71
ATOM     71  C   UNL A   1      34.537  22.320  27.203  1.00  0.00     0.042 C 
BRANCH  71  72
ATOM     72  C   UNL A   1      33.418  21.753  26.336  1.00  0.00     0.117 C 
BRANCH  72  73
ATOM     73  N   UNL A   1      32.135  22.265  26.774  1.00  0.00    -0.355 N 
ATOM     74  C   UNL A   1      31.416  23.385  26.540  1.00  0.00     0.232 C 
ATOM     75  H   UNL A   1      31.676  21.648  27.390  1.00  0.00     0.163 HD
ATOM     76  O   UNL A   1      30.462  23.518  27.325  1.00  0.00    -0.274 OA
BRANCH  74  77
ATOM     77  C   UNL A   1      31.554  24.348  25.328  1.00  0.00     0.102 C 
ATOM     78  C   UNL A   1      32.969  24.863  24.982  1.00  0.00     0.029 C 
ATOM     79  C   UNL A   1      31.042  23.463  24.159  1.00  0.00     0.277 C 
ATOM     80  C   UNL A   1      33.154  25.350  23.538  1.00  0.00     0.063 C 
ATOM     81  N   UNL A   1      31.199  24.022  22.821  1.00  0.00    -0.345 N 
ATOM     82  C   UNL A   1      32.574  24.381  22.516  1.00  0.00     0.260 C 
ATOM     83  H   UNL A   1      30.885  23.332  22.140  1.00  0.00     0.346 HD
ATOM     84  H   UNL A   1      30.644  24.878  22.779  1.00  0.00     0.346 HD
BRANCH  77  85
ATOM     85  C   UNL A   1      30.589  25.554  25.706  1.00  0.00     0.059 C 
BRANCH  85  86
ATOM     86  C   UNL A   1      30.780  26.894  25.024  1.00  0.00    -0.036 A 
ATOM     87  C   UNL A   1      30.092  27.139  23.827  1.00  0.00     0.024 A 
ATOM     88  C   UNL A   1      31.507  27.953  25.621  1.00  0.00     0.003 A 
ATOM     89  C   UNL A   1      30.036  28.435  23.353  1.00  0.00     0.112 A 
ATOM     90  C   UNL A   1      31.293  29.251  25.110  1.00  0.00     0.070 A 
ATOM     91  C   UNL A   1      32.383  27.791  26.721  1.00  0.00     0.010 A 
ATOM     92  N   UNL A   1      30.582  29.490  23.994  1.00  0.00    -0.256 NA
ATOM     93  C   UNL A   1      31.805  30.331  25.816  1.00  0.00     0.029 A 
ATOM     94  C   UNL A   1      32.909  28.890  27.394  1.00  0.00     0.001 A 
ATOM     95  C   UNL A   1      32.585  30.166  26.964  1.00  0.00     0.002 A 
ENDBRANCH  85  86
ENDBRANCH  77  85
ENDBRANCH  74  77
ENDBRANCH  72  73
ENDBRANCH  71  72
ENDBRANCH   1  71
TORSDOF 15
ENDMDL
MODEL 3
REMARK VINA RESULT:     -12.8      0.564      7.543
REMARK SMILES O=C(NCCCNC(=O)[C@@]1(Cc2ccnc3ccccc23)CCC[NH2+]C1)c1ccc(-c2c3nc(c(-c4cc(S(=O)(=O)[O-])ccc4F)c4ccc([nH]4)c(-c4cc(S(=O)(=O)[O-])ccc4F)c4nc(c(-c5cc(S(=O)(=O)[O-])ccc5F)c5ccc2[nH]5)C=C4)C=C3)cc1
REMARK SMILES IDX 4 1 3 2 1 3 2 4 27 6 28 7 89 8 29 9 88 10 30 11 31 12 32 13
REMARK SMILES IDX 82 14 33 15 87 16 81 17 83 18 34 19 86 20 80 21 79 22 35 24
REMARK SMILES IDX 67 25 47 26 66 27 48 28 51 29 65 30 84 31 49 32 50 33 64 35
REMARK SMILES IDX 85 36 52 37 36 38 37 39 45 40 38 41 44 42 46 43 43 44 39 45
REMARK SMILES IDX 40 46 41 47 42 48 68 49 69 50 77 51 70 52 76 53 78 54 75 55
REMARK SMILES IDX 71 56 72 57 73 58 74 59 53 60 54 61 62 62 55 63 61 64 63 65
REMARK SMILES IDX 60 66 56 67 57 68 58 69 59 70 5 71 6 72 7 73 8 74 9 76 10 77
REMARK SMILES IDX 22 78 26 79 23 80 25 81 24 82 11 85 12 86 13 87 21 88 14 89
REMARK SMILES IDX 16 90 20 91 15 92 17 93 19 94 18 95
REMARK H PARENT 3 5 83 23 51 34 7 75 25 83 25 84
REMARK Flexibility Score: inf
ROOT
ATOM      1  C   UNL A   1      33.596  28.965  24.870  1.00  0.00     0.118 C 
ENDROOT
BRANCH   1   2
ATOM      2  N   UNL A   1      32.935  30.171  25.370  1.00  0.00    -0.352 N 
ATOM      3  O   UNL A   1      32.235  31.620  26.943  1.00  0.00    -0.269 OA
ATOM      4  C   UNL A   1      33.087  30.825  26.572  1.00  0.00     0.251 C 
ATOM      5  H   UNL A   1      32.284  30.577  24.754  1.00  0.00     0.163 HD
BRANCH   4   6
ATOM      6  C   UNL A   1      34.288  30.566  27.389  1.00  0.00     0.039 A 
ATOM      7  C   UNL A   1      34.488  29.296  27.926  1.00  0.00     0.014 A 
ATOM      8  C   UNL A   1      35.235  31.574  27.598  1.00  0.00     0.014 A 
ATOM      9  C   UNL A   1      35.520  29.083  28.818  1.00  0.00     0.010 A 
ATOM     10  C   UNL A   1      36.363  31.310  28.383  1.00  0.00     0.010 A 
ATOM     11  C   UNL A   1      36.503  30.065  29.015  1.00  0.00    -0.014 A 
BRANCH  11  12
ATOM     12  C   UNL A   1      37.700  29.684  29.806  1.00  0.00     0.031 A 
ATOM     13  C   UNL A   1      38.798  28.847  29.220  1.00  0.00     0.074 A 
ATOM     14  C   UNL A   1      37.814  30.205  31.046  1.00  0.00     0.049 A 
ATOM     15  N   UNL A   1      39.941  28.507  29.756  1.00  0.00    -0.248 NA
ATOM     16  C   UNL A   1      38.589  28.317  27.865  1.00  0.00     0.031 C 
ATOM     17  C   UNL A   1      36.789  31.022  31.709  1.00  0.00     0.029 A 
ATOM     18  N   UNL A   1      38.845  30.185  31.947  1.00  0.00    -0.354 N 
ATOM     19  C   UNL A   1      40.586  27.713  28.815  1.00  0.00     0.074 A 
ATOM     20  C   UNL A   1      39.687  27.595  27.685  1.00  0.00     0.031 C 
ATOM     21  C   UNL A   1      37.278  31.499  32.858  1.00  0.00     0.029 A 
ATOM     22  C   UNL A   1      38.604  30.940  33.072  1.00  0.00     0.049 A 
ATOM     23  H   UNL A   1      39.677  29.679  31.804  1.00  0.00     0.167 HD
ATOM     24  C   UNL A   1      41.816  27.148  28.889  1.00  0.00     0.034 A 
ATOM     25  C   UNL A   1      39.355  31.143  34.171  1.00  0.00     0.034 A 
ATOM     26  C   UNL A   1      42.690  27.280  30.034  1.00  0.00     0.049 A 
ATOM     27  C   UNL A   1      40.704  30.483  34.230  1.00  0.00     0.074 A 
ATOM     28  C   UNL A   1      43.950  26.741  30.225  1.00  0.00     0.029 A 
ATOM     29  N   UNL A   1      42.394  28.006  31.182  1.00  0.00    -0.354 N 
ATOM     30  N   UNL A   1      41.292  29.726  33.331  1.00  0.00    -0.248 NA
ATOM     31  C   UNL A   1      41.489  30.703  35.448  1.00  0.00     0.031 C 
ATOM     32  C   UNL A   1      44.388  27.089  31.508  1.00  0.00     0.029 A 
ATOM     33  C   UNL A   1      43.436  27.910  32.092  1.00  0.00     0.049 A 
ATOM     34  H   UNL A   1      41.563  28.516  31.328  1.00  0.00     0.167 HD
ATOM     35  C   UNL A   1      42.521  29.380  33.878  1.00  0.00     0.074 A 
ATOM     36  C   UNL A   1      42.606  30.053  35.159  1.00  0.00     0.031 C 
ATOM     37  C   UNL A   1      43.487  28.568  33.378  1.00  0.00     0.034 A 
BRANCH  24  38
ATOM     38  C   UNL A   1      42.269  26.302  27.722  1.00  0.00     0.023 A 
ATOM     39  C   UNL A   1      41.844  24.972  27.563  1.00  0.00     0.031 A 
ATOM     40  C   UNL A   1      43.143  26.832  26.756  1.00  0.00     0.131 A 
ATOM     41  C   UNL A   1      42.336  24.200  26.497  1.00  0.00     0.055 A 
ATOM     42  C   UNL A   1      43.572  26.083  25.658  1.00  0.00     0.041 A 
ATOM     43  F   UNL A   1      43.602  28.090  26.866  1.00  0.00    -0.206 F 
ATOM     44  C   UNL A   1      43.176  24.756  25.529  1.00  0.00     0.022 A 
BRANCH  41  45
ATOM     45  S   UNL A   1      41.954  22.427  26.459  1.00  0.00     0.124 S 
ATOM     46  O   UNL A   1      42.675  21.996  25.263  1.00  0.00    -0.237 OA
ATOM     47  O   UNL A   1      42.491  21.960  27.731  1.00  0.00    -0.237 OA
ATOM     48  O   UNL A   1      40.497  22.393  26.345  1.00  0.00    -0.744 OA
ENDBRANCH  41  45
ENDBRANCH  24  38
BRANCH  25  49
ATOM     49  C   UNL A   1      38.827  31.947  35.310  1.00  0.00     0.023 A 
ATOM     50  C   UNL A   1      38.323  31.337  36.468  1.00  0.00     0.031 A 
ATOM     51  C   UNL A   1      38.783  33.353  35.237  1.00  0.00     0.131 A 
ATOM     52  C   UNL A   1      37.754  32.123  37.482  1.00  0.00     0.055 A 
ATOM     53  C   UNL A   1      38.280  34.134  36.277  1.00  0.00     0.041 A 
ATOM     54  F   UNL A   1      39.250  33.992  34.153  1.00  0.00    -0.206 F 
ATOM     55  C   UNL A   1      37.745  33.518  37.402  1.00  0.00     0.022 A 
BRANCH  52  56
ATOM     56  S   UNL A   1      36.921  31.292  38.861  1.00  0.00     0.124 S 
ATOM     57  O   UNL A   1      37.890  31.456  39.939  1.00  0.00    -0.237 OA
ATOM     58  O   UNL A   1      35.691  32.066  38.981  1.00  0.00    -0.237 OA
ATOM     59  O   UNL A   1      36.749  29.923  38.379  1.00  0.00    -0.744 OA
ENDBRANCH  52  56
ENDBRANCH  25  49
BRANCH  37  60
ATOM     60  C   UNL A   1      44.717  28.393  34.232  1.00  0.00     0.023 A 
ATOM     61  C   UNL A   1      44.720  27.527  35.341  1.00  0.00     0.031 A 
ATOM     62  C   UNL A   1      45.876  29.145  33.976  1.00  0.00     0.131 A 
ATOM     63  C   UNL A   1      45.826  27.497  36.199  1.00  0.00     0.055 A 
ATOM     64  C   UNL A   1      47.003  29.055  34.793  1.00  0.00     0.041 A 
ATOM     65  F   UNL A   1      45.927  29.989  32.933  1.00  0.00    -0.206 F 
ATOM     66  C   UNL A   1      46.975  28.243  35.924  1.00  0.00     0.022 A 
BRANCH  63  67
ATOM     67  S   UNL A   1      45.693  26.570  37.753  1.00  0.00     0.124 S 
ATOM     68  O   UNL A   1      45.622  25.192  37.277  1.00  0.00    -0.237 OA
ATOM     69  O   UNL A   1      46.923  26.943  38.444  1.00  0.00    -0.237 OA
ATOM     70  O   UNL A   1      44.464  27.083  38.355  1.00  0.00    -0.744 OA
ENDBRANCH  63  67
ENDBRANCH  37  60
ENDBRANCH  11  12
ENDBRANCH   4   6
ENDBRANCH   1   2
BRANCH   1  71
ATOM     71  C   UNL A   1      33.578  28.918  23.346  1.00  0.00     0.042 C 
BRANCH  71  72
ATOM     72  C   UNL A   1      32.296  28.263  22.845  1.00  0.00     0.117 C 
BRANCH  72  73
ATOM     73  N   UNL A   1      32.606  27.225  21.882  1.00  0.00    -0.355 N 
ATOM     74  C   UNL A   1      32.888  25.905  21.948  1.00  0.00     0.232 C 
ATOM     75  H   UNL A   1      32.611  27.563  20.956  1.00  0.00     0.163 HD
ATOM     76  O   UNL A   1      33.332  25.453  20.880  1.00  0.00    -0.274 OA
BRANCH  74  77
ATOM     77  C   UNL A   1      32.538  24.931  23.108  1.00  0.00     0.102 C 
ATOM     78  C   UNL A   1      33.068  25.280  24.518  1.00  0.00     0.029 C 
ATOM     79  C   UNL A   1      30.987  25.000  23.125  1.00  0.00     0.277 C 
ATOM     80  C   UNL A   1      32.303  24.637  25.683  1.00  0.00     0.063 C 
ATOM     81  N   UNL A   1      30.331  24.314  24.232  1.00  0.00    -0.345 N 
ATOM     82  C   UNL A   1      30.793  24.769  25.533  1.00  0.00     0.260 C 
ATOM     83  H   UNL A   1      29.326  24.478  24.168  1.00  0.00     0.346 HD
ATOM     84  H   UNL A   1      30.559  23.322  24.156  1.00  0.00     0.346 HD
BRANCH  77  85
ATOM     85  C   UNL A   1      33.126  23.541  22.610  1.00  0.00     0.059 C 
BRANCH  85  86
ATOM     86  C   UNL A   1      33.392  22.446  23.624  1.00  0.00    -0.036 A 
ATOM     87  C   UNL A   1      32.340  21.585  23.969  1.00  0.00     0.024 A 
ATOM     88  C   UNL A   1      34.689  22.170  24.122  1.00  0.00     0.003 A 
ATOM     89  C   UNL A   1      32.636  20.429  24.664  1.00  0.00     0.112 A 
ATOM     90  C   UNL A   1      34.893  20.913  24.729  1.00  0.00     0.070 A 
ATOM     91  C   UNL A   1      35.789  23.052  23.997  1.00  0.00     0.010 A 
ATOM     92  N   UNL A   1      33.890  20.062  25.006  1.00  0.00    -0.256 NA
ATOM     93  C   UNL A   1      36.194  20.521  25.014  1.00  0.00     0.029 A 
ATOM     94  C   UNL A   1      37.081  22.647  24.319  1.00  0.00     0.001 A 
ATOM     95  C   UNL A   1      37.289  21.361  24.791  1.00  0.00     0.002 A 
ENDBRANCH  85  86
ENDBRANCH  77  85
ENDBRANCH  74  77
ENDBRANCH  72  73
ENDBRANCH  71  72
ENDBRANCH   1  71
TORSDOF 15
ENDMDL
