MODEL 1
REMARK VINA RESULT:     -11.9      0.000      0.000
REMARK SMILES CC[C@H]1CC[C@](Cc2cccc(OC)n2)(C(=O)NCCCNC(=O)c2ccc(-c3c4nc(c(-c5cc(S(=O)(=O)[O-])ccc5F)c5ccc([nH]5)c(-c5cc(S(=O)(=O)[O-])ccc5F)c5nc(c(-c6cc(S(=O)(=O)[O-])ccc6F)c6ccc3[nH]6)C=C5)C=C4)cc2)C1
REMARK SMILES IDX 20 1 19 2 18 3 16 4 17 5 6 7 3 8 4 9 88 10 5 11 2 12 1 13
REMARK SMILES IDX 7 14 8 15 9 16 15 17 10 18 12 19 11 20 13 21 14 22 21 23
REMARK SMILES IDX 22 24 23 25 24 27 25 28 26 29 87 30 27 31 86 32 28 33 29 34
REMARK SMILES IDX 30 35 80 36 31 37 85 38 79 39 81 40 32 41 84 42 78 43 77 44
REMARK SMILES IDX 33 46 65 47 45 48 64 49 46 50 49 51 63 52 82 53 47 54 48 55
REMARK SMILES IDX 62 57 83 58 50 59 34 60 35 61 43 62 36 63 42 64 44 65 41 66
REMARK SMILES IDX 37 67 38 68 39 69 40 70 66 71 67 72 75 73 68 74 74 75 76 76
REMARK SMILES IDX 73 77 69 78 70 79 71 80 72 81 51 82 52 83 60 84 53 85 59 86
REMARK SMILES IDX 61 87 58 88 54 89 55 90 56 91 57 92
REMARK H PARENT 18 6 22 26 81 45 49 56
REMARK Flexibility Score: inf
ROOT
ATOM      1  C   UNL A   1      31.569  31.499  26.511  1.00  0.00     0.042 C 
ENDROOT
BRANCH   1   2
ATOM      2  C   UNL A   1      31.737  30.085  25.971  1.00  0.00     0.117 C 
BRANCH   2   3
ATOM      3  N   UNL A   1      32.616  30.034  24.812  1.00  0.00    -0.356 N 
ATOM      4  C   UNL A   1      32.940  29.019  23.960  1.00  0.00     0.226 C 
ATOM      5  O   UNL A   1      33.764  29.287  23.083  1.00  0.00    -0.274 OA
ATOM      6  H   UNL A   1      33.057  30.890  24.605  1.00  0.00     0.163 HD
BRANCH   4   7
ATOM      7  C   UNL A   1      32.254  27.634  24.062  1.00  0.00     0.055 C 
ATOM      8  C   UNL A   1      32.223  26.313  26.201  1.00  0.00    -0.010 C 
ATOM      9  C   UNL A   1      33.576  26.158  25.524  1.00  0.00     0.005 C 
ATOM     10  C   UNL A   1      31.580  27.492  25.452  1.00  0.00     0.021 C 
ATOM     11  C   UNL A   1      33.329  26.512  24.060  1.00  0.00     0.017 C 
BRANCH   8  12
ATOM     12  C   UNL A   1      31.325  25.064  26.302  1.00  0.00     0.000 C 
ATOM     13  C   UNL A   1      29.836  25.240  26.067  1.00  0.00     0.004 C 
ENDBRANCH   8  12
BRANCH   7  14
ATOM     14  C   UNL A   1      31.355  27.528  22.792  1.00  0.00     0.073 C 
BRANCH  14  15
ATOM     15  C   UNL A   1      30.044  28.273  22.770  1.00  0.00     0.045 A 
ATOM     16  C   UNL A   1      28.884  27.704  23.290  1.00  0.00     0.024 A 
ATOM     17  N   UNL A   1      30.059  29.527  22.258  1.00  0.00    -0.219 NA
ATOM     18  C   UNL A   1      27.691  28.411  23.215  1.00  0.00     0.007 A 
ATOM     19  C   UNL A   1      28.892  30.205  22.204  1.00  0.00     0.213 A 
ATOM     20  C   UNL A   1      27.691  29.686  22.663  1.00  0.00     0.068 A 
BRANCH  19  21
ATOM     21  O   UNL A   1      29.006  31.469  21.693  1.00  0.00    -0.481 OA
ATOM     22  C   UNL A   1      28.067  31.751  20.663  1.00  0.00     0.280 C 
ENDBRANCH  19  21
ENDBRANCH  14  15
ENDBRANCH   7  14
ENDBRANCH   4   7
ENDBRANCH   2   3
ENDBRANCH   1   2
BRANCH   1  23
ATOM     23  C   UNL A   1      32.827  32.072  27.149  1.00  0.00     0.118 C 
BRANCH  23  24
ATOM     24  N   UNL A   1      32.683  33.480  27.483  1.00  0.00    -0.352 N 
ATOM     25  C   UNL A   1      33.301  34.221  28.460  1.00  0.00     0.251 C 
ATOM     26  H   UNL A   1      32.044  33.978  26.923  1.00  0.00     0.163 HD
ATOM     27  O   UNL A   1      32.866  35.338  28.725  1.00  0.00    -0.269 OA
BRANCH  25  28
ATOM     28  C   UNL A   1      34.465  33.676  29.197  1.00  0.00     0.039 A 
ATOM     29  C   UNL A   1      34.257  32.652  30.124  1.00  0.00     0.014 A 
ATOM     30  C   UNL A   1      35.750  34.196  29.011  1.00  0.00     0.014 A 
ATOM     31  C   UNL A   1      35.342  32.116  30.825  1.00  0.00     0.010 A 
ATOM     32  C   UNL A   1      36.839  33.606  29.648  1.00  0.00     0.010 A 
ATOM     33  C   UNL A   1      36.646  32.570  30.573  1.00  0.00    -0.014 A 
BRANCH  33  34
ATOM     34  C   UNL A   1      37.817  32.004  31.297  1.00  0.00     0.031 A 
ATOM     35  C   UNL A   1      38.640  30.920  30.652  1.00  0.00     0.074 A 
ATOM     36  C   UNL A   1      38.106  32.427  32.543  1.00  0.00     0.049 A 
ATOM     37  N   UNL A   1      39.635  30.230  31.147  1.00  0.00    -0.248 NA
ATOM     38  C   UNL A   1      38.272  30.541  29.279  1.00  0.00     0.031 C 
ATOM     39  C   UNL A   1      37.366  33.452  33.283  1.00  0.00     0.029 A 
ATOM     40  N   UNL A   1      39.095  32.041  33.414  1.00  0.00    -0.354 N 
ATOM     41  C   UNL A   1      40.004  29.328  30.154  1.00  0.00     0.074 A 
ATOM     42  C   UNL A   1      39.081  29.517  29.055  1.00  0.00     0.031 C 
ATOM     43  C   UNL A   1      37.941  33.630  34.482  1.00  0.00     0.029 A 
ATOM     44  C   UNL A   1      39.060  32.703  34.620  1.00  0.00     0.049 A 
ATOM     45  H   UNL A   1      39.767  31.356  33.195  1.00  0.00     0.167 HD
ATOM     46  C   UNL A   1      41.031  28.443  30.147  1.00  0.00     0.034 A 
ATOM     47  C   UNL A   1      39.834  32.567  35.715  1.00  0.00     0.034 A 
ATOM     48  C   UNL A   1      41.954  28.277  31.243  1.00  0.00     0.049 A 
ATOM     49  C   UNL A   1      40.957  31.559  35.692  1.00  0.00     0.074 A 
ATOM     50  C   UNL A   1      43.048  27.434  31.332  1.00  0.00     0.029 A 
ATOM     51  N   UNL A   1      41.893  28.974  32.444  1.00  0.00    -0.354 N 
ATOM     52  N   UNL A   1      41.308  30.733  34.733  1.00  0.00    -0.248 NA
ATOM     53  C   UNL A   1      41.796  31.475  36.895  1.00  0.00     0.031 C 
ATOM     54  C   UNL A   1      43.612  27.578  32.604  1.00  0.00     0.029 A 
ATOM     55  C   UNL A   1      42.918  28.566  33.283  1.00  0.00     0.049 A 
ATOM     56  H   UNL A   1      41.221  29.658  32.666  1.00  0.00     0.167 HD
ATOM     57  C   UNL A   1      42.435  30.064  35.203  1.00  0.00     0.074 A 
ATOM     58  C   UNL A   1      42.709  30.590  36.523  1.00  0.00     0.031 C 
ATOM     59  C   UNL A   1      43.180  29.105  34.597  1.00  0.00     0.034 A 
BRANCH  46  60
ATOM     60  C   UNL A   1      41.194  27.576  28.920  1.00  0.00     0.023 A 
ATOM     61  C   UNL A   1      42.206  27.821  27.975  1.00  0.00     0.031 A 
ATOM     62  C   UNL A   1      40.313  26.508  28.678  1.00  0.00     0.131 A 
ATOM     63  C   UNL A   1      42.267  27.058  26.800  1.00  0.00     0.055 A 
ATOM     64  C   UNL A   1      40.430  25.699  27.545  1.00  0.00     0.041 A 
ATOM     65  F   UNL A   1      39.313  26.237  29.533  1.00  0.00    -0.206 F 
ATOM     66  C   UNL A   1      41.402  25.982  26.590  1.00  0.00     0.022 A 
BRANCH  63  67
ATOM     67  S   UNL A   1      43.403  27.582  25.486  1.00  0.00     0.124 S 
ATOM     68  O   UNL A   1      42.477  27.872  24.395  1.00  0.00    -0.237 OA
ATOM     69  O   UNL A   1      44.067  28.735  26.085  1.00  0.00    -0.237 OA
ATOM     70  O   UNL A   1      44.251  26.411  25.280  1.00  0.00    -0.744 OA
ENDBRANCH  63  67
ENDBRANCH  46  60
BRANCH  47  71
ATOM     71  C   UNL A   1      39.585  33.394  36.931  1.00  0.00     0.023 A 
ATOM     72  C   UNL A   1      38.902  32.864  38.036  1.00  0.00     0.031 A 
ATOM     73  C   UNL A   1      39.972  34.745  36.982  1.00  0.00     0.131 A 
ATOM     74  C   UNL A   1      38.572  33.694  39.120  1.00  0.00     0.055 A 
ATOM     75  C   UNL A   1      39.692  35.552  38.087  1.00  0.00     0.041 A 
ATOM     76  F   UNL A   1      40.634  35.303  35.955  1.00  0.00    -0.206 F 
ATOM     77  C   UNL A   1      38.972  35.030  39.158  1.00  0.00     0.022 A 
BRANCH  74  78
ATOM     78  S   UNL A   1      37.515  33.024  40.433  1.00  0.00     0.124 S 
ATOM     79  O   UNL A   1      36.269  32.780  39.716  1.00  0.00    -0.237 OA
ATOM     80  O   UNL A   1      38.261  31.840  40.845  1.00  0.00    -0.237 OA
ATOM     81  O   UNL A   1      37.469  34.103  41.416  1.00  0.00    -0.744 OA
ENDBRANCH  74  78
ENDBRANCH  47  71
BRANCH  59  82
ATOM     82  C   UNL A   1      44.401  28.616  35.336  1.00  0.00     0.023 A 
ATOM     83  C   UNL A   1      44.325  27.604  36.310  1.00  0.00     0.031 A 
ATOM     84  C   UNL A   1      45.659  29.186  35.069  1.00  0.00     0.131 A 
ATOM     85  C   UNL A   1      45.476  27.235  37.022  1.00  0.00     0.055 A 
ATOM     86  C   UNL A   1      46.810  28.771  35.739  1.00  0.00     0.041 A 
ATOM     87  F   UNL A   1      45.789  30.156  34.151  1.00  0.00    -0.206 F 
ATOM     88  C   UNL A   1      46.720  27.799  36.732  1.00  0.00     0.022 A 
BRANCH  85  89
ATOM     89  S   UNL A   1      45.308  26.068  38.401  1.00  0.00     0.124 S 
ATOM     90  O   UNL A   1      46.697  25.866  38.798  1.00  0.00    -0.237 OA
ATOM     91  O   UNL A   1      44.478  26.814  39.343  1.00  0.00    -0.237 OA
ATOM     92  O   UNL A   1      44.661  24.907  37.792  1.00  0.00    -0.744 OA
ENDBRANCH  85  89
ENDBRANCH  59  82
ENDBRANCH  33  34
ENDBRANCH  25  28
ENDBRANCH  23  24
ENDBRANCH   1  23
TORSDOF 17
ENDMDL
MODEL 2
REMARK VINA RESULT:     -11.8      2.504      8.219
REMARK SMILES CC[C@H]1CC[C@](Cc2cccc(OC)n2)(C(=O)NCCCNC(=O)c2ccc(-c3c4nc(c(-c5cc(S(=O)(=O)[O-])ccc5F)c5ccc([nH]5)c(-c5cc(S(=O)(=O)[O-])ccc5F)c5nc(c(-c6cc(S(=O)(=O)[O-])ccc6F)c6ccc3[nH]6)C=C5)C=C4)cc2)C1
REMARK SMILES IDX 20 1 19 2 18 3 16 4 17 5 6 7 3 8 4 9 88 10 5 11 2 12 1 13
REMARK SMILES IDX 7 14 8 15 9 16 15 17 10 18 12 19 11 20 13 21 14 22 21 23
REMARK SMILES IDX 22 24 23 25 24 27 25 28 26 29 87 30 27 31 86 32 28 33 29 34
REMARK SMILES IDX 30 35 80 36 31 37 85 38 79 39 81 40 32 41 84 42 78 43 77 44
REMARK SMILES IDX 33 46 65 47 45 48 64 49 46 50 49 51 63 52 82 53 47 54 48 55
REMARK SMILES IDX 62 57 83 58 50 59 34 60 35 61 43 62 36 63 42 64 44 65 41 66
REMARK SMILES IDX 37 67 38 68 39 69 40 70 66 71 67 72 75 73 68 74 74 75 76 76
REMARK SMILES IDX 73 77 69 78 70 79 71 80 72 81 51 82 52 83 60 84 53 85 59 86
REMARK SMILES IDX 61 87 58 88 54 89 55 90 56 91 57 92
REMARK H PARENT 18 6 22 26 81 45 49 56
REMARK Flexibility Score: inf
ROOT
ATOM      1  C   UNL A   1      31.076  30.614  25.362  1.00  0.00     0.042 C 
ENDROOT
BRANCH   1   2
ATOM      2  C   UNL A   1      31.414  29.252  24.770  1.00  0.00     0.117 C 
BRANCH   2   3
ATOM      3  N   UNL A   1      32.486  29.324  23.788  1.00  0.00    -0.356 N 
ATOM      4  C   UNL A   1      33.306  28.367  23.265  1.00  0.00     0.226 C 
ATOM      5  O   UNL A   1      34.160  28.761  22.467  1.00  0.00    -0.274 OA
ATOM      6  H   UNL A   1      32.649  30.230  23.438  1.00  0.00     0.163 HD
BRANCH   4   7
ATOM      7  C   UNL A   1      33.118  26.870  23.612  1.00  0.00     0.055 C 
ATOM      8  C   UNL A   1      32.842  25.111  21.838  1.00  0.00    -0.010 C 
ATOM      9  C   UNL A   1      31.525  25.845  22.040  1.00  0.00     0.005 C 
ATOM     10  C   UNL A   1      33.863  25.998  22.568  1.00  0.00     0.021 C 
ATOM     11  C   UNL A   1      31.628  26.469  23.428  1.00  0.00     0.017 C 
BRANCH   8  12
ATOM     12  C   UNL A   1      32.900  23.623  22.238  1.00  0.00     0.000 C 
ATOM     13  C   UNL A   1      31.876  23.114  23.235  1.00  0.00     0.004 C 
ENDBRANCH   8  12
BRANCH   7  14
ATOM     14  C   UNL A   1      33.534  26.742  25.110  1.00  0.00     0.073 C 
BRANCH  14  15
ATOM     15  C   UNL A   1      33.620  25.366  25.721  1.00  0.00     0.045 A 
ATOM     16  C   UNL A   1      34.782  24.605  25.619  1.00  0.00     0.024 A 
ATOM     17  N   UNL A   1      32.533  24.925  26.399  1.00  0.00    -0.219 NA
ATOM     18  C   UNL A   1      34.805  23.328  26.164  1.00  0.00     0.007 A 
ATOM     19  C   UNL A   1      32.576  23.686  26.932  1.00  0.00     0.213 A 
ATOM     20  C   UNL A   1      33.683  22.855  26.834  1.00  0.00     0.068 A 
BRANCH  19  21
ATOM     21  O   UNL A   1      31.444  23.334  27.616  1.00  0.00    -0.481 OA
ATOM     22  C   UNL A   1      30.274  23.324  26.808  1.00  0.00     0.280 C 
ENDBRANCH  19  21
ENDBRANCH  14  15
ENDBRANCH   7  14
ENDBRANCH   4   7
ENDBRANCH   2   3
ENDBRANCH   1   2
BRANCH   1  23
ATOM     23  C   UNL A   1      31.963  31.017  26.532  1.00  0.00     0.118 C 
BRANCH  23  24
ATOM     24  N   UNL A   1      32.031  32.460  26.699  1.00  0.00    -0.352 N 
ATOM     25  C   UNL A   1      32.865  33.218  27.484  1.00  0.00     0.251 C 
ATOM     26  H   UNL A   1      31.379  32.973  26.168  1.00  0.00     0.163 HD
ATOM     27  O   UNL A   1      32.604  34.404  27.659  1.00  0.00    -0.269 OA
BRANCH  25  28
ATOM     28  C   UNL A   1      34.053  32.610  28.128  1.00  0.00     0.039 A 
ATOM     29  C   UNL A   1      35.208  33.382  28.279  1.00  0.00     0.014 A 
ATOM     30  C   UNL A   1      34.049  31.275  28.545  1.00  0.00     0.014 A 
ATOM     31  C   UNL A   1      36.338  32.832  28.892  1.00  0.00     0.010 A 
ATOM     32  C   UNL A   1      35.146  30.756  29.228  1.00  0.00     0.010 A 
ATOM     33  C   UNL A   1      36.307  31.523  29.397  1.00  0.00    -0.014 A 
BRANCH  33  34
ATOM     34  C   UNL A   1      37.493  30.922  30.065  1.00  0.00     0.031 A 
ATOM     35  C   UNL A   1      37.840  31.326  31.475  1.00  0.00     0.074 A 
ATOM     36  C   UNL A   1      38.280  30.060  29.393  1.00  0.00     0.049 A 
ATOM     37  N   UNL A   1      38.878  30.997  32.200  1.00  0.00    -0.248 NA
ATOM     38  C   UNL A   1      36.910  32.249  32.143  1.00  0.00     0.031 C 
ATOM     39  C   UNL A   1      38.062  29.613  28.015  1.00  0.00     0.029 A 
ATOM     40  N   UNL A   1      39.428  29.409  29.773  1.00  0.00    -0.354 N 
ATOM     41  C   UNL A   1      38.734  31.680  33.403  1.00  0.00     0.074 A 
ATOM     42  C   UNL A   1      37.542  32.493  33.281  1.00  0.00     0.031 C 
ATOM     43  C   UNL A   1      39.029  28.745  27.676  1.00  0.00     0.029 A 
ATOM     44  C   UNL A   1      39.961  28.607  28.790  1.00  0.00     0.049 A 
ATOM     45  H   UNL A   1      39.831  29.508  30.666  1.00  0.00     0.167 HD
ATOM     46  C   UNL A   1      39.507  31.617  34.515  1.00  0.00     0.034 A 
ATOM     47  C   UNL A   1      41.081  27.858  28.785  1.00  0.00     0.034 A 
ATOM     48  C   UNL A   1      40.684  30.790  34.627  1.00  0.00     0.049 A 
ATOM     49  C   UNL A   1      41.939  27.821  30.027  1.00  0.00     0.074 A 
ATOM     50  C   UNL A   1      41.524  30.625  35.715  1.00  0.00     0.029 A 
ATOM     51  N   UNL A   1      41.186  29.982  33.615  1.00  0.00    -0.354 N 
ATOM     52  N   UNL A   1      41.772  28.454  31.166  1.00  0.00    -0.248 NA
ATOM     53  C   UNL A   1      43.128  26.960  29.986  1.00  0.00     0.031 C 
ATOM     54  C   UNL A   1      42.563  29.766  35.343  1.00  0.00     0.029 A 
ATOM     55  C   UNL A   1      42.332  29.334  34.047  1.00  0.00     0.049 A 
ATOM     56  H   UNL A   1      40.786  29.885  32.720  1.00  0.00     0.167 HD
ATOM     57  C   UNL A   1      42.812  28.031  31.990  1.00  0.00     0.074 A 
ATOM     58  C   UNL A   1      43.592  27.084  31.220  1.00  0.00     0.031 C 
ATOM     59  C   UNL A   1      43.095  28.387  33.268  1.00  0.00     0.034 A 
BRANCH  46  60
ATOM     60  C   UNL A   1      39.110  32.484  35.687  1.00  0.00     0.023 A 
ATOM     61  C   UNL A   1      39.567  33.807  35.811  1.00  0.00     0.031 A 
ATOM     62  C   UNL A   1      38.285  31.975  36.706  1.00  0.00     0.131 A 
ATOM     63  C   UNL A   1      39.259  34.551  36.960  1.00  0.00     0.055 A 
ATOM     64  C   UNL A   1      37.914  32.748  37.808  1.00  0.00     0.041 A 
ATOM     65  F   UNL A   1      37.834  30.711  36.654  1.00  0.00    -0.206 F 
ATOM     66  C   UNL A   1      38.413  34.040  37.947  1.00  0.00     0.022 A 
BRANCH  63  67
ATOM     67  S   UNL A   1      40.092  36.143  37.210  1.00  0.00     0.124 S 
ATOM     68  O   UNL A   1      39.989  36.740  35.881  1.00  0.00    -0.237 OA
ATOM     69  O   UNL A   1      39.282  36.763  38.253  1.00  0.00    -0.237 OA
ATOM     70  O   UNL A   1      41.444  35.762  37.612  1.00  0.00    -0.744 OA
ENDBRANCH  63  67
ENDBRANCH  46  60
BRANCH  47  71
ATOM     71  C   UNL A   1      41.471  27.078  27.575  1.00  0.00     0.023 A 
ATOM     72  C   UNL A   1      41.322  25.683  27.536  1.00  0.00     0.031 A 
ATOM     73  C   UNL A   1      42.057  27.707  26.462  1.00  0.00     0.131 A 
ATOM     74  C   UNL A   1      41.806  24.956  26.438  1.00  0.00     0.055 A 
ATOM     75  C   UNL A   1      42.485  26.986  25.345  1.00  0.00     0.041 A 
ATOM     76  F   UNL A   1      42.218  29.041  26.442  1.00  0.00    -0.206 F 
ATOM     77  C   UNL A   1      42.376  25.599  25.337  1.00  0.00     0.022 A 
BRANCH  74  78
ATOM     78  S   UNL A   1      41.778  23.143  26.517  1.00  0.00     0.124 S 
ATOM     79  O   UNL A   1      42.533  22.889  27.738  1.00  0.00    -0.237 OA
ATOM     80  O   UNL A   1      40.346  22.868  26.577  1.00  0.00    -0.237 OA
ATOM     81  O   UNL A   1      42.438  22.739  25.279  1.00  0.00    -0.744 OA
ENDBRANCH  74  78
ENDBRANCH  47  71
BRANCH  59  82
ATOM     82  C   UNL A   1      44.262  27.697  33.931  1.00  0.00     0.023 A 
ATOM     83  C   UNL A   1      44.100  26.521  34.684  1.00  0.00     0.031 A 
ATOM     84  C   UNL A   1      45.555  28.238  33.817  1.00  0.00     0.131 A 
ATOM     85  C   UNL A   1      45.203  25.957  35.341  1.00  0.00     0.055 A 
ATOM     86  C   UNL A   1      46.658  27.638  34.424  1.00  0.00     0.041 A 
ATOM     87  F   UNL A   1      45.766  29.361  33.111  1.00  0.00    -0.206 F 
ATOM     88  C   UNL A   1      46.484  26.498  35.202  1.00  0.00     0.022 A 
BRANCH  85  89
ATOM     89  S   UNL A   1      44.926  24.554  36.458  1.00  0.00     0.124 S 
ATOM     90  O   UNL A   1      43.924  25.088  37.374  1.00  0.00    -0.237 OA
ATOM     91  O   UNL A   1      44.464  23.513  35.545  1.00  0.00    -0.237 OA
ATOM     92  O   UNL A   1      46.244  24.319  37.048  1.00  0.00    -0.744 OA
ENDBRANCH  85  89
ENDBRANCH  59  82
ENDBRANCH  33  34
ENDBRANCH  25  28
ENDBRANCH  23  24
ENDBRANCH   1  23
TORSDOF 17
ENDMDL
MODEL 3
REMARK VINA RESULT:     -11.7      1.652      1.920
REMARK SMILES CC[C@H]1CC[C@](Cc2cccc(OC)n2)(C(=O)NCCCNC(=O)c2ccc(-c3c4nc(c(-c5cc(S(=O)(=O)[O-])ccc5F)c5ccc([nH]5)c(-c5cc(S(=O)(=O)[O-])ccc5F)c5nc(c(-c6cc(S(=O)(=O)[O-])ccc6F)c6ccc3[nH]6)C=C5)C=C4)cc2)C1
REMARK SMILES IDX 20 1 19 2 18 3 16 4 17 5 6 7 3 8 4 9 88 10 5 11 2 12 1 13
REMARK SMILES IDX 7 14 8 15 9 16 15 17 10 18 12 19 11 20 13 21 14 22 21 23
REMARK SMILES IDX 22 24 23 25 24 27 25 28 26 29 87 30 27 31 86 32 28 33 29 34
REMARK SMILES IDX 30 35 80 36 31 37 85 38 79 39 81 40 32 41 84 42 78 43 77 44
REMARK SMILES IDX 33 46 65 47 45 48 64 49 46 50 49 51 63 52 82 53 47 54 48 55
REMARK SMILES IDX 62 57 83 58 50 59 34 60 35 61 43 62 36 63 42 64 44 65 41 66
REMARK SMILES IDX 37 67 38 68 39 69 40 70 66 71 67 72 75 73 68 74 74 75 76 76
REMARK SMILES IDX 73 77 69 78 70 79 71 80 72 81 51 82 52 83 60 84 53 85 59 86
REMARK SMILES IDX 61 87 58 88 54 89 55 90 56 91 57 92
REMARK H PARENT 18 6 22 26 81 45 49 56
REMARK Flexibility Score: inf
ROOT
ATOM      1  C   UNL A   1      31.467  32.308  26.834  1.00  0.00     0.042 C 
ENDROOT
BRANCH   1   2
ATOM      2  C   UNL A   1      31.553  30.797  26.667  1.00  0.00     0.117 C 
BRANCH   2   3
ATOM      3  N   UNL A   1      32.924  30.332  26.519  1.00  0.00    -0.356 N 
ATOM      4  C   UNL A   1      33.444  29.193  25.976  1.00  0.00     0.226 C 
ATOM      5  O   UNL A   1      34.669  29.071  26.041  1.00  0.00    -0.274 OA
ATOM      6  H   UNL A   1      33.600  30.953  26.875  1.00  0.00     0.163 HD
BRANCH   4   7
ATOM      7  C   UNL A   1      32.540  28.157  25.265  1.00  0.00     0.055 C 
ATOM      8  C   UNL A   1      31.717  26.083  26.424  1.00  0.00    -0.010 C 
ATOM      9  C   UNL A   1      33.159  25.884  25.982  1.00  0.00     0.005 C 
ATOM     10  C   UNL A   1      31.502  27.598  26.272  1.00  0.00     0.021 C 
ATOM     11  C   UNL A   1      33.378  26.908  24.872  1.00  0.00     0.017 C 
BRANCH   8  12
ATOM     12  C   UNL A   1      30.634  25.221  25.745  1.00  0.00     0.000 C 
ATOM     13  C   UNL A   1      30.777  23.712  25.820  1.00  0.00     0.004 C 
ENDBRANCH   8  12
BRANCH   7  14
ATOM     14  C   UNL A   1      32.013  28.880  23.987  1.00  0.00     0.073 C 
BRANCH  14  15
ATOM     15  C   UNL A   1      30.538  28.819  23.679  1.00  0.00     0.045 A 
ATOM     16  C   UNL A   1      29.899  27.600  23.466  1.00  0.00     0.024 A 
ATOM     17  N   UNL A   1      29.865  29.995  23.656  1.00  0.00    -0.219 NA
ATOM     18  C   UNL A   1      28.547  27.592  23.147  1.00  0.00     0.007 A 
ATOM     19  C   UNL A   1      28.550  29.967  23.355  1.00  0.00     0.213 A 
ATOM     20  C   UNL A   1      27.855  28.796  23.091  1.00  0.00     0.068 A 
BRANCH  19  21
ATOM     21  O   UNL A   1      27.948  31.197  23.377  1.00  0.00    -0.481 OA
ATOM     22  C   UNL A   1      28.869  32.278  23.333  1.00  0.00     0.280 C 
ENDBRANCH  19  21
ENDBRANCH  14  15
ENDBRANCH   7  14
ENDBRANCH   4   7
ENDBRANCH   2   3
ENDBRANCH   1   2
BRANCH   1  23
ATOM     23  C   UNL A   1      32.783  32.961  27.237  1.00  0.00     0.118 C 
BRANCH  23  24
ATOM     24  N   UNL A   1      32.596  34.316  27.732  1.00  0.00    -0.352 N 
ATOM     25  C   UNL A   1      33.167  34.947  28.811  1.00  0.00     0.251 C 
ATOM     26  H   UNL A   1      31.964  34.866  27.215  1.00  0.00     0.163 HD
ATOM     27  O   UNL A   1      32.699  36.014  29.193  1.00  0.00    -0.269 OA
BRANCH  25  28
ATOM     28  C   UNL A   1      34.319  34.339  29.516  1.00  0.00     0.039 A 
ATOM     29  C   UNL A   1      34.102  33.705  30.743  1.00  0.00     0.014 A 
ATOM     30  C   UNL A   1      35.616  34.427  29.000  1.00  0.00     0.014 A 
ATOM     31  C   UNL A   1      35.173  33.117  31.422  1.00  0.00     0.010 A 
ATOM     32  C   UNL A   1      36.666  33.770  29.636  1.00  0.00     0.010 A 
ATOM     33  C   UNL A   1      36.459  33.120  30.861  1.00  0.00    -0.014 A 
BRANCH  33  34
ATOM     34  C   UNL A   1      37.611  32.488  31.560  1.00  0.00     0.031 A 
ATOM     35  C   UNL A   1      38.342  31.343  30.909  1.00  0.00     0.074 A 
ATOM     36  C   UNL A   1      37.965  32.907  32.791  1.00  0.00     0.049 A 
ATOM     37  N   UNL A   1      39.304  30.595  31.386  1.00  0.00    -0.248 NA
ATOM     38  C   UNL A   1      37.909  30.971  29.553  1.00  0.00     0.031 C 
ATOM     39  C   UNL A   1      37.316  33.989  33.535  1.00  0.00     0.029 A 
ATOM     40  N   UNL A   1      38.951  32.469  33.638  1.00  0.00    -0.354 N 
ATOM     41  C   UNL A   1      39.582  29.657  30.396  1.00  0.00     0.074 A 
ATOM     42  C   UNL A   1      38.641  29.892  29.321  1.00  0.00     0.031 C 
ATOM     43  C   UNL A   1      37.937  34.144  34.715  1.00  0.00     0.029 A 
ATOM     44  C   UNL A   1      38.995  33.147  34.835  1.00  0.00     0.049 A 
ATOM     45  H   UNL A   1      39.569  31.737  33.411  1.00  0.00     0.167 HD
ATOM     46  C   UNL A   1      40.549  28.706  30.374  1.00  0.00     0.034 A 
ATOM     47  C   UNL A   1      39.791  32.975  35.909  1.00  0.00     0.034 A 
ATOM     48  C   UNL A   1      41.490  28.494  31.446  1.00  0.00     0.049 A 
ATOM     49  C   UNL A   1      40.844  31.895  35.870  1.00  0.00     0.074 A 
ATOM     50  C   UNL A   1      42.528  27.581  31.516  1.00  0.00     0.029 A 
ATOM     51  N   UNL A   1      41.511  29.209  32.636  1.00  0.00    -0.354 N 
ATOM     52  N   UNL A   1      41.111  31.034  34.914  1.00  0.00    -0.248 NA
ATOM     53  C   UNL A   1      41.711  31.771  37.049  1.00  0.00     0.031 C 
ATOM     54  C   UNL A   1      43.138  27.705  32.769  1.00  0.00     0.029 A 
ATOM     55  C   UNL A   1      42.531  28.745  33.452  1.00  0.00     0.049 A 
ATOM     56  H   UNL A   1      40.892  29.939  32.867  1.00  0.00     0.167 HD
ATOM     57  C   UNL A   1      42.205  30.298  35.362  1.00  0.00     0.074 A 
ATOM     58  C   UNL A   1      42.552  30.822  36.666  1.00  0.00     0.031 C 
ATOM     59  C   UNL A   1      42.867  29.284  34.749  1.00  0.00     0.034 A 
BRANCH  46  60
ATOM     60  C   UNL A   1      40.617  27.814  29.156  1.00  0.00     0.023 A 
ATOM     61  C   UNL A   1      41.549  28.042  28.129  1.00  0.00     0.031 A 
ATOM     62  C   UNL A   1      39.725  26.737  29.007  1.00  0.00     0.131 A 
ATOM     63  C   UNL A   1      41.520  27.254  26.968  1.00  0.00     0.055 A 
ATOM     64  C   UNL A   1      39.756  25.905  27.886  1.00  0.00     0.041 A 
ATOM     65  F   UNL A   1      38.799  26.481  29.945  1.00  0.00    -0.206 F 
ATOM     66  C   UNL A   1      40.647  26.171  26.851  1.00  0.00     0.022 A 
BRANCH  63  67
ATOM     67  S   UNL A   1      42.545  27.755  25.557  1.00  0.00     0.124 S 
ATOM     68  O   UNL A   1      43.843  27.960  26.196  1.00  0.00    -0.237 OA
ATOM     69  O   UNL A   1      42.445  26.602  24.670  1.00  0.00    -0.237 OA
ATOM     70  O   UNL A   1      41.895  28.971  25.076  1.00  0.00    -0.744 OA
ENDBRANCH  63  67
ENDBRANCH  46  60
BRANCH  47  71
ATOM     71  C   UNL A   1      39.634  33.833  37.119  1.00  0.00     0.023 A 
ATOM     72  C   UNL A   1      40.516  34.896  37.369  1.00  0.00     0.031 A 
ATOM     73  C   UNL A   1      38.638  33.566  38.076  1.00  0.00     0.131 A 
ATOM     74  C   UNL A   1      40.426  35.614  38.572  1.00  0.00     0.055 A 
ATOM     75  C   UNL A   1      38.516  34.320  39.245  1.00  0.00     0.041 A 
ATOM     76  F   UNL A   1      37.763  32.566  37.885  1.00  0.00    -0.206 F 
ATOM     77  C   UNL A   1      39.425  35.341  39.505  1.00  0.00     0.022 A 
BRANCH  74  78
ATOM     78  S   UNL A   1      41.708  36.842  38.946  1.00  0.00     0.124 S 
ATOM     79  O   UNL A   1      40.912  37.965  39.426  1.00  0.00    -0.237 OA
ATOM     80  O   UNL A   1      42.507  36.146  39.948  1.00  0.00    -0.237 OA
ATOM     81  O   UNL A   1      42.367  37.048  37.659  1.00  0.00    -0.744 OA
ENDBRANCH  74  78
ENDBRANCH  47  71
BRANCH  59  82
ATOM     82  C   UNL A   1      44.075  28.724  35.461  1.00  0.00     0.023 A 
ATOM     83  C   UNL A   1      43.972  27.661  36.375  1.00  0.00     0.031 A 
ATOM     84  C   UNL A   1      45.346  29.279  35.229  1.00  0.00     0.131 A 
ATOM     85  C   UNL A   1      45.112  27.225  37.066  1.00  0.00     0.055 A 
ATOM     86  C   UNL A   1      46.485  28.800  35.875  1.00  0.00     0.041 A 
ATOM     87  F   UNL A   1      45.500  30.298  34.367  1.00  0.00    -0.206 F 
ATOM     88  C   UNL A   1      46.370  27.776  36.810  1.00  0.00     0.022 A 
BRANCH  85  89
ATOM     89  S   UNL A   1      44.914  25.985  38.376  1.00  0.00     0.124 S 
ATOM     90  O   UNL A   1      44.450  24.823  37.626  1.00  0.00    -0.237 OA
ATOM     91  O   UNL A   1      46.263  25.892  38.926  1.00  0.00    -0.237 OA
ATOM     92  O   UNL A   1      43.922  26.584  39.269  1.00  0.00    -0.744 OA
ENDBRANCH  85  89
ENDBRANCH  59  82
ENDBRANCH  33  34
ENDBRANCH  25  28
ENDBRANCH  23  24
ENDBRANCH   1  23
TORSDOF 17
ENDMDL
