MODEL 1
REMARK VINA RESULT:     -12.4      0.000      0.000
REMARK SMILES CC(C)N1C[C@@H](C(=O)N2CCC(C(=O)NCCCNC(=O)c3ccc(-c4c5nc(c(-c6cc(S(=O)(=O)[O-])ccc6F)c6ccc([nH]6)c(-c6cc(S(=O)(=O)[O-])ccc6F)c6nc(c(-c7cc(S(=O)(=O)[O-])ccc7F)c7ccc4[nH]7)C=C6)C=C5)cc3)CC2)CC1=O
REMARK SMILES IDX 17 1 16 2 15 3 13 4 14 5 12 7 7 8 8 9 9 10 10 11 86 12 11 13
REMARK SMILES IDX 85 14 6 15 4 16 5 17 88 18 87 19 89 20 2 21 1 22 3 23 18 24
REMARK SMILES IDX 19 25 20 26 21 28 22 29 23 30 84 31 24 32 83 33 25 34 26 35
REMARK SMILES IDX 27 36 77 37 28 38 82 39 76 40 78 41 29 42 81 43 75 44 74 45
REMARK SMILES IDX 30 47 62 48 42 49 61 50 43 51 46 52 60 53 79 54 44 55 45 56
REMARK SMILES IDX 59 58 80 59 47 60 31 61 32 62 40 63 33 64 39 65 41 66 38 67
REMARK SMILES IDX 34 68 35 69 36 70 37 71 63 72 64 73 72 74 65 75 71 76 73 77
REMARK SMILES IDX 70 78 66 79 67 80 68 81 69 82 48 83 49 84 57 85 50 86 56 87
REMARK SMILES IDX 58 88 55 89 51 90 52 91 53 92 54 93
REMARK H PARENT 15 6 19 27 78 46 46 57
REMARK Flexibility Score: inf
ROOT
ATOM      1  C   UNL A   1      31.997  31.223  26.828  1.00  0.00     0.042 C 
ENDROOT
BRANCH   1   2
ATOM      2  C   UNL A   1      32.387  29.796  26.471  1.00  0.00     0.117 C 
BRANCH   2   3
ATOM      3  N   UNL A   1      32.069  29.468  25.088  1.00  0.00    -0.356 N 
ATOM      4  C   UNL A   1      31.818  28.275  24.484  1.00  0.00     0.223 C 
ATOM      5  O   UNL A   1      31.579  28.275  23.274  1.00  0.00    -0.275 OA
ATOM      6  H   UNL A   1      32.028  30.245  24.484  1.00  0.00     0.163 HD
BRANCH   4   7
ATOM      7  C   UNL A   1      31.788  26.973  25.271  1.00  0.00     0.082 C 
ATOM      8  C   UNL A   1      32.012  23.143  24.147  1.00  0.00     0.227 C 
ATOM      9  O   UNL A   1      31.274  23.236  23.162  1.00  0.00    -0.274 OA
ATOM     10  N   UNL A   1      31.966  24.098  25.149  1.00  0.00    -0.342 N 
ATOM     11  C   UNL A   1      30.679  24.707  25.463  1.00  0.00     0.120 C 
ATOM     12  C   UNL A   1      33.118  24.817  25.666  1.00  0.00     0.120 C 
ATOM     13  C   UNL A   1      30.569  26.116  24.910  1.00  0.00     0.035 C 
ATOM     14  C   UNL A   1      33.146  26.264  25.184  1.00  0.00     0.035 C 
BRANCH   8  15
ATOM     15  C   UNL A   1      32.756  21.832  24.390  1.00  0.00     0.107 C 
ATOM     16  N   UNL A   1      32.624  19.536  23.869  1.00  0.00    -0.339 N 
ATOM     17  C   UNL A   1      32.405  20.840  23.289  1.00  0.00     0.133 C 
ATOM     18  C   UNL A   1      32.629  19.602  25.254  1.00  0.00     0.223 C 
ATOM     19  C   UNL A   1      32.602  21.047  25.682  1.00  0.00     0.115 C 
ATOM     20  O   UNL A   1      32.605  18.660  26.034  1.00  0.00    -0.275 OA
BRANCH  16  21
ATOM     21  C   UNL A   1      32.476  18.281  23.118  1.00  0.00     0.078 C 
ATOM     22  C   UNL A   1      32.169  18.486  21.631  1.00  0.00     0.031 C 
ATOM     23  C   UNL A   1      33.720  17.395  23.246  1.00  0.00     0.031 C 
ENDBRANCH  16  21
ENDBRANCH   8  15
ENDBRANCH   4   7
ENDBRANCH   2   3
ENDBRANCH   1   2
BRANCH   1  24
ATOM     24  C   UNL A   1      33.164  32.062  27.320  1.00  0.00     0.118 C 
BRANCH  24  25
ATOM     25  N   UNL A   1      32.790  33.449  27.571  1.00  0.00    -0.352 N 
ATOM     26  C   UNL A   1      33.238  34.309  28.545  1.00  0.00     0.251 C 
ATOM     27  H   UNL A   1      32.118  33.822  26.954  1.00  0.00     0.163 HD
ATOM     28  O   UNL A   1      32.658  35.374  28.733  1.00  0.00    -0.269 OA
BRANCH  26  29
ATOM     29  C   UNL A   1      34.402  33.928  29.371  1.00  0.00     0.039 A 
ATOM     30  C   UNL A   1      34.203  33.202  30.547  1.00  0.00     0.014 A 
ATOM     31  C   UNL A   1      35.695  34.261  28.961  1.00  0.00     0.014 A 
ATOM     32  C   UNL A   1      35.307  32.741  31.269  1.00  0.00     0.010 A 
ATOM     33  C   UNL A   1      36.788  33.718  29.624  1.00  0.00     0.010 A 
ATOM     34  C   UNL A   1      36.608  32.956  30.788  1.00  0.00    -0.014 A 
BRANCH  34  35
ATOM     35  C   UNL A   1      37.809  32.421  31.483  1.00  0.00     0.031 A 
ATOM     36  C   UNL A   1      38.592  31.305  30.848  1.00  0.00     0.074 A 
ATOM     37  C   UNL A   1      38.134  32.866  32.713  1.00  0.00     0.049 A 
ATOM     38  N   UNL A   1      39.556  30.578  31.349  1.00  0.00    -0.248 NA
ATOM     39  C   UNL A   1      38.209  30.932  29.477  1.00  0.00     0.031 C 
ATOM     40  C   UNL A   1      37.439  33.929  33.442  1.00  0.00     0.029 A 
ATOM     41  N   UNL A   1      39.123  32.466  33.578  1.00  0.00    -0.354 N 
ATOM     42  C   UNL A   1      39.878  29.648  30.366  1.00  0.00     0.074 A 
ATOM     43  C   UNL A   1      38.961  29.863  29.269  1.00  0.00     0.031 C 
ATOM     44  C   UNL A   1      38.032  34.108  34.632  1.00  0.00     0.029 A 
ATOM     45  C   UNL A   1      39.109  33.134  34.782  1.00  0.00     0.049 A 
ATOM     46  H   UNL A   1      39.780  31.767  33.358  1.00  0.00     0.167 HD
ATOM     47  C   UNL A   1      40.862  28.715  30.371  1.00  0.00     0.034 A 
ATOM     48  C   UNL A   1      39.860  32.962  35.889  1.00  0.00     0.034 A 
ATOM     49  C   UNL A   1      41.775  28.526  31.471  1.00  0.00     0.049 A 
ATOM     50  C   UNL A   1      40.920  31.888  35.890  1.00  0.00     0.074 A 
ATOM     51  C   UNL A   1      42.837  27.643  31.565  1.00  0.00     0.029 A 
ATOM     52  N   UNL A   1      41.733  29.226  32.670  1.00  0.00    -0.354 N 
ATOM     53  N   UNL A   1      41.231  31.033  34.943  1.00  0.00    -0.248 NA
ATOM     54  C   UNL A   1      41.736  31.760  37.105  1.00  0.00     0.031 C 
ATOM     55  C   UNL A   1      43.385  27.753  32.848  1.00  0.00     0.029 A 
ATOM     56  C   UNL A   1      42.730  28.772  33.520  1.00  0.00     0.049 A 
ATOM     57  H   UNL A   1      41.090  29.939  32.884  1.00  0.00     0.167 HD
ATOM     58  C   UNL A   1      42.309  30.298  35.433  1.00  0.00     0.074 A 
ATOM     59  C   UNL A   1      42.593  30.812  36.757  1.00  0.00     0.031 C 
ATOM     60  C   UNL A   1      43.008  29.298  34.837  1.00  0.00     0.034 A 
BRANCH  47  61
ATOM     61  C   UNL A   1      40.975  27.815  29.163  1.00  0.00     0.023 A 
ATOM     62  C   UNL A   1      41.952  28.021  28.173  1.00  0.00     0.031 A 
ATOM     63  C   UNL A   1      40.074  26.749  28.983  1.00  0.00     0.131 A 
ATOM     64  C   UNL A   1      41.953  27.231  27.014  1.00  0.00     0.055 A 
ATOM     65  C   UNL A   1      40.141  25.908  27.871  1.00  0.00     0.041 A 
ATOM     66  F   UNL A   1      39.104  26.513  29.881  1.00  0.00    -0.206 F 
ATOM     67  C   UNL A   1      41.074  26.157  26.870  1.00  0.00     0.022 A 
BRANCH  64  68
ATOM     68  S   UNL A   1      43.016  27.730  25.631  1.00  0.00     0.124 S 
ATOM     69  O   UNL A   1      43.531  26.440  25.175  1.00  0.00    -0.237 OA
ATOM     70  O   UNL A   1      42.076  28.394  24.735  1.00  0.00    -0.237 OA
ATOM     71  O   UNL A   1      44.006  28.602  26.257  1.00  0.00    -0.744 OA
ENDBRANCH  64  68
ENDBRANCH  47  61
BRANCH  48  72
ATOM     72  C   UNL A   1      39.632  33.808  37.098  1.00  0.00     0.023 A 
ATOM     73  C   UNL A   1      38.960  33.296  38.220  1.00  0.00     0.031 A 
ATOM     74  C   UNL A   1      40.037  35.154  37.132  1.00  0.00     0.131 A 
ATOM     75  C   UNL A   1      38.666  34.137  39.305  1.00  0.00     0.055 A 
ATOM     76  C   UNL A   1      39.797  35.970  38.240  1.00  0.00     0.041 A 
ATOM     77  F   UNL A   1      40.683  35.696  36.088  1.00  0.00    -0.206 F 
ATOM     78  C   UNL A   1      39.094  35.466  39.329  1.00  0.00     0.022 A 
BRANCH  75  79
ATOM     79  S   UNL A   1      37.621  33.496  40.642  1.00  0.00     0.124 S 
ATOM     80  O   UNL A   1      38.550  32.620  41.348  1.00  0.00    -0.237 OA
ATOM     81  O   UNL A   1      37.236  34.719  41.337  1.00  0.00    -0.237 OA
ATOM     82  O   UNL A   1      36.539  32.818  39.932  1.00  0.00    -0.744 OA
ENDBRANCH  75  79
ENDBRANCH  48  72
BRANCH  60  83
ATOM     83  C   UNL A   1      44.201  28.745  35.579  1.00  0.00     0.023 A 
ATOM     84  C   UNL A   1      44.086  27.708  36.520  1.00  0.00     0.031 A 
ATOM     85  C   UNL A   1      45.483  29.264  35.319  1.00  0.00     0.131 A 
ATOM     86  C   UNL A   1      45.226  27.254  37.200  1.00  0.00     0.055 A 
ATOM     87  C   UNL A   1      46.622  28.763  35.951  1.00  0.00     0.041 A 
ATOM     88  F   UNL A   1      45.652  30.259  34.434  1.00  0.00    -0.206 F 
ATOM     89  C   UNL A   1      46.495  27.759  36.907  1.00  0.00     0.022 A 
BRANCH  86  90
ATOM     90  S   UNL A   1      45.022  26.047  38.540  1.00  0.00     0.124 S 
ATOM     91  O   UNL A   1      46.396  25.866  38.997  1.00  0.00    -0.237 OA
ATOM     92  O   UNL A   1      44.132  26.749  39.459  1.00  0.00    -0.237 OA
ATOM     93  O   UNL A   1      44.433  24.889  37.871  1.00  0.00    -0.744 OA
ENDBRANCH  86  90
ENDBRANCH  60  83
ENDBRANCH  34  35
ENDBRANCH  26  29
ENDBRANCH  24  25
ENDBRANCH   1  24
TORSDOF 15
ENDMDL
MODEL 2
REMARK VINA RESULT:     -12.3      5.809     11.948
REMARK SMILES CC(C)N1C[C@@H](C(=O)N2CCC(C(=O)NCCCNC(=O)c3ccc(-c4c5nc(c(-c6cc(S(=O)(=O)[O-])ccc6F)c6ccc([nH]6)c(-c6cc(S(=O)(=O)[O-])ccc6F)c6nc(c(-c7cc(S(=O)(=O)[O-])ccc7F)c7ccc4[nH]7)C=C6)C=C5)cc3)CC2)CC1=O
REMARK SMILES IDX 17 1 16 2 15 3 13 4 14 5 12 7 7 8 8 9 9 10 10 11 86 12 11 13
REMARK SMILES IDX 85 14 6 15 4 16 5 17 88 18 87 19 89 20 2 21 1 22 3 23 18 24
REMARK SMILES IDX 19 25 20 26 21 28 22 29 23 30 84 31 24 32 83 33 25 34 26 35
REMARK SMILES IDX 27 36 77 37 28 38 82 39 76 40 78 41 29 42 81 43 75 44 74 45
REMARK SMILES IDX 30 47 62 48 42 49 61 50 43 51 46 52 60 53 79 54 44 55 45 56
REMARK SMILES IDX 59 58 80 59 47 60 31 61 32 62 40 63 33 64 39 65 41 66 38 67
REMARK SMILES IDX 34 68 35 69 36 70 37 71 63 72 64 73 72 74 65 75 71 76 73 77
REMARK SMILES IDX 70 78 66 79 67 80 68 81 69 82 48 83 49 84 57 85 50 86 56 87
REMARK SMILES IDX 58 88 55 89 51 90 52 91 53 92 54 93
REMARK H PARENT 15 6 19 27 78 46 46 57
REMARK Flexibility Score: inf
ROOT
ATOM      1  C   UNL A   1      37.815  20.389  25.227  1.00  0.00     0.042 C 
ENDROOT
BRANCH   1   2
ATOM      2  C   UNL A   1      36.924  21.590  24.947  1.00  0.00     0.117 C 
BRANCH   2   3
ATOM      3  N   UNL A   1      35.638  21.491  25.624  1.00  0.00    -0.356 N 
ATOM      4  C   UNL A   1      34.565  22.327  25.638  1.00  0.00     0.223 C 
ATOM      5  O   UNL A   1      33.584  22.003  26.313  1.00  0.00    -0.275 OA
ATOM      6  H   UNL A   1      35.524  20.676  26.165  1.00  0.00     0.163 HD
BRANCH   4   7
ATOM      7  C   UNL A   1      34.542  23.609  24.819  1.00  0.00     0.082 C 
ATOM      8  C   UNL A   1      31.550  25.937  23.550  1.00  0.00     0.227 C 
ATOM      9  O   UNL A   1      30.788  25.027  23.212  1.00  0.00    -0.274 OA
ATOM     10  N   UNL A   1      32.907  25.699  23.691  1.00  0.00    -0.342 N 
ATOM     11  C   UNL A   1      33.537  24.740  22.792  1.00  0.00     0.120 C 
ATOM     12  C   UNL A   1      33.690  26.027  24.871  1.00  0.00     0.120 C 
ATOM     13  C   UNL A   1      33.820  23.418  23.481  1.00  0.00     0.035 C 
ATOM     14  C   UNL A   1      34.048  24.783  25.676  1.00  0.00     0.035 C 
BRANCH   8  15
ATOM     15  C   UNL A   1      31.036  27.375  23.525  1.00  0.00     0.107 C 
ATOM     16  N   UNL A   1      29.107  28.614  22.974  1.00  0.00    -0.339 N 
ATOM     17  C   UNL A   1      29.514  27.369  23.582  1.00  0.00     0.133 C 
ATOM     18  C   UNL A   1      30.122  29.139  22.188  1.00  0.00     0.223 C 
ATOM     19  C   UNL A   1      31.378  28.331  22.395  1.00  0.00     0.115 C 
ATOM     20  O   UNL A   1      30.033  30.072  21.402  1.00  0.00    -0.275 OA
BRANCH  16  21
ATOM     21  C   UNL A   1      27.707  29.053  22.889  1.00  0.00     0.078 C 
ATOM     22  C   UNL A   1      26.722  28.107  23.584  1.00  0.00     0.031 C 
ATOM     23  C   UNL A   1      27.521  30.463  23.458  1.00  0.00     0.031 C 
ENDBRANCH  16  21
ENDBRANCH   8  15
ENDBRANCH   4   7
ENDBRANCH   2   3
ENDBRANCH   1   2
BRANCH   1  24
ATOM     24  C   UNL A   1      39.185  20.765  25.767  1.00  0.00     0.118 C 
BRANCH  24  25
ATOM     25  N   UNL A   1      40.072  19.616  25.893  1.00  0.00    -0.352 N 
ATOM     26  C   UNL A   1      41.436  19.583  26.063  1.00  0.00     0.251 C 
ATOM     27  H   UNL A   1      39.630  18.736  25.850  1.00  0.00     0.163 HD
ATOM     28  O   UNL A   1      42.040  18.522  25.940  1.00  0.00    -0.269 OA
BRANCH  26  29
ATOM     29  C   UNL A   1      42.160  20.834  26.367  1.00  0.00     0.039 A 
ATOM     30  C   UNL A   1      42.553  21.673  25.322  1.00  0.00     0.014 A 
ATOM     31  C   UNL A   1      42.421  21.192  27.692  1.00  0.00     0.014 A 
ATOM     32  C   UNL A   1      43.135  22.910  25.612  1.00  0.00     0.010 A 
ATOM     33  C   UNL A   1      42.906  22.461  27.979  1.00  0.00     0.010 A 
ATOM     34  C   UNL A   1      43.273  23.334  26.943  1.00  0.00    -0.014 A 
BRANCH  34  35
ATOM     35  C   UNL A   1      43.818  24.670  27.297  1.00  0.00     0.031 A 
ATOM     36  C   UNL A   1      42.893  25.724  27.843  1.00  0.00     0.074 A 
ATOM     37  C   UNL A   1      45.108  24.967  27.041  1.00  0.00     0.049 A 
ATOM     38  N   UNL A   1      43.113  26.995  28.053  1.00  0.00    -0.248 NA
ATOM     39  C   UNL A   1      41.521  25.292  28.156  1.00  0.00     0.031 C 
ATOM     40  C   UNL A   1      46.098  24.037  26.492  1.00  0.00     0.029 A 
ATOM     41  N   UNL A   1      45.805  26.140  27.189  1.00  0.00    -0.354 N 
ATOM     42  C   UNL A   1      41.905  27.519  28.499  1.00  0.00     0.074 A 
ATOM     43  C   UNL A   1      40.941  26.441  28.465  1.00  0.00     0.031 C 
ATOM     44  C   UNL A   1      47.275  24.670  26.368  1.00  0.00     0.029 A 
ATOM     45  C   UNL A   1      47.113  26.066  26.766  1.00  0.00     0.049 A 
ATOM     46  H   UNL A   1      45.406  26.959  27.562  1.00  0.00     0.167 HD
ATOM     47  C   UNL A   1      41.630  28.779  28.919  1.00  0.00     0.034 A 
ATOM     48  C   UNL A   1      48.064  27.018  26.683  1.00  0.00     0.034 A 
ATOM     49  C   UNL A   1      42.610  29.837  28.957  1.00  0.00     0.049 A 
ATOM     50  C   UNL A   1      47.725  28.424  27.112  1.00  0.00     0.074 A 
ATOM     51  C   UNL A   1      42.454  31.137  29.405  1.00  0.00     0.029 A 
ATOM     52  N   UNL A   1      43.925  29.720  28.527  1.00  0.00    -0.354 N 
ATOM     53  N   UNL A   1      46.584  28.900  27.557  1.00  0.00    -0.248 NA
ATOM     54  C   UNL A   1      48.802  29.420  27.036  1.00  0.00     0.031 C 
ATOM     55  C   UNL A   1      43.649  31.826  29.172  1.00  0.00     0.029 A 
ATOM     56  C   UNL A   1      44.581  30.933  28.670  1.00  0.00     0.049 A 
ATOM     57  H   UNL A   1      44.332  28.897  28.172  1.00  0.00     0.167 HD
ATOM     58  C   UNL A   1      46.823  30.240  27.858  1.00  0.00     0.074 A 
ATOM     59  C   UNL A   1      48.214  30.494  27.544  1.00  0.00     0.031 C 
ATOM     60  C   UNL A   1      45.972  31.172  28.359  1.00  0.00     0.034 A 
BRANCH  47  61
ATOM     61  C   UNL A   1      40.211  29.081  29.336  1.00  0.00     0.023 A 
ATOM     62  C   UNL A   1      39.816  29.066  30.686  1.00  0.00     0.031 A 
ATOM     63  C   UNL A   1      39.228  29.361  28.369  1.00  0.00     0.131 A 
ATOM     64  C   UNL A   1      38.466  29.243  31.024  1.00  0.00     0.055 A 
ATOM     65  C   UNL A   1      37.903  29.628  28.721  1.00  0.00     0.041 A 
ATOM     66  F   UNL A   1      39.535  29.367  27.062  1.00  0.00    -0.206 F 
ATOM     67  C   UNL A   1      37.512  29.554  30.054  1.00  0.00     0.022 A 
BRANCH  64  68
ATOM     68  S   UNL A   1      37.951  28.903  32.730  1.00  0.00     0.124 S 
ATOM     69  O   UNL A   1      37.984  27.442  32.762  1.00  0.00    -0.237 OA
ATOM     70  O   UNL A   1      38.979  29.582  33.511  1.00  0.00    -0.237 OA
ATOM     71  O   UNL A   1      36.616  29.491  32.808  1.00  0.00    -0.744 OA
ENDBRANCH  64  68
ENDBRANCH  47  61
BRANCH  48  72
ATOM     72  C   UNL A   1      49.422  26.689  26.156  1.00  0.00     0.023 A 
ATOM     73  C   UNL A   1      49.833  27.137  24.890  1.00  0.00     0.031 A 
ATOM     74  C   UNL A   1      50.311  25.882  26.888  1.00  0.00     0.131 A 
ATOM     75  C   UNL A   1      51.072  26.732  24.372  1.00  0.00     0.055 A 
ATOM     76  C   UNL A   1      51.569  25.533  26.394  1.00  0.00     0.041 A 
ATOM     77  F   UNL A   1      49.970  25.426  28.104  1.00  0.00    -0.206 F 
ATOM     78  C   UNL A   1      51.950  25.946  25.121  1.00  0.00     0.022 A 
BRANCH  75  79
ATOM     79  S   UNL A   1      51.478  27.160  22.657  1.00  0.00     0.124 S 
ATOM     80  O   UNL A   1      50.260  26.764  21.958  1.00  0.00    -0.237 OA
ATOM     81  O   UNL A   1      51.725  28.594  22.753  1.00  0.00    -0.237 OA
ATOM     82  O   UNL A   1      52.656  26.344  22.372  1.00  0.00    -0.744 OA
ENDBRANCH  75  79
ENDBRANCH  48  72
BRANCH  60  83
ATOM     83  C   UNL A   1      46.541  32.534  28.675  1.00  0.00     0.023 A 
ATOM     84  C   UNL A   1      46.530  33.587  27.745  1.00  0.00     0.031 A 
ATOM     85  C   UNL A   1      47.088  32.781  29.948  1.00  0.00     0.131 A 
ATOM     86  C   UNL A   1      47.100  34.825  28.085  1.00  0.00     0.055 A 
ATOM     87  C   UNL A   1      47.594  34.032  30.302  1.00  0.00     0.041 A 
ATOM     88  F   UNL A   1      47.129  31.811  30.875  1.00  0.00    -0.206 F 
ATOM     89  C   UNL A   1      47.611  35.060  29.364  1.00  0.00     0.022 A 
BRANCH  86  90
ATOM     90  S   UNL A   1      47.241  36.103  26.805  1.00  0.00     0.124 S 
ATOM     91  O   UNL A   1      48.633  35.964  26.390  1.00  0.00    -0.237 OA
ATOM     92  O   UNL A   1      46.240  35.681  25.830  1.00  0.00    -0.237 OA
ATOM     93  O   UNL A   1      46.927  37.339  27.520  1.00  0.00    -0.744 OA
ENDBRANCH  86  90
ENDBRANCH  60  83
ENDBRANCH  34  35
ENDBRANCH  26  29
ENDBRANCH  24  25
ENDBRANCH   1  24
TORSDOF 15
ENDMDL
MODEL 3
REMARK VINA RESULT:     -12.2      6.031     11.569
REMARK SMILES CC(C)N1C[C@@H](C(=O)N2CCC(C(=O)NCCCNC(=O)c3ccc(-c4c5nc(c(-c6cc(S(=O)(=O)[O-])ccc6F)c6ccc([nH]6)c(-c6cc(S(=O)(=O)[O-])ccc6F)c6nc(c(-c7cc(S(=O)(=O)[O-])ccc7F)c7ccc4[nH]7)C=C6)C=C5)cc3)CC2)CC1=O
REMARK SMILES IDX 17 1 16 2 15 3 13 4 14 5 12 7 7 8 8 9 9 10 10 11 86 12 11 13
REMARK SMILES IDX 85 14 6 15 4 16 5 17 88 18 87 19 89 20 2 21 1 22 3 23 18 24
REMARK SMILES IDX 19 25 20 26 21 28 22 29 23 30 84 31 24 32 83 33 25 34 26 35
REMARK SMILES IDX 27 36 77 37 28 38 82 39 76 40 78 41 29 42 81 43 75 44 74 45
REMARK SMILES IDX 30 47 62 48 42 49 61 50 43 51 46 52 60 53 79 54 44 55 45 56
REMARK SMILES IDX 59 58 80 59 47 60 31 61 32 62 40 63 33 64 39 65 41 66 38 67
REMARK SMILES IDX 34 68 35 69 36 70 37 71 63 72 64 73 72 74 65 75 71 76 73 77
REMARK SMILES IDX 70 78 66 79 67 80 68 81 69 82 48 83 49 84 57 85 50 86 56 87
REMARK SMILES IDX 58 88 55 89 51 90 52 91 53 92 54 93
REMARK H PARENT 15 6 19 27 78 46 46 57
REMARK Flexibility Score: inf
ROOT
ATOM      1  C   UNL A   1      37.443  19.572  24.848  1.00  0.00     0.042 C 
ENDROOT
BRANCH   1   2
ATOM      2  C   UNL A   1      36.103  20.285  24.945  1.00  0.00     0.117 C 
BRANCH   2   3
ATOM      3  N   UNL A   1      34.980  19.358  24.888  1.00  0.00    -0.356 N 
ATOM      4  C   UNL A   1      33.668  19.518  25.206  1.00  0.00     0.223 C 
ATOM      5  O   UNL A   1      32.914  18.551  25.070  1.00  0.00    -0.275 OA
ATOM      6  H   UNL A   1      35.212  18.458  24.562  1.00  0.00     0.163 HD
BRANCH   4   7
ATOM      7  C   UNL A   1      33.118  20.856  25.677  1.00  0.00     0.082 C 
ATOM      8  C   UNL A   1      34.540  24.585  25.435  1.00  0.00     0.227 C 
ATOM      9  O   UNL A   1      35.711  24.314  25.715  1.00  0.00    -0.274 OA
ATOM     10  N   UNL A   1      33.520  23.710  25.768  1.00  0.00    -0.342 N 
ATOM     11  C   UNL A   1      33.642  22.946  27.003  1.00  0.00     0.120 C 
ATOM     12  C   UNL A   1      32.521  23.206  24.841  1.00  0.00     0.120 C 
ATOM     13  C   UNL A   1      34.016  21.499  26.740  1.00  0.00     0.035 C 
ATOM     14  C   UNL A   1      32.773  21.746  24.476  1.00  0.00     0.035 C 
BRANCH   8  15
ATOM     15  C   UNL A   1      34.200  26.005  24.986  1.00  0.00     0.107 C 
ATOM     16  N   UNL A   1      32.629  27.717  25.385  1.00  0.00    -0.339 N 
ATOM     17  C   UNL A   1      33.386  26.696  26.071  1.00  0.00     0.133 C 
ATOM     18  C   UNL A   1      32.545  27.445  24.028  1.00  0.00     0.223 C 
ATOM     19  C   UNL A   1      33.442  26.280  23.698  1.00  0.00     0.115 C 
ATOM     20  O   UNL A   1      31.827  28.005  23.210  1.00  0.00    -0.275 OA
BRANCH  16  21
ATOM     21  C   UNL A   1      31.757  28.679  26.074  1.00  0.00     0.078 C 
ATOM     22  C   UNL A   1      31.541  28.361  27.558  1.00  0.00     0.031 C 
ATOM     23  C   UNL A   1      32.287  30.111  25.950  1.00  0.00     0.031 C 
ENDBRANCH  16  21
ENDBRANCH   8  15
ENDBRANCH   4   7
ENDBRANCH   2   3
ENDBRANCH   1   2
BRANCH   1  24
ATOM     24  C   UNL A   1      38.537  20.229  25.673  1.00  0.00     0.118 C 
BRANCH  24  25
ATOM     25  N   UNL A   1      39.692  19.360  25.865  1.00  0.00    -0.352 N 
ATOM     26  C   UNL A   1      40.996  19.693  26.143  1.00  0.00     0.251 C 
ATOM     27  H   UNL A   1      39.511  18.395  25.782  1.00  0.00     0.163 HD
ATOM     28  O   UNL A   1      41.874  18.840  26.063  1.00  0.00    -0.269 OA
BRANCH  26  29
ATOM     29  C   UNL A   1      41.327  21.085  26.510  1.00  0.00     0.039 A 
ATOM     30  C   UNL A   1      41.380  21.446  27.858  1.00  0.00     0.014 A 
ATOM     31  C   UNL A   1      41.617  22.025  25.519  1.00  0.00     0.014 A 
ATOM     32  C   UNL A   1      41.804  22.730  28.212  1.00  0.00     0.010 A 
ATOM     33  C   UNL A   1      42.133  23.264  25.875  1.00  0.00     0.010 A 
ATOM     34  C   UNL A   1      42.229  23.634  27.225  1.00  0.00    -0.014 A 
BRANCH  34  35
ATOM     35  C   UNL A   1      42.756  24.983  27.560  1.00  0.00     0.031 A 
ATOM     36  C   UNL A   1      41.848  25.988  28.215  1.00  0.00     0.074 A 
ATOM     37  C   UNL A   1      44.004  25.334  27.192  1.00  0.00     0.049 A 
ATOM     38  N   UNL A   1      42.041  27.262  28.435  1.00  0.00    -0.248 NA
ATOM     39  C   UNL A   1      40.529  25.497  28.644  1.00  0.00     0.031 C 
ATOM     40  C   UNL A   1      44.972  24.455  26.531  1.00  0.00     0.029 A 
ATOM     41  N   UNL A   1      44.669  26.530  27.303  1.00  0.00    -0.354 N 
ATOM     42  C   UNL A   1      40.862  27.730  29.004  1.00  0.00     0.074 A 
ATOM     43  C   UNL A   1      39.939  26.616  29.034  1.00  0.00     0.031 C 
ATOM     44  C   UNL A   1      46.108  25.135  26.313  1.00  0.00     0.029 A 
ATOM     45  C   UNL A   1      45.933  26.515  26.759  1.00  0.00     0.049 A 
ATOM     46  H   UNL A   1      44.278  27.325  27.732  1.00  0.00     0.167 HD
ATOM     47  C   UNL A   1      40.583  28.969  29.479  1.00  0.00     0.034 A 
ATOM     48  C   UNL A   1      46.837  27.505  26.610  1.00  0.00     0.034 A 
ATOM     49  C   UNL A   1      41.522  30.063  29.451  1.00  0.00     0.049 A 
ATOM     50  C   UNL A   1      46.489  28.887  27.104  1.00  0.00     0.074 A 
ATOM     51  C   UNL A   1      41.362  31.347  29.944  1.00  0.00     0.029 A 
ATOM     52  N   UNL A   1      42.795  30.006  28.898  1.00  0.00    -0.354 N 
ATOM     53  N   UNL A   1      45.379  29.310  27.665  1.00  0.00    -0.248 NA
ATOM     54  C   UNL A   1      47.517  29.926  26.953  1.00  0.00     0.031 C 
ATOM     55  C   UNL A   1      42.504  32.086  29.617  1.00  0.00     0.029 A 
ATOM     56  C   UNL A   1      43.417  31.240  29.009  1.00  0.00     0.049 A 
ATOM     57  H   UNL A   1      43.196  29.207  28.486  1.00  0.00     0.167 HD
ATOM     58  C   UNL A   1      45.596  30.651  27.975  1.00  0.00     0.074 A 
ATOM     59  C   UNL A   1      46.941  30.965  27.539  1.00  0.00     0.031 C 
ATOM     60  C   UNL A   1      44.762  31.539  28.576  1.00  0.00     0.034 A 
BRANCH  47  61
ATOM     61  C   UNL A   1      39.198  29.207  30.034  1.00  0.00     0.023 A 
ATOM     62  C   UNL A   1      38.201  29.858  29.284  1.00  0.00     0.031 A 
ATOM     63  C   UNL A   1      38.875  28.802  31.342  1.00  0.00     0.131 A 
ATOM     64  C   UNL A   1      36.964  30.158  29.874  1.00  0.00     0.055 A 
ATOM     65  C   UNL A   1      37.610  29.022  31.890  1.00  0.00     0.041 A 
ATOM     66  F   UNL A   1      39.790  28.197  32.116  1.00  0.00    -0.206 F 
ATOM     67  C   UNL A   1      36.651  29.718  31.161  1.00  0.00     0.022 A 
BRANCH  64  68
ATOM     68  S   UNL A   1      35.834  31.269  28.992  1.00  0.00     0.124 S 
ATOM     69  O   UNL A   1      36.770  32.163  28.313  1.00  0.00    -0.237 OA
ATOM     70  O   UNL A   1      35.093  30.350  28.136  1.00  0.00    -0.237 OA
ATOM     71  O   UNL A   1      35.058  31.888  30.063  1.00  0.00    -0.744 OA
ENDBRANCH  64  68
ENDBRANCH  47  61
BRANCH  48  72
ATOM     72  C   UNL A   1      48.151  27.240  25.952  1.00  0.00     0.023 A 
ATOM     73  C   UNL A   1      48.323  27.451  24.574  1.00  0.00     0.031 A 
ATOM     74  C   UNL A   1      49.239  26.724  26.679  1.00  0.00     0.131 A 
ATOM     75  C   UNL A   1      49.533  27.099  23.957  1.00  0.00     0.055 A 
ATOM     76  C   UNL A   1      50.462  26.434  26.071  1.00  0.00     0.041 A 
ATOM     77  F   UNL A   1      49.130  26.502  27.998  1.00  0.00    -0.206 F 
ATOM     78  C   UNL A   1      50.609  26.607  24.698  1.00  0.00     0.022 A 
BRANCH  75  79
ATOM     79  S   UNL A   1      49.646  27.195  22.149  1.00  0.00     0.124 S 
ATOM     80  O   UNL A   1      51.059  26.911  21.926  1.00  0.00    -0.237 OA
ATOM     81  O   UNL A   1      48.709  26.157  21.733  1.00  0.00    -0.237 OA
ATOM     82  O   UNL A   1      49.229  28.564  21.855  1.00  0.00    -0.744 OA
ENDBRANCH  75  79
ENDBRANCH  48  72
BRANCH  60  83
ATOM     83  C   UNL A   1      45.309  32.915  28.871  1.00  0.00     0.023 A 
ATOM     84  C   UNL A   1      45.189  33.981  27.964  1.00  0.00     0.031 A 
ATOM     85  C   UNL A   1      45.947  33.161  30.101  1.00  0.00     0.131 A 
ATOM     86  C   UNL A   1      45.742  35.232  28.281  1.00  0.00     0.055 A 
ATOM     87  C   UNL A   1      46.437  34.423  30.437  1.00  0.00     0.041 A 
ATOM     88  F   UNL A   1      46.094  32.178  31.004  1.00  0.00    -0.206 F 
ATOM     89  C   UNL A   1      46.345  35.465  29.519  1.00  0.00     0.022 A 
BRANCH  86  90
ATOM     90  S   UNL A   1      45.738  36.535  27.018  1.00  0.00     0.124 S 
ATOM     91  O   UNL A   1      44.325  36.896  26.959  1.00  0.00    -0.237 OA
ATOM     92  O   UNL A   1      46.628  37.536  27.598  1.00  0.00    -0.237 OA
ATOM     93  O   UNL A   1      46.256  35.861  25.829  1.00  0.00    -0.744 OA
ENDBRANCH  86  90
ENDBRANCH  60  83
ENDBRANCH  34  35
ENDBRANCH  26  29
ENDBRANCH  24  25
ENDBRANCH   1  24
TORSDOF 15
ENDMDL
