MODEL 1
REMARK VINA RESULT:     -13.0      0.000      0.000
REMARK SMILES O=C(NCCCNC(=O)[C@H]1O[C@@H](Oc2c(-c3cc(O)c(O)c(O)c3)oc3cc(O)cc(O)c3c2=O)[C@H](O)[C@@H](O)[C@@H]1O)c1ccc(-c2c3nc(c(-c4cc(S(=O)(=O)[O-])ccc4F)c4ccc([nH]4)c(-c4cc(S(=O)(=O)[O-])ccc4F)c4nc(c(-c5cc(S(=O)(=O)[O-])ccc5F)c5ccc2[nH]5)C=C4)C=C3)cc1
REMARK SMILES IDX 5 1 4 2 3 3 1 4 2 5 42 7 43 8 104 9 44 10 103 11 45 12 46 13
REMARK SMILES IDX 47 14 97 15 48 16 102 17 96 18 98 19 49 20 101 21 95 22
REMARK SMILES IDX 94 23 50 25 82 26 62 27 81 28 63 29 66 30 80 31 99 32 64 33
REMARK SMILES IDX 65 34 79 36 100 37 67 38 51 39 52 40 60 41 53 42 59 43 61 44
REMARK SMILES IDX 58 45 54 46 55 47 56 48 57 49 83 50 84 51 92 52 85 53 91 54
REMARK SMILES IDX 93 55 90 56 86 57 87 58 88 59 89 60 68 61 69 62 77 63 70 64
REMARK SMILES IDX 76 65 78 66 75 67 71 68 72 69 73 70 74 71 6 72 7 73 8 74
REMARK SMILES IDX 9 76 10 77 11 78 40 79 12 80 38 81 36 82 41 83 13 85 14 86
REMARK SMILES IDX 15 87 34 88 25 89 33 90 35 91 26 92 31 93 27 94 30 95 28 96
REMARK SMILES IDX 16 97 17 98 24 99 18 100 22 101 20 102 19 103 23 105 21 107
REMARK SMILES IDX 32 109 29 111 39 113 37 115
REMARK H PARENT 3 6 98 24 66 35 7 75 41 84 19 104 23 106 21 108 32 110 29 112
REMARK H PARENT 39 114 37 116
REMARK Flexibility Score: inf
ROOT
ATOM      1  C   UNL A   1      32.669  29.148  26.241  1.00  0.00     0.042 C 
ENDROOT
BRANCH   1   2
ATOM      2  C   UNL A   1      33.997  29.853  26.429  1.00  0.00     0.118 C 
BRANCH   2   3
ATOM      3  N   UNL A   1      33.836  31.195  26.965  1.00  0.00    -0.352 N 
ATOM      4  O   UNL A   1      34.114  32.870  28.442  1.00  0.00    -0.269 OA
ATOM      5  C   UNL A   1      34.529  31.814  27.979  1.00  0.00     0.251 C 
ATOM      6  H   UNL A   1      33.133  31.737  26.542  1.00  0.00     0.163 HD
BRANCH   5   7
ATOM      7  C   UNL A   1      35.763  31.195  28.518  1.00  0.00     0.039 A 
ATOM      8  C   UNL A   1      37.008  31.790  28.307  1.00  0.00     0.014 A 
ATOM      9  C   UNL A   1      35.673  30.013  29.260  1.00  0.00     0.014 A 
ATOM     10  C   UNL A   1      38.167  31.129  28.690  1.00  0.00     0.010 A 
ATOM     11  C   UNL A   1      36.836  29.410  29.749  1.00  0.00     0.010 A 
ATOM     12  C   UNL A   1      38.097  29.950  29.448  1.00  0.00    -0.014 A 
BRANCH  12  13
ATOM     13  C   UNL A   1      39.353  29.361  29.983  1.00  0.00     0.031 A 
ATOM     14  C   UNL A   1      39.990  29.885  31.240  1.00  0.00     0.074 A 
ATOM     15  C   UNL A   1      39.899  28.317  29.329  1.00  0.00     0.049 A 
ATOM     16  N   UNL A   1      41.087  29.490  31.833  1.00  0.00    -0.248 NA
ATOM     17  C   UNL A   1      39.313  31.003  31.913  1.00  0.00     0.031 C 
ATOM     18  C   UNL A   1      39.365  27.722  28.099  1.00  0.00     0.029 A 
ATOM     19  N   UNL A   1      41.004  27.553  29.607  1.00  0.00    -0.354 N 
ATOM     20  C   UNL A   1      41.241  30.312  32.945  1.00  0.00     0.074 A 
ATOM     21  C   UNL A   1      40.144  31.257  32.915  1.00  0.00     0.031 C 
ATOM     22  C   UNL A   1      40.108  26.660  27.761  1.00  0.00     0.029 A 
ATOM     23  C   UNL A   1      41.223  26.549  28.692  1.00  0.00     0.049 A 
ATOM     24  H   UNL A   1      41.585  27.709  30.386  1.00  0.00     0.167 HD
ATOM     25  C   UNL A   1      42.201  30.270  33.903  1.00  0.00     0.034 A 
ATOM     26  C   UNL A   1      42.226  25.658  28.588  1.00  0.00     0.034 A 
ATOM     27  C   UNL A   1      43.294  29.323  33.905  1.00  0.00     0.049 A 
ATOM     28  C   UNL A   1      43.318  25.684  29.623  1.00  0.00     0.074 A 
ATOM     29  C   UNL A   1      44.316  29.187  34.829  1.00  0.00     0.029 A 
ATOM     30  N   UNL A   1      43.515  28.356  32.931  1.00  0.00    -0.354 N 
ATOM     31  N   UNL A   1      43.443  26.464  30.672  1.00  0.00    -0.248 NA
ATOM     32  C   UNL A   1      44.403  24.709  29.462  1.00  0.00     0.031 C 
ATOM     33  C   UNL A   1      45.192  28.194  34.377  1.00  0.00     0.029 A 
ATOM     34  C   UNL A   1      44.672  27.644  33.216  1.00  0.00     0.049 A 
ATOM     35  H   UNL A   1      42.934  28.198  32.152  1.00  0.00     0.167 HD
ATOM     36  C   UNL A   1      44.608  26.052  31.312  1.00  0.00     0.074 A 
ATOM     37  C   UNL A   1      45.132  24.941  30.543  1.00  0.00     0.031 C 
ATOM     38  C   UNL A   1      45.191  26.546  32.433  1.00  0.00     0.034 A 
BRANCH  25  39
ATOM     39  C   UNL A   1      42.135  31.303  35.005  1.00  0.00     0.023 A 
ATOM     40  C   UNL A   1      41.045  31.371  35.891  1.00  0.00     0.031 A 
ATOM     41  C   UNL A   1      43.168  32.244  35.164  1.00  0.00     0.131 A 
ATOM     42  C   UNL A   1      40.979  32.396  36.847  1.00  0.00     0.055 A 
ATOM     43  C   UNL A   1      43.136  33.211  36.172  1.00  0.00     0.041 A 
ATOM     44  F   UNL A   1      44.225  32.246  34.337  1.00  0.00    -0.206 F 
ATOM     45  C   UNL A   1      42.030  33.301  37.011  1.00  0.00     0.022 A 
BRANCH  42  46
ATOM     46  S   UNL A   1      39.436  32.617  37.775  1.00  0.00     0.124 S 
ATOM     47  O   UNL A   1      38.977  33.915  37.285  1.00  0.00    -0.237 OA
ATOM     48  O   UNL A   1      38.648  31.464  37.360  1.00  0.00    -0.237 OA
ATOM     49  O   UNL A   1      39.870  32.608  39.172  1.00  0.00    -0.744 OA
ENDBRANCH  42  46
ENDBRANCH  25  39
BRANCH  26  50
ATOM     50  C   UNL A   1      42.270  24.700  27.446  1.00  0.00     0.023 A 
ATOM     51  C   UNL A   1      41.502  23.527  27.454  1.00  0.00     0.031 A 
ATOM     52  C   UNL A   1      43.121  24.923  26.347  1.00  0.00     0.131 A 
ATOM     53  C   UNL A   1      41.638  22.596  26.413  1.00  0.00     0.055 A 
ATOM     54  C   UNL A   1      43.201  24.028  25.281  1.00  0.00     0.041 A 
ATOM     55  F   UNL A   1      43.880  26.029  26.287  1.00  0.00    -0.206 F 
ATOM     56  C   UNL A   1      42.469  22.846  25.319  1.00  0.00     0.022 A 
BRANCH  53  57
ATOM     57  S   UNL A   1      40.797  20.998  26.568  1.00  0.00     0.124 S 
ATOM     58  O   UNL A   1      41.665  20.129  25.782  1.00  0.00    -0.237 OA
ATOM     59  O   UNL A   1      40.813  20.786  28.012  1.00  0.00    -0.237 OA
ATOM     60  O   UNL A   1      39.478  21.250  25.990  1.00  0.00    -0.744 OA
ENDBRANCH  53  57
ENDBRANCH  26  50
BRANCH  38  61
ATOM     61  C   UNL A   1      46.440  25.847  32.914  1.00  0.00     0.023 A 
ATOM     62  C   UNL A   1      47.696  26.079  32.325  1.00  0.00     0.031 A 
ATOM     63  C   UNL A   1      46.365  24.908  33.959  1.00  0.00     0.131 A 
ATOM     64  C   UNL A   1      48.811  25.336  32.739  1.00  0.00     0.055 A 
ATOM     65  C   UNL A   1      47.492  24.222  34.415  1.00  0.00     0.041 A 
ATOM     66  F   UNL A   1      45.192  24.641  34.555  1.00  0.00    -0.206 F 
ATOM     67  C   UNL A   1      48.720  24.423  33.793  1.00  0.00     0.022 A 
BRANCH  64  68
ATOM     68  S   UNL A   1      50.359  25.499  31.809  1.00  0.00     0.124 S 
ATOM     69  O   UNL A   1      49.924  26.226  30.620  1.00  0.00    -0.237 OA
ATOM     70  O   UNL A   1      51.205  26.242  32.737  1.00  0.00    -0.237 OA
ATOM     71  O   UNL A   1      50.765  24.114  31.574  1.00  0.00    -0.744 OA
ENDBRANCH  64  68
ENDBRANCH  38  61
ENDBRANCH  12  13
ENDBRANCH   5   7
ENDBRANCH   2   3
ENDBRANCH   1   2
BRANCH   1  72
ATOM     72  C   UNL A   1      32.328  28.821  24.791  1.00  0.00     0.117 C 
BRANCH  72  73
ATOM     73  N   UNL A   1      30.909  28.555  24.557  1.00  0.00    -0.354 N 
ATOM     74  C   UNL A   1      30.299  27.528  23.875  1.00  0.00     0.252 C 
ATOM     75  H   UNL A   1      30.292  29.215  24.950  1.00  0.00     0.163 HD
ATOM     76  O   UNL A   1      29.069  27.509  23.818  1.00  0.00    -0.272 OA
BRANCH  74  77
ATOM     77  C   UNL A   1      31.174  26.420  23.269  1.00  0.00     0.242 C 
ATOM     78  O   UNL A   1      30.589  25.106  23.198  1.00  0.00    -0.324 OA
ATOM     79  C   UNL A   1      31.596  26.762  21.838  1.00  0.00     0.184 C 
ATOM     80  C   UNL A   1      31.611  24.119  23.031  1.00  0.00     0.340 C 
ATOM     81  C   UNL A   1      32.824  25.908  21.539  1.00  0.00     0.181 C 
ATOM     82  C   UNL A   1      32.571  24.436  21.853  1.00  0.00     0.214 C 
BRANCH  79  83
ATOM     83  O   UNL A   1      31.946  28.115  21.600  1.00  0.00    -0.387 OA
ATOM     84  H   UNL A   1      32.398  28.474  22.379  1.00  0.00     0.211 HD
ENDBRANCH  79  83
BRANCH  80  85
ATOM     85  O   UNL A   1      31.160  22.749  22.857  1.00  0.00    -0.454 OA
BRANCH  85  86
ATOM     86  C   UNL A   1      31.827  21.733  23.523  1.00  0.00     0.214 A 
ATOM     87  C   UNL A   1      32.065  21.727  24.855  1.00  0.00     0.181 A 
ATOM     88  C   UNL A   1      32.049  20.450  22.780  1.00  0.00     0.239 A 
ATOM     89  O   UNL A   1      32.646  20.693  25.553  1.00  0.00    -0.452 OA
ATOM     90  C   UNL A   1      32.490  19.275  23.584  1.00  0.00     0.111 A 
ATOM     91  O   UNL A   1      31.815  20.383  21.579  1.00  0.00    -0.285 OA
ATOM     92  C   UNL A   1      32.771  19.481  24.935  1.00  0.00     0.146 A 
ATOM     93  C   UNL A   1      32.608  17.974  23.073  1.00  0.00     0.134 A 
ATOM     94  C   UNL A   1      33.181  18.431  25.759  1.00  0.00     0.094 A 
ATOM     95  C   UNL A   1      33.009  16.911  23.897  1.00  0.00     0.093 A 
ATOM     96  C   UNL A   1      33.292  17.153  25.236  1.00  0.00     0.123 A 
BRANCH  87  97
ATOM     97  C   UNL A   1      31.796  22.885  25.723  1.00  0.00     0.029 A 
ATOM     98  C   UNL A   1      32.821  23.832  25.912  1.00  0.00     0.062 A 
ATOM     99  C   UNL A   1      30.499  23.151  26.196  1.00  0.00     0.062 A 
ATOM    100  C   UNL A   1      32.505  25.087  26.417  1.00  0.00     0.162 A 
ATOM    101  C   UNL A   1      30.204  24.418  26.689  1.00  0.00     0.162 A 
ATOM    102  C   UNL A   1      31.193  25.395  26.756  1.00  0.00     0.200 A 
BRANCH 100 103
ATOM    103  O   UNL A   1      33.471  26.049  26.431  1.00  0.00    -0.504 OA
ATOM    104  H   UNL A   1      33.422  26.772  25.837  1.00  0.00     0.293 HD
ENDBRANCH 100 103
BRANCH 101 105
ATOM    105  O   UNL A   1      28.902  24.738  26.943  1.00  0.00    -0.504 OA
ATOM    106  H   UNL A   1      28.236  24.083  26.873  1.00  0.00     0.293 HD
ENDBRANCH 101 105
BRANCH 102 107
ATOM    107  O   UNL A   1      30.831  26.693  26.985  1.00  0.00    -0.502 OA
ATOM    108  H   UNL A   1      29.924  26.929  27.017  1.00  0.00     0.293 HD
ENDBRANCH 102 107
ENDBRANCH  87  97
BRANCH  93 109
ATOM    109  O   UNL A   1      32.306  17.703  21.768  1.00  0.00    -0.507 OA
ATOM    110  H   UNL A   1      32.187  16.816  21.489  1.00  0.00     0.293 HD
ENDBRANCH  93 109
BRANCH  96 111
ATOM    111  O   UNL A   1      33.669  16.155  26.084  1.00  0.00    -0.508 OA
ATOM    112  H   UNL A   1      33.169  15.363  26.126  1.00  0.00     0.293 HD
ENDBRANCH  96 111
ENDBRANCH  85  86
ENDBRANCH  80  85
BRANCH  81 113
ATOM    113  O   UNL A   1      33.177  26.081  20.143  1.00  0.00    -0.387 OA
ATOM    114  H   UNL A   1      34.006  25.611  19.958  1.00  0.00     0.211 HD
ENDBRANCH  81 113
BRANCH  82 115
ATOM    115  O   UNL A   1      33.822  23.751  22.005  1.00  0.00    -0.384 OA
ATOM    116  H   UNL A   1      33.701  22.809  21.807  1.00  0.00     0.211 HD
ENDBRANCH  82 115
ENDBRANCH  74  77
ENDBRANCH  72  73
ENDBRANCH   1  72
TORSDOF 24
ENDMDL
MODEL 2
REMARK VINA RESULT:     -12.8      2.280      7.889
REMARK SMILES O=C(NCCCNC(=O)[C@H]1O[C@@H](Oc2c(-c3cc(O)c(O)c(O)c3)oc3cc(O)cc(O)c3c2=O)[C@H](O)[C@@H](O)[C@@H]1O)c1ccc(-c2c3nc(c(-c4cc(S(=O)(=O)[O-])ccc4F)c4ccc([nH]4)c(-c4cc(S(=O)(=O)[O-])ccc4F)c4nc(c(-c5cc(S(=O)(=O)[O-])ccc5F)c5ccc2[nH]5)C=C4)C=C3)cc1
REMARK SMILES IDX 5 1 4 2 3 3 1 4 2 5 42 7 43 8 104 9 44 10 103 11 45 12 46 13
REMARK SMILES IDX 47 14 97 15 48 16 102 17 96 18 98 19 49 20 101 21 95 22
REMARK SMILES IDX 94 23 50 25 82 26 62 27 81 28 63 29 66 30 80 31 99 32 64 33
REMARK SMILES IDX 65 34 79 36 100 37 67 38 51 39 52 40 60 41 53 42 59 43 61 44
REMARK SMILES IDX 58 45 54 46 55 47 56 48 57 49 83 50 84 51 92 52 85 53 91 54
REMARK SMILES IDX 93 55 90 56 86 57 87 58 88 59 89 60 68 61 69 62 77 63 70 64
REMARK SMILES IDX 76 65 78 66 75 67 71 68 72 69 73 70 74 71 6 72 7 73 8 74
REMARK SMILES IDX 9 76 10 77 11 78 40 79 12 80 38 81 36 82 41 83 13 85 14 86
REMARK SMILES IDX 15 87 34 88 25 89 33 90 35 91 26 92 31 93 27 94 30 95 28 96
REMARK SMILES IDX 16 97 17 98 24 99 18 100 22 101 20 102 19 103 23 105 21 107
REMARK SMILES IDX 32 109 29 111 39 113 37 115
REMARK H PARENT 3 6 98 24 66 35 7 75 41 84 19 104 23 106 21 108 32 110 29 112
REMARK H PARENT 39 114 37 116
REMARK Flexibility Score: inf
ROOT
ATOM      1  C   UNL A   1      33.636  28.856  25.550  1.00  0.00     0.042 C 
ENDROOT
BRANCH   1   2
ATOM      2  C   UNL A   1      32.847  29.360  26.742  1.00  0.00     0.118 C 
BRANCH   2   3
ATOM      3  N   UNL A   1      32.664  30.802  26.709  1.00  0.00    -0.352 N 
ATOM      4  O   UNL A   1      32.959  32.932  27.373  1.00  0.00    -0.269 OA
ATOM      5  C   UNL A   1      33.389  31.786  27.342  1.00  0.00     0.251 C 
ATOM      6  H   UNL A   1      31.916  31.121  26.155  1.00  0.00     0.163 HD
BRANCH   5   7
ATOM      7  C   UNL A   1      34.676  31.450  27.996  1.00  0.00     0.039 A 
ATOM      8  C   UNL A   1      34.847  30.224  28.641  1.00  0.00     0.014 A 
ATOM      9  C   UNL A   1      35.731  32.365  27.950  1.00  0.00     0.014 A 
ATOM     10  C   UNL A   1      36.002  29.980  29.373  1.00  0.00     0.010 A 
ATOM     11  C   UNL A   1      36.940  32.066  28.588  1.00  0.00     0.010 A 
ATOM     12  C   UNL A   1      37.077  30.879  29.325  1.00  0.00    -0.014 A 
BRANCH  12  13
ATOM     13  C   UNL A   1      38.358  30.506  29.983  1.00  0.00     0.031 A 
ATOM     14  C   UNL A   1      39.368  29.633  29.292  1.00  0.00     0.074 A 
ATOM     15  C   UNL A   1      38.612  30.996  31.213  1.00  0.00     0.049 A 
ATOM     16  N   UNL A   1      40.526  29.209  29.729  1.00  0.00    -0.248 NA
ATOM     17  C   UNL A   1      39.031  29.168  27.939  1.00  0.00     0.031 C 
ATOM     18  C   UNL A   1      37.704  31.857  31.979  1.00  0.00     0.029 A 
ATOM     19  N   UNL A   1      39.706  30.867  32.030  1.00  0.00    -0.354 N 
ATOM     20  C   UNL A   1      41.057  28.422  28.712  1.00  0.00     0.074 A 
ATOM     21  C   UNL A   1      40.068  28.393  27.653  1.00  0.00     0.031 C 
ATOM     22  C   UNL A   1      38.298  32.219  33.124  1.00  0.00     0.029 A 
ATOM     23  C   UNL A   1      39.587  31.548  33.220  1.00  0.00     0.049 A 
ATOM     24  H   UNL A   1      40.500  30.338  31.788  1.00  0.00     0.167 HD
ATOM     25  C   UNL A   1      42.259  27.794  28.667  1.00  0.00     0.034 A 
ATOM     26  C   UNL A   1      40.406  31.601  34.287  1.00  0.00     0.034 A 
ATOM     27  C   UNL A   1      43.224  27.828  29.742  1.00  0.00     0.049 A 
ATOM     28  C   UNL A   1      41.699  30.833  34.239  1.00  0.00     0.074 A 
ATOM     29  C   UNL A   1      44.475  27.235  29.798  1.00  0.00     0.029 A 
ATOM     30  N   UNL A   1      43.046  28.482  30.956  1.00  0.00    -0.354 N 
ATOM     31  N   UNL A   1      42.188  30.100  33.265  1.00  0.00    -0.248 NA
ATOM     32  C   UNL A   1      42.552  30.902  35.430  1.00  0.00     0.031 C 
ATOM     33  C   UNL A   1      45.017  27.466  31.067  1.00  0.00     0.029 A 
ATOM     34  C   UNL A   1      44.147  28.279  31.776  1.00  0.00     0.049 A 
ATOM     35  H   UNL A   1      42.254  29.013  31.199  1.00  0.00     0.167 HD
ATOM     36  C   UNL A   1      43.421  29.643  33.719  1.00  0.00     0.074 A 
ATOM     37  C   UNL A   1      43.608  30.205  35.041  1.00  0.00     0.031 C 
ATOM     38  C   UNL A   1      44.317  28.834  33.099  1.00  0.00     0.034 A 
BRANCH  25  39
ATOM     39  C   UNL A   1      42.578  26.985  27.430  1.00  0.00     0.023 A 
ATOM     40  C   UNL A   1      42.496  25.581  27.423  1.00  0.00     0.031 A 
ATOM     41  C   UNL A   1      42.982  27.623  26.244  1.00  0.00     0.131 A 
ATOM     42  C   UNL A   1      42.880  24.859  26.282  1.00  0.00     0.055 A 
ATOM     43  C   UNL A   1      43.284  26.904  25.085  1.00  0.00     0.041 A 
ATOM     44  F   UNL A   1      43.101  28.959  26.192  1.00  0.00    -0.206 F 
ATOM     45  C   UNL A   1      43.248  25.513  25.103  1.00  0.00     0.022 A 
BRANCH  42  46
ATOM     46  S   UNL A   1      43.031  23.056  26.406  1.00  0.00     0.124 S 
ATOM     47  O   UNL A   1      44.469  22.890  26.602  1.00  0.00    -0.237 OA
ATOM     48  O   UNL A   1      42.191  22.746  27.556  1.00  0.00    -0.237 OA
ATOM     49  O   UNL A   1      42.527  22.580  25.118  1.00  0.00    -0.744 OA
ENDBRANCH  42  46
ENDBRANCH  25  39
BRANCH  26  50
ATOM     50  C   UNL A   1      40.011  32.369  35.503  1.00  0.00     0.023 A 
ATOM     51  C   UNL A   1      39.156  31.813  36.465  1.00  0.00     0.031 A 
ATOM     52  C   UNL A   1      40.447  33.693  35.697  1.00  0.00     0.131 A 
ATOM     53  C   UNL A   1      38.721  32.592  37.548  1.00  0.00     0.055 A 
ATOM     54  C   UNL A   1      40.068  34.441  36.811  1.00  0.00     0.041 A 
ATOM     55  F   UNL A   1      41.267  34.276  34.807  1.00  0.00    -0.206 F 
ATOM     56  C   UNL A   1      39.185  33.896  37.736  1.00  0.00     0.022 A 
BRANCH  53  57
ATOM     57  S   UNL A   1      37.448  31.914  38.646  1.00  0.00     0.124 S 
ATOM     58  O   UNL A   1      38.126  31.940  39.937  1.00  0.00    -0.237 OA
ATOM     59  O   UNL A   1      36.359  32.869  38.473  1.00  0.00    -0.237 OA
ATOM     60  O   UNL A   1      37.201  30.582  38.098  1.00  0.00    -0.744 OA
ENDBRANCH  53  57
ENDBRANCH  26  50
BRANCH  38  61
ATOM     61  C   UNL A   1      45.603  28.554  33.838  1.00  0.00     0.023 A 
ATOM     62  C   UNL A   1      45.756  27.425  34.663  1.00  0.00     0.031 A 
ATOM     63  C   UNL A   1      46.684  29.450  33.739  1.00  0.00     0.131 A 
ATOM     64  C   UNL A   1      46.933  27.256  35.406  1.00  0.00     0.055 A 
ATOM     65  C   UNL A   1      47.880  29.239  34.426  1.00  0.00     0.041 A 
ATOM     66  F   UNL A   1      46.593  30.547  32.971  1.00  0.00    -0.206 F 
ATOM     67  C   UNL A   1      48.003  28.145  35.277  1.00  0.00     0.022 A 
BRANCH  64  68
ATOM     68  S   UNL A   1      47.008  25.916  36.626  1.00  0.00     0.124 S 
ATOM     69  O   UNL A   1      47.766  26.534  37.709  1.00  0.00    -0.237 OA
ATOM     70  O   UNL A   1      45.597  25.662  36.899  1.00  0.00    -0.237 OA
ATOM     71  O   UNL A   1      47.703  24.844  35.915  1.00  0.00    -0.744 OA
ENDBRANCH  64  68
ENDBRANCH  38  61
ENDBRANCH  12  13
ENDBRANCH   5   7
ENDBRANCH   2   3
ENDBRANCH   1   2
BRANCH   1  72
ATOM     72  C   UNL A   1      33.014  29.188  24.197  1.00  0.00     0.117 C 
BRANCH  72  73
ATOM     73  N   UNL A   1      31.608  28.803  24.077  1.00  0.00    -0.354 N 
ATOM     74  C   UNL A   1      31.045  27.594  23.739  1.00  0.00     0.252 C 
ATOM     75  H   UNL A   1      30.963  29.522  24.268  1.00  0.00     0.163 HD
ATOM     76  O   UNL A   1      29.817  27.506  23.712  1.00  0.00    -0.272 OA
BRANCH  74  77
ATOM     77  C   UNL A   1      31.968  26.397  23.472  1.00  0.00     0.242 C 
ATOM     78  O   UNL A   1      31.838  25.274  24.365  1.00  0.00    -0.324 OA
ATOM     79  C   UNL A   1      31.757  25.832  22.065  1.00  0.00     0.184 C 
ATOM     80  C   UNL A   1      33.001  24.444  24.286  1.00  0.00     0.340 C 
ATOM     81  C   UNL A   1      33.018  25.041  21.729  1.00  0.00     0.181 C 
ATOM     82  C   UNL A   1      33.361  24.042  22.831  1.00  0.00     0.214 C 
BRANCH  79  83
ATOM     83  O   UNL A   1      31.563  26.787  21.036  1.00  0.00    -0.387 OA
ATOM     84  H   UNL A   1      30.791  27.337  21.245  1.00  0.00     0.211 HD
ENDBRANCH  79  83
BRANCH  80  85
ATOM     85  O   UNL A   1      32.974  23.222  25.072  1.00  0.00    -0.454 OA
BRANCH  85  86
ATOM     86  C   UNL A   1      34.170  22.586  25.365  1.00  0.00     0.214 A 
ATOM     87  C   UNL A   1      34.472  21.325  24.980  1.00  0.00     0.181 A 
ATOM     88  C   UNL A   1      35.290  23.430  25.892  1.00  0.00     0.239 A 
ATOM     89  O   UNL A   1      35.683  20.702  25.182  1.00  0.00    -0.452 OA
ATOM     90  C   UNL A   1      36.644  22.809  25.920  1.00  0.00     0.111 A 
ATOM     91  O   UNL A   1      35.085  24.593  26.222  1.00  0.00    -0.285 OA
ATOM     92  C   UNL A   1      36.750  21.464  25.566  1.00  0.00     0.146 A 
ATOM     93  C   UNL A   1      37.819  23.502  26.251  1.00  0.00     0.134 A 
ATOM     94  C   UNL A   1      37.984  20.810  25.558  1.00  0.00     0.094 A 
ATOM     95  C   UNL A   1      39.064  22.855  26.235  1.00  0.00     0.093 A 
ATOM     96  C   UNL A   1      39.132  21.510  25.888  1.00  0.00     0.123 A 
BRANCH  87  97
ATOM     97  C   UNL A   1      33.494  20.420  24.354  1.00  0.00     0.029 A 
ATOM     98  C   UNL A   1      32.789  20.877  23.223  1.00  0.00     0.062 A 
ATOM     99  C   UNL A   1      33.399  19.072  24.742  1.00  0.00     0.062 A 
ATOM    100  C   UNL A   1      32.139  19.959  22.408  1.00  0.00     0.162 A 
ATOM    101  C   UNL A   1      32.752  18.170  23.905  1.00  0.00     0.162 A 
ATOM    102  C   UNL A   1      32.164  18.605  22.721  1.00  0.00     0.200 A 
BRANCH 100 103
ATOM    103  O   UNL A   1      31.611  20.391  21.227  1.00  0.00    -0.504 OA
ATOM    104  H   UNL A   1      32.123  20.925  20.652  1.00  0.00     0.293 HD
ENDBRANCH 100 103
BRANCH 101 105
ATOM    105  O   UNL A   1      32.848  16.836  24.176  1.00  0.00    -0.504 OA
ATOM    106  H   UNL A   1      33.119  16.548  25.025  1.00  0.00     0.293 HD
ENDBRANCH 101 105
BRANCH 102 107
ATOM    107  O   UNL A   1      31.774  17.680  21.793  1.00  0.00    -0.502 OA
ATOM    108  H   UNL A   1      32.410  17.119  21.395  1.00  0.00     0.293 HD
ENDBRANCH 102 107
ENDBRANCH  87  97
BRANCH  93 109
ATOM    109  O   UNL A   1      37.784  24.831  26.566  1.00  0.00    -0.507 OA
ATOM    110  H   UNL A   1      36.995  25.321  26.443  1.00  0.00     0.293 HD
ENDBRANCH  93 109
BRANCH  96 111
ATOM    111  O   UNL A   1      40.316  20.838  25.840  1.00  0.00    -0.508 OA
ATOM    112  H   UNL A   1      40.397  20.068  25.312  1.00  0.00     0.293 HD
ENDBRANCH  96 111
ENDBRANCH  85  86
ENDBRANCH  80  85
BRANCH  81 113
ATOM    113  O   UNL A   1      32.811  24.359  20.465  1.00  0.00    -0.387 OA
ATOM    114  H   UNL A   1      32.910  24.992  19.736  1.00  0.00     0.211 HD
ENDBRANCH  81 113
BRANCH  82 115
ATOM    115  O   UNL A   1      34.739  23.658  22.725  1.00  0.00    -0.384 OA
ATOM    116  H   UNL A   1      34.796  22.710  22.531  1.00  0.00     0.211 HD
ENDBRANCH  82 115
ENDBRANCH  74  77
ENDBRANCH  72  73
ENDBRANCH   1  72
TORSDOF 24
ENDMDL
MODEL 3
REMARK VINA RESULT:     -12.7      2.248      4.040
REMARK SMILES O=C(NCCCNC(=O)[C@H]1O[C@@H](Oc2c(-c3cc(O)c(O)c(O)c3)oc3cc(O)cc(O)c3c2=O)[C@H](O)[C@@H](O)[C@@H]1O)c1ccc(-c2c3nc(c(-c4cc(S(=O)(=O)[O-])ccc4F)c4ccc([nH]4)c(-c4cc(S(=O)(=O)[O-])ccc4F)c4nc(c(-c5cc(S(=O)(=O)[O-])ccc5F)c5ccc2[nH]5)C=C4)C=C3)cc1
REMARK SMILES IDX 5 1 4 2 3 3 1 4 2 5 42 7 43 8 104 9 44 10 103 11 45 12 46 13
REMARK SMILES IDX 47 14 97 15 48 16 102 17 96 18 98 19 49 20 101 21 95 22
REMARK SMILES IDX 94 23 50 25 82 26 62 27 81 28 63 29 66 30 80 31 99 32 64 33
REMARK SMILES IDX 65 34 79 36 100 37 67 38 51 39 52 40 60 41 53 42 59 43 61 44
REMARK SMILES IDX 58 45 54 46 55 47 56 48 57 49 83 50 84 51 92 52 85 53 91 54
REMARK SMILES IDX 93 55 90 56 86 57 87 58 88 59 89 60 68 61 69 62 77 63 70 64
REMARK SMILES IDX 76 65 78 66 75 67 71 68 72 69 73 70 74 71 6 72 7 73 8 74
REMARK SMILES IDX 9 76 10 77 11 78 40 79 12 80 38 81 36 82 41 83 13 85 14 86
REMARK SMILES IDX 15 87 34 88 25 89 33 90 35 91 26 92 31 93 27 94 30 95 28 96
REMARK SMILES IDX 16 97 17 98 24 99 18 100 22 101 20 102 19 103 23 105 21 107
REMARK SMILES IDX 32 109 29 111 39 113 37 115
REMARK H PARENT 3 6 98 24 66 35 7 75 41 84 19 104 23 106 21 108 32 110 29 112
REMARK H PARENT 39 114 37 116
REMARK Flexibility Score: inf
ROOT
ATOM      1  C   UNL A   1      33.543  28.842  25.066  1.00  0.00     0.042 C 
ENDROOT
BRANCH   1   2
ATOM      2  C   UNL A   1      32.839  29.208  26.357  1.00  0.00     0.118 C 
BRANCH   2   3
ATOM      3  N   UNL A   1      32.544  30.630  26.437  1.00  0.00    -0.352 N 
ATOM      4  O   UNL A   1      32.648  32.711  27.288  1.00  0.00    -0.269 OA
ATOM      5  C   UNL A   1      33.168  31.607  27.178  1.00  0.00     0.251 C 
ATOM      6  H   UNL A   1      31.792  30.937  25.882  1.00  0.00     0.163 HD
BRANCH   5   7
ATOM      7  C   UNL A   1      34.454  31.315  27.853  1.00  0.00     0.039 A 
ATOM      8  C   UNL A   1      34.716  30.042  28.364  1.00  0.00     0.014 A 
ATOM      9  C   UNL A   1      35.419  32.320  27.961  1.00  0.00     0.014 A 
ATOM     10  C   UNL A   1      35.860  29.819  29.118  1.00  0.00     0.010 A 
ATOM     11  C   UNL A   1      36.625  32.058  28.620  1.00  0.00     0.010 A 
ATOM     12  C   UNL A   1      36.847  30.811  29.226  1.00  0.00    -0.014 A 
BRANCH  12  13
ATOM     13  C   UNL A   1      38.130  30.481  29.899  1.00  0.00     0.031 A 
ATOM     14  C   UNL A   1      38.439  30.980  31.284  1.00  0.00     0.074 A 
ATOM     15  C   UNL A   1      39.009  29.692  29.250  1.00  0.00     0.049 A 
ATOM     16  N   UNL A   1      39.513  30.790  32.006  1.00  0.00    -0.248 NA
ATOM     17  C   UNL A   1      37.414  31.806  31.938  1.00  0.00     0.031 C 
ATOM     18  C   UNL A   1      38.814  29.146  27.902  1.00  0.00     0.029 A 
ATOM     19  N   UNL A   1      40.227  29.190  29.631  1.00  0.00    -0.354 N 
ATOM     20  C   UNL A   1      39.301  31.477  33.198  1.00  0.00     0.074 A 
ATOM     21  C   UNL A   1      38.011  32.125  33.078  1.00  0.00     0.031 C 
ATOM     22  C   UNL A   1      39.843  28.348  27.594  1.00  0.00     0.029 A 
ATOM     23  C   UNL A   1      40.817  28.393  28.677  1.00  0.00     0.049 A 
ATOM     24  H   UNL A   1      40.640  29.381  30.504  1.00  0.00     0.167 HD
ATOM     25  C   UNL A   1      40.105  31.548  34.289  1.00  0.00     0.034 A 
ATOM     26  C   UNL A   1      42.021  27.792  28.655  1.00  0.00     0.034 A 
ATOM     27  C   UNL A   1      41.395  30.902  34.380  1.00  0.00     0.049 A 
ATOM     28  C   UNL A   1      42.923  27.950  29.849  1.00  0.00     0.074 A 
ATOM     29  C   UNL A   1      42.287  30.901  35.440  1.00  0.00     0.029 A 
ATOM     30  N   UNL A   1      41.985  30.148  33.372  1.00  0.00    -0.354 N 
ATOM     31  N   UNL A   1      42.703  28.598  30.971  1.00  0.00    -0.248 NA
ATOM     32  C   UNL A   1      44.234  27.296  29.776  1.00  0.00     0.031 C 
ATOM     33  C   UNL A   1      43.441  30.215  35.046  1.00  0.00     0.029 A 
ATOM     34  C   UNL A   1      43.239  29.708  33.773  1.00  0.00     0.049 A 
ATOM     35  H   UNL A   1      41.573  29.954  32.499  1.00  0.00     0.167 HD
ATOM     36  C   UNL A   1      43.839  28.402  31.749  1.00  0.00     0.074 A 
ATOM     37  C   UNL A   1      44.729  27.558  30.976  1.00  0.00     0.031 C 
ATOM     38  C   UNL A   1      44.122  28.877  32.988  1.00  0.00     0.034 A 
BRANCH  25  39
ATOM     39  C   UNL A   1      39.629  32.386  35.454  1.00  0.00     0.023 A 
ATOM     40  C   UNL A   1      39.951  33.750  35.565  1.00  0.00     0.031 A 
ATOM     41  C   UNL A   1      38.853  31.811  36.477  1.00  0.00     0.131 A 
ATOM     42  C   UNL A   1      39.561  34.475  36.702  1.00  0.00     0.055 A 
ATOM     43  C   UNL A   1      38.398  32.558  37.566  1.00  0.00     0.041 A 
ATOM     44  F   UNL A   1      38.530  30.509  36.441  1.00  0.00    -0.206 F 
ATOM     45  C   UNL A   1      38.763  33.895  37.690  1.00  0.00     0.022 A 
BRANCH  42  46
ATOM     46  S   UNL A   1      40.233  36.143  36.939  1.00  0.00     0.124 S 
ATOM     47  O   UNL A   1      39.447  36.622  38.074  1.00  0.00    -0.237 OA
ATOM     48  O   UNL A   1      41.642  35.883  37.204  1.00  0.00    -0.237 OA
ATOM     49  O   UNL A   1      39.949  36.812  35.670  1.00  0.00    -0.744 OA
ENDBRANCH  42  46
ENDBRANCH  25  39
BRANCH  26  50
ATOM     50  C   UNL A   1      42.461  27.026  27.454  1.00  0.00     0.023 A 
ATOM     51  C   UNL A   1      42.417  25.625  27.431  1.00  0.00     0.031 A 
ATOM     52  C   UNL A   1      42.978  27.687  26.324  1.00  0.00     0.131 A 
ATOM     53  C   UNL A   1      42.930  24.927  26.327  1.00  0.00     0.055 A 
ATOM     54  C   UNL A   1      43.422  26.992  25.200  1.00  0.00     0.041 A 
ATOM     55  F   UNL A   1      43.044  29.028  26.290  1.00  0.00    -0.206 F 
ATOM     56  C   UNL A   1      43.417  25.602  25.205  1.00  0.00     0.022 A 
BRANCH  53  57
ATOM     57  S   UNL A   1      43.058  23.122  26.428  1.00  0.00     0.124 S 
ATOM     58  O   UNL A   1      42.667  22.722  25.081  1.00  0.00    -0.237 OA
ATOM     59  O   UNL A   1      44.464  22.937  26.771  1.00  0.00    -0.237 OA
ATOM     60  O   UNL A   1      42.108  22.773  27.483  1.00  0.00    -0.744 OA
ENDBRANCH  53  57
ENDBRANCH  26  50
BRANCH  38  61
ATOM     61  C   UNL A   1      45.434  28.445  33.597  1.00  0.00     0.023 A 
ATOM     62  C   UNL A   1      46.613  29.194  33.430  1.00  0.00     0.031 A 
ATOM     63  C   UNL A   1      45.512  27.247  34.331  1.00  0.00     0.131 A 
ATOM     64  C   UNL A   1      47.829  28.706  33.932  1.00  0.00     0.055 A 
ATOM     65  C   UNL A   1      46.711  26.802  34.888  1.00  0.00     0.041 A 
ATOM     66  F   UNL A   1      44.420  26.488  34.518  1.00  0.00    -0.206 F 
ATOM     67  C   UNL A   1      47.881  27.525  34.676  1.00  0.00     0.022 A 
BRANCH  64  68
ATOM     68  S   UNL A   1      49.360  29.581  33.506  1.00  0.00     0.124 S 
ATOM     69  O   UNL A   1      50.319  28.484  33.413  1.00  0.00    -0.237 OA
ATOM     70  O   UNL A   1      49.010  30.230  32.248  1.00  0.00    -0.237 OA
ATOM     71  O   UNL A   1      49.562  30.487  34.636  1.00  0.00    -0.744 OA
ENDBRANCH  64  68
ENDBRANCH  38  61
ENDBRANCH  12  13
ENDBRANCH   5   7
ENDBRANCH   2   3
ENDBRANCH   1   2
BRANCH   1  72
ATOM     72  C   UNL A   1      32.765  29.194  23.802  1.00  0.00     0.117 C 
BRANCH  72  73
ATOM     73  N   UNL A   1      31.379  28.724  23.805  1.00  0.00    -0.354 N 
ATOM     74  C   UNL A   1      30.869  27.462  23.609  1.00  0.00     0.252 C 
ATOM     75  H   UNL A   1      30.705  29.422  23.975  1.00  0.00     0.163 HD
ATOM     76  O   UNL A   1      29.649  27.306  23.668  1.00  0.00    -0.272 OA
BRANCH  74  77
ATOM     77  C   UNL A   1      31.845  26.297  23.386  1.00  0.00     0.242 C 
ATOM     78  O   UNL A   1      31.727  25.180  24.288  1.00  0.00    -0.324 OA
ATOM     79  C   UNL A   1      31.701  25.709  21.980  1.00  0.00     0.184 C 
ATOM     80  C   UNL A   1      32.922  24.393  24.257  1.00  0.00     0.340 C 
ATOM     81  C   UNL A   1      33.000  24.962  21.694  1.00  0.00     0.181 C 
ATOM     82  C   UNL A   1      33.344  23.989  22.819  1.00  0.00     0.214 C 
BRANCH  79  83
ATOM     83  O   UNL A   1      31.505  26.645  20.933  1.00  0.00    -0.387 OA
ATOM     84  H   UNL A   1      30.644  26.488  20.515  1.00  0.00     0.211 HD
ENDBRANCH  79  83
BRANCH  80  85
ATOM     85  O   UNL A   1      32.914  23.180  25.056  1.00  0.00    -0.454 OA
BRANCH  85  86
ATOM     86  C   UNL A   1      34.120  22.560  25.347  1.00  0.00     0.214 A 
ATOM     87  C   UNL A   1      34.441  21.306  24.954  1.00  0.00     0.181 A 
ATOM     88  C   UNL A   1      35.227  23.418  25.881  1.00  0.00     0.239 A 
ATOM     89  O   UNL A   1      35.661  20.701  25.153  1.00  0.00    -0.452 OA
ATOM     90  C   UNL A   1      36.589  22.817  25.907  1.00  0.00     0.111 A 
ATOM     91  O   UNL A   1      35.004  24.575  26.219  1.00  0.00    -0.285 OA
ATOM     92  C   UNL A   1      36.716  21.476  25.544  1.00  0.00     0.146 A 
ATOM     93  C   UNL A   1      37.753  23.525  26.243  1.00  0.00     0.134 A 
ATOM     94  C   UNL A   1      37.960  20.841  25.533  1.00  0.00     0.094 A 
ATOM     95  C   UNL A   1      39.008  22.897  26.225  1.00  0.00     0.093 A 
ATOM     96  C   UNL A   1      39.097  21.556  25.869  1.00  0.00     0.123 A 
BRANCH  87  97
ATOM     97  C   UNL A   1      33.478  20.391  24.320  1.00  0.00     0.029 A 
ATOM     98  C   UNL A   1      32.744  20.856  23.211  1.00  0.00     0.062 A 
ATOM     99  C   UNL A   1      33.424  19.032  24.677  1.00  0.00     0.062 A 
ATOM    100  C   UNL A   1      32.106  19.941  22.384  1.00  0.00     0.162 A 
ATOM    101  C   UNL A   1      32.788  18.134  23.828  1.00  0.00     0.162 A 
ATOM    102  C   UNL A   1      32.171  18.581  22.664  1.00  0.00     0.200 A 
BRANCH 100 103
ATOM    103  O   UNL A   1      31.549  20.386  21.222  1.00  0.00    -0.504 OA
ATOM    104  H   UNL A   1      32.090  20.542  20.472  1.00  0.00     0.293 HD
ENDBRANCH 100 103
BRANCH 101 105
ATOM    105  O   UNL A   1      32.924  16.796  24.065  1.00  0.00    -0.504 OA
ATOM    106  H   UNL A   1      32.554  16.417  24.838  1.00  0.00     0.293 HD
ENDBRANCH 101 105
BRANCH 102 107
ATOM    107  O   UNL A   1      31.791  17.668  21.719  1.00  0.00    -0.502 OA
ATOM    108  H   UNL A   1      31.383  17.956  20.927  1.00  0.00     0.293 HD
ENDBRANCH 102 107
ENDBRANCH  87  97
BRANCH  93 109
ATOM    109  O   UNL A   1      37.698  24.852  26.567  1.00  0.00    -0.507 OA
ATOM    110  H   UNL A   1      37.768  25.118  27.463  1.00  0.00     0.293 HD
ENDBRANCH  93 109
BRANCH  96 111
ATOM    111  O   UNL A   1      40.291  20.903  25.818  1.00  0.00    -0.508 OA
ATOM    112  H   UNL A   1      40.545  20.335  26.520  1.00  0.00     0.293 HD
ENDBRANCH  96 111
ENDBRANCH  85  86
ENDBRANCH  80  85
BRANCH  81 113
ATOM    113  O   UNL A   1      32.859  24.259  20.433  1.00  0.00    -0.387 OA
ATOM    114  H   UNL A   1      33.605  24.482  19.853  1.00  0.00     0.211 HD
ENDBRANCH  81 113
BRANCH  82 115
ATOM    115  O   UNL A   1      34.738  23.656  22.762  1.00  0.00    -0.384 OA
ATOM    116  H   UNL A   1      35.259  24.380  23.140  1.00  0.00     0.211 HD
ENDBRANCH  82 115
ENDBRANCH  74  77
ENDBRANCH  72  73
ENDBRANCH   1  72
TORSDOF 24
ENDMDL
