MODEL 1
REMARK VINA RESULT:     -13.4      0.000      0.000
REMARK SMILES O=C(NCCCNC(=O)[C@H]1[C@H]2CC[C@H](C2)[C@@H]1C(=O)N1CCN(c2cccc(Cl)c2)CC1)c1ccc(-c2c3nc(c(-c4cc(S(=O)(=O)[O-])ccc4F)c4ccc([nH]4)c(-c4cc(S(=O)(=O)[O-])ccc4F)c4nc(c(-c5cc(S(=O)(=O)[O-])ccc5F)c5ccc2[nH]5)C=C4)C=C3)cc1
REMARK SMILES IDX 4 1 3 2 1 3 2 4 32 6 33 7 94 8 34 9 93 10 35 11 36 12 37 13
REMARK SMILES IDX 87 14 38 15 92 16 86 17 88 18 39 19 91 20 85 21 84 22 40 24
REMARK SMILES IDX 72 25 52 26 71 27 53 28 56 29 70 30 89 31 54 32 55 33 69 35
REMARK SMILES IDX 90 36 57 37 41 38 42 39 50 40 43 41 49 42 51 43 48 44 44 45
REMARK SMILES IDX 45 46 46 47 47 48 73 49 74 50 82 51 75 52 81 53 83 54 80 55
REMARK SMILES IDX 76 56 77 57 78 58 79 59 58 60 59 61 67 62 60 63 66 64 68 65
REMARK SMILES IDX 65 66 61 67 62 68 63 69 64 70 5 71 6 72 7 73 8 74 9 76 10 77
REMARK SMILES IDX 11 78 16 79 12 80 15 81 14 82 13 83 17 84 18 85 19 86 20 87
REMARK SMILES IDX 31 88 21 89 30 90 22 91 23 92 24 93 29 94 25 95 27 96 26 97
REMARK SMILES IDX 28 98
REMARK H PARENT 3 5 88 23 56 34 7 75
REMARK Flexibility Score: inf
ROOT
ATOM      1  C   UNL A   1      39.320  20.145  25.941  1.00  0.00     0.118 C 
ENDROOT
BRANCH   1   2
ATOM      2  N   UNL A   1      40.420  19.197  26.068  1.00  0.00    -0.352 N 
ATOM      3  O   UNL A   1      42.555  18.501  25.932  1.00  0.00    -0.269 OA
ATOM      4  C   UNL A   1      41.776  19.425  26.136  1.00  0.00     0.251 C 
ATOM      5  H   UNL A   1      40.153  18.251  26.112  1.00  0.00     0.163 HD
BRANCH   4   6
ATOM      6  C   UNL A   1      42.286  20.782  26.439  1.00  0.00     0.039 A 
ATOM      7  C   UNL A   1      42.459  21.709  25.414  1.00  0.00     0.014 A 
ATOM      8  C   UNL A   1      42.556  21.154  27.759  1.00  0.00     0.014 A 
ATOM      9  C   UNL A   1      43.086  22.916  25.666  1.00  0.00     0.010 A 
ATOM     10  C   UNL A   1      43.032  22.442  28.034  1.00  0.00     0.010 A 
ATOM     11  C   UNL A   1      43.319  23.329  26.985  1.00  0.00    -0.014 A 
BRANCH  11  12
ATOM     12  C   UNL A   1      43.745  24.733  27.214  1.00  0.00     0.031 A 
ATOM     13  C   UNL A   1      42.797  25.762  27.758  1.00  0.00     0.074 A 
ATOM     14  C   UNL A   1      45.033  25.052  26.961  1.00  0.00     0.049 A 
ATOM     15  N   UNL A   1      43.016  27.027  28.006  1.00  0.00    -0.248 NA
ATOM     16  C   UNL A   1      41.426  25.321  28.050  1.00  0.00     0.031 C 
ATOM     17  C   UNL A   1      46.042  24.124  26.432  1.00  0.00     0.029 A 
ATOM     18  N   UNL A   1      45.730  26.219  27.137  1.00  0.00    -0.354 N 
ATOM     19  C   UNL A   1      41.807  27.543  28.462  1.00  0.00     0.074 A 
ATOM     20  C   UNL A   1      40.851  26.455  28.429  1.00  0.00     0.031 C 
ATOM     21  C   UNL A   1      47.232  24.734  26.396  1.00  0.00     0.029 A 
ATOM     22  C   UNL A   1      47.058  26.124  26.788  1.00  0.00     0.049 A 
ATOM     23  H   UNL A   1      45.320  27.046  27.481  1.00  0.00     0.167 HD
ATOM     24  C   UNL A   1      41.531  28.807  28.868  1.00  0.00     0.034 A 
ATOM     25  C   UNL A   1      48.025  27.059  26.743  1.00  0.00     0.034 A 
ATOM     26  C   UNL A   1      42.509  29.871  28.894  1.00  0.00     0.049 A 
ATOM     27  C   UNL A   1      47.672  28.464  27.150  1.00  0.00     0.074 A 
ATOM     28  C   UNL A   1      42.342  31.181  29.309  1.00  0.00     0.029 A 
ATOM     29  N   UNL A   1      43.830  29.753  28.480  1.00  0.00    -0.354 N 
ATOM     30  N   UNL A   1      46.523  28.931  27.581  1.00  0.00    -0.248 NA
ATOM     31  C   UNL A   1      48.739  29.463  27.061  1.00  0.00     0.031 C 
ATOM     32  C   UNL A   1      43.536  31.872  29.075  1.00  0.00     0.029 A 
ATOM     33  C   UNL A   1      44.478  30.975  28.597  1.00  0.00     0.049 A 
ATOM     34  H   UNL A   1      44.246  28.924  28.152  1.00  0.00     0.167 HD
ATOM     35  C   UNL A   1      46.740  30.279  27.838  1.00  0.00     0.074 A 
ATOM     36  C   UNL A   1      48.134  30.540  27.538  1.00  0.00     0.031 C 
ATOM     37  C   UNL A   1      45.866  31.219  28.282  1.00  0.00     0.034 A 
BRANCH  24  38
ATOM     38  C   UNL A   1      40.108  29.123  29.267  1.00  0.00     0.023 A 
ATOM     39  C   UNL A   1      39.705  29.181  30.612  1.00  0.00     0.031 A 
ATOM     40  C   UNL A   1      39.139  29.375  28.278  1.00  0.00     0.131 A 
ATOM     41  C   UNL A   1      38.360  29.430  30.930  1.00  0.00     0.055 A 
ATOM     42  C   UNL A   1      37.820  29.697  28.603  1.00  0.00     0.041 A 
ATOM     43  F   UNL A   1      39.459  29.310  26.976  1.00  0.00    -0.206 F 
ATOM     44  C   UNL A   1      37.420  29.714  29.936  1.00  0.00     0.022 A 
BRANCH  41  45
ATOM     45  S   UNL A   1      37.828  29.257  32.656  1.00  0.00     0.124 S 
ATOM     46  O   UNL A   1      36.558  29.982  32.649  1.00  0.00    -0.237 OA
ATOM     47  O   UNL A   1      37.734  27.811  32.816  1.00  0.00    -0.237 OA
ATOM     48  O   UNL A   1      38.898  29.902  33.413  1.00  0.00    -0.744 OA
ENDBRANCH  41  45
ENDBRANCH  24  38
BRANCH  25  49
ATOM     49  C   UNL A   1      49.389  26.716  26.247  1.00  0.00     0.023 A 
ATOM     50  C   UNL A   1      49.833  27.146  24.989  1.00  0.00     0.031 A 
ATOM     51  C   UNL A   1      50.256  25.913  27.012  1.00  0.00     0.131 A 
ATOM     52  C   UNL A   1      51.083  26.728  24.509  1.00  0.00     0.055 A 
ATOM     53  C   UNL A   1      51.527  25.558  26.561  1.00  0.00     0.041 A 
ATOM     54  F   UNL A   1      49.884  25.472  28.225  1.00  0.00    -0.206 F 
ATOM     55  C   UNL A   1      51.941  25.952  25.293  1.00  0.00     0.022 A 
BRANCH  52  56
ATOM     56  S   UNL A   1      51.526  27.118  22.795  1.00  0.00     0.124 S 
ATOM     57  O   UNL A   1      50.323  26.710  22.078  1.00  0.00    -0.237 OA
ATOM     58  O   UNL A   1      51.774  28.554  22.867  1.00  0.00    -0.237 OA
ATOM     59  O   UNL A   1      52.708  26.293  22.553  1.00  0.00    -0.744 OA
ENDBRANCH  52  56
ENDBRANCH  25  49
BRANCH  37  60
ATOM     60  C   UNL A   1      46.421  32.603  28.513  1.00  0.00     0.023 A 
ATOM     61  C   UNL A   1      46.644  33.498  27.452  1.00  0.00     0.031 A 
ATOM     62  C   UNL A   1      46.757  33.019  29.813  1.00  0.00     0.131 A 
ATOM     63  C   UNL A   1      47.248  34.739  27.702  1.00  0.00     0.055 A 
ATOM     64  C   UNL A   1      47.293  34.283  30.064  1.00  0.00     0.041 A 
ATOM     65  F   UNL A   1      46.570  32.202  30.862  1.00  0.00    -0.206 F 
ATOM     66  C   UNL A   1      47.556  35.145  29.003  1.00  0.00     0.022 A 
BRANCH  63  67
ATOM     67  S   UNL A   1      47.726  35.773  26.291  1.00  0.00     0.124 S 
ATOM     68  O   UNL A   1      49.147  35.987  26.539  1.00  0.00    -0.237 OA
ATOM     69  O   UNL A   1      47.400  34.918  25.153  1.00  0.00    -0.237 OA
ATOM     70  O   UNL A   1      46.884  36.958  26.435  1.00  0.00    -0.744 OA
ENDBRANCH  63  67
ENDBRANCH  37  60
ENDBRANCH  11  12
ENDBRANCH   4   6
ENDBRANCH   1   2
BRANCH   1  71
ATOM     71  C   UNL A   1      38.356  19.725  24.851  1.00  0.00     0.042 C 
BRANCH  71  72
ATOM     72  C   UNL A   1      37.001  20.385  25.011  1.00  0.00     0.117 C 
BRANCH  72  73
ATOM     73  N   UNL A   1      37.095  21.756  25.481  1.00  0.00    -0.356 N 
ATOM     74  C   UNL A   1      36.232  22.779  25.633  1.00  0.00     0.224 C 
ATOM     75  H   UNL A   1      38.011  21.996  25.753  1.00  0.00     0.163 HD
ATOM     76  O   UNL A   1      36.719  23.815  26.111  1.00  0.00    -0.275 OA
BRANCH  74  77
ATOM     77  C   UNL A   1      34.774  22.805  25.213  1.00  0.00     0.094 C 
ATOM     78  C   UNL A   1      33.947  21.615  25.760  1.00  0.00     0.002 C 
ATOM     79  C   UNL A   1      33.865  24.030  25.446  1.00  0.00     0.094 C 
ATOM     80  C   UNL A   1      33.792  21.673  27.278  1.00  0.00     0.005 C 
ATOM     81  C   UNL A   1      32.542  22.017  25.325  1.00  0.00     0.009 C 
ATOM     82  C   UNL A   1      32.599  23.372  26.032  1.00  0.00     0.002 C 
ATOM     83  C   UNL A   1      32.897  22.904  27.481  1.00  0.00     0.005 C 
BRANCH  79  84
ATOM     84  C   UNL A   1      33.876  24.873  24.169  1.00  0.00     0.226 C 
ATOM     85  O   UNL A   1      34.560  24.481  23.216  1.00  0.00    -0.275 OA
ATOM     86  N   UNL A   1      32.933  25.853  23.991  1.00  0.00    -0.339 N 
ATOM     87  C   UNL A   1      32.341  26.005  22.659  1.00  0.00     0.141 C 
ATOM     88  C   UNL A   1      32.826  27.048  24.828  1.00  0.00     0.141 C 
ATOM     89  C   UNL A   1      30.863  26.420  22.774  1.00  0.00     0.138 C 
ATOM     90  C   UNL A   1      31.379  27.553  24.935  1.00  0.00     0.138 C 
ATOM     91  N   UNL A   1      30.772  27.636  23.595  1.00  0.00    -0.368 N 
BRANCH  91  92
ATOM     92  C   UNL A   1      29.741  28.540  23.443  1.00  0.00     0.038 A 
ATOM     93  C   UNL A   1      28.459  28.051  23.149  1.00  0.00     0.026 A 
ATOM     94  C   UNL A   1      29.912  29.922  23.558  1.00  0.00     0.046 A 
ATOM     95  C   UNL A   1      27.374  28.905  22.972  1.00  0.00     0.004 A 
ATOM     96  C   UNL A   1      28.827  30.782  23.368  1.00  0.00     0.043 A 
ATOM     97  C   UNL A   1      27.561  30.280  23.078  1.00  0.00     0.020 A 
ATOM     98  Cl  UNL A   1      29.057  32.485  23.482  1.00  0.00    -0.084 Cl
ENDBRANCH  91  92
ENDBRANCH  79  84
ENDBRANCH  74  77
ENDBRANCH  72  73
ENDBRANCH  71  72
ENDBRANCH   1  71
TORSDOF 15
ENDMDL
MODEL 2
REMARK VINA RESULT:     -13.3      0.740      7.594
REMARK SMILES O=C(NCCCNC(=O)[C@H]1[C@H]2CC[C@H](C2)[C@@H]1C(=O)N1CCN(c2cccc(Cl)c2)CC1)c1ccc(-c2c3nc(c(-c4cc(S(=O)(=O)[O-])ccc4F)c4ccc([nH]4)c(-c4cc(S(=O)(=O)[O-])ccc4F)c4nc(c(-c5cc(S(=O)(=O)[O-])ccc5F)c5ccc2[nH]5)C=C4)C=C3)cc1
REMARK SMILES IDX 4 1 3 2 1 3 2 4 32 6 33 7 94 8 34 9 93 10 35 11 36 12 37 13
REMARK SMILES IDX 87 14 38 15 92 16 86 17 88 18 39 19 91 20 85 21 84 22 40 24
REMARK SMILES IDX 72 25 52 26 71 27 53 28 56 29 70 30 89 31 54 32 55 33 69 35
REMARK SMILES IDX 90 36 57 37 41 38 42 39 50 40 43 41 49 42 51 43 48 44 44 45
REMARK SMILES IDX 45 46 46 47 47 48 73 49 74 50 82 51 75 52 81 53 83 54 80 55
REMARK SMILES IDX 76 56 77 57 78 58 79 59 58 60 59 61 67 62 60 63 66 64 68 65
REMARK SMILES IDX 65 66 61 67 62 68 63 69 64 70 5 71 6 72 7 73 8 74 9 76 10 77
REMARK SMILES IDX 11 78 16 79 12 80 15 81 14 82 13 83 17 84 18 85 19 86 20 87
REMARK SMILES IDX 31 88 21 89 30 90 22 91 23 92 24 93 29 94 25 95 27 96 26 97
REMARK SMILES IDX 28 98
REMARK H PARENT 3 5 88 23 56 34 7 75
REMARK Flexibility Score: inf
ROOT
ATOM      1  C   UNL A   1      39.210  20.368  26.012  1.00  0.00     0.118 C 
ENDROOT
BRANCH   1   2
ATOM      2  N   UNL A   1      40.302  19.402  26.023  1.00  0.00    -0.352 N 
ATOM      3  O   UNL A   1      42.417  18.692  25.728  1.00  0.00    -0.269 OA
ATOM      4  C   UNL A   1      41.663  19.611  26.029  1.00  0.00     0.251 C 
ATOM      5  H   UNL A   1      40.025  18.458  26.027  1.00  0.00     0.163 HD
BRANCH   4   6
ATOM      6  C   UNL A   1      42.207  20.943  26.380  1.00  0.00     0.039 A 
ATOM      7  C   UNL A   1      42.458  21.881  25.382  1.00  0.00     0.014 A 
ATOM      8  C   UNL A   1      42.434  21.280  27.718  1.00  0.00     0.014 A 
ATOM      9  C   UNL A   1      43.116  23.060  25.684  1.00  0.00     0.010 A 
ATOM     10  C   UNL A   1      42.943  22.544  28.038  1.00  0.00     0.010 A 
ATOM     11  C   UNL A   1      43.307  23.439  27.020  1.00  0.00    -0.014 A 
BRANCH  11  12
ATOM     12  C   UNL A   1      43.773  24.822  27.295  1.00  0.00     0.031 A 
ATOM     13  C   UNL A   1      45.185  25.245  27.011  1.00  0.00     0.074 A 
ATOM     14  C   UNL A   1      42.873  25.710  27.771  1.00  0.00     0.049 A 
ATOM     15  N   UNL A   1      45.745  26.411  27.203  1.00  0.00    -0.248 NA
ATOM     16  C   UNL A   1      46.089  24.230  26.452  1.00  0.00     0.031 C 
ATOM     17  C   UNL A   1      41.470  25.403  28.080  1.00  0.00     0.029 A 
ATOM     18  N   UNL A   1      42.978  27.047  28.050  1.00  0.00    -0.354 N 
ATOM     19  C   UNL A   1      47.073  26.269  26.812  1.00  0.00     0.074 A 
ATOM     20  C   UNL A   1      47.238  24.891  26.396  1.00  0.00     0.031 C 
ATOM     21  C   UNL A   1      40.835  26.527  28.432  1.00  0.00     0.029 A 
ATOM     22  C   UNL A   1      41.802  27.612  28.487  1.00  0.00     0.049 A 
ATOM     23  H   UNL A   1      43.816  27.556  27.946  1.00  0.00     0.167 HD
ATOM     24  C   UNL A   1      48.053  27.205  26.803  1.00  0.00     0.034 A 
ATOM     25  C   UNL A   1      41.534  28.855  28.929  1.00  0.00     0.034 A 
ATOM     26  C   UNL A   1      47.855  28.575  27.219  1.00  0.00     0.049 A 
ATOM     27  C   UNL A   1      42.656  29.855  28.956  1.00  0.00     0.074 A 
ATOM     28  C   UNL A   1      48.773  29.612  27.228  1.00  0.00     0.029 A 
ATOM     29  N   UNL A   1      46.664  29.098  27.710  1.00  0.00    -0.354 N 
ATOM     30  N   UNL A   1      43.904  29.701  28.578  1.00  0.00    -0.248 NA
ATOM     31  C   UNL A   1      42.337  31.190  29.470  1.00  0.00     0.031 C 
ATOM     32  C   UNL A   1      48.161  30.736  27.794  1.00  0.00     0.029 A 
ATOM     33  C   UNL A   1      46.835  30.430  28.057  1.00  0.00     0.049 A 
ATOM     34  H   UNL A   1      45.823  28.596  27.800  1.00  0.00     0.167 HD
ATOM     35  C   UNL A   1      44.513  30.933  28.788  1.00  0.00     0.074 A 
ATOM     36  C   UNL A   1      43.489  31.821  29.300  1.00  0.00     0.031 C 
ATOM     37  C   UNL A   1      45.804  31.298  28.578  1.00  0.00     0.034 A 
BRANCH  24  38
ATOM     38  C   UNL A   1      49.436  26.772  26.378  1.00  0.00     0.023 A 
ATOM     39  C   UNL A   1      50.015  27.197  25.170  1.00  0.00     0.031 A 
ATOM     40  C   UNL A   1      50.192  25.918  27.204  1.00  0.00     0.131 A 
ATOM     41  C   UNL A   1      51.284  26.726  24.797  1.00  0.00     0.055 A 
ATOM     42  C   UNL A   1      51.484  25.515  26.863  1.00  0.00     0.041 A 
ATOM     43  F   UNL A   1      49.683  25.460  28.359  1.00  0.00    -0.206 F 
ATOM     44  C   UNL A   1      52.034  25.909  25.648  1.00  0.00     0.022 A 
BRANCH  41  45
ATOM     45  S   UNL A   1      51.894  27.097  23.129  1.00  0.00     0.124 S 
ATOM     46  O   UNL A   1      52.316  28.490  23.271  1.00  0.00    -0.237 OA
ATOM     47  O   UNL A   1      52.964  26.122  22.958  1.00  0.00    -0.237 OA
ATOM     48  O   UNL A   1      50.722  26.895  22.281  1.00  0.00    -0.744 OA
ENDBRANCH  41  45
ENDBRANCH  24  38
BRANCH  25  49
ATOM     49  C   UNL A   1      40.173  29.204  29.430  1.00  0.00     0.023 A 
ATOM     50  C   UNL A   1      39.900  29.269  30.803  1.00  0.00     0.031 A 
ATOM     51  C   UNL A   1      39.110  29.437  28.536  1.00  0.00     0.131 A 
ATOM     52  C   UNL A   1      38.589  29.505  31.245  1.00  0.00     0.055 A 
ATOM     53  C   UNL A   1      37.823  29.741  28.979  1.00  0.00     0.041 A 
ATOM     54  F   UNL A   1      39.313  29.387  27.209  1.00  0.00    -0.206 F 
ATOM     55  C   UNL A   1      37.553  29.759  30.343  1.00  0.00     0.022 A 
BRANCH  52  56
ATOM     56  S   UNL A   1      38.235  29.361  33.016  1.00  0.00     0.124 S 
ATOM     57  O   UNL A   1      37.394  28.169  33.054  1.00  0.00    -0.237 OA
ATOM     58  O   UNL A   1      39.572  29.220  33.582  1.00  0.00    -0.237 OA
ATOM     59  O   UNL A   1      37.553  30.616  33.330  1.00  0.00    -0.744 OA
ENDBRANCH  52  56
ENDBRANCH  25  49
BRANCH  37  60
ATOM     60  C   UNL A   1      46.154  32.739  28.859  1.00  0.00     0.023 A 
ATOM     61  C   UNL A   1      45.914  33.755  27.917  1.00  0.00     0.031 A 
ATOM     62  C   UNL A   1      46.760  33.092  30.076  1.00  0.00     0.131 A 
ATOM     63  C   UNL A   1      46.339  35.065  28.183  1.00  0.00     0.055 A 
ATOM     64  C   UNL A   1      47.117  34.410  30.363  1.00  0.00     0.041 A 
ATOM     65  F   UNL A   1      47.017  32.160  31.008  1.00  0.00    -0.206 F 
ATOM     66  C   UNL A   1      46.921  35.403  29.407  1.00  0.00     0.022 A 
BRANCH  63  67
ATOM     67  S   UNL A   1      46.219  36.303  26.863  1.00  0.00     0.124 S 
ATOM     68  O   UNL A   1      46.830  35.606  25.736  1.00  0.00    -0.237 OA
ATOM     69  O   UNL A   1      44.778  36.522  26.771  1.00  0.00    -0.237 OA
ATOM     70  O   UNL A   1      46.984  37.434  27.383  1.00  0.00    -0.744 OA
ENDBRANCH  63  67
ENDBRANCH  37  60
ENDBRANCH  11  12
ENDBRANCH   4   6
ENDBRANCH   1   2
BRANCH   1  71
ATOM     71  C   UNL A   1      38.139  19.974  25.017  1.00  0.00     0.042 C 
BRANCH  71  72
ATOM     72  C   UNL A   1      37.340  21.172  24.543  1.00  0.00     0.117 C 
BRANCH  72  73
ATOM     73  N   UNL A   1      36.593  21.809  25.613  1.00  0.00    -0.356 N 
ATOM     74  C   UNL A   1      35.351  22.311  25.749  1.00  0.00     0.224 C 
ATOM     75  H   UNL A   1      37.123  21.895  26.439  1.00  0.00     0.163 HD
ATOM     76  O   UNL A   1      35.080  22.756  26.874  1.00  0.00    -0.275 OA
BRANCH  74  77
ATOM     77  C   UNL A   1      34.305  22.449  24.658  1.00  0.00     0.094 C 
ATOM     78  C   UNL A   1      33.646  21.107  24.254  1.00  0.00     0.002 C 
ATOM     79  C   UNL A   1      33.118  23.430  24.765  1.00  0.00     0.094 C 
ATOM     80  C   UNL A   1      32.790  20.526  25.376  1.00  0.00     0.005 C 
ATOM     81  C   UNL A   1      32.558  21.595  23.303  1.00  0.00     0.009 C 
ATOM     82  C   UNL A   1      31.936  22.538  24.335  1.00  0.00     0.002 C 
ATOM     83  C   UNL A   1      31.628  21.525  25.469  1.00  0.00     0.005 C 
BRANCH  79  84
ATOM     84  C   UNL A   1      33.514  24.725  24.052  1.00  0.00     0.226 C 
ATOM     85  O   UNL A   1      34.536  24.720  23.355  1.00  0.00    -0.275 OA
ATOM     86  N   UNL A   1      32.611  25.752  23.953  1.00  0.00    -0.339 N 
ATOM     87  C   UNL A   1      32.537  26.485  22.685  1.00  0.00     0.141 C 
ATOM     88  C   UNL A   1      32.087  26.495  25.100  1.00  0.00     0.141 C 
ATOM     89  C   UNL A   1      31.087  26.914  22.399  1.00  0.00     0.138 C 
ATOM     90  C   UNL A   1      30.660  27.007  24.854  1.00  0.00     0.138 C 
ATOM     91  N   UNL A   1      30.581  27.682  23.547  1.00  0.00    -0.368 N 
BRANCH  91  92
ATOM     92  C   UNL A   1      29.594  28.635  23.405  1.00  0.00     0.038 A 
ATOM     93  C   UNL A   1      28.284  28.209  23.137  1.00  0.00     0.026 A 
ATOM     94  C   UNL A   1      29.836  30.008  23.507  1.00  0.00     0.046 A 
ATOM     95  C   UNL A   1      27.241  29.115  22.971  1.00  0.00     0.004 A 
ATOM     96  C   UNL A   1      28.792  30.919  23.329  1.00  0.00     0.043 A 
ATOM     97  C   UNL A   1      27.498  30.479  23.064  1.00  0.00     0.020 A 
ATOM     98  Cl  UNL A   1      29.109  32.609  23.427  1.00  0.00    -0.084 Cl
ENDBRANCH  91  92
ENDBRANCH  79  84
ENDBRANCH  74  77
ENDBRANCH  72  73
ENDBRANCH  71  72
ENDBRANCH   1  71
TORSDOF 15
ENDMDL
MODEL 3
REMARK VINA RESULT:     -13.3      5.839     11.865
REMARK SMILES O=C(NCCCNC(=O)[C@H]1[C@H]2CC[C@H](C2)[C@@H]1C(=O)N1CCN(c2cccc(Cl)c2)CC1)c1ccc(-c2c3nc(c(-c4cc(S(=O)(=O)[O-])ccc4F)c4ccc([nH]4)c(-c4cc(S(=O)(=O)[O-])ccc4F)c4nc(c(-c5cc(S(=O)(=O)[O-])ccc5F)c5ccc2[nH]5)C=C4)C=C3)cc1
REMARK SMILES IDX 4 1 3 2 1 3 2 4 32 6 33 7 94 8 34 9 93 10 35 11 36 12 37 13
REMARK SMILES IDX 87 14 38 15 92 16 86 17 88 18 39 19 91 20 85 21 84 22 40 24
REMARK SMILES IDX 72 25 52 26 71 27 53 28 56 29 70 30 89 31 54 32 55 33 69 35
REMARK SMILES IDX 90 36 57 37 41 38 42 39 50 40 43 41 49 42 51 43 48 44 44 45
REMARK SMILES IDX 45 46 46 47 47 48 73 49 74 50 82 51 75 52 81 53 83 54 80 55
REMARK SMILES IDX 76 56 77 57 78 58 79 59 58 60 59 61 67 62 60 63 66 64 68 65
REMARK SMILES IDX 65 66 61 67 62 68 63 69 64 70 5 71 6 72 7 73 8 74 9 76 10 77
REMARK SMILES IDX 11 78 16 79 12 80 15 81 14 82 13 83 17 84 18 85 19 86 20 87
REMARK SMILES IDX 31 88 21 89 30 90 22 91 23 92 24 93 29 94 25 95 27 96 26 97
REMARK SMILES IDX 28 98
REMARK H PARENT 3 5 88 23 56 34 7 75
REMARK Flexibility Score: inf
ROOT
ATOM      1  C   UNL A   1      32.857  32.705  27.208  1.00  0.00     0.118 C 
ENDROOT
BRANCH   1   2
ATOM      2  N   UNL A   1      32.693  34.073  27.682  1.00  0.00    -0.352 N 
ATOM      3  O   UNL A   1      32.770  35.749  29.181  1.00  0.00    -0.269 OA
ATOM      4  C   UNL A   1      33.259  34.704  28.767  1.00  0.00     0.251 C 
ATOM      5  H   UNL A   1      32.086  34.632  27.144  1.00  0.00     0.163 HD
BRANCH   4   6
ATOM      6  C   UNL A   1      34.439  34.111  29.437  1.00  0.00     0.039 A 
ATOM      7  C   UNL A   1      34.269  33.190  30.468  1.00  0.00     0.014 A 
ATOM      8  C   UNL A   1      35.729  34.441  29.012  1.00  0.00     0.014 A 
ATOM      9  C   UNL A   1      35.358  32.759  31.204  1.00  0.00     0.010 A 
ATOM     10  C   UNL A   1      36.837  33.869  29.649  1.00  0.00     0.010 A 
ATOM     11  C   UNL A   1      36.660  33.036  30.765  1.00  0.00    -0.014 A 
BRANCH  11  12
ATOM     12  C   UNL A   1      37.787  32.336  31.430  1.00  0.00     0.031 A 
ATOM     13  C   UNL A   1      38.536  31.229  30.746  1.00  0.00     0.074 A 
ATOM     14  C   UNL A   1      38.153  32.754  32.661  1.00  0.00     0.049 A 
ATOM     15  N   UNL A   1      39.536  30.516  31.197  1.00  0.00    -0.248 NA
ATOM     16  C   UNL A   1      38.104  30.865  29.390  1.00  0.00     0.031 C 
ATOM     17  C   UNL A   1      37.493  33.826  33.417  1.00  0.00     0.029 A 
ATOM     18  N   UNL A   1      39.177  32.364  33.485  1.00  0.00    -0.354 N 
ATOM     19  C   UNL A   1      39.841  29.603  30.192  1.00  0.00     0.074 A 
ATOM     20  C   UNL A   1      38.897  29.838  29.118  1.00  0.00     0.031 C 
ATOM     21  C   UNL A   1      38.168  34.054  34.550  1.00  0.00     0.029 A 
ATOM     22  C   UNL A   1      39.238  33.074  34.662  1.00  0.00     0.049 A 
ATOM     23  H   UNL A   1      39.809  31.644  33.256  1.00  0.00     0.167 HD
ATOM     24  C   UNL A   1      40.817  28.663  30.176  1.00  0.00     0.034 A 
ATOM     25  C   UNL A   1      40.035  32.930  35.737  1.00  0.00     0.034 A 
ATOM     26  C   UNL A   1      41.747  28.457  31.263  1.00  0.00     0.049 A 
ATOM     27  C   UNL A   1      41.073  31.843  35.709  1.00  0.00     0.074 A 
ATOM     28  C   UNL A   1      42.790  27.549  31.342  1.00  0.00     0.029 A 
ATOM     29  N   UNL A   1      41.743  29.158  32.464  1.00  0.00    -0.354 N 
ATOM     30  N   UNL A   1      41.347  30.992  34.747  1.00  0.00    -0.248 NA
ATOM     31  C   UNL A   1      41.904  31.694  36.906  1.00  0.00     0.031 C 
ATOM     32  C   UNL A   1      43.364  27.647  32.614  1.00  0.00     0.029 A 
ATOM     33  C   UNL A   1      42.741  28.677  33.300  1.00  0.00     0.049 A 
ATOM     34  H   UNL A   1      41.123  29.887  32.688  1.00  0.00     0.167 HD
ATOM     35  C   UNL A   1      42.402  30.221  35.219  1.00  0.00     0.074 A 
ATOM     36  C   UNL A   1      42.729  30.726  36.537  1.00  0.00     0.031 C 
ATOM     37  C   UNL A   1      43.044  29.187  34.617  1.00  0.00     0.034 A 
BRANCH  24  38
ATOM     38  C   UNL A   1      40.899  27.754  28.973  1.00  0.00     0.023 A 
ATOM     39  C   UNL A   1      41.899  27.895  27.995  1.00  0.00     0.031 A 
ATOM     40  C   UNL A   1      39.957  26.721  28.805  1.00  0.00     0.131 A 
ATOM     41  C   UNL A   1      41.902  27.056  26.870  1.00  0.00     0.055 A 
ATOM     42  C   UNL A   1      40.012  25.842  27.722  1.00  0.00     0.041 A 
ATOM     43  F   UNL A   1      38.965  26.552  29.692  1.00  0.00    -0.206 F 
ATOM     44  C   UNL A   1      40.982  26.013  26.740  1.00  0.00     0.022 A 
BRANCH  41  45
ATOM     45  S   UNL A   1      43.053  27.422  25.516  1.00  0.00     0.124 S 
ATOM     46  O   UNL A   1      44.146  28.084  26.226  1.00  0.00    -0.237 OA
ATOM     47  O   UNL A   1      43.349  26.097  24.983  1.00  0.00    -0.237 OA
ATOM     48  O   UNL A   1      42.280  28.292  24.632  1.00  0.00    -0.744 OA
ENDBRANCH  41  45
ENDBRANCH  24  38
BRANCH  25  49
ATOM     49  C   UNL A   1      39.847  33.791  36.940  1.00  0.00     0.023 A 
ATOM     50  C   UNL A   1      39.206  33.305  38.087  1.00  0.00     0.031 A 
ATOM     51  C   UNL A   1      40.271  35.134  36.943  1.00  0.00     0.131 A 
ATOM     52  C   UNL A   1      38.958  34.166  39.168  1.00  0.00     0.055 A 
ATOM     53  C   UNL A   1      40.086  35.967  38.046  1.00  0.00     0.041 A 
ATOM     54  F   UNL A   1      40.891  35.655  35.871  1.00  0.00    -0.206 F 
ATOM     55  C   UNL A   1      39.409  35.488  39.163  1.00  0.00     0.022 A 
BRANCH  52  56
ATOM     56  S   UNL A   1      37.934  33.563  40.536  1.00  0.00     0.124 S 
ATOM     57  O   UNL A   1      36.864  32.873  39.824  1.00  0.00    -0.237 OA
ATOM     58  O   UNL A   1      38.871  32.714  41.264  1.00  0.00    -0.237 OA
ATOM     59  O   UNL A   1      37.535  34.787  41.227  1.00  0.00    -0.744 OA
ENDBRANCH  52  56
ENDBRANCH  25  49
BRANCH  37  60
ATOM     60  C   UNL A   1      44.198  28.576  35.374  1.00  0.00     0.023 A 
ATOM     61  C   UNL A   1      44.002  27.565  36.331  1.00  0.00     0.031 A 
ATOM     62  C   UNL A   1      45.508  29.033  35.151  1.00  0.00     0.131 A 
ATOM     63  C   UNL A   1      45.092  27.091  37.077  1.00  0.00     0.055 A 
ATOM     64  C   UNL A   1      46.597  28.507  35.846  1.00  0.00     0.041 A 
ATOM     65  F   UNL A   1      45.751  30.000  34.251  1.00  0.00    -0.206 F 
ATOM     66  C   UNL A   1      46.390  27.541  36.827  1.00  0.00     0.022 A 
BRANCH  63  67
ATOM     67  S   UNL A   1      44.774  25.954  38.454  1.00  0.00     0.124 S 
ATOM     68  O   UNL A   1      44.260  24.777  37.764  1.00  0.00    -0.237 OA
ATOM     69  O   UNL A   1      46.098  25.813  39.054  1.00  0.00    -0.237 OA
ATOM     70  O   UNL A   1      43.798  26.671  39.271  1.00  0.00    -0.744 OA
ENDBRANCH  63  67
ENDBRANCH  37  60
ENDBRANCH  11  12
ENDBRANCH   4   6
ENDBRANCH   1   2
BRANCH   1  71
ATOM     71  C   UNL A   1      31.516  32.032  26.999  1.00  0.00     0.042 C 
BRANCH  71  72
ATOM     72  C   UNL A   1      31.628  30.819  26.096  1.00  0.00     0.117 C 
BRANCH  72  73
ATOM     73  N   UNL A   1      32.798  30.009  26.386  1.00  0.00    -0.356 N 
ATOM     74  C   UNL A   1      33.230  28.786  26.023  1.00  0.00     0.224 C 
ATOM     75  H   UNL A   1      33.426  30.462  26.995  1.00  0.00     0.163 HD
ATOM     76  O   UNL A   1      34.336  28.459  26.481  1.00  0.00    -0.275 OA
BRANCH  74  77
ATOM     77  C   UNL A   1      32.474  27.767  25.192  1.00  0.00     0.094 C 
ATOM     78  C   UNL A   1      31.941  28.329  23.851  1.00  0.00     0.002 C 
ATOM     79  C   UNL A   1      33.075  26.397  24.809  1.00  0.00     0.094 C 
ATOM     80  C   UNL A   1      33.070  28.681  22.886  1.00  0.00     0.005 C 
ATOM     81  C   UNL A   1      31.407  27.058  23.197  1.00  0.00     0.009 C 
ATOM     82  C   UNL A   1      32.742  26.319  23.305  1.00  0.00     0.002 C 
ATOM     83  C   UNL A   1      33.656  27.306  22.533  1.00  0.00     0.005 C 
BRANCH  79  84
ATOM     84  C   UNL A   1      32.603  25.372  25.843  1.00  0.00     0.226 C 
ATOM     85  O   UNL A   1      31.928  25.774  26.799  1.00  0.00    -0.275 OA
ATOM     86  N   UNL A   1      32.673  24.033  25.556  1.00  0.00    -0.339 N 
ATOM     87  C   UNL A   1      31.551  23.182  25.963  1.00  0.00     0.141 C 
ATOM     88  C   UNL A   1      33.924  23.305  25.345  1.00  0.00     0.141 C 
ATOM     89  C   UNL A   1      31.325  22.063  24.930  1.00  0.00     0.138 C 
ATOM     90  C   UNL A   1      33.753  22.132  24.368  1.00  0.00     0.138 C 
ATOM     91  N   UNL A   1      32.582  21.322  24.747  1.00  0.00    -0.368 N 
BRANCH  91  92
ATOM     92  C   UNL A   1      32.596  20.000  24.356  1.00  0.00     0.038 A 
ATOM     93  C   UNL A   1      32.377  19.699  23.002  1.00  0.00     0.026 A 
ATOM     94  C   UNL A   1      32.808  18.941  25.243  1.00  0.00     0.046 A 
ATOM     95  C   UNL A   1      32.367  18.387  22.538  1.00  0.00     0.004 A 
ATOM     96  C   UNL A   1      32.785  17.623  24.781  1.00  0.00     0.043 A 
ATOM     97  C   UNL A   1      32.568  17.342  23.434  1.00  0.00     0.020 A 
ATOM     98  Cl  UNL A   1      33.018  16.326  25.890  1.00  0.00    -0.084 Cl
ENDBRANCH  91  92
ENDBRANCH  79  84
ENDBRANCH  74  77
ENDBRANCH  72  73
ENDBRANCH  71  72
ENDBRANCH   1  71
TORSDOF 15
ENDMDL
