MODEL 1
REMARK VINA RESULT:     -10.6      0.000      0.000
REMARK SMILES CC1=NN(CC(=O)NCCCNC(=O)c2ccc(-c3c4nc(c(-c5cc(S(=O)(=O)[O-])ccc5F)c5ccc([nH]5)c(-c5cc(S(=O)(=O)[O-])ccc5F)c5nc(c(-c6cc(S(=O)(=O)[O-])ccc6F)c6ccc3[nH]6)C=C5)C=C4)cc2)C(=O)C1
REMARK SMILES IDX 11 1 10 2 9 3 8 4 6 5 7 6 5 8 4 9 1 10 2 11 3 12 80 13 78 14
REMARK SMILES IDX 79 15 12 16 13 17 14 19 15 20 16 21 77 22 17 23 76 24 18 25
REMARK SMILES IDX 19 26 20 27 70 28 21 29 75 30 69 31 71 32 22 33 74 34 68 35
REMARK SMILES IDX 67 36 23 38 55 39 35 40 54 41 36 42 39 43 53 44 72 45 37 46
REMARK SMILES IDX 38 47 52 49 73 50 40 51 24 52 25 53 33 54 26 55 32 56 34 57
REMARK SMILES IDX 31 58 27 59 28 60 29 61 30 62 56 63 57 64 65 65 58 66 64 67
REMARK SMILES IDX 66 68 63 69 59 70 60 71 61 72 62 73 41 74 42 75 50 76 43 77
REMARK SMILES IDX 49 78 51 79 48 80 44 81 45 82 46 83 47 84
REMARK H PARENT 8 7 12 18 71 37 39 48
REMARK Flexibility Score: inf
ROOT
ATOM      1  C   UNL A   1      34.670  33.596  29.631  1.00  0.00     0.118 C 
ENDROOT
BRANCH   1   2
ATOM      2  C   UNL A   1      34.566  35.084  29.302  1.00  0.00     0.042 C 
BRANCH   2   3
ATOM      3  C   UNL A   1      33.207  35.692  29.629  1.00  0.00     0.117 C 
BRANCH   3   4
ATOM      4  N   UNL A   1      33.322  36.914  30.400  1.00  0.00    -0.354 N 
ATOM      5  C   UNL A   1      33.239  37.092  31.752  1.00  0.00     0.241 C 
ATOM      6  O   UNL A   1      33.526  38.207  32.199  1.00  0.00    -0.273 OA
ATOM      7  H   UNL A   1      33.483  37.732  29.875  1.00  0.00     0.163 HD
BRANCH   5   8
ATOM      8  C   UNL A   1      32.960  35.914  32.682  1.00  0.00     0.247 C 
BRANCH   8   9
ATOM      9  N   UNL A   1      34.110  35.065  32.922  1.00  0.00    -0.224 N 
ATOM     10  C   UNL A   1      37.667  34.646  33.043  1.00  0.00     0.064 C 
ATOM     11  C   UNL A   1      36.183  34.554  33.047  1.00  0.00     0.045 C 
ATOM     12  N   UNL A   1      35.392  35.559  32.824  1.00  0.00    -0.179 NA
ATOM     13  C   UNL A   1      35.472  33.262  33.311  1.00  0.00     0.155 C 
ATOM     14  C   UNL A   1      34.044  33.699  33.188  1.00  0.00     0.248 C 
ATOM     15  O   UNL A   1      33.057  32.997  33.302  1.00  0.00    -0.273 OA
ENDBRANCH   8   9
ENDBRANCH   5   8
ENDBRANCH   3   4
ENDBRANCH   2   3
ENDBRANCH   1   2
BRANCH   1  16
ATOM     16  N   UNL A   1      33.970  32.756  28.668  1.00  0.00    -0.352 N 
ATOM     17  C   UNL A   1      34.380  31.611  28.028  1.00  0.00     0.251 C 
ATOM     18  H   UNL A   1      33.061  33.057  28.440  1.00  0.00     0.163 HD
ATOM     19  O   UNL A   1      33.704  31.166  27.105  1.00  0.00    -0.269 OA
BRANCH  17  20
ATOM     20  C   UNL A   1      35.633  30.935  28.428  1.00  0.00     0.039 A 
ATOM     21  C   UNL A   1      36.852  31.436  27.960  1.00  0.00     0.014 A 
ATOM     22  C   UNL A   1      35.613  29.801  29.243  1.00  0.00     0.014 A 
ATOM     23  C   UNL A   1      38.050  30.843  28.368  1.00  0.00     0.010 A 
ATOM     24  C   UNL A   1      36.810  29.261  29.711  1.00  0.00     0.010 A 
ATOM     25  C   UNL A   1      38.042  29.776  29.280  1.00  0.00    -0.014 A 
BRANCH  25  26
ATOM     26  C   UNL A   1      39.305  29.175  29.787  1.00  0.00     0.031 A 
ATOM     27  C   UNL A   1      40.047  29.834  30.919  1.00  0.00     0.074 A 
ATOM     28  C   UNL A   1      39.816  28.077  29.193  1.00  0.00     0.049 A 
ATOM     29  N   UNL A   1      41.221  29.544  31.419  1.00  0.00    -0.248 NA
ATOM     30  C   UNL A   1      39.392  30.987  31.556  1.00  0.00     0.031 C 
ATOM     31  C   UNL A   1      39.201  27.360  28.073  1.00  0.00     0.029 A 
ATOM     32  N   UNL A   1      40.974  27.380  29.433  1.00  0.00    -0.354 N 
ATOM     33  C   UNL A   1      41.445  30.476  32.427  1.00  0.00     0.074 A 
ATOM     34  C   UNL A   1      40.316  31.383  32.416  1.00  0.00     0.031 C 
ATOM     35  C   UNL A   1      39.980  26.320  27.734  1.00  0.00     0.029 A 
ATOM     36  C   UNL A   1      41.178  26.326  28.570  1.00  0.00     0.049 A 
ATOM     37  H   UNL A   1      41.602  27.612  30.156  1.00  0.00     0.167 HD
ATOM     38  C   UNL A   1      42.480  30.553  33.300  1.00  0.00     0.034 A 
ATOM     39  C   UNL A   1      42.221  25.480  28.445  1.00  0.00     0.034 A 
ATOM     40  C   UNL A   1      43.598  29.642  33.302  1.00  0.00     0.049 A 
ATOM     41  C   UNL A   1      43.393  25.625  29.389  1.00  0.00     0.074 A 
ATOM     42  C   UNL A   1      44.692  29.623  34.148  1.00  0.00     0.029 A 
ATOM     43  N   UNL A   1      43.766  28.587  32.414  1.00  0.00    -0.354 N 
ATOM     44  N   UNL A   1      43.575  26.502  30.351  1.00  0.00    -0.248 NA
ATOM     45  C   UNL A   1      44.492  24.661  29.241  1.00  0.00     0.031 C 
ATOM     46  C   UNL A   1      45.552  28.602  33.733  1.00  0.00     0.029 A 
ATOM     47  C   UNL A   1      44.955  27.927  32.682  1.00  0.00     0.049 A 
ATOM     48  H   UNL A   1      43.134  28.344  31.700  1.00  0.00     0.167 HD
ATOM     49  C   UNL A   1      44.787  26.162  30.947  1.00  0.00     0.074 A 
ATOM     50  C   UNL A   1      45.284  24.997  30.248  1.00  0.00     0.031 C 
ATOM     51  C   UNL A   1      45.432  26.758  31.983  1.00  0.00     0.034 A 
BRANCH  38  52
ATOM     52  C   UNL A   1      42.452  31.665  34.319  1.00  0.00     0.023 A 
ATOM     53  C   UNL A   1      41.607  31.608  35.441  1.00  0.00     0.031 A 
ATOM     54  C   UNL A   1      43.276  32.795  34.174  1.00  0.00     0.131 A 
ATOM     55  C   UNL A   1      41.558  32.685  36.338  1.00  0.00     0.055 A 
ATOM     56  C   UNL A   1      43.282  33.828  35.114  1.00  0.00     0.041 A 
ATOM     57  F   UNL A   1      44.087  32.917  33.112  1.00  0.00    -0.206 F 
ATOM     58  C   UNL A   1      42.410  33.782  36.197  1.00  0.00     0.022 A 
BRANCH  55  59
ATOM     59  S   UNL A   1      40.272  32.688  37.616  1.00  0.00     0.124 S 
ATOM     60  O   UNL A   1      39.346  31.681  37.101  1.00  0.00    -0.237 OA
ATOM     61  O   UNL A   1      41.015  32.318  38.814  1.00  0.00    -0.237 OA
ATOM     62  O   UNL A   1      39.767  34.059  37.591  1.00  0.00    -0.744 OA
ENDBRANCH  55  59
ENDBRANCH  38  52
BRANCH  39  63
ATOM     63  C   UNL A   1      42.240  24.440  27.373  1.00  0.00     0.023 A 
ATOM     64  C   UNL A   1      41.615  23.196  27.558  1.00  0.00     0.031 A 
ATOM     65  C   UNL A   1      42.959  24.641  26.181  1.00  0.00     0.131 A 
ATOM     66  C   UNL A   1      41.786  22.178  26.607  1.00  0.00     0.055 A 
ATOM     67  C   UNL A   1      43.062  23.650  25.203  1.00  0.00     0.041 A 
ATOM     68  F   UNL A   1      43.577  25.810  25.946  1.00  0.00    -0.206 F 
ATOM     69  C   UNL A   1      42.492  22.400  25.424  1.00  0.00     0.022 A 
BRANCH  66  70
ATOM     70  S   UNL A   1      41.195  20.510  27.010  1.00  0.00     0.124 S 
ATOM     71  O   UNL A   1      40.780  20.672  28.398  1.00  0.00    -0.237 OA
ATOM     72  O   UNL A   1      40.125  20.327  26.036  1.00  0.00    -0.237 OA
ATOM     73  O   UNL A   1      42.375  19.673  26.804  1.00  0.00    -0.744 OA
ENDBRANCH  66  70
ENDBRANCH  39  63
BRANCH  51  74
ATOM     74  C   UNL A   1      46.709  26.113  32.469  1.00  0.00     0.023 A 
ATOM     75  C   UNL A   1      47.954  26.381  31.875  1.00  0.00     0.031 A 
ATOM     76  C   UNL A   1      46.672  25.216  33.552  1.00  0.00     0.131 A 
ATOM     77  C   UNL A   1      49.103  25.719  32.332  1.00  0.00     0.055 A 
ATOM     78  C   UNL A   1      47.828  24.610  34.045  1.00  0.00     0.041 A 
ATOM     79  F   UNL A   1      45.510  24.920  34.155  1.00  0.00    -0.206 F 
ATOM     80  C   UNL A   1      49.052  24.851  33.426  1.00  0.00     0.022 A 
BRANCH  77  81
ATOM     81  S   UNL A   1      50.657  25.938  31.422  1.00  0.00     0.124 S 
ATOM     82  O   UNL A   1      50.239  25.694  30.046  1.00  0.00    -0.237 OA
ATOM     83  O   UNL A   1      51.015  27.315  31.745  1.00  0.00    -0.237 OA
ATOM     84  O   UNL A   1      51.536  24.919  31.993  1.00  0.00    -0.744 OA
ENDBRANCH  77  81
ENDBRANCH  51  74
ENDBRANCH  25  26
ENDBRANCH  17  20
ENDBRANCH   1  16
TORSDOF 14
ENDMDL
MODEL 2
REMARK VINA RESULT:     -10.5      4.213     12.162
REMARK SMILES CC1=NN(CC(=O)NCCCNC(=O)c2ccc(-c3c4nc(c(-c5cc(S(=O)(=O)[O-])ccc5F)c5ccc([nH]5)c(-c5cc(S(=O)(=O)[O-])ccc5F)c5nc(c(-c6cc(S(=O)(=O)[O-])ccc6F)c6ccc3[nH]6)C=C5)C=C4)cc2)C(=O)C1
REMARK SMILES IDX 11 1 10 2 9 3 8 4 6 5 7 6 5 8 4 9 1 10 2 11 3 12 80 13 78 14
REMARK SMILES IDX 79 15 12 16 13 17 14 19 15 20 16 21 77 22 17 23 76 24 18 25
REMARK SMILES IDX 19 26 20 27 70 28 21 29 75 30 69 31 71 32 22 33 74 34 68 35
REMARK SMILES IDX 67 36 23 38 55 39 35 40 54 41 36 42 39 43 53 44 72 45 37 46
REMARK SMILES IDX 38 47 52 49 73 50 40 51 24 52 25 53 33 54 26 55 32 56 34 57
REMARK SMILES IDX 31 58 27 59 28 60 29 61 30 62 56 63 57 64 65 65 58 66 64 67
REMARK SMILES IDX 66 68 63 69 59 70 60 71 61 72 62 73 41 74 42 75 50 76 43 77
REMARK SMILES IDX 49 78 51 79 48 80 44 81 45 82 46 83 47 84
REMARK H PARENT 8 7 12 18 71 37 39 48
REMARK Flexibility Score: inf
ROOT
ATOM      1  C   UNL A   1      42.130  21.244  26.149  1.00  0.00     0.118 C 
ENDROOT
BRANCH   1   2
ATOM      2  C   UNL A   1      42.663  19.913  26.676  1.00  0.00     0.042 C 
BRANCH   2   3
ATOM      3  C   UNL A   1      43.172  18.978  25.585  1.00  0.00     0.117 C 
BRANCH   3   4
ATOM      4  N   UNL A   1      44.537  18.553  25.816  1.00  0.00    -0.354 N 
ATOM      5  C   UNL A   1      45.686  18.974  25.210  1.00  0.00     0.241 C 
ATOM      6  O   UNL A   1      46.758  18.580  25.682  1.00  0.00    -0.273 OA
ATOM      7  H   UNL A   1      44.653  17.862  26.508  1.00  0.00     0.163 HD
BRANCH   5   8
ATOM      8  C   UNL A   1      45.648  20.017  24.097  1.00  0.00     0.247 C 
BRANCH   8   9
ATOM      9  N   UNL A   1      45.475  21.378  24.567  1.00  0.00    -0.224 N 
ATOM     10  C   UNL A   1      45.954  23.846  27.121  1.00  0.00     0.064 C 
ATOM     11  C   UNL A   1      45.617  23.017  25.933  1.00  0.00     0.045 C 
ATOM     12  N   UNL A   1      45.973  21.776  25.788  1.00  0.00    -0.179 NA
ATOM     13  C   UNL A   1      44.818  23.563  24.789  1.00  0.00     0.155 C 
ATOM     14  C   UNL A   1      44.751  22.361  23.897  1.00  0.00     0.248 C 
ATOM     15  O   UNL A   1      44.182  22.283  22.824  1.00  0.00    -0.273 OA
ENDBRANCH   8   9
ENDBRANCH   5   8
ENDBRANCH   3   4
ENDBRANCH   2   3
ENDBRANCH   1   2
BRANCH   1  16
ATOM     16  N   UNL A   1      40.677  21.260  26.031  1.00  0.00    -0.352 N 
ATOM     17  C   UNL A   1      39.771  22.229  26.388  1.00  0.00     0.251 C 
ATOM     18  H   UNL A   1      40.285  20.450  25.633  1.00  0.00     0.163 HD
ATOM     19  O   UNL A   1      38.572  21.960  26.378  1.00  0.00    -0.269 OA
BRANCH  17  20
ATOM     20  C   UNL A   1      40.230  23.572  26.802  1.00  0.00     0.039 A 
ATOM     21  C   UNL A   1      40.178  24.620  25.878  1.00  0.00     0.014 A 
ATOM     22  C   UNL A   1      40.729  23.800  28.086  1.00  0.00     0.014 A 
ATOM     23  C   UNL A   1      40.559  25.908  26.265  1.00  0.00     0.010 A 
ATOM     24  C   UNL A   1      41.033  25.098  28.494  1.00  0.00     0.010 A 
ATOM     25  C   UNL A   1      40.951  26.167  27.588  1.00  0.00    -0.014 A 
BRANCH  25  26
ATOM     26  C   UNL A   1      41.290  27.542  28.045  1.00  0.00     0.031 A 
ATOM     27  C   UNL A   1      42.729  27.978  28.110  1.00  0.00     0.074 A 
ATOM     28  C   UNL A   1      40.312  28.375  28.458  1.00  0.00     0.049 A 
ATOM     29  N   UNL A   1      43.239  29.080  28.597  1.00  0.00    -0.248 NA
ATOM     30  C   UNL A   1      43.728  27.037  27.581  1.00  0.00     0.031 C 
ATOM     31  C   UNL A   1      38.881  28.061  28.464  1.00  0.00     0.029 A 
ATOM     32  N   UNL A   1      40.371  29.648  28.969  1.00  0.00    -0.354 N 
ATOM     33  C   UNL A   1      44.615  28.966  28.432  1.00  0.00     0.074 A 
ATOM     34  C   UNL A   1      44.862  27.656  27.867  1.00  0.00     0.031 C 
ATOM     35  C   UNL A   1      38.200  29.115  28.940  1.00  0.00     0.029 A 
ATOM     36  C   UNL A   1      39.143  30.160  29.330  1.00  0.00     0.049 A 
ATOM     37  H   UNL A   1      41.212  30.149  29.070  1.00  0.00     0.167 HD
ATOM     38  C   UNL A   1      45.582  29.879  28.699  1.00  0.00     0.034 A 
ATOM     39  C   UNL A   1      38.817  31.322  29.930  1.00  0.00     0.034 A 
ATOM     40  C   UNL A   1      45.323  31.182  29.260  1.00  0.00     0.049 A 
ATOM     41  C   UNL A   1      39.919  32.298  30.276  1.00  0.00     0.074 A 
ATOM     42  C   UNL A   1      46.227  32.186  29.559  1.00  0.00     0.029 A 
ATOM     43  N   UNL A   1      44.068  31.663  29.608  1.00  0.00    -0.354 N 
ATOM     44  N   UNL A   1      41.214  32.179  30.092  1.00  0.00    -0.248 NA
ATOM     45  C   UNL A   1      39.516  33.566  30.897  1.00  0.00     0.031 C 
ATOM     46  C   UNL A   1      45.529  33.245  30.147  1.00  0.00     0.029 A 
ATOM     47  C   UNL A   1      44.178  32.940  30.135  1.00  0.00     0.049 A 
ATOM     48  H   UNL A   1      43.223  31.171  29.495  1.00  0.00     0.167 HD
ATOM     49  C   UNL A   1      41.770  33.378  30.534  1.00  0.00     0.074 A 
ATOM     50  C   UNL A   1      40.672  34.207  30.981  1.00  0.00     0.031 C 
ATOM     51  C   UNL A   1      43.072  33.760  30.566  1.00  0.00     0.034 A 
BRANCH  38  52
ATOM     52  C   UNL A   1      47.008  29.494  28.393  1.00  0.00     0.023 A 
ATOM     53  C   UNL A   1      47.813  28.849  29.349  1.00  0.00     0.031 A 
ATOM     54  C   UNL A   1      47.575  29.768  27.136  1.00  0.00     0.131 A 
ATOM     55  C   UNL A   1      49.153  28.559  29.057  1.00  0.00     0.055 A 
ATOM     56  C   UNL A   1      48.885  29.403  26.823  1.00  0.00     0.041 A 
ATOM     57  F   UNL A   1      46.864  30.402  26.190  1.00  0.00    -0.206 F 
ATOM     58  C   UNL A   1      49.688  28.806  27.791  1.00  0.00     0.022 A 
BRANCH  55  59
ATOM     59  S   UNL A   1      50.223  27.973  30.399  1.00  0.00     0.124 S 
ATOM     60  O   UNL A   1      49.476  26.814  30.884  1.00  0.00    -0.237 OA
ATOM     61  O   UNL A   1      51.471  27.683  29.705  1.00  0.00    -0.237 OA
ATOM     62  O   UNL A   1      50.268  29.106  31.321  1.00  0.00    -0.744 OA
ENDBRANCH  55  59
ENDBRANCH  38  52
BRANCH  39  63
ATOM     63  C   UNL A   1      37.398  31.630  30.282  1.00  0.00     0.023 A 
ATOM     64  C   UNL A   1      36.493  32.092  29.312  1.00  0.00     0.031 A 
ATOM     65  C   UNL A   1      36.948  31.553  31.613  1.00  0.00     0.131 A 
ATOM     66  C   UNL A   1      35.217  32.531  29.696  1.00  0.00     0.055 A 
ATOM     67  C   UNL A   1      35.651  31.920  31.978  1.00  0.00     0.041 A 
ATOM     68  F   UNL A   1      37.766  31.119  32.584  1.00  0.00    -0.206 F 
ATOM     69  C   UNL A   1      34.784  32.434  31.019  1.00  0.00     0.022 A 
BRANCH  66  70
ATOM     70  S   UNL A   1      34.183  33.369  28.463  1.00  0.00     0.124 S 
ATOM     71  O   UNL A   1      33.500  32.243  27.837  1.00  0.00    -0.237 OA
ATOM     72  O   UNL A   1      33.360  34.236  29.299  1.00  0.00    -0.237 OA
ATOM     73  O   UNL A   1      35.155  34.058  27.617  1.00  0.00    -0.744 OA
ENDBRANCH  66  70
ENDBRANCH  39  63
BRANCH  51  74
ATOM     74  C   UNL A   1      43.371  35.166  31.033  1.00  0.00     0.023 A 
ATOM     75  C   UNL A   1      43.429  35.503  32.396  1.00  0.00     0.031 A 
ATOM     76  C   UNL A   1      43.605  36.183  30.089  1.00  0.00     0.131 A 
ATOM     77  C   UNL A   1      43.662  36.834  32.776  1.00  0.00     0.055 A 
ATOM     78  C   UNL A   1      43.901  37.490  30.474  1.00  0.00     0.041 A 
ATOM     79  F   UNL A   1      43.559  35.918  28.774  1.00  0.00    -0.206 F 
ATOM     80  C   UNL A   1      43.919  37.825  31.825  1.00  0.00     0.022 A 
BRANCH  77  81
ATOM     81  S   UNL A   1      43.539  37.273  34.532  1.00  0.00     0.124 S 
ATOM     82  O   UNL A   1      42.252  36.691  34.900  1.00  0.00    -0.237 OA
ATOM     83  O   UNL A   1      44.717  36.626  35.099  1.00  0.00    -0.237 OA
ATOM     84  O   UNL A   1      43.579  38.735  34.524  1.00  0.00    -0.744 OA
ENDBRANCH  77  81
ENDBRANCH  51  74
ENDBRANCH  25  26
ENDBRANCH  17  20
ENDBRANCH   1  16
TORSDOF 14
ENDMDL
MODEL 3
REMARK VINA RESULT:     -10.5      4.631     12.148
REMARK SMILES CC1=NN(CC(=O)NCCCNC(=O)c2ccc(-c3c4nc(c(-c5cc(S(=O)(=O)[O-])ccc5F)c5ccc([nH]5)c(-c5cc(S(=O)(=O)[O-])ccc5F)c5nc(c(-c6cc(S(=O)(=O)[O-])ccc6F)c6ccc3[nH]6)C=C5)C=C4)cc2)C(=O)C1
REMARK SMILES IDX 11 1 10 2 9 3 8 4 6 5 7 6 5 8 4 9 1 10 2 11 3 12 80 13 78 14
REMARK SMILES IDX 79 15 12 16 13 17 14 19 15 20 16 21 77 22 17 23 76 24 18 25
REMARK SMILES IDX 19 26 20 27 70 28 21 29 75 30 69 31 71 32 22 33 74 34 68 35
REMARK SMILES IDX 67 36 23 38 55 39 35 40 54 41 36 42 39 43 53 44 72 45 37 46
REMARK SMILES IDX 38 47 52 49 73 50 40 51 24 52 25 53 33 54 26 55 32 56 34 57
REMARK SMILES IDX 31 58 27 59 28 60 29 61 30 62 56 63 57 64 65 65 58 66 64 67
REMARK SMILES IDX 66 68 63 69 59 70 60 71 61 72 62 73 41 74 42 75 50 76 43 77
REMARK SMILES IDX 49 78 51 79 48 80 44 81 45 82 46 83 47 84
REMARK H PARENT 8 7 12 18 71 37 39 48
REMARK Flexibility Score: inf
ROOT
ATOM      1  C   UNL A   1      42.128  21.168  26.292  1.00  0.00     0.118 C 
ENDROOT
BRANCH   1   2
ATOM      2  C   UNL A   1      42.636  19.768  26.630  1.00  0.00     0.042 C 
BRANCH   2   3
ATOM      3  C   UNL A   1      43.258  19.037  25.446  1.00  0.00     0.117 C 
BRANCH   3   4
ATOM      4  N   UNL A   1      44.594  18.556  25.737  1.00  0.00    -0.354 N 
ATOM      5  C   UNL A   1      45.790  18.969  25.223  1.00  0.00     0.241 C 
ATOM      6  O   UNL A   1      46.818  18.517  25.738  1.00  0.00    -0.273 OA
ATOM      7  H   UNL A   1      44.646  17.827  26.397  1.00  0.00     0.163 HD
BRANCH   5   8
ATOM      8  C   UNL A   1      45.852  20.067  24.166  1.00  0.00     0.247 C 
BRANCH   8   9
ATOM      9  N   UNL A   1      45.567  21.394  24.674  1.00  0.00    -0.224 N 
ATOM     10  C   UNL A   1      45.765  23.791  27.331  1.00  0.00     0.064 C 
ATOM     11  C   UNL A   1      45.536  22.987  26.101  1.00  0.00     0.045 C 
ATOM     12  N   UNL A   1      45.982  21.779  25.929  1.00  0.00    -0.179 NA
ATOM     13  C   UNL A   1      44.752  23.521  24.941  1.00  0.00     0.155 C 
ATOM     14  C   UNL A   1      44.806  22.351  24.007  1.00  0.00     0.248 C 
ATOM     15  O   UNL A   1      44.291  22.276  22.906  1.00  0.00    -0.273 OA
ENDBRANCH   8   9
ENDBRANCH   5   8
ENDBRANCH   3   4
ENDBRANCH   2   3
ENDBRANCH   1   2
BRANCH   1  16
ATOM     16  N   UNL A   1      40.684  21.211  26.097  1.00  0.00    -0.352 N 
ATOM     17  C   UNL A   1      39.780  22.203  26.389  1.00  0.00     0.251 C 
ATOM     18  H   UNL A   1      40.296  20.401  25.693  1.00  0.00     0.163 HD
ATOM     19  O   UNL A   1      38.578  21.958  26.321  1.00  0.00    -0.269 OA
BRANCH  17  20
ATOM     20  C   UNL A   1      40.244  23.545  26.803  1.00  0.00     0.039 A 
ATOM     21  C   UNL A   1      40.161  24.601  25.892  1.00  0.00     0.014 A 
ATOM     22  C   UNL A   1      40.778  23.763  28.075  1.00  0.00     0.014 A 
ATOM     23  C   UNL A   1      40.547  25.888  26.281  1.00  0.00     0.010 A 
ATOM     24  C   UNL A   1      41.087  25.058  28.487  1.00  0.00     0.010 A 
ATOM     25  C   UNL A   1      40.974  26.136  27.595  1.00  0.00    -0.014 A 
BRANCH  25  26
ATOM     26  C   UNL A   1      41.319  27.507  28.056  1.00  0.00     0.031 A 
ATOM     27  C   UNL A   1      42.761  27.935  28.127  1.00  0.00     0.074 A 
ATOM     28  C   UNL A   1      40.345  28.345  28.467  1.00  0.00     0.049 A 
ATOM     29  N   UNL A   1      43.275  29.033  28.618  1.00  0.00    -0.248 NA
ATOM     30  C   UNL A   1      43.756  26.989  27.599  1.00  0.00     0.031 C 
ATOM     31  C   UNL A   1      38.913  28.039  28.467  1.00  0.00     0.029 A 
ATOM     32  N   UNL A   1      40.409  29.617  28.981  1.00  0.00    -0.354 N 
ATOM     33  C   UNL A   1      44.652  28.912  28.458  1.00  0.00     0.074 A 
ATOM     34  C   UNL A   1      44.893  27.602  27.891  1.00  0.00     0.031 C 
ATOM     35  C   UNL A   1      38.235  29.097  28.942  1.00  0.00     0.029 A 
ATOM     36  C   UNL A   1      39.183  30.135  29.338  1.00  0.00     0.049 A 
ATOM     37  H   UNL A   1      41.253  30.113  29.085  1.00  0.00     0.167 HD
ATOM     38  C   UNL A   1      45.623  29.819  28.730  1.00  0.00     0.034 A 
ATOM     39  C   UNL A   1      38.861  31.298  29.939  1.00  0.00     0.034 A 
ATOM     40  C   UNL A   1      45.369  31.122  29.292  1.00  0.00     0.049 A 
ATOM     41  C   UNL A   1      39.967  32.267  30.291  1.00  0.00     0.074 A 
ATOM     42  C   UNL A   1      46.278  32.121  29.597  1.00  0.00     0.029 A 
ATOM     43  N   UNL A   1      44.115  31.610  29.637  1.00  0.00    -0.354 N 
ATOM     44  N   UNL A   1      41.263  32.141  30.112  1.00  0.00    -0.248 NA
ATOM     45  C   UNL A   1      39.569  33.536  30.913  1.00  0.00     0.031 C 
ATOM     46  C   UNL A   1      45.584  33.183  30.184  1.00  0.00     0.029 A 
ATOM     47  C   UNL A   1      44.231  32.885  30.167  1.00  0.00     0.049 A 
ATOM     48  H   UNL A   1      43.268  31.122  29.520  1.00  0.00     0.167 HD
ATOM     49  C   UNL A   1      41.824  33.335  30.558  1.00  0.00     0.074 A 
ATOM     50  C   UNL A   1      40.729  34.170  31.002  1.00  0.00     0.031 C 
ATOM     51  C   UNL A   1      43.128  33.711  30.596  1.00  0.00     0.034 A 
BRANCH  38  52
ATOM     52  C   UNL A   1      47.048  29.426  28.428  1.00  0.00     0.023 A 
ATOM     53  C   UNL A   1      47.861  28.821  29.402  1.00  0.00     0.031 A 
ATOM     54  C   UNL A   1      47.604  29.653  27.157  1.00  0.00     0.131 A 
ATOM     55  C   UNL A   1      49.201  28.524  29.112  1.00  0.00     0.055 A 
ATOM     56  C   UNL A   1      48.913  29.280  26.848  1.00  0.00     0.041 A 
ATOM     57  F   UNL A   1      46.884  30.247  26.193  1.00  0.00    -0.206 F 
ATOM     58  C   UNL A   1      49.724  28.723  27.833  1.00  0.00     0.022 A 
BRANCH  55  59
ATOM     59  S   UNL A   1      50.282  27.994  30.467  1.00  0.00     0.124 S 
ATOM     60  O   UNL A   1      49.947  26.575  30.571  1.00  0.00    -0.237 OA
ATOM     61  O   UNL A   1      51.610  28.300  29.951  1.00  0.00    -0.237 OA
ATOM     62  O   UNL A   1      49.845  28.814  31.595  1.00  0.00    -0.744 OA
ENDBRANCH  55  59
ENDBRANCH  38  52
BRANCH  39  63
ATOM     63  C   UNL A   1      37.443  31.614  30.287  1.00  0.00     0.023 A 
ATOM     64  C   UNL A   1      36.531  32.034  29.305  1.00  0.00     0.031 A 
ATOM     65  C   UNL A   1      37.000  31.586  31.622  1.00  0.00     0.131 A 
ATOM     66  C   UNL A   1      35.255  32.482  29.678  1.00  0.00     0.055 A 
ATOM     67  C   UNL A   1      35.704  31.961  31.979  1.00  0.00     0.041 A 
ATOM     68  F   UNL A   1      37.825  31.192  32.605  1.00  0.00    -0.206 F 
ATOM     69  C   UNL A   1      34.829  32.434  31.007  1.00  0.00     0.022 A 
BRANCH  66  70
ATOM     70  S   UNL A   1      34.211  33.267  28.419  1.00  0.00     0.124 S 
ATOM     71  O   UNL A   1      35.203  33.952  27.600  1.00  0.00    -0.237 OA
ATOM     72  O   UNL A   1      33.557  32.115  27.809  1.00  0.00    -0.237 OA
ATOM     73  O   UNL A   1      33.336  34.139  29.201  1.00  0.00    -0.744 OA
ENDBRANCH  66  70
ENDBRANCH  39  63
BRANCH  51  74
ATOM     74  C   UNL A   1      43.433  35.114  31.066  1.00  0.00     0.023 A 
ATOM     75  C   UNL A   1      43.532  36.195  30.174  1.00  0.00     0.031 A 
ATOM     76  C   UNL A   1      43.622  35.367  32.437  1.00  0.00     0.131 A 
ATOM     77  C   UNL A   1      43.866  37.470  30.657  1.00  0.00     0.055 A 
ATOM     78  C   UNL A   1      43.888  36.649  32.918  1.00  0.00     0.041 A 
ATOM     79  F   UNL A   1      43.542  34.371  33.334  1.00  0.00    -0.206 F 
ATOM     80  C   UNL A   1      44.024  37.708  32.025  1.00  0.00     0.022 A 
BRANCH  77  81
ATOM     81  S   UNL A   1      44.177  38.800  29.464  1.00  0.00     0.124 S 
ATOM     82  O   UNL A   1      44.061  38.099  28.190  1.00  0.00    -0.237 OA
ATOM     83  O   UNL A   1      43.111  39.749  29.770  1.00  0.00    -0.237 OA
ATOM     84  O   UNL A   1      45.526  39.255  29.801  1.00  0.00    -0.744 OA
ENDBRANCH  77  81
ENDBRANCH  51  74
ENDBRANCH  25  26
ENDBRANCH  17  20
ENDBRANCH   1  16
TORSDOF 14
ENDMDL
