MODEL 1
REMARK VINA RESULT:     -11.6      0.000      0.000
REMARK SMILES C[C@]1(C(=O)NCc2ccc(C(=O)NCCCNC(=O)c3ccc(-c4c5nc(c(-c6cc(S(=O)(=O)[O-])ccc6F)c6ccc([nH]6)c(-c6cc(S(=O)(=O)[O-])ccc6F)c6nc(c(-c7cc(S(=O)(=O)[O-])ccc7F)c7ccc4[nH]7)C=C6)C=C5)cc3)o2)CCC[NH2+]C1
REMARK SMILES IDX 15 1 14 2 13 3 11 4 12 5 10 7 7 8 8 9 83 10 9 11 6 12 5 13
REMARK SMILES IDX 3 14 4 15 2 17 1 18 84 19 88 20 85 21 87 22 86 23 16 26
REMARK SMILES IDX 17 27 18 28 19 30 20 31 21 32 82 33 22 34 81 35 23 36 24 37
REMARK SMILES IDX 25 38 75 39 26 40 80 41 74 42 76 43 27 44 79 45 73 46 72 47
REMARK SMILES IDX 28 49 60 50 40 51 59 52 41 53 44 54 58 55 77 56 42 57 43 58
REMARK SMILES IDX 57 60 78 61 45 62 29 63 30 64 38 65 31 66 37 67 39 68 36 69
REMARK SMILES IDX 32 70 33 71 34 72 35 73 61 74 62 75 70 76 63 77 69 78 71 79
REMARK SMILES IDX 68 80 64 81 65 82 66 83 67 84 46 85 47 86 55 87 48 88 54 89
REMARK SMILES IDX 56 90 53 91 49 92 50 93 51 94 52 95
REMARK H PARENT 13 6 5 16 87 24 87 25 17 29 76 48 44 59
REMARK Flexibility Score: inf
ROOT
ATOM      1  C   UNL A   1      33.186  28.867  24.761  1.00  0.00     0.042 C 
ENDROOT
BRANCH   1   2
ATOM      2  C   UNL A   1      31.705  29.216  24.887  1.00  0.00     0.118 C 
BRANCH   2   3
ATOM      3  N   UNL A   1      31.062  29.480  23.614  1.00  0.00    -0.349 N 
ATOM      4  C   UNL A   1      30.694  28.611  22.608  1.00  0.00     0.286 C 
ATOM      5  O   UNL A   1      29.918  29.060  21.762  1.00  0.00    -0.266 OA
ATOM      6  H   UNL A   1      30.856  30.427  23.441  1.00  0.00     0.163 HD
BRANCH   4   7
ATOM      7  C   UNL A   1      31.217  27.256  22.562  1.00  0.00     0.191 A 
ATOM      8  C   UNL A   1      31.183  25.099  23.080  1.00  0.00     0.124 A 
ATOM      9  C   UNL A   1      32.173  25.264  22.141  1.00  0.00     0.048 A 
ATOM     10  O   UNL A   1      30.583  26.300  23.329  1.00  0.00    -0.454 OA
ATOM     11  C   UNL A   1      32.226  26.639  21.846  1.00  0.00     0.056 A 
BRANCH   8  12
ATOM     12  C   UNL A   1      30.654  23.912  23.801  1.00  0.00     0.191 C 
BRANCH  12  13
ATOM     13  N   UNL A   1      30.801  24.123  25.231  1.00  0.00    -0.348 N 
ATOM     14  C   UNL A   1      31.766  23.804  26.124  1.00  0.00     0.232 C 
ATOM     15  O   UNL A   1      31.348  23.689  27.288  1.00  0.00    -0.274 OA
ATOM     16  H   UNL A   1      30.039  24.598  25.635  1.00  0.00     0.163 HD
BRANCH  14  17
ATOM     17  C   UNL A   1      33.286  23.673  25.858  1.00  0.00     0.095 C 
ATOM     18  C   UNL A   1      33.754  25.153  25.748  1.00  0.00     0.028 C 
ATOM     19  C   UNL A   1      33.994  23.060  27.096  1.00  0.00     0.028 C 
ATOM     20  C   UNL A   1      33.770  22.966  24.586  1.00  0.00     0.277 C 
ATOM     21  C   UNL A   1      34.016  21.533  27.092  1.00  0.00     0.063 C 
ATOM     22  N   UNL A   1      33.688  21.505  24.644  1.00  0.00    -0.345 N 
ATOM     23  C   UNL A   1      34.463  20.960  25.753  1.00  0.00     0.260 C 
ATOM     24  H   UNL A   1      32.711  21.235  24.760  1.00  0.00     0.346 HD
ATOM     25  H   UNL A   1      34.073  21.132  23.777  1.00  0.00     0.346 HD
ENDBRANCH  14  17
ENDBRANCH  12  13
ENDBRANCH   8  12
ENDBRANCH   4   7
ENDBRANCH   2   3
ENDBRANCH   1   2
BRANCH   1  26
ATOM     26  C   UNL A   1      33.998  29.033  26.041  1.00  0.00     0.118 C 
BRANCH  26  27
ATOM     27  N   UNL A   1      33.832  30.346  26.640  1.00  0.00    -0.352 N 
ATOM     28  C   UNL A   1      34.529  30.969  27.647  1.00  0.00     0.251 C 
ATOM     29  H   UNL A   1      33.097  30.879  26.262  1.00  0.00     0.163 HD
ATOM     30  O   UNL A   1      34.065  32.004  28.122  1.00  0.00    -0.269 OA
BRANCH  28  31
ATOM     31  C   UNL A   1      35.801  30.418  28.177  1.00  0.00     0.039 A 
ATOM     32  C   UNL A   1      35.760  29.660  29.353  1.00  0.00     0.014 A 
ATOM     33  C   UNL A   1      37.035  30.689  27.578  1.00  0.00     0.014 A 
ATOM     34  C   UNL A   1      36.938  29.137  29.895  1.00  0.00     0.010 A 
ATOM     35  C   UNL A   1      38.201  30.108  28.079  1.00  0.00     0.010 A 
ATOM     36  C   UNL A   1      38.167  29.331  29.247  1.00  0.00    -0.014 A 
BRANCH  36  37
ATOM     37  C   UNL A   1      39.424  28.741  29.784  1.00  0.00     0.031 A 
ATOM     38  C   UNL A   1      40.070  29.322  31.013  1.00  0.00     0.074 A 
ATOM     39  C   UNL A   1      40.011  27.718  29.132  1.00  0.00     0.049 A 
ATOM     40  N   UNL A   1      41.204  29.001  31.584  1.00  0.00    -0.248 NA
ATOM     41  C   UNL A   1      39.360  30.430  31.668  1.00  0.00     0.031 C 
ATOM     42  C   UNL A   1      39.500  27.090  27.911  1.00  0.00     0.029 A 
ATOM     43  N   UNL A   1      41.171  27.033  29.396  1.00  0.00    -0.354 N 
ATOM     44  C   UNL A   1      41.352  29.877  32.656  1.00  0.00     0.074 A 
ATOM     45  C   UNL A   1      40.217  30.776  32.618  1.00  0.00     0.031 C 
ATOM     46  C   UNL A   1      40.331  26.101  27.545  1.00  0.00     0.029 A 
ATOM     47  C   UNL A   1      41.455  26.052  28.475  1.00  0.00     0.049 A 
ATOM     48  H   UNL A   1      41.745  27.224  30.172  1.00  0.00     0.167 HD
ATOM     49  C   UNL A   1      42.331  29.915  33.595  1.00  0.00     0.034 A 
ATOM     50  C   UNL A   1      42.508  25.216  28.380  1.00  0.00     0.034 A 
ATOM     51  C   UNL A   1      43.450  29.003  33.627  1.00  0.00     0.049 A 
ATOM     52  C   UNL A   1      43.591  25.284  29.426  1.00  0.00     0.074 A 
ATOM     53  C   UNL A   1      44.470  28.920  34.559  1.00  0.00     0.029 A 
ATOM     54  N   UNL A   1      43.700  28.016  32.681  1.00  0.00    -0.354 N 
ATOM     55  N   UNL A   1      43.694  26.092  30.457  1.00  0.00    -0.248 NA
ATOM     56  C   UNL A   1      44.691  24.321  29.302  1.00  0.00     0.031 C 
ATOM     57  C   UNL A   1      45.366  27.928  34.145  1.00  0.00     0.029 A 
ATOM     58  C   UNL A   1      44.871  27.340  32.993  1.00  0.00     0.049 A 
ATOM     59  H   UNL A   1      43.129  27.826  31.901  1.00  0.00     0.167 HD
ATOM     60  C   UNL A   1      44.858  25.712  31.119  1.00  0.00     0.074 A 
ATOM     61  C   UNL A   1      45.410  24.595  30.381  1.00  0.00     0.031 C 
ATOM     62  C   UNL A   1      45.418  26.236  32.239  1.00  0.00     0.034 A 
BRANCH  49  63
ATOM     63  C   UNL A   1      42.243  30.998  34.645  1.00  0.00     0.023 A 
ATOM     64  C   UNL A   1      42.772  32.283  34.429  1.00  0.00     0.031 A 
ATOM     65  C   UNL A   1      41.651  30.736  35.894  1.00  0.00     0.131 A 
ATOM     66  C   UNL A   1      42.774  33.226  35.467  1.00  0.00     0.055 A 
ATOM     67  C   UNL A   1      41.581  31.706  36.896  1.00  0.00     0.041 A 
ATOM     68  F   UNL A   1      41.144  29.524  36.170  1.00  0.00    -0.206 F 
ATOM     69  C   UNL A   1      42.160  32.955  36.692  1.00  0.00     0.022 A 
BRANCH  66  70
ATOM     70  S   UNL A   1      43.722  34.756  35.245  1.00  0.00     0.124 S 
ATOM     71  O   UNL A   1      44.937  34.260  34.606  1.00  0.00    -0.237 OA
ATOM     72  O   UNL A   1      42.838  35.557  34.404  1.00  0.00    -0.237 OA
ATOM     73  O   UNL A   1      43.901  35.251  36.609  1.00  0.00    -0.744 OA
ENDBRANCH  66  70
ENDBRANCH  49  63
BRANCH  50  74
ATOM     74  C   UNL A   1      42.601  24.246  27.252  1.00  0.00     0.023 A 
ATOM     75  C   UNL A   1      41.986  22.986  27.332  1.00  0.00     0.031 A 
ATOM     76  C   UNL A   1      43.337  24.549  26.095  1.00  0.00     0.131 A 
ATOM     77  C   UNL A   1      42.156  22.059  26.291  1.00  0.00     0.055 A 
ATOM     78  C   UNL A   1      43.462  23.642  25.041  1.00  0.00     0.041 A 
ATOM     79  F   UNL A   1      43.938  25.743  25.966  1.00  0.00    -0.206 F 
ATOM     80  C   UNL A   1      42.879  22.383  25.141  1.00  0.00     0.022 A 
BRANCH  77  81
ATOM     81  S   UNL A   1      41.475  20.390  26.498  1.00  0.00     0.124 S 
ATOM     82  O   UNL A   1      41.987  20.021  27.813  1.00  0.00    -0.237 OA
ATOM     83  O   UNL A   1      40.040  20.636  26.413  1.00  0.00    -0.237 OA
ATOM     84  O   UNL A   1      42.046  19.649  25.375  1.00  0.00    -0.744 OA
ENDBRANCH  77  81
ENDBRANCH  50  74
BRANCH  62  85
ATOM     85  C   UNL A   1      46.672  25.570  32.749  1.00  0.00     0.023 A 
ATOM     86  C   UNL A   1      46.628  24.548  33.713  1.00  0.00     0.031 A 
ATOM     87  C   UNL A   1      47.932  25.984  32.282  1.00  0.00     0.131 A 
ATOM     88  C   UNL A   1      47.822  24.017  34.224  1.00  0.00     0.055 A 
ATOM     89  C   UNL A   1      49.115  25.411  32.749  1.00  0.00     0.041 A 
ATOM     90  F   UNL A   1      48.034  26.958  31.362  1.00  0.00    -0.206 F 
ATOM     91  C   UNL A   1      49.064  24.431  33.737  1.00  0.00     0.022 A 
BRANCH  88  92
ATOM     92  S   UNL A   1      47.733  22.845  35.606  1.00  0.00     0.124 S 
ATOM     93  O   UNL A   1      46.934  21.765  35.037  1.00  0.00    -0.237 OA
ATOM     94  O   UNL A   1      49.139  22.540  35.847  1.00  0.00    -0.237 OA
ATOM     95  O   UNL A   1      47.075  23.611  36.664  1.00  0.00    -0.744 OA
ENDBRANCH  88  92
ENDBRANCH  62  85
ENDBRANCH  36  37
ENDBRANCH  28  31
ENDBRANCH  26  27
ENDBRANCH   1  26
TORSDOF 16
ENDMDL
MODEL 2
REMARK VINA RESULT:     -11.6      3.553      8.379
REMARK SMILES C[C@]1(C(=O)NCc2ccc(C(=O)NCCCNC(=O)c3ccc(-c4c5nc(c(-c6cc(S(=O)(=O)[O-])ccc6F)c6ccc([nH]6)c(-c6cc(S(=O)(=O)[O-])ccc6F)c6nc(c(-c7cc(S(=O)(=O)[O-])ccc7F)c7ccc4[nH]7)C=C6)C=C5)cc3)o2)CCC[NH2+]C1
REMARK SMILES IDX 15 1 14 2 13 3 11 4 12 5 10 7 7 8 8 9 83 10 9 11 6 12 5 13
REMARK SMILES IDX 3 14 4 15 2 17 1 18 84 19 88 20 85 21 87 22 86 23 16 26
REMARK SMILES IDX 17 27 18 28 19 30 20 31 21 32 82 33 22 34 81 35 23 36 24 37
REMARK SMILES IDX 25 38 75 39 26 40 80 41 74 42 76 43 27 44 79 45 73 46 72 47
REMARK SMILES IDX 28 49 60 50 40 51 59 52 41 53 44 54 58 55 77 56 42 57 43 58
REMARK SMILES IDX 57 60 78 61 45 62 29 63 30 64 38 65 31 66 37 67 39 68 36 69
REMARK SMILES IDX 32 70 33 71 34 72 35 73 61 74 62 75 70 76 63 77 69 78 71 79
REMARK SMILES IDX 68 80 64 81 65 82 66 83 67 84 46 85 47 86 55 87 48 88 54 89
REMARK SMILES IDX 56 90 53 91 49 92 50 93 51 94 52 95
REMARK H PARENT 13 6 5 16 87 24 87 25 17 29 76 48 44 59
REMARK Flexibility Score: inf
ROOT
ATOM      1  C   UNL A   1      31.390  31.756  26.480  1.00  0.00     0.042 C 
ENDROOT
BRANCH   1   2
ATOM      2  C   UNL A   1      31.471  30.417  25.751  1.00  0.00     0.118 C 
BRANCH   2   3
ATOM      3  N   UNL A   1      30.806  30.418  24.461  1.00  0.00    -0.349 N 
ATOM      4  C   UNL A   1      30.369  29.363  23.687  1.00  0.00     0.286 C 
ATOM      5  O   UNL A   1      29.592  29.648  22.774  1.00  0.00    -0.266 OA
ATOM      6  H   UNL A   1      30.640  31.310  24.080  1.00  0.00     0.163 HD
BRANCH   4   7
ATOM      7  C   UNL A   1      30.825  28.008  23.944  1.00  0.00     0.191 A 
ATOM      8  C   UNL A   1      32.380  26.430  24.071  1.00  0.00     0.124 A 
ATOM      9  C   UNL A   1      31.227  25.891  24.591  1.00  0.00     0.048 A 
ATOM     10  O   UNL A   1      32.152  27.722  23.694  1.00  0.00    -0.454 OA
ATOM     11  C   UNL A   1      30.229  26.876  24.468  1.00  0.00     0.056 A 
BRANCH   8  12
ATOM     12  C   UNL A   1      33.759  25.903  23.894  1.00  0.00     0.191 C 
BRANCH  12  13
ATOM     13  N   UNL A   1      34.126  25.135  25.072  1.00  0.00    -0.348 N 
ATOM     14  C   UNL A   1      34.187  23.811  25.338  1.00  0.00     0.232 C 
ATOM     15  O   UNL A   1      34.052  23.538  26.542  1.00  0.00    -0.274 OA
ATOM     16  H   UNL A   1      34.383  25.698  25.838  1.00  0.00     0.163 HD
BRANCH  14  17
ATOM     17  C   UNL A   1      34.493  22.666  24.341  1.00  0.00     0.095 C 
ATOM     18  C   UNL A   1      33.314  22.754  23.330  1.00  0.00     0.028 C 
ATOM     19  C   UNL A   1      35.794  22.978  23.553  1.00  0.00     0.028 C 
ATOM     20  C   UNL A   1      34.530  21.218  24.845  1.00  0.00     0.277 C 
ATOM     21  C   UNL A   1      37.062  22.498  24.257  1.00  0.00     0.063 C 
ATOM     22  N   UNL A   1      35.753  20.867  25.571  1.00  0.00    -0.345 N 
ATOM     23  C   UNL A   1      36.946  21.063  24.754  1.00  0.00     0.260 C 
ATOM     24  H   UNL A   1      35.821  21.454  26.402  1.00  0.00     0.346 HD
ATOM     25  H   UNL A   1      35.700  19.880  25.820  1.00  0.00     0.346 HD
ENDBRANCH  14  17
ENDBRANCH  12  13
ENDBRANCH   8  12
ENDBRANCH   4   7
ENDBRANCH   2   3
ENDBRANCH   1   2
BRANCH   1  26
ATOM     26  C   UNL A   1      32.715  32.272  27.028  1.00  0.00     0.118 C 
BRANCH  26  27
ATOM     27  N   UNL A   1      32.634  33.650  27.481  1.00  0.00    -0.352 N 
ATOM     28  C   UNL A   1      33.295  34.304  28.492  1.00  0.00     0.251 C 
ATOM     29  H   UNL A   1      31.998  34.209  26.980  1.00  0.00     0.163 HD
ATOM     30  O   UNL A   1      32.900  35.423  28.817  1.00  0.00    -0.269 OA
BRANCH  28  31
ATOM     31  C   UNL A   1      34.447  33.692  29.200  1.00  0.00     0.039 A 
ATOM     32  C   UNL A   1      35.718  34.241  29.001  1.00  0.00     0.014 A 
ATOM     33  C   UNL A   1      34.309  32.551  29.996  1.00  0.00     0.014 A 
ATOM     34  C   UNL A   1      36.833  33.683  29.636  1.00  0.00     0.010 A 
ATOM     35  C   UNL A   1      35.409  32.039  30.685  1.00  0.00     0.010 A 
ATOM     36  C   UNL A   1      36.685  32.594  30.507  1.00  0.00    -0.014 A 
BRANCH  36  37
ATOM     37  C   UNL A   1      37.854  32.019  31.228  1.00  0.00     0.031 A 
ATOM     38  C   UNL A   1      38.662  30.914  30.602  1.00  0.00     0.074 A 
ATOM     39  C   UNL A   1      38.151  32.452  32.468  1.00  0.00     0.049 A 
ATOM     40  N   UNL A   1      39.661  30.231  31.102  1.00  0.00    -0.248 NA
ATOM     41  C   UNL A   1      38.277  30.505  29.243  1.00  0.00     0.031 C 
ATOM     42  C   UNL A   1      37.422  33.494  33.196  1.00  0.00     0.029 A 
ATOM     43  N   UNL A   1      39.137  32.067  33.342  1.00  0.00    -0.354 N 
ATOM     44  C   UNL A   1      40.013  29.302  30.128  1.00  0.00     0.074 A 
ATOM     45  C   UNL A   1      39.083  29.475  29.031  1.00  0.00     0.031 C 
ATOM     46  C   UNL A   1      37.997  33.676  34.396  1.00  0.00     0.029 A 
ATOM     47  C   UNL A   1      39.105  32.738  34.542  1.00  0.00     0.049 A 
ATOM     48  H   UNL A   1      39.804  31.375  33.130  1.00  0.00     0.167 HD
ATOM     49  C   UNL A   1      41.029  28.401  30.138  1.00  0.00     0.034 A 
ATOM     50  C   UNL A   1      39.872  32.605  35.642  1.00  0.00     0.034 A 
ATOM     51  C   UNL A   1      41.956  28.248  31.234  1.00  0.00     0.049 A 
ATOM     52  C   UNL A   1      40.986  31.590  35.637  1.00  0.00     0.074 A 
ATOM     53  C   UNL A   1      43.050  27.404  31.329  1.00  0.00     0.029 A 
ATOM     54  N   UNL A   1      41.898  28.952  32.431  1.00  0.00    -0.354 N 
ATOM     55  N   UNL A   1      41.331  30.747  34.691  1.00  0.00    -0.248 NA
ATOM     56  C   UNL A   1      41.819  31.517  36.843  1.00  0.00     0.031 C 
ATOM     57  C   UNL A   1      43.614  27.554  32.601  1.00  0.00     0.029 A 
ATOM     58  C   UNL A   1      42.917  28.542  33.278  1.00  0.00     0.049 A 
ATOM     59  H   UNL A   1      41.228  29.642  32.647  1.00  0.00     0.167 HD
ATOM     60  C   UNL A   1      42.441  30.064  35.179  1.00  0.00     0.074 A 
ATOM     61  C   UNL A   1      42.716  30.606  36.495  1.00  0.00     0.031 C 
ATOM     62  C   UNL A   1      43.171  29.081  34.593  1.00  0.00     0.034 A 
BRANCH  49  63
ATOM     63  C   UNL A   1      41.166  27.496  28.935  1.00  0.00     0.023 A 
ATOM     64  C   UNL A   1      42.159  27.705  27.962  1.00  0.00     0.031 A 
ATOM     65  C   UNL A   1      40.270  26.430  28.739  1.00  0.00     0.131 A 
ATOM     66  C   UNL A   1      42.184  26.915  26.802  1.00  0.00     0.055 A 
ATOM     67  C   UNL A   1      40.352  25.594  27.623  1.00  0.00     0.041 A 
ATOM     68  F   UNL A   1      39.288  26.189  29.622  1.00  0.00    -0.206 F 
ATOM     69  C   UNL A   1      41.302  25.845  26.638  1.00  0.00     0.022 A 
BRANCH  66  70
ATOM     70  S   UNL A   1      43.286  27.402  25.447  1.00  0.00     0.124 S 
ATOM     71  O   UNL A   1      43.773  26.105  24.983  1.00  0.00    -0.237 OA
ATOM     72  O   UNL A   1      42.384  28.107  24.544  1.00  0.00    -0.237 OA
ATOM     73  O   UNL A   1      44.290  28.237  26.104  1.00  0.00    -0.744 OA
ENDBRANCH  66  70
ENDBRANCH  49  63
BRANCH  50  74
ATOM     74  C   UNL A   1      39.615  33.444  36.847  1.00  0.00     0.023 A 
ATOM     75  C   UNL A   1      38.985  32.905  37.981  1.00  0.00     0.031 A 
ATOM     76  C   UNL A   1      39.959  34.807  36.868  1.00  0.00     0.131 A 
ATOM     77  C   UNL A   1      38.680  33.735  39.071  1.00  0.00     0.055 A 
ATOM     78  C   UNL A   1      39.697  35.616  37.974  1.00  0.00     0.041 A 
ATOM     79  F   UNL A   1      40.569  35.369  35.812  1.00  0.00    -0.206 F 
ATOM     80  C   UNL A   1      39.043  35.084  39.081  1.00  0.00     0.022 A 
BRANCH  77  81
ATOM     81  S   UNL A   1      37.731  33.039  40.451  1.00  0.00     0.124 S 
ATOM     82  O   UNL A   1      38.369  31.738  40.625  1.00  0.00    -0.237 OA
ATOM     83  O   UNL A   1      37.970  34.017  41.507  1.00  0.00    -0.237 OA
ATOM     84  O   UNL A   1      36.363  33.000  39.938  1.00  0.00    -0.744 OA
ENDBRANCH  77  81
ENDBRANCH  50  74
BRANCH  62  85
ATOM     85  C   UNL A   1      44.362  28.566  35.363  1.00  0.00     0.023 A 
ATOM     86  C   UNL A   1      44.242  27.525  36.302  1.00  0.00     0.031 A 
ATOM     87  C   UNL A   1      45.630  29.143  35.175  1.00  0.00     0.131 A 
ATOM     88  C   UNL A   1      45.357  27.136  37.060  1.00  0.00     0.055 A 
ATOM     89  C   UNL A   1      46.748  28.711  35.888  1.00  0.00     0.041 A 
ATOM     90  F   UNL A   1      45.801  30.141  34.292  1.00  0.00    -0.206 F 
ATOM     91  C   UNL A   1      46.612  27.711  36.847  1.00  0.00     0.022 A 
BRANCH  88  92
ATOM     92  S   UNL A   1      45.124  25.933  38.397  1.00  0.00     0.124 S 
ATOM     93  O   UNL A   1      44.283  26.675  39.330  1.00  0.00    -0.237 OA
ATOM     94  O   UNL A   1      44.482  24.819  37.707  1.00  0.00    -0.237 OA
ATOM     95  O   UNL A   1      46.485  25.670  38.863  1.00  0.00    -0.744 OA
ENDBRANCH  88  92
ENDBRANCH  62  85
ENDBRANCH  36  37
ENDBRANCH  28  31
ENDBRANCH  26  27
ENDBRANCH   1  26
TORSDOF 16
ENDMDL
MODEL 3
REMARK VINA RESULT:     -11.5      2.875      8.066
REMARK SMILES C[C@]1(C(=O)NCc2ccc(C(=O)NCCCNC(=O)c3ccc(-c4c5nc(c(-c6cc(S(=O)(=O)[O-])ccc6F)c6ccc([nH]6)c(-c6cc(S(=O)(=O)[O-])ccc6F)c6nc(c(-c7cc(S(=O)(=O)[O-])ccc7F)c7ccc4[nH]7)C=C6)C=C5)cc3)o2)CCC[NH2+]C1
REMARK SMILES IDX 15 1 14 2 13 3 11 4 12 5 10 7 7 8 8 9 83 10 9 11 6 12 5 13
REMARK SMILES IDX 3 14 4 15 2 17 1 18 84 19 88 20 85 21 87 22 86 23 16 26
REMARK SMILES IDX 17 27 18 28 19 30 20 31 21 32 82 33 22 34 81 35 23 36 24 37
REMARK SMILES IDX 25 38 75 39 26 40 80 41 74 42 76 43 27 44 79 45 73 46 72 47
REMARK SMILES IDX 28 49 60 50 40 51 59 52 41 53 44 54 58 55 77 56 42 57 43 58
REMARK SMILES IDX 57 60 78 61 45 62 29 63 30 64 38 65 31 66 37 67 39 68 36 69
REMARK SMILES IDX 32 70 33 71 34 72 35 73 61 74 62 75 70 76 63 77 69 78 71 79
REMARK SMILES IDX 68 80 64 81 65 82 66 83 67 84 46 85 47 86 55 87 48 88 54 89
REMARK SMILES IDX 56 90 53 91 49 92 50 93 51 94 52 95
REMARK H PARENT 13 6 5 16 87 24 87 25 17 29 76 48 44 59
REMARK Flexibility Score: inf
ROOT
ATOM      1  C   UNL A   1      33.055  29.253  24.326  1.00  0.00     0.042 C 
ENDROOT
BRANCH   1   2
ATOM      2  C   UNL A   1      32.720  27.940  23.623  1.00  0.00     0.118 C 
BRANCH   2   3
ATOM      3  N   UNL A   1      31.343  27.857  23.174  1.00  0.00    -0.349 N 
ATOM      4  C   UNL A   1      30.297  27.099  23.657  1.00  0.00     0.286 C 
ATOM      5  O   UNL A   1      29.171  27.425  23.274  1.00  0.00    -0.266 OA
ATOM      6  H   UNL A   1      31.121  28.432  22.406  1.00  0.00     0.163 HD
BRANCH   4   7
ATOM      7  C   UNL A   1      30.535  25.978  24.550  1.00  0.00     0.191 A 
ATOM      8  C   UNL A   1      31.268  23.937  25.017  1.00  0.00     0.124 A 
ATOM      9  C   UNL A   1      30.922  24.516  26.215  1.00  0.00     0.048 A 
ATOM     10  O   UNL A   1      31.055  24.823  24.001  1.00  0.00    -0.454 OA
ATOM     11  C   UNL A   1      30.415  25.793  25.915  1.00  0.00     0.056 A 
BRANCH   8  12
ATOM     12  C   UNL A   1      31.836  22.611  24.655  1.00  0.00     0.191 C 
BRANCH  12  13
ATOM     13  N   UNL A   1      32.737  22.775  23.528  1.00  0.00    -0.348 N 
ATOM     14  C   UNL A   1      34.069  22.985  23.425  1.00  0.00     0.232 C 
ATOM     15  O   UNL A   1      34.403  23.559  22.376  1.00  0.00    -0.274 OA
ATOM     16  H   UNL A   1      32.283  22.724  22.656  1.00  0.00     0.163 HD
BRANCH  14  17
ATOM     17  C   UNL A   1      35.173  22.510  24.402  1.00  0.00     0.095 C 
ATOM     18  C   UNL A   1      36.464  22.578  23.535  1.00  0.00     0.028 C 
ATOM     19  C   UNL A   1      35.344  23.535  25.555  1.00  0.00     0.028 C 
ATOM     20  C   UNL A   1      35.109  21.091  24.979  1.00  0.00     0.277 C 
ATOM     21  C   UNL A   1      34.406  23.286  26.735  1.00  0.00     0.063 C 
ATOM     22  N   UNL A   1      34.132  20.926  26.057  1.00  0.00    -0.345 N 
ATOM     23  C   UNL A   1      34.397  21.827  27.174  1.00  0.00     0.260 C 
ATOM     24  H   UNL A   1      33.201  21.121  25.690  1.00  0.00     0.346 HD
ATOM     25  H   UNL A   1      34.200  19.969  26.402  1.00  0.00     0.346 HD
ENDBRANCH  14  17
ENDBRANCH  12  13
ENDBRANCH   8  12
ENDBRANCH   4   7
ENDBRANCH   2   3
ENDBRANCH   1   2
BRANCH   1  26
ATOM     26  C   UNL A   1      32.408  29.435  25.694  1.00  0.00     0.118 C 
BRANCH  26  27
ATOM     27  N   UNL A   1      32.148  30.829  26.008  1.00  0.00    -0.352 N 
ATOM     28  C   UNL A   1      32.723  31.664  26.934  1.00  0.00     0.251 C 
ATOM     29  H   UNL A   1      31.440  31.246  25.466  1.00  0.00     0.163 HD
ATOM     30  O   UNL A   1      32.186  32.749  27.153  1.00  0.00    -0.269 OA
BRANCH  28  31
ATOM     31  C   UNL A   1      33.950  31.284  27.677  1.00  0.00     0.039 A 
ATOM     32  C   UNL A   1      34.870  32.287  28.001  1.00  0.00     0.014 A 
ATOM     33  C   UNL A   1      34.243  29.955  27.997  1.00  0.00     0.014 A 
ATOM     34  C   UNL A   1      36.047  31.968  28.686  1.00  0.00     0.010 A 
ATOM     35  C   UNL A   1      35.382  29.647  28.742  1.00  0.00     0.010 A 
ATOM     36  C   UNL A   1      36.301  30.649  29.089  1.00  0.00    -0.014 A 
BRANCH  36  37
ATOM     37  C   UNL A   1      37.526  30.300  29.859  1.00  0.00     0.031 A 
ATOM     38  C   UNL A   1      38.565  29.390  29.261  1.00  0.00     0.074 A 
ATOM     39  C   UNL A   1      37.674  30.758  31.118  1.00  0.00     0.049 A 
ATOM     40  N   UNL A   1      39.655  28.907  29.803  1.00  0.00    -0.248 NA
ATOM     41  C   UNL A   1      38.332  28.942  27.881  1.00  0.00     0.031 C 
ATOM     42  C   UNL A   1      36.720  31.620  31.821  1.00  0.00     0.029 A 
ATOM     43  N   UNL A   1      38.675  30.556  32.035  1.00  0.00    -0.354 N 
ATOM     44  C   UNL A   1      40.229  28.086  28.837  1.00  0.00     0.074 A 
ATOM     45  C   UNL A   1      39.335  28.096  27.698  1.00  0.00     0.031 C 
ATOM     46  C   UNL A   1      37.191  31.886  33.050  1.00  0.00     0.029 A 
ATOM     47  C   UNL A   1      38.456  31.182  33.240  1.00  0.00     0.049 A 
ATOM     48  H   UNL A   1      39.475  30.014  31.848  1.00  0.00     0.167 HD
ATOM     49  C   UNL A   1      41.402  27.403  28.886  1.00  0.00     0.034 A 
ATOM     50  C   UNL A   1      39.182  31.180  34.375  1.00  0.00     0.034 A 
ATOM     51  C   UNL A   1      42.289  27.413  30.026  1.00  0.00     0.049 A 
ATOM     52  C   UNL A   1      40.473  30.404  34.414  1.00  0.00     0.074 A 
ATOM     53  C   UNL A   1      43.523  26.800  30.165  1.00  0.00     0.029 A 
ATOM     54  N   UNL A   1      42.037  28.066  31.226  1.00  0.00    -0.354 N 
ATOM     55  N   UNL A   1      41.022  29.666  33.476  1.00  0.00    -0.248 NA
ATOM     56  C   UNL A   1      41.248  30.472  35.658  1.00  0.00     0.031 C 
ATOM     57  C   UNL A   1      43.986  27.030  31.465  1.00  0.00     0.029 A 
ATOM     58  C   UNL A   1      43.077  27.848  32.117  1.00  0.00     0.049 A 
ATOM     59  H   UNL A   1      41.235  28.606  31.416  1.00  0.00     0.167 HD
ATOM     60  C   UNL A   1      42.222  29.206  34.011  1.00  0.00     0.074 A 
ATOM     61  C   UNL A   1      42.323  29.763  35.344  1.00  0.00     0.031 C 
ATOM     62  C   UNL A   1      43.158  28.399  33.450  1.00  0.00     0.034 A 
BRANCH  49  63
ATOM     63  C   UNL A   1      41.770  26.569  27.682  1.00  0.00     0.023 A 
ATOM     64  C   UNL A   1      41.456  25.201  27.606  1.00  0.00     0.031 A 
ATOM     65  C   UNL A   1      42.476  27.139  26.607  1.00  0.00     0.131 A 
ATOM     66  C   UNL A   1      41.914  24.433  26.524  1.00  0.00     0.055 A 
ATOM     67  C   UNL A   1      42.857  26.389  25.493  1.00  0.00     0.041 A 
ATOM     68  F   UNL A   1      42.822  28.436  26.627  1.00  0.00    -0.206 F 
ATOM     69  C   UNL A   1      42.591  25.023  25.455  1.00  0.00     0.022 A 
BRANCH  66  70
ATOM     70  S   UNL A   1      41.743  22.629  26.608  1.00  0.00     0.124 S 
ATOM     71  O   UNL A   1      40.301  22.478  26.784  1.00  0.00    -0.237 OA
ATOM     72  O   UNL A   1      42.279  22.201  25.321  1.00  0.00    -0.237 OA
ATOM     73  O   UNL A   1      42.547  22.262  27.772  1.00  0.00    -0.744 OA
ENDBRANCH  66  70
ENDBRANCH  49  63
BRANCH  50  74
ATOM     74  C   UNL A   1      38.708  31.926  35.575  1.00  0.00     0.023 A 
ATOM     75  C   UNL A   1      38.152  31.249  36.673  1.00  0.00     0.031 A 
ATOM     76  C   UNL A   1      38.769  33.329  35.626  1.00  0.00     0.131 A 
ATOM     77  C   UNL A   1      37.638  31.979  37.756  1.00  0.00     0.055 A 
ATOM     78  C   UNL A   1      38.301  34.048  36.727  1.00  0.00     0.041 A 
ATOM     79  F   UNL A   1      39.298  34.023  34.606  1.00  0.00    -0.206 F 
ATOM     80  C   UNL A   1      37.720  33.373  37.797  1.00  0.00     0.022 A 
BRANCH  77  81
ATOM     81  S   UNL A   1      36.790  31.079  39.083  1.00  0.00     0.124 S 
ATOM     82  O   UNL A   1      36.654  29.749  38.501  1.00  0.00    -0.237 OA
ATOM     83  O   UNL A   1      37.737  31.203  40.186  1.00  0.00    -0.237 OA
ATOM     84  O   UNL A   1      35.541  31.818  39.251  1.00  0.00    -0.744 OA
ENDBRANCH  77  81
ENDBRANCH  50  74
BRANCH  62  85
ATOM     85  C   UNL A   1      44.391  28.112  34.272  1.00  0.00     0.023 A 
ATOM     86  C   UNL A   1      44.463  27.004  35.136  1.00  0.00     0.031 A 
ATOM     87  C   UNL A   1      45.499  28.975  34.210  1.00  0.00     0.131 A 
ATOM     88  C   UNL A   1      45.593  26.824  35.948  1.00  0.00     0.055 A 
ATOM     89  C   UNL A   1      46.644  28.757  34.976  1.00  0.00     0.041 A 
ATOM     90  F   UNL A   1      45.483  30.049  33.404  1.00  0.00    -0.206 F 
ATOM     91  C   UNL A   1      46.690  27.684  35.862  1.00  0.00     0.022 A 
BRANCH  88  92
ATOM     92  S   UNL A   1      45.570  25.503  37.191  1.00  0.00     0.124 S 
ATOM     93  O   UNL A   1      46.407  24.484  36.567  1.00  0.00    -0.237 OA
ATOM     94  O   UNL A   1      46.137  26.165  38.361  1.00  0.00    -0.237 OA
ATOM     95  O   UNL A   1      44.153  25.159  37.300  1.00  0.00    -0.744 OA
ENDBRANCH  88  92
ENDBRANCH  62  85
ENDBRANCH  36  37
ENDBRANCH  28  31
ENDBRANCH  26  27
ENDBRANCH   1  26
TORSDOF 16
ENDMDL
