MODEL 1
REMARK VINA RESULT:     -10.7      0.000      0.000
REMARK SMILES CC[C@H](C)[NH2+]CCc1ccc(C(=O)NCCCNC(=O)c2ccc(-c3c4nc(c(-c5cc(S(=O)(=O)[O-])ccc5F)c5ccc([nH]5)c(-c5cc(S(=O)(=O)[O-])ccc5F)c5nc(c(-c6cc(S(=O)(=O)[O-])ccc6F)c6ccc3[nH]6)C=C5)C=C4)cc2)cc1
REMARK SMILES IDX 15 1 14 2 12 3 13 4 11 6 8 7 9 8 85 9 10 10 84 11 7 12 6 13
REMARK SMILES IDX 5 14 3 17 4 18 2 19 1 20 16 21 17 22 18 23 19 24 20 26 21 27
REMARK SMILES IDX 22 28 83 29 23 30 82 31 24 32 25 33 26 34 76 35 27 36 81 37
REMARK SMILES IDX 75 38 77 39 28 40 80 41 74 42 73 43 29 45 61 46 41 47 60 48
REMARK SMILES IDX 42 49 45 50 59 51 78 52 43 53 44 54 58 56 79 57 46 58 30 59
REMARK SMILES IDX 31 60 39 61 32 62 38 63 40 64 37 65 33 66 34 67 35 68 36 69
REMARK SMILES IDX 62 70 63 71 71 72 64 73 70 74 72 75 69 76 65 77 66 78 67 79
REMARK SMILES IDX 68 80 47 81 48 82 56 83 49 84 55 85 57 86 54 87 50 88 51 89
REMARK SMILES IDX 52 90 53 91
REMARK H PARENT 14 5 5 15 5 16 18 25 77 44 45 55
REMARK Flexibility Score: inf
ROOT
ATOM      1  C   UNL A   1      31.538  29.625  24.950  1.00  0.00     0.118 C 
ENDROOT
BRANCH   1   2
ATOM      2  N   UNL A   1      30.869  29.811  23.675  1.00  0.00    -0.352 N 
ATOM      3  C   UNL A   1      30.454  28.894  22.745  1.00  0.00     0.251 C 
ATOM      4  O   UNL A   1      29.840  29.280  21.754  1.00  0.00    -0.269 OA
ATOM      5  H   UNL A   1      30.682  30.748  23.440  1.00  0.00     0.163 HD
BRANCH   3   6
ATOM      6  C   UNL A   1      30.657  27.442  22.952  1.00  0.00     0.039 A 
ATOM      7  C   UNL A   1      31.143  24.668  23.189  1.00  0.00    -0.042 A 
ATOM      8  C   UNL A   1      31.821  25.438  22.241  1.00  0.00     0.005 A 
ATOM      9  C   UNL A   1      30.200  25.317  24.008  1.00  0.00     0.005 A 
ATOM     10  C   UNL A   1      31.609  26.816  22.147  1.00  0.00     0.014 A 
ATOM     11  C   UNL A   1      29.968  26.690  23.901  1.00  0.00     0.014 A 
BRANCH   7  12
ATOM     12  C   UNL A   1      31.345  23.185  23.408  1.00  0.00     0.097 C 
BRANCH  12  13
ATOM     13  C   UNL A   1      31.550  22.581  24.818  1.00  0.00     0.265 C 
BRANCH  13  14
ATOM     14  N   UNL A   1      32.858  22.139  25.280  1.00  0.00    -0.344 N 
ATOM     15  H   UNL A   1      32.718  21.749  26.213  1.00  0.00     0.346 HD
ATOM     16  H   UNL A   1      33.158  21.511  24.534  1.00  0.00     0.346 HD
BRANCH  14  17
ATOM     17  C   UNL A   1      33.978  23.073  25.385  1.00  0.00     0.178 C 
ATOM     18  C   UNL A   1      34.621  23.132  23.986  1.00  0.00     0.075 C 
BRANCH  17  19
ATOM     19  C   UNL A   1      33.631  24.482  25.896  1.00  0.00     0.061 C 
ATOM     20  C   UNL A   1      34.278  25.613  25.106  1.00  0.00     0.010 C 
ENDBRANCH  17  19
ENDBRANCH  14  17
ENDBRANCH  13  14
ENDBRANCH  12  13
ENDBRANCH   7  12
ENDBRANCH   3   6
ENDBRANCH   1   2
BRANCH   1  21
ATOM     21  C   UNL A   1      32.957  29.099  24.751  1.00  0.00     0.042 C 
BRANCH  21  22
ATOM     22  C   UNL A   1      33.808  29.175  26.015  1.00  0.00     0.118 C 
BRANCH  22  23
ATOM     23  N   UNL A   1      33.699  30.474  26.654  1.00  0.00    -0.352 N 
ATOM     24  C   UNL A   1      34.425  31.006  27.689  1.00  0.00     0.251 C 
ATOM     25  H   UNL A   1      32.999  31.062  26.291  1.00  0.00     0.163 HD
ATOM     26  O   UNL A   1      34.000  32.008  28.256  1.00  0.00    -0.269 OA
BRANCH  24  27
ATOM     27  C   UNL A   1      35.698  30.386  28.123  1.00  0.00     0.039 A 
ATOM     28  C   UNL A   1      35.722  29.697  29.340  1.00  0.00     0.014 A 
ATOM     29  C   UNL A   1      36.879  30.539  27.390  1.00  0.00     0.014 A 
ATOM     30  C   UNL A   1      36.919  29.154  29.810  1.00  0.00     0.010 A 
ATOM     31  C   UNL A   1      38.057  29.934  27.824  1.00  0.00     0.010 A 
ATOM     32  C   UNL A   1      38.095  29.262  29.053  1.00  0.00    -0.014 A 
BRANCH  32  33
ATOM     33  C   UNL A   1      39.380  28.726  29.571  1.00  0.00     0.031 A 
ATOM     34  C   UNL A   1      40.029  29.359  30.774  1.00  0.00     0.074 A 
ATOM     35  C   UNL A   1      39.967  27.685  28.949  1.00  0.00     0.049 A 
ATOM     36  N   UNL A   1      41.149  29.045  31.374  1.00  0.00    -0.248 NA
ATOM     37  C   UNL A   1      39.341  30.520  31.358  1.00  0.00     0.031 C 
ATOM     38  C   UNL A   1      39.454  27.021  27.748  1.00  0.00     0.029 A 
ATOM     39  N   UNL A   1      41.119  27.001  29.239  1.00  0.00    -0.354 N 
ATOM     40  C   UNL A   1      41.305  29.976  32.397  1.00  0.00     0.074 A 
ATOM     41  C   UNL A   1      40.199  30.903  32.290  1.00  0.00     0.031 C 
ATOM     42  C   UNL A   1      40.272  26.007  27.424  1.00  0.00     0.029 A 
ATOM     43  C   UNL A   1      41.381  25.967  28.372  1.00  0.00     0.049 A 
ATOM     44  H   UNL A   1      41.704  27.230  29.998  1.00  0.00     0.167 HD
ATOM     45  C   UNL A   1      42.266  30.035  33.353  1.00  0.00     0.034 A 
ATOM     46  C   UNL A   1      42.399  25.085  28.348  1.00  0.00     0.034 A 
ATOM     47  C   UNL A   1      43.354  29.091  33.451  1.00  0.00     0.049 A 
ATOM     48  C   UNL A   1      43.443  25.155  29.433  1.00  0.00     0.074 A 
ATOM     49  C   UNL A   1      44.366  29.031  34.393  1.00  0.00     0.029 A 
ATOM     50  N   UNL A   1      43.572  28.039  32.569  1.00  0.00    -0.354 N 
ATOM     51  N   UNL A   1      43.552  26.012  30.422  1.00  0.00    -0.248 NA
ATOM     52  C   UNL A   1      44.485  24.122  29.411  1.00  0.00     0.031 C 
ATOM     53  C   UNL A   1      45.224  27.978  34.052  1.00  0.00     0.029 A 
ATOM     54  C   UNL A   1      44.709  27.334  32.938  1.00  0.00     0.049 A 
ATOM     55  H   UNL A   1      43.002  27.824  31.797  1.00  0.00     0.167 HD
ATOM     56  C   UNL A   1      44.658  25.599  31.160  1.00  0.00     0.074 A 
ATOM     57  C   UNL A   1      45.165  24.407  30.511  1.00  0.00     0.031 C 
ATOM     58  C   UNL A   1      45.205  26.152  32.273  1.00  0.00     0.034 A 
BRANCH  45  59
ATOM     59  C   UNL A   1      42.187  31.175  34.344  1.00  0.00     0.023 A 
ATOM     60  C   UNL A   1      41.225  31.197  35.370  1.00  0.00     0.031 A 
ATOM     61  C   UNL A   1      43.055  32.276  34.238  1.00  0.00     0.131 A 
ATOM     62  C   UNL A   1      41.097  32.329  36.189  1.00  0.00     0.055 A 
ATOM     63  C   UNL A   1      42.980  33.362  35.112  1.00  0.00     0.041 A 
ATOM     64  F   UNL A   1      43.982  32.325  33.267  1.00  0.00    -0.206 F 
ATOM     65  C   UNL A   1      41.984  33.401  36.084  1.00  0.00     0.022 A 
BRANCH  62  66
ATOM     66  S   UNL A   1      39.658  32.445  37.289  1.00  0.00     0.124 S 
ATOM     67  O   UNL A   1      39.039  33.687  36.834  1.00  0.00    -0.237 OA
ATOM     68  O   UNL A   1      38.929  31.218  36.986  1.00  0.00    -0.237 OA
ATOM     69  O   UNL A   1      40.251  32.505  38.624  1.00  0.00    -0.744 OA
ENDBRANCH  62  66
ENDBRANCH  45  59
BRANCH  46  70
ATOM     70  C   UNL A   1      42.475  24.050  27.278  1.00  0.00     0.023 A 
ATOM     71  C   UNL A   1      41.674  22.898  27.327  1.00  0.00     0.031 A 
ATOM     72  C   UNL A   1      43.376  24.182  26.207  1.00  0.00     0.131 A 
ATOM     73  C   UNL A   1      41.823  21.900  26.352  1.00  0.00     0.055 A 
ATOM     74  C   UNL A   1      43.487  23.209  25.212  1.00  0.00     0.041 A 
ATOM     75  F   UNL A   1      44.157  25.270  26.108  1.00  0.00    -0.206 F 
ATOM     76  C   UNL A   1      42.716  22.053  25.289  1.00  0.00     0.022 A 
BRANCH  73  77
ATOM     77  S   UNL A   1      40.885  20.358  26.536  1.00  0.00     0.124 S 
ATOM     78  O   UNL A   1      39.611  20.709  25.918  1.00  0.00    -0.237 OA
ATOM     79  O   UNL A   1      41.716  19.410  25.800  1.00  0.00    -0.237 OA
ATOM     80  O   UNL A   1      40.844  20.156  27.982  1.00  0.00    -0.744 OA
ENDBRANCH  73  77
ENDBRANCH  46  70
BRANCH  58  81
ATOM     81  C   UNL A   1      46.387  25.432  32.876  1.00  0.00     0.023 A 
ATOM     82  C   UNL A   1      46.225  24.432  33.851  1.00  0.00     0.031 A 
ATOM     83  C   UNL A   1      47.696  25.785  32.501  1.00  0.00     0.131 A 
ATOM     84  C   UNL A   1      47.352  23.872  34.471  1.00  0.00     0.055 A 
ATOM     85  C   UNL A   1      48.813  25.178  33.075  1.00  0.00     0.041 A 
ATOM     86  F   UNL A   1      47.909  26.734  31.576  1.00  0.00    -0.206 F 
ATOM     87  C   UNL A   1      48.646  24.229  34.079  1.00  0.00     0.022 A 
BRANCH  84  88
ATOM     88  S   UNL A   1      47.105  22.765  35.887  1.00  0.00     0.124 S 
ATOM     89  O   UNL A   1      47.794  23.478  36.957  1.00  0.00    -0.237 OA
ATOM     90  O   UNL A   1      45.650  22.713  35.990  1.00  0.00    -0.237 OA
ATOM     91  O   UNL A   1      47.741  21.518  35.462  1.00  0.00    -0.744 OA
ENDBRANCH  84  88
ENDBRANCH  58  81
ENDBRANCH  32  33
ENDBRANCH  24  27
ENDBRANCH  22  23
ENDBRANCH  21  22
ENDBRANCH   1  21
TORSDOF 18
ENDMDL
MODEL 2
REMARK VINA RESULT:     -10.6      4.277      9.527
REMARK SMILES CC[C@H](C)[NH2+]CCc1ccc(C(=O)NCCCNC(=O)c2ccc(-c3c4nc(c(-c5cc(S(=O)(=O)[O-])ccc5F)c5ccc([nH]5)c(-c5cc(S(=O)(=O)[O-])ccc5F)c5nc(c(-c6cc(S(=O)(=O)[O-])ccc6F)c6ccc3[nH]6)C=C5)C=C4)cc2)cc1
REMARK SMILES IDX 15 1 14 2 12 3 13 4 11 6 8 7 9 8 85 9 10 10 84 11 7 12 6 13
REMARK SMILES IDX 5 14 3 17 4 18 2 19 1 20 16 21 17 22 18 23 19 24 20 26 21 27
REMARK SMILES IDX 22 28 83 29 23 30 82 31 24 32 25 33 26 34 76 35 27 36 81 37
REMARK SMILES IDX 75 38 77 39 28 40 80 41 74 42 73 43 29 45 61 46 41 47 60 48
REMARK SMILES IDX 42 49 45 50 59 51 78 52 43 53 44 54 58 56 79 57 46 58 30 59
REMARK SMILES IDX 31 60 39 61 32 62 38 63 40 64 37 65 33 66 34 67 35 68 36 69
REMARK SMILES IDX 62 70 63 71 71 72 64 73 70 74 72 75 69 76 65 77 66 78 67 79
REMARK SMILES IDX 68 80 47 81 48 82 56 83 49 84 55 85 57 86 54 87 50 88 51 89
REMARK SMILES IDX 52 90 53 91
REMARK H PARENT 14 5 5 15 5 16 18 25 77 44 45 55
REMARK Flexibility Score: inf
ROOT
ATOM      1  C   UNL A   1      35.505  21.233  24.999  1.00  0.00     0.118 C 
ENDROOT
BRANCH   1   2
ATOM      2  N   UNL A   1      34.552  20.201  25.364  1.00  0.00    -0.352 N 
ATOM      3  C   UNL A   1      33.182  20.211  25.355  1.00  0.00     0.251 C 
ATOM      4  O   UNL A   1      32.572  19.185  25.647  1.00  0.00    -0.269 OA
ATOM      5  H   UNL A   1      34.955  19.356  25.667  1.00  0.00     0.163 HD
BRANCH   3   6
ATOM      6  C   UNL A   1      32.424  21.406  24.920  1.00  0.00     0.039 A 
ATOM      7  C   UNL A   1      31.065  23.675  23.925  1.00  0.00    -0.042 A 
ATOM      8  C   UNL A   1      31.818  22.860  23.077  1.00  0.00     0.005 A 
ATOM      9  C   UNL A   1      31.021  23.339  25.291  1.00  0.00     0.005 A 
ATOM     10  C   UNL A   1      32.461  21.717  23.561  1.00  0.00     0.014 A 
ATOM     11  C   UNL A   1      31.681  22.210  25.783  1.00  0.00     0.014 A 
BRANCH   7  12
ATOM     12  C   UNL A   1      30.287  24.897  23.489  1.00  0.00     0.097 C 
BRANCH  12  13
ATOM     13  C   UNL A   1      30.109  26.131  24.406  1.00  0.00     0.265 C 
BRANCH  13  14
ATOM     14  N   UNL A   1      30.992  27.285  24.318  1.00  0.00    -0.344 N 
ATOM     15  H   UNL A   1      31.279  27.356  23.342  1.00  0.00     0.346 HD
ATOM     16  H   UNL A   1      30.420  28.034  24.709  1.00  0.00     0.346 HD
BRANCH  14  17
ATOM     17  C   UNL A   1      32.215  27.364  25.117  1.00  0.00     0.178 C 
ATOM     18  C   UNL A   1      31.857  26.808  26.508  1.00  0.00     0.075 C 
BRANCH  17  19
ATOM     19  C   UNL A   1      33.445  26.648  24.533  1.00  0.00     0.061 C 
ATOM     20  C   UNL A   1      33.996  25.531  25.411  1.00  0.00     0.010 C 
ENDBRANCH  17  19
ENDBRANCH  14  17
ENDBRANCH  13  14
ENDBRANCH  12  13
ENDBRANCH   7  12
ENDBRANCH   3   6
ENDBRANCH   1   2
BRANCH   1  21
ATOM     21  C   UNL A   1      35.639  22.272  26.109  1.00  0.00     0.042 C 
BRANCH  21  22
ATOM     22  C   UNL A   1      36.984  22.990  26.100  1.00  0.00     0.118 C 
BRANCH  22  23
ATOM     23  N   UNL A   1      38.091  22.053  26.172  1.00  0.00    -0.352 N 
ATOM     24  C   UNL A   1      39.433  22.290  26.328  1.00  0.00     0.251 C 
ATOM     25  H   UNL A   1      37.841  21.104  26.098  1.00  0.00     0.163 HD
ATOM     26  O   UNL A   1      40.224  21.382  26.094  1.00  0.00    -0.269 OA
BRANCH  24  27
ATOM     27  C   UNL A   1      39.926  23.616  26.766  1.00  0.00     0.039 A 
ATOM     28  C   UNL A   1      40.322  23.771  28.098  1.00  0.00     0.014 A 
ATOM     29  C   UNL A   1      39.929  24.720  25.908  1.00  0.00     0.014 A 
ATOM     30  C   UNL A   1      40.732  25.023  28.562  1.00  0.00     0.010 A 
ATOM     31  C   UNL A   1      40.408  25.951  26.352  1.00  0.00     0.010 A 
ATOM     32  C   UNL A   1      40.785  26.122  27.690  1.00  0.00    -0.014 A 
BRANCH  32  33
ATOM     33  C   UNL A   1      41.177  27.465  28.190  1.00  0.00     0.031 A 
ATOM     34  C   UNL A   1      42.626  27.873  28.192  1.00  0.00     0.074 A 
ATOM     35  C   UNL A   1      40.232  28.304  28.655  1.00  0.00     0.049 A 
ATOM     36  N   UNL A   1      43.173  28.993  28.591  1.00  0.00    -0.248 NA
ATOM     37  C   UNL A   1      43.593  26.875  27.710  1.00  0.00     0.031 C 
ATOM     38  C   UNL A   1      38.802  27.999  28.745  1.00  0.00     0.029 A 
ATOM     39  N   UNL A   1      40.328  29.583  29.138  1.00  0.00    -0.354 N 
ATOM     40  C   UNL A   1      44.544  28.830  28.420  1.00  0.00     0.074 A 
ATOM     41  C   UNL A   1      44.746  27.478  27.945  1.00  0.00     0.031 C 
ATOM     42  C   UNL A   1      38.152  29.072  29.223  1.00  0.00     0.029 A 
ATOM     43  C   UNL A   1      39.120  30.130  29.502  1.00  0.00     0.049 A 
ATOM     44  H   UNL A   1      41.183  30.066  29.217  1.00  0.00     0.167 HD
ATOM     45  C   UNL A   1      45.539  29.732  28.616  1.00  0.00     0.034 A 
ATOM     46  C   UNL A   1      38.827  31.346  30.000  1.00  0.00     0.034 A 
ATOM     47  C   UNL A   1      45.314  31.081  29.077  1.00  0.00     0.049 A 
ATOM     48  C   UNL A   1      39.944  32.340  30.188  1.00  0.00     0.074 A 
ATOM     49  C   UNL A   1      46.237  32.092  29.280  1.00  0.00     0.029 A 
ATOM     50  N   UNL A   1      44.071  31.608  29.409  1.00  0.00    -0.354 N 
ATOM     51  N   UNL A   1      41.232  32.187  29.977  1.00  0.00    -0.248 NA
ATOM     52  C   UNL A   1      39.563  33.678  30.654  1.00  0.00     0.031 C 
ATOM     53  C   UNL A   1      45.562  33.211  29.785  1.00  0.00     0.029 A 
ATOM     54  C   UNL A   1      44.207  32.924  29.829  1.00  0.00     0.049 A 
ATOM     55  H   UNL A   1      43.219  31.120  29.354  1.00  0.00     0.167 HD
ATOM     56  C   UNL A   1      41.810  33.423  30.255  1.00  0.00     0.074 A 
ATOM     57  C   UNL A   1      40.727  34.310  30.627  1.00  0.00     0.031 C 
ATOM     58  C   UNL A   1      43.116  33.792  30.206  1.00  0.00     0.034 A 
BRANCH  45  59
ATOM     59  C   UNL A   1      46.954  29.268  28.353  1.00  0.00     0.023 A 
ATOM     60  C   UNL A   1      47.732  28.664  29.357  1.00  0.00     0.031 A 
ATOM     61  C   UNL A   1      47.551  29.470  27.096  1.00  0.00     0.131 A 
ATOM     62  C   UNL A   1      49.082  28.365  29.116  1.00  0.00     0.055 A 
ATOM     63  C   UNL A   1      48.869  29.090  26.835  1.00  0.00     0.041 A 
ATOM     64  F   UNL A   1      46.868  30.060  26.102  1.00  0.00    -0.206 F 
ATOM     65  C   UNL A   1      49.649  28.549  27.854  1.00  0.00     0.022 A 
BRANCH  62  66
ATOM     66  S   UNL A   1      50.125  27.874  30.517  1.00  0.00     0.124 S 
ATOM     67  O   UNL A   1      50.140  29.098  31.315  1.00  0.00    -0.237 OA
ATOM     68  O   UNL A   1      49.387  26.751  31.083  1.00  0.00    -0.237 OA
ATOM     69  O   UNL A   1      51.401  27.531  29.892  1.00  0.00    -0.744 OA
ENDBRANCH  62  66
ENDBRANCH  45  59
BRANCH  46  70
ATOM     70  C   UNL A   1      37.420  31.703  30.339  1.00  0.00     0.023 A 
ATOM     71  C   UNL A   1      36.534  32.168  29.355  1.00  0.00     0.031 A 
ATOM     72  C   UNL A   1      36.951  31.616  31.662  1.00  0.00     0.131 A 
ATOM     73  C   UNL A   1      35.240  32.576  29.714  1.00  0.00     0.055 A 
ATOM     74  C   UNL A   1      35.647  31.977  32.007  1.00  0.00     0.041 A 
ATOM     75  F   UNL A   1      37.755  31.166  32.639  1.00  0.00    -0.206 F 
ATOM     76  C   UNL A   1      34.787  32.473  31.032  1.00  0.00     0.022 A 
BRANCH  73  77
ATOM     77  S   UNL A   1      34.178  33.319  28.445  1.00  0.00     0.124 S 
ATOM     78  O   UNL A   1      33.302  34.165  29.247  1.00  0.00    -0.237 OA
ATOM     79  O   UNL A   1      35.151  34.014  27.607  1.00  0.00    -0.237 OA
ATOM     80  O   UNL A   1      33.535  32.164  27.823  1.00  0.00    -0.744 OA
ENDBRANCH  73  77
ENDBRANCH  46  70
BRANCH  58  81
ATOM     81  C   UNL A   1      43.424  35.236  30.520  1.00  0.00     0.023 A 
ATOM     82  C   UNL A   1      43.539  35.698  31.844  1.00  0.00     0.031 A 
ATOM     83  C   UNL A   1      43.560  36.171  29.479  1.00  0.00     0.131 A 
ATOM     84  C   UNL A   1      43.707  37.068  32.093  1.00  0.00     0.055 A 
ATOM     85  C   UNL A   1      43.793  37.523  29.732  1.00  0.00     0.041 A 
ATOM     86  F   UNL A   1      43.459  35.786  28.197  1.00  0.00    -0.206 F 
ATOM     87  C   UNL A   1      43.849  37.982  31.046  1.00  0.00     0.022 A 
BRANCH  84  88
ATOM     88  S   UNL A   1      43.610  37.657  33.806  1.00  0.00     0.124 S 
ATOM     89  O   UNL A   1      45.012  37.649  34.211  1.00  0.00    -0.237 OA
ATOM     90  O   UNL A   1      43.001  38.973  33.647  1.00  0.00    -0.237 OA
ATOM     91  O   UNL A   1      42.768  36.659  34.465  1.00  0.00    -0.744 OA
ENDBRANCH  84  88
ENDBRANCH  58  81
ENDBRANCH  32  33
ENDBRANCH  24  27
ENDBRANCH  22  23
ENDBRANCH  21  22
ENDBRANCH   1  21
TORSDOF 18
ENDMDL
MODEL 3
REMARK VINA RESULT:     -10.5      2.541      3.811
REMARK SMILES CC[C@H](C)[NH2+]CCc1ccc(C(=O)NCCCNC(=O)c2ccc(-c3c4nc(c(-c5cc(S(=O)(=O)[O-])ccc5F)c5ccc([nH]5)c(-c5cc(S(=O)(=O)[O-])ccc5F)c5nc(c(-c6cc(S(=O)(=O)[O-])ccc6F)c6ccc3[nH]6)C=C5)C=C4)cc2)cc1
REMARK SMILES IDX 15 1 14 2 12 3 13 4 11 6 8 7 9 8 85 9 10 10 84 11 7 12 6 13
REMARK SMILES IDX 5 14 3 17 4 18 2 19 1 20 16 21 17 22 18 23 19 24 20 26 21 27
REMARK SMILES IDX 22 28 83 29 23 30 82 31 24 32 25 33 26 34 76 35 27 36 81 37
REMARK SMILES IDX 75 38 77 39 28 40 80 41 74 42 73 43 29 45 61 46 41 47 60 48
REMARK SMILES IDX 42 49 45 50 59 51 78 52 43 53 44 54 58 56 79 57 46 58 30 59
REMARK SMILES IDX 31 60 39 61 32 62 38 63 40 64 37 65 33 66 34 67 35 68 36 69
REMARK SMILES IDX 62 70 63 71 71 72 64 73 70 74 72 75 69 76 65 77 66 78 67 79
REMARK SMILES IDX 68 80 47 81 48 82 56 83 49 84 55 85 57 86 54 87 50 88 51 89
REMARK SMILES IDX 52 90 53 91
REMARK H PARENT 14 5 5 15 5 16 18 25 77 44 45 55
REMARK Flexibility Score: inf
ROOT
ATOM      1  C   UNL A   1      31.886  30.640  26.898  1.00  0.00     0.118 C 
ENDROOT
BRANCH   1   2
ATOM      2  N   UNL A   1      33.210  30.387  27.437  1.00  0.00    -0.352 N 
ATOM      3  C   UNL A   1      34.167  29.483  27.059  1.00  0.00     0.251 C 
ATOM      4  O   UNL A   1      35.258  29.492  27.625  1.00  0.00    -0.269 OA
ATOM      5  H   UNL A   1      33.461  30.959  28.198  1.00  0.00     0.163 HD
BRANCH   3   6
ATOM      6  C   UNL A   1      33.945  28.554  25.928  1.00  0.00     0.039 A 
ATOM      7  C   UNL A   1      33.529  26.641  23.891  1.00  0.00    -0.042 A 
ATOM      8  C   UNL A   1      33.472  26.278  25.239  1.00  0.00     0.005 A 
ATOM      9  C   UNL A   1      33.817  27.983  23.583  1.00  0.00     0.005 A 
ATOM     10  C   UNL A   1      33.641  27.231  26.247  1.00  0.00     0.014 A 
ATOM     11  C   UNL A   1      34.010  28.934  24.589  1.00  0.00     0.014 A 
BRANCH   7  12
ATOM     12  C   UNL A   1      33.302  25.699  22.729  1.00  0.00     0.097 C 
BRANCH  12  13
ATOM     13  C   UNL A   1      31.915  25.085  22.424  1.00  0.00     0.265 C 
BRANCH  13  14
ATOM     14  N   UNL A   1      30.963  24.778  23.482  1.00  0.00    -0.344 N 
ATOM     15  H   UNL A   1      30.504  23.907  23.215  1.00  0.00     0.346 HD
ATOM     16  H   UNL A   1      31.549  24.779  24.317  1.00  0.00     0.346 HD
BRANCH  14  17
ATOM     17  C   UNL A   1      29.897  25.715  23.836  1.00  0.00     0.178 C 
ATOM     18  C   UNL A   1      29.915  25.828  25.372  1.00  0.00     0.075 C 
BRANCH  17  19
ATOM     19  C   UNL A   1      29.979  27.104  23.177  1.00  0.00     0.061 C 
ATOM     20  C   UNL A   1      30.331  28.234  24.136  1.00  0.00     0.010 C 
ENDBRANCH  17  19
ENDBRANCH  14  17
ENDBRANCH  13  14
ENDBRANCH  12  13
ENDBRANCH   7  12
ENDBRANCH   3   6
ENDBRANCH   1   2
BRANCH   1  21
ATOM     21  C   UNL A   1      31.580  32.136  26.879  1.00  0.00     0.042 C 
BRANCH  21  22
ATOM     22  C   UNL A   1      32.834  33.005  26.900  1.00  0.00     0.118 C 
BRANCH  22  23
ATOM     23  N   UNL A   1      32.666  34.164  27.758  1.00  0.00    -0.352 N 
ATOM     24  C   UNL A   1      33.282  34.475  28.943  1.00  0.00     0.251 C 
ATOM     25  H   UNL A   1      32.011  34.827  27.441  1.00  0.00     0.163 HD
ATOM     26  O   UNL A   1      32.805  35.364  29.641  1.00  0.00    -0.269 OA
BRANCH  24  27
ATOM     27  C   UNL A   1      34.498  33.752  29.381  1.00  0.00     0.039 A 
ATOM     28  C   UNL A   1      34.350  32.663  30.246  1.00  0.00     0.014 A 
ATOM     29  C   UNL A   1      35.779  34.178  29.015  1.00  0.00     0.014 A 
ATOM     30  C   UNL A   1      35.478  31.998  30.729  1.00  0.00     0.010 A 
ATOM     31  C   UNL A   1      36.901  33.468  29.439  1.00  0.00     0.010 A 
ATOM     32  C   UNL A   1      36.763  32.391  30.324  1.00  0.00    -0.014 A 
BRANCH  32  33
ATOM     33  C   UNL A   1      37.968  31.715  30.871  1.00  0.00     0.031 A 
ATOM     34  C   UNL A   1      38.472  32.074  32.244  1.00  0.00     0.074 A 
ATOM     35  C   UNL A   1      38.613  30.797  30.126  1.00  0.00     0.049 A 
ATOM     36  N   UNL A   1      39.506  31.606  32.897  1.00  0.00    -0.248 NA
ATOM     37  C   UNL A   1      37.733  33.121  32.965  1.00  0.00     0.031 C 
ATOM     38  C   UNL A   1      38.243  30.403  28.765  1.00  0.00     0.029 A 
ATOM     39  N   UNL A   1      39.712  30.027  30.406  1.00  0.00    -0.354 N 
ATOM     40  C   UNL A   1      39.548  32.309  34.097  1.00  0.00     0.074 A 
ATOM     41  C   UNL A   1      38.475  33.280  34.049  1.00  0.00     0.031 C 
ATOM     42  C   UNL A   1      39.081  29.444  28.342  1.00  0.00     0.029 A 
ATOM     43  C   UNL A   1      40.065  29.176  29.386  1.00  0.00     0.049 A 
ATOM     44  H   UNL A   1      40.203  30.079  31.259  1.00  0.00     0.167 HD
ATOM     45  C   UNL A   1      40.386  32.143  35.152  1.00  0.00     0.034 A 
ATOM     46  C   UNL A   1      41.067  28.279  29.305  1.00  0.00     0.034 A 
ATOM     47  C   UNL A   1      41.441  31.159  35.185  1.00  0.00     0.049 A 
ATOM     48  C   UNL A   1      41.971  28.094  30.497  1.00  0.00     0.074 A 
ATOM     49  C   UNL A   1      42.329  30.875  36.208  1.00  0.00     0.029 A 
ATOM     50  N   UNL A   1      41.751  30.294  34.142  1.00  0.00    -0.354 N 
ATOM     51  N   UNL A   1      41.968  28.734  31.644  1.00  0.00    -0.248 NA
ATOM     52  C   UNL A   1      42.994  27.048  30.390  1.00  0.00     0.031 C 
ATOM     53  C   UNL A   1      43.208  29.880  35.765  1.00  0.00     0.029 A 
ATOM     54  C   UNL A   1      42.825  29.488  34.492  1.00  0.00     0.049 A 
ATOM     55  H   UNL A   1      41.278  30.257  33.281  1.00  0.00     0.167 HD
ATOM     56  C   UNL A   1      42.971  28.142  32.409  1.00  0.00     0.074 A 
ATOM     57  C   UNL A   1      43.538  27.084  31.597  1.00  0.00     0.031 C 
ATOM     58  C   UNL A   1      43.384  28.444  33.667  1.00  0.00     0.034 A 
BRANCH  45  59
ATOM     59  C   UNL A   1      40.200  33.066  36.334  1.00  0.00     0.023 A 
ATOM     60  C   UNL A   1      39.484  32.668  37.478  1.00  0.00     0.031 A 
ATOM     61  C   UNL A   1      40.708  34.378  36.304  1.00  0.00     0.131 A 
ATOM     62  C   UNL A   1      39.222  33.593  38.501  1.00  0.00     0.055 A 
ATOM     63  C   UNL A   1      40.517  35.267  37.364  1.00  0.00     0.041 A 
ATOM     64  F   UNL A   1      41.382  34.825  35.233  1.00  0.00    -0.206 F 
ATOM     65  C   UNL A   1      39.755  34.882  38.463  1.00  0.00     0.022 A 
BRANCH  62  66
ATOM     66  S   UNL A   1      38.046  33.134  39.804  1.00  0.00     0.124 S 
ATOM     67  O   UNL A   1      36.827  32.901  39.031  1.00  0.00    -0.237 OA
ATOM     68  O   UNL A   1      38.668  31.951  40.389  1.00  0.00    -0.237 OA
ATOM     69  O   UNL A   1      38.012  34.313  40.666  1.00  0.00    -0.744 OA
ENDBRANCH  62  66
ENDBRANCH  45  59
BRANCH  46  70
ATOM     70  C   UNL A   1      41.260  27.474  28.066  1.00  0.00     0.023 A 
ATOM     71  C   UNL A   1      40.992  26.096  28.049  1.00  0.00     0.031 A 
ATOM     72  C   UNL A   1      41.748  28.066  26.888  1.00  0.00     0.131 A 
ATOM     73  C   UNL A   1      41.260  25.345  26.894  1.00  0.00     0.055 A 
ATOM     74  C   UNL A   1      41.967  27.324  25.726  1.00  0.00     0.041 A 
ATOM     75  F   UNL A   1      42.009  29.383  26.848  1.00  0.00    -0.206 F 
ATOM     76  C   UNL A   1      41.736  25.952  25.729  1.00  0.00     0.022 A 
BRANCH  73  77
ATOM     77  S   UNL A   1      41.052  23.544  26.960  1.00  0.00     0.124 S 
ATOM     78  O   UNL A   1      39.603  23.409  26.867  1.00  0.00    -0.237 OA
ATOM     79  O   UNL A   1      41.814  23.110  25.792  1.00  0.00    -0.237 OA
ATOM     80  O   UNL A   1      41.633  23.182  28.250  1.00  0.00    -0.744 OA
ENDBRANCH  73  77
ENDBRANCH  46  70
BRANCH  58  81
ATOM     81  C   UNL A   1      44.474  27.575  34.248  1.00  0.00     0.023 A 
ATOM     82  C   UNL A   1      44.197  26.316  34.809  1.00  0.00     0.031 A 
ATOM     83  C   UNL A   1      45.802  28.035  34.279  1.00  0.00     0.131 A 
ATOM     84  C   UNL A   1      45.218  25.594  35.444  1.00  0.00     0.055 A 
ATOM     85  C   UNL A   1      46.827  27.283  34.854  1.00  0.00     0.041 A 
ATOM     86  F   UNL A   1      46.124  29.231  33.759  1.00  0.00    -0.206 F 
ATOM     87  C   UNL A   1      46.534  26.063  35.458  1.00  0.00     0.022 A 
BRANCH  84  88
ATOM     88  S   UNL A   1      44.778  24.093  36.363  1.00  0.00     0.124 S 
ATOM     89  O   UNL A   1      43.645  23.586  35.596  1.00  0.00    -0.237 OA
ATOM     90  O   UNL A   1      46.006  23.308  36.279  1.00  0.00    -0.237 OA
ATOM     91  O   UNL A   1      44.451  24.592  37.698  1.00  0.00    -0.744 OA
ENDBRANCH  84  88
ENDBRANCH  58  81
ENDBRANCH  32  33
ENDBRANCH  24  27
ENDBRANCH  22  23
ENDBRANCH  21  22
ENDBRANCH   1  21
TORSDOF 18
ENDMDL
