MODEL 1
REMARK VINA RESULT:     -12.8      0.000      0.000
REMARK SMILES Nc1oc(-c2ccccc2)cc1C(=O)NCCCNC(=O)c1ccc(-c2c3nc(c(-c4cc(S(=O)(=O)[O-])ccc4F)c4ccc([nH]4)c(-c4cc(S(=O)(=O)[O-])ccc4F)c4nc(c(-c5cc(S(=O)(=O)[O-])ccc5F)c5ccc2[nH]5)C=C4)C=C3)cc1
REMARK SMILES IDX 18 1 17 2 16 3 15 4 13 5 14 6 12 8 2 9 3 10 4 11 11 12 1 13
REMARK SMILES IDX 5 16 6 17 10 18 7 19 9 20 8 21 19 22 20 23 21 25 22 26 23 27
REMARK SMILES IDX 84 28 24 29 83 30 25 31 26 32 27 33 77 34 28 35 82 36 76 37
REMARK SMILES IDX 78 38 29 39 81 40 75 41 74 42 30 44 62 45 42 46 61 47 43 48
REMARK SMILES IDX 46 49 60 50 79 51 44 52 45 53 59 55 80 56 47 57 31 58 32 59
REMARK SMILES IDX 40 60 33 61 39 62 41 63 38 64 34 65 35 66 36 67 37 68 63 69
REMARK SMILES IDX 64 70 72 71 65 72 71 73 73 74 70 75 66 76 67 77 68 78 69 79
REMARK SMILES IDX 48 80 49 81 57 82 50 83 56 84 58 85 55 86 51 87 52 88 53 89
REMARK SMILES IDX 54 90
REMARK H PARENT 15 7 1 14 1 15 19 24 78 43 46 54
REMARK Flexibility Score: inf
ROOT
ATOM      1  C   UNL A   1      35.369  29.278  27.482  1.00  0.00     0.118 C 
ENDROOT
BRANCH   1   2
ATOM      2  C   UNL A   1      33.917  29.165  27.058  1.00  0.00     0.042 C 
BRANCH   2   3
ATOM      3  C   UNL A   1      33.782  28.721  25.594  1.00  0.00     0.118 C 
BRANCH   3   4
ATOM      4  N   UNL A   1      33.414  27.318  25.461  1.00  0.00    -0.352 N 
ATOM      5  C   UNL A   1      32.488  26.695  24.655  1.00  0.00     0.256 C 
ATOM      6  O   UNL A   1      32.480  25.463  24.644  1.00  0.00    -0.269 OA
ATOM      7  H   UNL A   1      33.914  26.710  26.052  1.00  0.00     0.163 HD
BRANCH   5   8
ATOM      8  C   UNL A   1      31.586  27.474  23.821  1.00  0.00     0.103 A 
ATOM      9  C   UNL A   1      31.413  27.285  22.458  1.00  0.00     0.203 A 
ATOM     10  O   UNL A   1      30.571  28.218  21.928  1.00  0.00    -0.440 OA
ATOM     11  C   UNL A   1      30.176  29.003  22.962  1.00  0.00     0.137 A 
ATOM     12  C   UNL A   1      30.700  28.535  24.140  1.00  0.00     0.067 A 
BRANCH   9  13
ATOM     13  N   UNL A   1      31.923  26.401  21.596  1.00  0.00    -0.369 N 
ATOM     14  H   UNL A   1      31.639  25.460  21.630  1.00  0.00     0.159 HD
ATOM     15  H   UNL A   1      32.586  26.692  20.928  1.00  0.00     0.159 HD
ENDBRANCH   9  13
BRANCH  11  16
ATOM     16  C   UNL A   1      29.362  30.166  22.689  1.00  0.00     0.017 A 
ATOM     17  C   UNL A   1      29.169  31.158  23.650  1.00  0.00     0.012 A 
ATOM     18  C   UNL A   1      28.878  30.361  21.386  1.00  0.00     0.012 A 
ATOM     19  C   UNL A   1      28.521  32.347  23.302  1.00  0.00     0.001 A 
ATOM     20  C   UNL A   1      28.225  31.542  21.042  1.00  0.00     0.001 A 
ATOM     21  C   UNL A   1      28.056  32.539  22.000  1.00  0.00     0.000 A 
ENDBRANCH  11  16
ENDBRANCH   5   8
ENDBRANCH   3   4
ENDBRANCH   2   3
ENDBRANCH   1   2
BRANCH   1  22
ATOM     22  N   UNL A   1      35.525  29.695  28.884  1.00  0.00    -0.352 N 
ATOM     23  C   UNL A   1      36.561  29.404  29.772  1.00  0.00     0.251 C 
ATOM     24  H   UNL A   1      34.800  30.255  29.246  1.00  0.00     0.163 HD
ATOM     25  O   UNL A   1      36.396  29.497  30.973  1.00  0.00    -0.269 OA
BRANCH  23  26
ATOM     26  C   UNL A   1      37.854  28.980  29.198  1.00  0.00     0.039 A 
ATOM     27  C   UNL A   1      38.403  29.506  28.028  1.00  0.00     0.014 A 
ATOM     28  C   UNL A   1      38.566  28.069  29.958  1.00  0.00     0.014 A 
ATOM     29  C   UNL A   1      39.709  29.139  27.696  1.00  0.00     0.010 A 
ATOM     30  C   UNL A   1      39.917  28.033  29.837  1.00  0.00     0.010 A 
ATOM     31  C   UNL A   1      40.463  28.406  28.628  1.00  0.00    -0.014 A 
BRANCH  31  32
ATOM     32  C   UNL A   1      41.852  28.021  28.443  1.00  0.00     0.031 A 
ATOM     33  C   UNL A   1      42.040  26.826  27.600  1.00  0.00     0.074 A 
ATOM     34  C   UNL A   1      42.888  28.808  28.817  1.00  0.00     0.049 A 
ATOM     35  N   UNL A   1      42.292  25.635  28.019  1.00  0.00    -0.248 NA
ATOM     36  C   UNL A   1      41.734  26.899  26.165  1.00  0.00     0.031 C 
ATOM     37  C   UNL A   1      42.881  30.154  29.412  1.00  0.00     0.029 A 
ATOM     38  N   UNL A   1      44.216  28.579  28.651  1.00  0.00    -0.354 N 
ATOM     39  C   UNL A   1      42.436  24.851  26.886  1.00  0.00     0.074 A 
ATOM     40  C   UNL A   1      41.869  25.618  25.808  1.00  0.00     0.031 C 
ATOM     41  C   UNL A   1      44.121  30.694  29.350  1.00  0.00     0.029 A 
ATOM     42  C   UNL A   1      45.043  29.675  28.886  1.00  0.00     0.049 A 
ATOM     43  H   UNL A   1      44.570  27.701  28.382  1.00  0.00     0.167 HD
ATOM     44  C   UNL A   1      43.222  23.738  26.912  1.00  0.00     0.034 A 
ATOM     45  C   UNL A   1      46.395  29.729  28.730  1.00  0.00     0.034 A 
ATOM     46  C   UNL A   1      43.623  23.430  28.270  1.00  0.00     0.049 A 
ATOM     47  C   UNL A   1      46.871  28.324  28.838  1.00  0.00     0.074 A 
ATOM     48  C   UNL A   1      42.943  23.108  29.429  1.00  0.00     0.029 A 
ATOM     49  N   UNL A   1      44.867  23.864  28.679  1.00  0.00    -0.354 N 
ATOM     50  N   UNL A   1      46.763  27.629  29.940  1.00  0.00    -0.248 NA
ATOM     51  C   UNL A   1      46.951  27.531  27.618  1.00  0.00     0.031 C 
ATOM     52  C   UNL A   1      43.605  23.851  30.454  1.00  0.00     0.029 A 
ATOM     53  C   UNL A   1      44.708  24.497  29.890  1.00  0.00     0.049 A 
ATOM     54  H   UNL A   1      45.715  23.744  28.193  1.00  0.00     0.167 HD
ATOM     55  C   UNL A   1      46.308  26.381  29.536  1.00  0.00     0.074 A 
ATOM     56  C   UNL A   1      46.536  26.349  28.089  1.00  0.00     0.031 C 
ATOM     57  C   UNL A   1      45.527  25.607  30.349  1.00  0.00     0.034 A 
BRANCH  44  58
ATOM     58  C   UNL A   1      43.924  23.121  25.732  1.00  0.00     0.023 A 
ATOM     59  C   UNL A   1      43.699  21.750  25.500  1.00  0.00     0.031 A 
ATOM     60  C   UNL A   1      44.987  23.705  25.010  1.00  0.00     0.131 A 
ATOM     61  C   UNL A   1      44.560  21.008  24.678  1.00  0.00     0.055 A 
ATOM     62  C   UNL A   1      45.800  22.975  24.140  1.00  0.00     0.041 A 
ATOM     63  F   UNL A   1      45.360  24.979  25.179  1.00  0.00    -0.206 F 
ATOM     64  C   UNL A   1      45.611  21.611  23.994  1.00  0.00     0.022 A 
BRANCH  61  65
ATOM     65  S   UNL A   1      44.386  19.205  24.664  1.00  0.00     0.124 S 
ATOM     66  O   UNL A   1      42.965  19.042  24.951  1.00  0.00    -0.237 OA
ATOM     67  O   UNL A   1      44.812  18.872  23.309  1.00  0.00    -0.237 OA
ATOM     68  O   UNL A   1      45.290  18.771  25.727  1.00  0.00    -0.744 OA
ENDBRANCH  61  65
ENDBRANCH  44  58
BRANCH  45  69
ATOM     69  C   UNL A   1      47.190  30.839  28.126  1.00  0.00     0.023 A 
ATOM     70  C   UNL A   1      46.638  31.833  27.286  1.00  0.00     0.031 A 
ATOM     71  C   UNL A   1      48.505  31.070  28.593  1.00  0.00     0.131 A 
ATOM     72  C   UNL A   1      47.391  32.989  26.953  1.00  0.00     0.055 A 
ATOM     73  C   UNL A   1      49.238  32.213  28.267  1.00  0.00     0.041 A 
ATOM     74  F   UNL A   1      49.089  30.225  29.457  1.00  0.00    -0.206 F 
ATOM     75  C   UNL A   1      48.681  33.184  27.452  1.00  0.00     0.022 A 
BRANCH  72  76
ATOM     76  S   UNL A   1      46.673  34.311  25.915  1.00  0.00     0.124 S 
ATOM     77  O   UNL A   1      46.403  35.361  26.889  1.00  0.00    -0.237 OA
ATOM     78  O   UNL A   1      47.741  34.573  24.957  1.00  0.00    -0.237 OA
ATOM     79  O   UNL A   1      45.480  33.687  25.341  1.00  0.00    -0.744 OA
ENDBRANCH  72  76
ENDBRANCH  45  69
BRANCH  57  80
ATOM     80  C   UNL A   1      45.351  26.033  31.798  1.00  0.00     0.023 A 
ATOM     81  C   UNL A   1      44.173  26.600  32.345  1.00  0.00     0.031 A 
ATOM     82  C   UNL A   1      46.393  25.722  32.688  1.00  0.00     0.131 A 
ATOM     83  C   UNL A   1      44.083  26.843  33.732  1.00  0.00     0.055 A 
ATOM     84  C   UNL A   1      46.290  25.941  34.061  1.00  0.00     0.041 A 
ATOM     85  F   UNL A   1      47.526  25.160  32.237  1.00  0.00    -0.206 F 
ATOM     86  C   UNL A   1      45.137  26.507  34.588  1.00  0.00     0.022 A 
BRANCH  83  87
ATOM     87  S   UNL A   1      42.596  27.617  34.455  1.00  0.00     0.124 S 
ATOM     88  O   UNL A   1      42.072  28.430  33.364  1.00  0.00    -0.237 OA
ATOM     89  O   UNL A   1      41.788  26.463  34.837  1.00  0.00    -0.237 OA
ATOM     90  O   UNL A   1      43.128  28.385  35.583  1.00  0.00    -0.744 OA
ENDBRANCH  83  87
ENDBRANCH  57  80
ENDBRANCH  31  32
ENDBRANCH  23  26
ENDBRANCH   1  22
TORSDOF 15
ENDMDL
MODEL 2
REMARK VINA RESULT:     -12.8      4.574      9.757
REMARK SMILES Nc1oc(-c2ccccc2)cc1C(=O)NCCCNC(=O)c1ccc(-c2c3nc(c(-c4cc(S(=O)(=O)[O-])ccc4F)c4ccc([nH]4)c(-c4cc(S(=O)(=O)[O-])ccc4F)c4nc(c(-c5cc(S(=O)(=O)[O-])ccc5F)c5ccc2[nH]5)C=C4)C=C3)cc1
REMARK SMILES IDX 18 1 17 2 16 3 15 4 13 5 14 6 12 8 2 9 3 10 4 11 11 12 1 13
REMARK SMILES IDX 5 16 6 17 10 18 7 19 9 20 8 21 19 22 20 23 21 25 22 26 23 27
REMARK SMILES IDX 84 28 24 29 83 30 25 31 26 32 27 33 77 34 28 35 82 36 76 37
REMARK SMILES IDX 78 38 29 39 81 40 75 41 74 42 30 44 62 45 42 46 61 47 43 48
REMARK SMILES IDX 46 49 60 50 79 51 44 52 45 53 59 55 80 56 47 57 31 58 32 59
REMARK SMILES IDX 40 60 33 61 39 62 41 63 38 64 34 65 35 66 36 67 37 68 63 69
REMARK SMILES IDX 64 70 72 71 65 72 71 73 73 74 70 75 66 76 67 77 68 78 69 79
REMARK SMILES IDX 48 80 49 81 57 82 50 83 56 84 58 85 55 86 51 87 52 88 53 89
REMARK SMILES IDX 54 90
REMARK H PARENT 15 7 1 14 1 15 19 24 78 43 46 54
REMARK Flexibility Score: inf
ROOT
ATOM      1  C   UNL A   1      34.802  33.266  31.230  1.00  0.00     0.118 C 
ENDROOT
BRANCH   1   2
ATOM      2  C   UNL A   1      34.132  34.433  31.929  1.00  0.00     0.042 C 
BRANCH   2   3
ATOM      3  C   UNL A   1      35.090  35.149  32.893  1.00  0.00     0.118 C 
BRANCH   3   4
ATOM      4  N   UNL A   1      35.262  34.436  34.150  1.00  0.00    -0.352 N 
ATOM      5  C   UNL A   1      36.334  33.735  34.657  1.00  0.00     0.256 C 
ATOM      6  O   UNL A   1      36.259  33.344  35.822  1.00  0.00    -0.269 OA
ATOM      7  H   UNL A   1      34.475  34.458  34.741  1.00  0.00     0.163 HD
BRANCH   5   8
ATOM      8  C   UNL A   1      37.522  33.509  33.847  1.00  0.00     0.103 A 
ATOM      9  C   UNL A   1      38.059  32.260  33.571  1.00  0.00     0.203 A 
ATOM     10  O   UNL A   1      39.219  32.362  32.863  1.00  0.00    -0.440 OA
ATOM     11  C   UNL A   1      39.422  33.688  32.658  1.00  0.00     0.137 A 
ATOM     12  C   UNL A   1      38.373  34.413  33.164  1.00  0.00     0.067 A 
BRANCH   9  13
ATOM     13  N   UNL A   1      37.672  31.020  33.884  1.00  0.00    -0.369 N 
ATOM     14  H   UNL A   1      37.472  30.787  34.818  1.00  0.00     0.159 HD
ATOM     15  H   UNL A   1      37.587  30.339  33.177  1.00  0.00     0.159 HD
ENDBRANCH   9  13
BRANCH  11  16
ATOM     16  C   UNL A   1      40.650  34.121  32.028  1.00  0.00     0.017 A 
ATOM     17  C   UNL A   1      41.741  34.549  32.784  1.00  0.00     0.012 A 
ATOM     18  C   UNL A   1      40.786  33.972  30.639  1.00  0.00     0.012 A 
ATOM     19  C   UNL A   1      42.966  34.797  32.158  1.00  0.00     0.001 A 
ATOM     20  C   UNL A   1      42.004  34.228  30.014  1.00  0.00     0.001 A 
ATOM     21  C   UNL A   1      43.097  34.631  30.777  1.00  0.00     0.000 A 
ENDBRANCH  11  16
ENDBRANCH   5   8
ENDBRANCH   3   4
ENDBRANCH   2   3
ENDBRANCH   1   2
BRANCH   1  22
ATOM     22  N   UNL A   1      34.660  33.318  29.766  1.00  0.00    -0.352 N 
ATOM     23  C   UNL A   1      35.522  32.825  28.787  1.00  0.00     0.251 C 
ATOM     24  H   UNL A   1      33.847  33.763  29.432  1.00  0.00     0.163 HD
ATOM     25  O   UNL A   1      35.474  33.244  27.647  1.00  0.00    -0.269 OA
BRANCH  23  26
ATOM     26  C   UNL A   1      36.487  31.782  29.189  1.00  0.00     0.039 A 
ATOM     27  C   UNL A   1      36.233  30.412  29.125  1.00  0.00     0.014 A 
ATOM     28  C   UNL A   1      37.739  32.246  29.556  1.00  0.00     0.014 A 
ATOM     29  C   UNL A   1      37.295  29.537  29.372  1.00  0.00     0.010 A 
ATOM     30  C   UNL A   1      38.808  31.424  29.411  1.00  0.00     0.010 A 
ATOM     31  C   UNL A   1      38.590  30.066  29.501  1.00  0.00    -0.014 A 
BRANCH  31  32
ATOM     32  C   UNL A   1      39.790  29.269  29.686  1.00  0.00     0.031 A 
ATOM     33  C   UNL A   1      40.077  28.929  31.093  1.00  0.00     0.074 A 
ATOM     34  C   UNL A   1      40.460  28.698  28.657  1.00  0.00     0.049 A 
ATOM     35  N   UNL A   1      40.949  29.500  31.848  1.00  0.00    -0.248 NA
ATOM     36  C   UNL A   1      39.192  27.999  31.806  1.00  0.00     0.031 C 
ATOM     37  C   UNL A   1      40.151  28.698  27.219  1.00  0.00     0.029 A 
ATOM     38  N   UNL A   1      41.554  27.897  28.712  1.00  0.00    -0.354 N 
ATOM     39  C   UNL A   1      40.908  28.830  33.059  1.00  0.00     0.074 A 
ATOM     40  C   UNL A   1      39.677  28.083  33.049  1.00  0.00     0.031 C 
ATOM     41  C   UNL A   1      40.903  27.767  26.584  1.00  0.00     0.029 A 
ATOM     42  C   UNL A   1      41.869  27.237  27.527  1.00  0.00     0.049 A 
ATOM     43  H   UNL A   1      42.088  27.789  29.532  1.00  0.00     0.167 HD
ATOM     44  C   UNL A   1      42.012  28.778  33.857  1.00  0.00     0.034 A 
ATOM     45  C   UNL A   1      42.871  26.335  27.333  1.00  0.00     0.034 A 
ATOM     46  C   UNL A   1      43.038  29.674  33.365  1.00  0.00     0.049 A 
ATOM     47  C   UNL A   1      43.880  26.618  28.389  1.00  0.00     0.074 A 
ATOM     48  C   UNL A   1      43.114  31.040  33.167  1.00  0.00     0.029 A 
ATOM     49  N   UNL A   1      44.035  29.131  32.582  1.00  0.00    -0.354 N 
ATOM     50  N   UNL A   1      44.546  27.741  28.439  1.00  0.00    -0.248 NA
ATOM     51  C   UNL A   1      43.753  25.921  29.662  1.00  0.00     0.031 C 
ATOM     52  C   UNL A   1      43.776  31.187  31.910  1.00  0.00     0.029 A 
ATOM     53  C   UNL A   1      44.160  29.920  31.463  1.00  0.00     0.049 A 
ATOM     54  H   UNL A   1      44.563  28.325  32.788  1.00  0.00     0.167 HD
ATOM     55  C   UNL A   1      44.523  28.114  29.776  1.00  0.00     0.074 A 
ATOM     56  C   UNL A   1      44.106  26.907  30.495  1.00  0.00     0.031 C 
ATOM     57  C   UNL A   1      44.557  29.428  30.153  1.00  0.00     0.034 A 
BRANCH  44  58
ATOM     58  C   UNL A   1      42.332  27.698  34.857  1.00  0.00     0.023 A 
ATOM     59  C   UNL A   1      43.177  26.658  34.424  1.00  0.00     0.031 A 
ATOM     60  C   UNL A   1      41.657  27.481  36.076  1.00  0.00     0.131 A 
ATOM     61  C   UNL A   1      43.245  25.445  35.127  1.00  0.00     0.055 A 
ATOM     62  C   UNL A   1      41.781  26.297  36.808  1.00  0.00     0.041 A 
ATOM     63  F   UNL A   1      40.771  28.350  36.577  1.00  0.00    -0.206 F 
ATOM     64  C   UNL A   1      42.552  25.257  36.318  1.00  0.00     0.022 A 
BRANCH  61  65
ATOM     65  S   UNL A   1      44.116  24.057  34.354  1.00  0.00     0.124 S 
ATOM     66  O   UNL A   1      43.449  22.912  34.964  1.00  0.00    -0.237 OA
ATOM     67  O   UNL A   1      43.843  24.282  32.939  1.00  0.00    -0.237 OA
ATOM     68  O   UNL A   1      45.504  24.261  34.762  1.00  0.00    -0.744 OA
ENDBRANCH  61  65
ENDBRANCH  44  58
BRANCH  45  69
ATOM     69  C   UNL A   1      42.798  25.057  26.564  1.00  0.00     0.023 A 
ATOM     70  C   UNL A   1      43.820  24.602  25.699  1.00  0.00     0.031 A 
ATOM     71  C   UNL A   1      41.783  24.126  26.883  1.00  0.00     0.131 A 
ATOM     72  C   UNL A   1      43.797  23.273  25.200  1.00  0.00     0.055 A 
ATOM     73  C   UNL A   1      41.770  22.817  26.394  1.00  0.00     0.041 A 
ATOM     74  F   UNL A   1      40.811  24.434  27.756  1.00  0.00    -0.206 F 
ATOM     75  C   UNL A   1      42.783  22.381  25.556  1.00  0.00     0.022 A 
BRANCH  72  76
ATOM     76  S   UNL A   1      45.139  22.650  24.127  1.00  0.00     0.124 S 
ATOM     77  O   UNL A   1      44.404  22.097  22.997  1.00  0.00    -0.237 OA
ATOM     78  O   UNL A   1      45.918  23.856  23.867  1.00  0.00    -0.237 OA
ATOM     79  O   UNL A   1      45.815  21.658  24.964  1.00  0.00    -0.744 OA
ENDBRANCH  72  76
ENDBRANCH  45  69
BRANCH  57  80
ATOM     80  C   UNL A   1      44.854  30.475  29.091  1.00  0.00     0.023 A 
ATOM     81  C   UNL A   1      46.146  30.818  28.622  1.00  0.00     0.031 A 
ATOM     82  C   UNL A   1      43.753  31.055  28.438  1.00  0.00     0.131 A 
ATOM     83  C   UNL A   1      46.292  31.719  27.545  1.00  0.00     0.055 A 
ATOM     84  C   UNL A   1      43.901  31.925  27.359  1.00  0.00     0.041 A 
ATOM     85  F   UNL A   1      42.502  30.752  28.818  1.00  0.00    -0.206 F 
ATOM     86  C   UNL A   1      45.171  32.265  26.911  1.00  0.00     0.022 A 
BRANCH  83  87
ATOM     87  S   UNL A   1      47.946  32.215  26.954  1.00  0.00     0.124 S 
ATOM     88  O   UNL A   1      48.554  30.955  26.544  1.00  0.00    -0.237 OA
ATOM     89  O   UNL A   1      47.634  33.153  25.879  1.00  0.00    -0.237 OA
ATOM     90  O   UNL A   1      48.559  32.829  28.134  1.00  0.00    -0.744 OA
ENDBRANCH  83  87
ENDBRANCH  57  80
ENDBRANCH  31  32
ENDBRANCH  23  26
ENDBRANCH   1  22
TORSDOF 15
ENDMDL
MODEL 3
REMARK VINA RESULT:     -12.8      4.219      9.648
REMARK SMILES Nc1oc(-c2ccccc2)cc1C(=O)NCCCNC(=O)c1ccc(-c2c3nc(c(-c4cc(S(=O)(=O)[O-])ccc4F)c4ccc([nH]4)c(-c4cc(S(=O)(=O)[O-])ccc4F)c4nc(c(-c5cc(S(=O)(=O)[O-])ccc5F)c5ccc2[nH]5)C=C4)C=C3)cc1
REMARK SMILES IDX 18 1 17 2 16 3 15 4 13 5 14 6 12 8 2 9 3 10 4 11 11 12 1 13
REMARK SMILES IDX 5 16 6 17 10 18 7 19 9 20 8 21 19 22 20 23 21 25 22 26 23 27
REMARK SMILES IDX 84 28 24 29 83 30 25 31 26 32 27 33 77 34 28 35 82 36 76 37
REMARK SMILES IDX 78 38 29 39 81 40 75 41 74 42 30 44 62 45 42 46 61 47 43 48
REMARK SMILES IDX 46 49 60 50 79 51 44 52 45 53 59 55 80 56 47 57 31 58 32 59
REMARK SMILES IDX 40 60 33 61 39 62 41 63 38 64 34 65 35 66 36 67 37 68 63 69
REMARK SMILES IDX 64 70 72 71 65 72 71 73 73 74 70 75 66 76 67 77 68 78 69 79
REMARK SMILES IDX 48 80 49 81 57 82 50 83 56 84 58 85 55 86 51 87 52 88 53 89
REMARK SMILES IDX 54 90
REMARK H PARENT 15 7 1 14 1 15 19 24 78 43 46 54
REMARK Flexibility Score: inf
ROOT
ATOM      1  C   UNL A   1      35.218  32.770  30.801  1.00  0.00     0.118 C 
ENDROOT
BRANCH   1   2
ATOM      2  C   UNL A   1      35.156  31.852  32.006  1.00  0.00     0.042 C 
BRANCH   2   3
ATOM      3  C   UNL A   1      36.339  30.874  32.042  1.00  0.00     0.118 C 
BRANCH   3   4
ATOM      4  N   UNL A   1      37.021  30.861  33.328  1.00  0.00    -0.352 N 
ATOM      5  C   UNL A   1      38.008  31.673  33.842  1.00  0.00     0.256 C 
ATOM      6  O   UNL A   1      38.309  31.524  35.027  1.00  0.00    -0.269 OA
ATOM      7  H   UNL A   1      36.726  30.146  33.937  1.00  0.00     0.163 HD
BRANCH   5   8
ATOM      8  C   UNL A   1      38.634  32.693  33.014  1.00  0.00     0.103 A 
ATOM      9  C   UNL A   1      38.127  33.969  32.819  1.00  0.00     0.203 A 
ATOM     10  O   UNL A   1      38.879  34.674  31.928  1.00  0.00    -0.440 OA
ATOM     11  C   UNL A   1      39.897  33.855  31.560  1.00  0.00     0.137 A 
ATOM     12  C   UNL A   1      39.834  32.677  32.259  1.00  0.00     0.067 A 
BRANCH   9  13
ATOM     13  N   UNL A   1      37.058  34.602  33.312  1.00  0.00    -0.369 N 
ATOM     14  H   UNL A   1      36.154  34.265  33.121  1.00  0.00     0.159 HD
ATOM     15  H   UNL A   1      37.176  35.408  33.865  1.00  0.00     0.159 HD
ENDBRANCH   9  13
BRANCH  11  16
ATOM     16  C   UNL A   1      40.806  34.288  30.522  1.00  0.00     0.017 A 
ATOM     17  C   UNL A   1      42.121  33.825  30.469  1.00  0.00     0.012 A 
ATOM     18  C   UNL A   1      40.307  35.076  29.473  1.00  0.00     0.012 A 
ATOM     19  C   UNL A   1      42.920  34.126  29.363  1.00  0.00     0.001 A 
ATOM     20  C   UNL A   1      41.107  35.384  28.375  1.00  0.00     0.001 A 
ATOM     21  C   UNL A   1      42.411  34.898  28.317  1.00  0.00     0.000 A 
ENDBRANCH  11  16
ENDBRANCH   5   8
ENDBRANCH   3   4
ENDBRANCH   2   3
ENDBRANCH   1   2
BRANCH   1  22
ATOM     22  N   UNL A   1      34.527  32.219  29.625  1.00  0.00    -0.352 N 
ATOM     23  C   UNL A   1      35.076  31.652  28.475  1.00  0.00     0.251 C 
ATOM     24  H   UNL A   1      33.543  32.257  29.652  1.00  0.00     0.163 HD
ATOM     25  O   UNL A   1      34.429  31.574  27.449  1.00  0.00    -0.269 OA
BRANCH  23  26
ATOM     26  C   UNL A   1      36.465  31.156  28.555  1.00  0.00     0.039 A 
ATOM     27  C   UNL A   1      37.569  31.958  28.847  1.00  0.00     0.014 A 
ATOM     28  C   UNL A   1      36.611  29.787  28.414  1.00  0.00     0.014 A 
ATOM     29  C   UNL A   1      38.797  31.327  29.060  1.00  0.00     0.010 A 
ATOM     30  C   UNL A   1      37.681  29.182  28.988  1.00  0.00     0.010 A 
ATOM     31  C   UNL A   1      38.832  29.925  29.141  1.00  0.00    -0.014 A 
BRANCH  31  32
ATOM     32  C   UNL A   1      40.024  29.146  29.430  1.00  0.00     0.031 A 
ATOM     33  C   UNL A   1      40.249  28.898  30.867  1.00  0.00     0.074 A 
ATOM     34  C   UNL A   1      40.739  28.513  28.471  1.00  0.00     0.049 A 
ATOM     35  N   UNL A   1      41.086  29.521  31.621  1.00  0.00    -0.248 NA
ATOM     36  C   UNL A   1      39.335  28.012  31.599  1.00  0.00     0.031 C 
ATOM     37  C   UNL A   1      40.494  28.419  27.023  1.00  0.00     0.029 A 
ATOM     38  N   UNL A   1      41.832  27.722  28.625  1.00  0.00    -0.354 N 
ATOM     39  C   UNL A   1      40.993  28.929  32.870  1.00  0.00     0.074 A 
ATOM     40  C   UNL A   1      39.765  28.178  32.854  1.00  0.00     0.031 C 
ATOM     41  C   UNL A   1      41.275  27.453  26.483  1.00  0.00     0.029 A 
ATOM     42  C   UNL A   1      42.199  26.988  27.499  1.00  0.00     0.049 A 
ATOM     43  H   UNL A   1      42.328  27.669  29.473  1.00  0.00     0.167 HD
ATOM     44  C   UNL A   1      42.060  28.934  33.717  1.00  0.00     0.034 A 
ATOM     45  C   UNL A   1      43.210  26.081  27.408  1.00  0.00     0.034 A 
ATOM     46  C   UNL A   1      43.105  29.802  33.215  1.00  0.00     0.049 A 
ATOM     47  C   UNL A   1      44.172  26.436  28.487  1.00  0.00     0.074 A 
ATOM     48  C   UNL A   1      43.188  31.152  32.933  1.00  0.00     0.029 A 
ATOM     49  N   UNL A   1      44.137  29.213  32.513  1.00  0.00    -0.354 N 
ATOM     50  N   UNL A   1      44.833  27.562  28.494  1.00  0.00    -0.248 NA
ATOM     51  C   UNL A   1      43.990  25.821  29.796  1.00  0.00     0.031 C 
ATOM     52  C   UNL A   1      43.904  31.221  31.699  1.00  0.00     0.029 A 
ATOM     53  C   UNL A   1      44.310  29.929  31.351  1.00  0.00     0.049 A 
ATOM     54  H   UNL A   1      44.657  28.425  32.792  1.00  0.00     0.167 HD
ATOM     55  C   UNL A   1      44.750  28.020  29.802  1.00  0.00     0.074 A 
ATOM     56  C   UNL A   1      44.304  26.861  30.578  1.00  0.00     0.031 C 
ATOM     57  C   UNL A   1      44.765  29.356  30.095  1.00  0.00     0.034 A 
BRANCH  44  58
ATOM     58  C   UNL A   1      42.338  27.922  34.798  1.00  0.00     0.023 A 
ATOM     59  C   UNL A   1      43.081  26.784  34.430  1.00  0.00     0.031 A 
ATOM     60  C   UNL A   1      41.700  27.866  36.055  1.00  0.00     0.131 A 
ATOM     61  C   UNL A   1      43.084  25.635  35.235  1.00  0.00     0.055 A 
ATOM     62  C   UNL A   1      41.762  26.743  36.884  1.00  0.00     0.041 A 
ATOM     63  F   UNL A   1      40.905  28.843  36.506  1.00  0.00    -0.206 F 
ATOM     64  C   UNL A   1      42.430  25.606  36.463  1.00  0.00     0.022 A 
BRANCH  61  65
ATOM     65  S   UNL A   1      43.812  24.120  34.560  1.00  0.00     0.124 S 
ATOM     66  O   UNL A   1      42.712  23.172  34.703  1.00  0.00    -0.237 OA
ATOM     67  O   UNL A   1      44.140  24.525  33.197  1.00  0.00    -0.237 OA
ATOM     68  O   UNL A   1      44.959  23.878  35.432  1.00  0.00    -0.744 OA
ENDBRANCH  61  65
ENDBRANCH  44  58
BRANCH  45  69
ATOM     69  C   UNL A   1      43.174  24.756  26.721  1.00  0.00     0.023 A 
ATOM     70  C   UNL A   1      42.265  23.725  27.051  1.00  0.00     0.031 A 
ATOM     71  C   UNL A   1      43.906  24.588  25.523  1.00  0.00     0.131 A 
ATOM     72  C   UNL A   1      42.119  22.597  26.201  1.00  0.00     0.055 A 
ATOM     73  C   UNL A   1      43.753  23.479  24.686  1.00  0.00     0.041 A 
ATOM     74  F   UNL A   1      44.738  25.545  25.081  1.00  0.00    -0.206 F 
ATOM     75  C   UNL A   1      42.851  22.482  25.017  1.00  0.00     0.022 A 
BRANCH  72  76
ATOM     76  S   UNL A   1      40.908  21.284  26.582  1.00  0.00     0.124 S 
ATOM     77  O   UNL A   1      41.531  20.104  25.994  1.00  0.00    -0.237 OA
ATOM     78  O   UNL A   1      40.847  21.327  28.039  1.00  0.00    -0.237 OA
ATOM     79  O   UNL A   1      39.689  21.734  25.909  1.00  0.00    -0.744 OA
ENDBRANCH  72  76
ENDBRANCH  45  69
BRANCH  57  80
ATOM     80  C   UNL A   1      45.107  30.334  28.982  1.00  0.00     0.023 A 
ATOM     81  C   UNL A   1      46.418  30.714  28.604  1.00  0.00     0.031 A 
ATOM     82  C   UNL A   1      44.044  30.798  28.188  1.00  0.00     0.131 A 
ATOM     83  C   UNL A   1      46.619  31.537  27.474  1.00  0.00     0.055 A 
ATOM     84  C   UNL A   1      44.248  31.590  27.059  1.00  0.00     0.041 A 
ATOM     85  F   UNL A   1      42.780  30.453  28.478  1.00  0.00    -0.206 F 
ATOM     86  C   UNL A   1      45.536  31.967  26.700  1.00  0.00     0.022 A 
BRANCH  83  87
ATOM     87  S   UNL A   1      48.294  32.081  26.994  1.00  0.00     0.124 S 
ATOM     88  O   UNL A   1      48.045  33.084  25.966  1.00  0.00    -0.237 OA
ATOM     89  O   UNL A   1      48.841  32.579  28.253  1.00  0.00    -0.237 OA
ATOM     90  O   UNL A   1      48.923  30.852  26.505  1.00  0.00    -0.744 OA
ENDBRANCH  83  87
ENDBRANCH  57  80
ENDBRANCH  31  32
ENDBRANCH  23  26
ENDBRANCH   1  22
TORSDOF 15
ENDMDL
