MODEL 1
REMARK VINA RESULT:     -11.7      0.000      0.000
REMARK SMILES CC[C@H](C)N(C)C(=O)N1[C@@H](C(=O)NCCCNC(=O)c2ccc(-c3c4nc(c(-c5cc(S(=O)(=O)[O-])ccc5F)c5ccc([nH]5)c(-c5cc(S(=O)(=O)[O-])ccc5F)c5nc(c(-c6cc(S(=O)(=O)[O-])ccc6F)c6ccc3[nH]6)C=C5)C=C4)cc2)CC[C@H]2CCCC[C@@H]21
REMARK SMILES IDX 14 1 13 2 11 3 12 4 10 6 9 7 90 8 83 9 85 10 89 11 84 12
REMARK SMILES IDX 86 13 88 14 87 15 7 16 8 17 5 18 6 19 3 20 4 21 2 22 1 23
REMARK SMILES IDX 15 24 16 25 17 26 18 27 19 29 20 30 21 31 82 32 22 33 81 34
REMARK SMILES IDX 23 35 24 36 25 37 75 38 26 39 80 40 74 41 76 42 27 43 79 44
REMARK SMILES IDX 73 45 72 46 28 48 60 49 40 50 59 51 41 52 44 53 58 54 77 55
REMARK SMILES IDX 42 56 43 57 57 59 78 60 45 61 29 62 30 63 38 64 31 65 37 66
REMARK SMILES IDX 39 67 36 68 32 69 33 70 34 71 35 72 61 73 62 74 70 75 63 76
REMARK SMILES IDX 69 77 71 78 68 79 64 80 65 81 66 82 67 83 46 84 47 85 55 86
REMARK SMILES IDX 48 87 54 88 56 89 53 90 49 91 50 92 51 93 52 94
REMARK H PARENT 13 5 17 28 76 47 44 58
REMARK Flexibility Score: inf
ROOT
ATOM      1  C   UNL A   1      35.498  23.970  24.972  1.00  0.00     0.117 C 
ENDROOT
BRANCH   1   2
ATOM      2  N   UNL A   1      34.862  23.873  23.668  1.00  0.00    -0.354 N 
ATOM      3  C   UNL A   1      33.931  24.678  23.065  1.00  0.00     0.242 C 
ATOM      4  O   UNL A   1      33.516  24.349  21.950  1.00  0.00    -0.273 OA
ATOM      5  H   UNL A   1      35.149  23.101  23.128  1.00  0.00     0.163 HD
BRANCH   3   6
ATOM      6  C   UNL A   1      33.420  25.950  23.793  1.00  0.00     0.176 C 
ATOM      7  N   UNL A   1      32.103  25.930  24.462  1.00  0.00    -0.309 N 
ATOM      8  C   UNL A   1      31.789  27.140  25.249  1.00  0.00     0.091 C 
ATOM      9  C   UNL A   1      33.395  27.114  22.765  1.00  0.00     0.036 C 
ATOM     10  C   UNL A   1      32.676  28.342  24.841  1.00  0.00     0.012 C 
ATOM     11  C   UNL A   1      31.926  26.934  26.764  1.00  0.00     0.025 C 
ATOM     12  C   UNL A   1      32.774  28.408  23.320  1.00  0.00     0.008 C 
ATOM     13  C   UNL A   1      32.143  29.617  25.492  1.00  0.00     0.006 C 
ATOM     14  C   UNL A   1      31.490  28.200  27.514  1.00  0.00     0.002 C 
ATOM     15  C   UNL A   1      32.184  29.472  27.016  1.00  0.00     0.000 C 
BRANCH   7  16
ATOM     16  C   UNL A   1      31.369  24.757  24.481  1.00  0.00     0.320 C 
ATOM     17  O   UNL A   1      30.725  24.411  23.492  1.00  0.00    -0.248 OA
BRANCH  16  18
ATOM     18  N   UNL A   1      31.349  23.982  25.630  1.00  0.00    -0.325 N 
ATOM     19  C   UNL A   1      30.225  23.897  26.551  1.00  0.00     0.149 C 
BRANCH  18  20
ATOM     20  C   UNL A   1      32.358  22.900  25.768  1.00  0.00     0.083 C 
ATOM     21  C   UNL A   1      32.823  22.775  27.226  1.00  0.00     0.031 C 
BRANCH  20  22
ATOM     22  C   UNL A   1      31.931  21.582  25.072  1.00  0.00     0.021 C 
ATOM     23  C   UNL A   1      33.006  20.864  24.267  1.00  0.00     0.006 C 
ENDBRANCH  20  22
ENDBRANCH  18  20
ENDBRANCH  16  18
ENDBRANCH   7  16
ENDBRANCH   3   6
ENDBRANCH   1   2
BRANCH   1  24
ATOM     24  C   UNL A   1      36.117  22.666  25.474  1.00  0.00     0.042 C 
BRANCH  24  25
ATOM     25  C   UNL A   1      37.391  22.242  24.748  1.00  0.00     0.118 C 
BRANCH  25  26
ATOM     26  N   UNL A   1      38.160  21.266  25.513  1.00  0.00    -0.352 N 
ATOM     27  C   UNL A   1      39.264  21.431  26.309  1.00  0.00     0.251 C 
ATOM     28  H   UNL A   1      37.831  20.340  25.448  1.00  0.00     0.163 HD
ATOM     29  O   UNL A   1      39.885  20.429  26.676  1.00  0.00    -0.269 OA
BRANCH  27  30
ATOM     30  C   UNL A   1      39.730  22.776  26.715  1.00  0.00     0.039 A 
ATOM     31  C   UNL A   1      40.669  22.882  27.746  1.00  0.00     0.014 A 
ATOM     32  C   UNL A   1      39.216  23.935  26.128  1.00  0.00     0.014 A 
ATOM     33  C   UNL A   1      41.138  24.140  28.141  1.00  0.00     0.010 A 
ATOM     34  C   UNL A   1      39.732  25.184  26.475  1.00  0.00     0.010 A 
ATOM     35  C   UNL A   1      40.700  25.302  27.485  1.00  0.00    -0.014 A 
BRANCH  35  36
ATOM     36  C   UNL A   1      41.244  26.641  27.840  1.00  0.00     0.031 A 
ATOM     37  C   UNL A   1      42.674  26.990  27.522  1.00  0.00     0.074 A 
ATOM     38  C   UNL A   1      40.469  27.524  28.501  1.00  0.00     0.049 A 
ATOM     39  N   UNL A   1      43.351  28.069  27.823  1.00  0.00    -0.248 NA
ATOM     40  C   UNL A   1      43.451  25.979  26.791  1.00  0.00     0.031 C 
ATOM     41  C   UNL A   1      39.077  27.296  28.893  1.00  0.00     0.029 A 
ATOM     42  N   UNL A   1      40.740  28.786  28.968  1.00  0.00    -0.354 N 
ATOM     43  C   UNL A   1      44.636  27.864  27.329  1.00  0.00     0.074 A 
ATOM     44  C   UNL A   1      44.654  26.531  26.762  1.00  0.00     0.031 C 
ATOM     45  C   UNL A   1      38.612  28.386  29.522  1.00  0.00     0.029 A 
ATOM     46  C   UNL A   1      39.682  29.373  29.624  1.00  0.00     0.049 A 
ATOM     47  H   UNL A   1      41.610  29.230  28.847  1.00  0.00     0.167 HD
ATOM     48  C   UNL A   1      45.694  28.713  27.332  1.00  0.00     0.034 A 
ATOM     49  C   UNL A   1      39.588  30.563  30.252  1.00  0.00     0.034 A 
ATOM     50  C   UNL A   1      45.660  30.042  27.897  1.00  0.00     0.049 A 
ATOM     51  C   UNL A   1      40.789  31.473  30.277  1.00  0.00     0.074 A 
ATOM     52  C   UNL A   1      46.658  31.001  27.908  1.00  0.00     0.029 A 
ATOM     53  N   UNL A   1      44.573  30.597  28.563  1.00  0.00    -0.354 N 
ATOM     54  N   UNL A   1      41.984  31.281  29.768  1.00  0.00    -0.248 NA
ATOM     55  C   UNL A   1      40.625  32.766  30.955  1.00  0.00     0.031 C 
ATOM     56  C   UNL A   1      46.202  32.105  28.638  1.00  0.00     0.029 A 
ATOM     57  C   UNL A   1      44.890  31.870  29.015  1.00  0.00     0.049 A 
ATOM     58  H   UNL A   1      43.705  30.153  28.693  1.00  0.00     0.167 HD
ATOM     59  C   UNL A   1      42.703  32.442  30.038  1.00  0.00     0.074 A 
ATOM     60  C   UNL A   1      41.804  33.333  30.741  1.00  0.00     0.031 C 
ATOM     61  C   UNL A   1      43.989  32.746  29.730  1.00  0.00     0.034 A 
BRANCH  48  62
ATOM     62  C   UNL A   1      46.987  28.213  26.727  1.00  0.00     0.023 A 
ATOM     63  C   UNL A   1      47.213  28.242  25.339  1.00  0.00     0.031 A 
ATOM     64  C   UNL A   1      47.996  27.675  27.545  1.00  0.00     0.131 A 
ATOM     65  C   UNL A   1      48.379  27.672  24.807  1.00  0.00     0.055 A 
ATOM     66  C   UNL A   1      49.192  27.186  27.015  1.00  0.00     0.041 A 
ATOM     67  F   UNL A   1      47.833  27.604  28.876  1.00  0.00    -0.206 F 
ATOM     68  C   UNL A   1      49.382  27.167  25.636  1.00  0.00     0.022 A 
BRANCH  65  69
ATOM     69  S   UNL A   1      48.497  27.465  23.008  1.00  0.00     0.124 S 
ATOM     70  O   UNL A   1      47.308  28.179  22.551  1.00  0.00    -0.237 OA
ATOM     71  O   UNL A   1      49.777  28.093  22.701  1.00  0.00    -0.237 OA
ATOM     72  O   UNL A   1      48.453  26.015  22.826  1.00  0.00    -0.744 OA
ENDBRANCH  65  69
ENDBRANCH  48  62
BRANCH  49  73
ATOM     73  C   UNL A   1      38.319  30.962  30.927  1.00  0.00     0.023 A 
ATOM     74  C   UNL A   1      37.304  31.628  30.221  1.00  0.00     0.031 A 
ATOM     75  C   UNL A   1      38.120  30.721  32.297  1.00  0.00     0.131 A 
ATOM     76  C   UNL A   1      36.158  32.072  30.897  1.00  0.00     0.055 A 
ATOM     77  C   UNL A   1      36.953  31.117  32.954  1.00  0.00     0.041 A 
ATOM     78  F   UNL A   1      39.056  30.085  33.019  1.00  0.00    -0.206 F 
ATOM     79  C   UNL A   1      35.969  31.809  32.256  1.00  0.00     0.022 A 
BRANCH  76  80
ATOM     80  S   UNL A   1      34.949  33.077  29.991  1.00  0.00     0.124 S 
ATOM     81  O   UNL A   1      35.805  34.081  29.368  1.00  0.00    -0.237 OA
ATOM     82  O   UNL A   1      34.352  32.095  29.092  1.00  0.00    -0.237 OA
ATOM     83  O   UNL A   1      34.065  33.576  31.043  1.00  0.00    -0.744 OA
ENDBRANCH  76  80
ENDBRANCH  49  73
BRANCH  61  84
ATOM     84  C   UNL A   1      44.481  34.121  30.116  1.00  0.00     0.023 A 
ATOM     85  C   UNL A   1      44.342  35.226  29.257  1.00  0.00     0.031 A 
ATOM     86  C   UNL A   1      45.115  34.322  31.355  1.00  0.00     0.131 A 
ATOM     87  C   UNL A   1      44.880  36.469  29.626  1.00  0.00     0.055 A 
ATOM     88  C   UNL A   1      45.593  35.575  31.742  1.00  0.00     0.041 A 
ATOM     89  F   UNL A   1      45.279  33.303  32.213  1.00  0.00    -0.206 F 
ATOM     90  C   UNL A   1      45.489  36.654  30.869  1.00  0.00     0.022 A 
BRANCH  87  91
ATOM     91  S   UNL A   1      44.855  37.822  28.417  1.00  0.00     0.124 S 
ATOM     92  O   UNL A   1      43.434  38.143  28.350  1.00  0.00    -0.237 OA
ATOM     93  O   UNL A   1      45.706  38.824  29.050  1.00  0.00    -0.237 OA
ATOM     94  O   UNL A   1      45.411  37.213  27.210  1.00  0.00    -0.744 OA
ENDBRANCH  87  91
ENDBRANCH  61  84
ENDBRANCH  35  36
ENDBRANCH  27  30
ENDBRANCH  25  26
ENDBRANCH  24  25
ENDBRANCH   1  24
TORSDOF 17
ENDMDL
MODEL 2
REMARK VINA RESULT:     -11.3      4.735      7.487
REMARK SMILES CC[C@H](C)N(C)C(=O)N1[C@@H](C(=O)NCCCNC(=O)c2ccc(-c3c4nc(c(-c5cc(S(=O)(=O)[O-])ccc5F)c5ccc([nH]5)c(-c5cc(S(=O)(=O)[O-])ccc5F)c5nc(c(-c6cc(S(=O)(=O)[O-])ccc6F)c6ccc3[nH]6)C=C5)C=C4)cc2)CC[C@H]2CCCC[C@@H]21
REMARK SMILES IDX 14 1 13 2 11 3 12 4 10 6 9 7 90 8 83 9 85 10 89 11 84 12
REMARK SMILES IDX 86 13 88 14 87 15 7 16 8 17 5 18 6 19 3 20 4 21 2 22 1 23
REMARK SMILES IDX 15 24 16 25 17 26 18 27 19 29 20 30 21 31 82 32 22 33 81 34
REMARK SMILES IDX 23 35 24 36 25 37 75 38 26 39 80 40 74 41 76 42 27 43 79 44
REMARK SMILES IDX 73 45 72 46 28 48 60 49 40 50 59 51 41 52 44 53 58 54 77 55
REMARK SMILES IDX 42 56 43 57 57 59 78 60 45 61 29 62 30 63 38 64 31 65 37 66
REMARK SMILES IDX 39 67 36 68 32 69 33 70 34 71 35 72 61 73 62 74 70 75 63 76
REMARK SMILES IDX 69 77 71 78 68 79 64 80 65 81 66 82 67 83 46 84 47 85 55 86
REMARK SMILES IDX 48 87 54 88 56 89 53 90 49 91 50 92 51 93 52 94
REMARK H PARENT 13 5 17 28 76 47 44 58
REMARK Flexibility Score: inf
ROOT
ATOM      1  C   UNL A   1      32.467  26.786  26.523  1.00  0.00     0.117 C 
ENDROOT
BRANCH   1   2
ATOM      2  N   UNL A   1      31.407  25.796  26.636  1.00  0.00    -0.354 N 
ATOM      3  C   UNL A   1      31.438  24.432  26.501  1.00  0.00     0.242 C 
ATOM      4  O   UNL A   1      30.375  23.815  26.608  1.00  0.00    -0.273 OA
ATOM      5  H   UNL A   1      30.519  26.167  26.844  1.00  0.00     0.163 HD
BRANCH   3   6
ATOM      6  C   UNL A   1      32.784  23.714  26.208  1.00  0.00     0.176 C 
ATOM      7  N   UNL A   1      33.097  23.285  24.829  1.00  0.00    -0.309 N 
ATOM      8  C   UNL A   1      34.462  22.752  24.641  1.00  0.00     0.091 C 
ATOM      9  C   UNL A   1      32.862  22.453  27.111  1.00  0.00     0.036 C 
ATOM     10  C   UNL A   1      35.109  22.330  25.983  1.00  0.00     0.012 C 
ATOM     11  C   UNL A   1      35.408  23.738  23.941  1.00  0.00     0.025 C 
ATOM     12  C   UNL A   1      34.087  21.568  26.822  1.00  0.00     0.008 C 
ATOM     13  C   UNL A   1      36.398  21.557  25.710  1.00  0.00     0.006 C 
ATOM     14  C   UNL A   1      36.773  23.080  23.694  1.00  0.00     0.002 C 
ATOM     15  C   UNL A   1      37.382  22.452  24.951  1.00  0.00     0.000 C 
BRANCH   7  16
ATOM     16  C   UNL A   1      32.211  23.581  23.808  1.00  0.00     0.320 C 
ATOM     17  O   UNL A   1      31.159  22.955  23.696  1.00  0.00    -0.248 OA
BRANCH  16  18
ATOM     18  N   UNL A   1      32.528  24.578  22.898  1.00  0.00    -0.325 N 
ATOM     19  C   UNL A   1      32.903  24.345  21.511  1.00  0.00     0.149 C 
BRANCH  18  20
ATOM     20  C   UNL A   1      32.125  25.973  23.213  1.00  0.00     0.083 C 
ATOM     21  C   UNL A   1      33.129  26.974  22.624  1.00  0.00     0.031 C 
BRANCH  20  22
ATOM     22  C   UNL A   1      30.629  26.253  22.918  1.00  0.00     0.021 C 
ATOM     23  C   UNL A   1      29.992  27.404  23.686  1.00  0.00     0.006 C 
ENDBRANCH  20  22
ENDBRANCH  18  20
ENDBRANCH  16  18
ENDBRANCH   7  16
ENDBRANCH   3   6
ENDBRANCH   1   2
BRANCH   1  24
ATOM     24  C   UNL A   1      31.979  28.231  26.450  1.00  0.00     0.042 C 
BRANCH  24  25
ATOM     25  C   UNL A   1      32.908  29.183  25.703  1.00  0.00     0.118 C 
BRANCH  25  26
ATOM     26  N   UNL A   1      32.556  30.582  25.926  1.00  0.00    -0.352 N 
ATOM     27  C   UNL A   1      33.037  31.486  26.837  1.00  0.00     0.251 C 
ATOM     28  H   UNL A   1      31.861  30.933  25.323  1.00  0.00     0.163 HD
ATOM     29  O   UNL A   1      32.430  32.549  26.996  1.00  0.00    -0.269 OA
BRANCH  27  30
ATOM     30  C   UNL A   1      34.249  31.202  27.641  1.00  0.00     0.039 A 
ATOM     31  C   UNL A   1      34.387  29.941  28.229  1.00  0.00     0.014 A 
ATOM     32  C   UNL A   1      35.223  32.179  27.863  1.00  0.00     0.014 A 
ATOM     33  C   UNL A   1      35.527  29.640  28.982  1.00  0.00     0.010 A 
ATOM     34  C   UNL A   1      36.390  31.857  28.557  1.00  0.00     0.010 A 
ATOM     35  C   UNL A   1      36.557  30.584  29.125  1.00  0.00    -0.014 A 
BRANCH  35  36
ATOM     36  C   UNL A   1      37.811  30.256  29.857  1.00  0.00     0.031 A 
ATOM     37  C   UNL A   1      38.822  29.319  29.252  1.00  0.00     0.074 A 
ATOM     38  C   UNL A   1      38.012  30.756  31.093  1.00  0.00     0.049 A 
ATOM     39  N   UNL A   1      39.930  28.849  29.768  1.00  0.00    -0.248 NA
ATOM     40  C   UNL A   1      38.534  28.825  27.898  1.00  0.00     0.031 C 
ATOM     41  C   UNL A   1      37.096  31.651  31.801  1.00  0.00     0.029 A 
ATOM     42  N   UNL A   1      39.047  30.576  31.977  1.00  0.00    -0.354 N 
ATOM     43  C   UNL A   1      40.466  27.997  28.808  1.00  0.00     0.074 A 
ATOM     44  C   UNL A   1      39.529  27.972  27.705  1.00  0.00     0.031 C 
ATOM     45  C   UNL A   1      37.617  31.957  32.999  1.00  0.00     0.029 A 
ATOM     46  C   UNL A   1      38.880  31.245  33.169  1.00  0.00     0.049 A 
ATOM     47  H   UNL A   1      39.836  30.022  31.778  1.00  0.00     0.167 HD
ATOM     48  C   UNL A   1      41.639  27.315  28.836  1.00  0.00     0.034 A 
ATOM     49  C   UNL A   1      39.645  31.269  34.278  1.00  0.00     0.034 A 
ATOM     50  C   UNL A   1      42.567  27.353  29.942  1.00  0.00     0.049 A 
ATOM     51  C   UNL A   1      40.924  30.471  34.301  1.00  0.00     0.074 A 
ATOM     52  C   UNL A   1      43.804  26.741  30.052  1.00  0.00     0.029 A 
ATOM     53  N   UNL A   1      42.358  28.033  31.136  1.00  0.00    -0.354 N 
ATOM     54  N   UNL A   1      41.438  29.704  33.369  1.00  0.00    -0.248 NA
ATOM     55  C   UNL A   1      41.730  30.551  35.527  1.00  0.00     0.031 C 
ATOM     56  C   UNL A   1      44.309  26.992  31.333  1.00  0.00     0.029 A 
ATOM     57  C   UNL A   1      43.426  27.827  31.997  1.00  0.00     0.049 A 
ATOM     58  H   UNL A   1      41.567  28.581  31.340  1.00  0.00     0.167 HD
ATOM     59  C   UNL A   1      42.642  29.234  33.884  1.00  0.00     0.074 A 
ATOM     60  C   UNL A   1      42.785  29.817  35.202  1.00  0.00     0.031 C 
ATOM     61  C   UNL A   1      43.551  28.400  33.318  1.00  0.00     0.034 A 
BRANCH  48  62
ATOM     62  C   UNL A   1      41.966  26.446  27.642  1.00  0.00     0.023 A 
ATOM     63  C   UNL A   1      41.584  25.094  27.585  1.00  0.00     0.031 A 
ATOM     64  C   UNL A   1      42.691  26.969  26.556  1.00  0.00     0.131 A 
ATOM     65  C   UNL A   1      41.997  24.293  26.510  1.00  0.00     0.055 A 
ATOM     66  C   UNL A   1      43.026  26.188  25.448  1.00  0.00     0.041 A 
ATOM     67  F   UNL A   1      43.098  28.249  26.558  1.00  0.00    -0.206 F 
ATOM     68  C   UNL A   1      42.694  24.836  25.428  1.00  0.00     0.022 A 
BRANCH  65  69
ATOM     69  S   UNL A   1      41.740  22.500  26.617  1.00  0.00     0.124 S 
ATOM     70  O   UNL A   1      42.434  22.177  27.861  1.00  0.00    -0.237 OA
ATOM     71  O   UNL A   1      40.287  22.391  26.649  1.00  0.00    -0.237 OA
ATOM     72  O   UNL A   1      42.378  21.990  25.405  1.00  0.00    -0.744 OA
ENDBRANCH  65  69
ENDBRANCH  48  62
BRANCH  49  73
ATOM     73  C   UNL A   1      39.221  32.059  35.471  1.00  0.00     0.023 A 
ATOM     74  C   UNL A   1      39.637  33.390  35.640  1.00  0.00     0.031 A 
ATOM     75  C   UNL A   1      38.430  31.482  36.479  1.00  0.00     0.131 A 
ATOM     76  C   UNL A   1      39.299  34.084  36.812  1.00  0.00     0.055 A 
ATOM     77  C   UNL A   1      38.051  32.195  37.618  1.00  0.00     0.041 A 
ATOM     78  F   UNL A   1      38.002  30.215  36.365  1.00  0.00    -0.206 F 
ATOM     79  C   UNL A   1      38.498  33.500  37.796  1.00  0.00     0.022 A 
BRANCH  76  80
ATOM     80  S   UNL A   1      39.996  35.738  37.073  1.00  0.00     0.124 S 
ATOM     81  O   UNL A   1      39.282  36.177  38.267  1.00  0.00    -0.237 OA
ATOM     82  O   UNL A   1      41.415  35.446  37.244  1.00  0.00    -0.237 OA
ATOM     83  O   UNL A   1      39.652  36.449  35.843  1.00  0.00    -0.744 OA
ENDBRANCH  76  80
ENDBRANCH  49  73
BRANCH  61  84
ATOM     84  C   UNL A   1      44.802  28.107  34.112  1.00  0.00     0.023 A 
ATOM     85  C   UNL A   1      44.923  26.951  34.904  1.00  0.00     0.031 A 
ATOM     86  C   UNL A   1      45.881  29.008  34.087  1.00  0.00     0.131 A 
ATOM     87  C   UNL A   1      46.075  26.756  35.683  1.00  0.00     0.055 A 
ATOM     88  C   UNL A   1      47.049  28.777  34.816  1.00  0.00     0.041 A 
ATOM     89  F   UNL A   1      45.820  30.130  33.352  1.00  0.00    -0.206 F 
ATOM     90  C   UNL A   1      47.145  27.653  35.631  1.00  0.00     0.022 A 
BRANCH  87  91
ATOM     91  S   UNL A   1      46.118  25.358  36.839  1.00  0.00     0.124 S 
ATOM     92  O   UNL A   1      47.551  25.145  37.004  1.00  0.00    -0.237 OA
ATOM     93  O   UNL A   1      45.415  25.892  38.001  1.00  0.00    -0.237 OA
ATOM     94  O   UNL A   1      45.412  24.299  36.122  1.00  0.00    -0.744 OA
ENDBRANCH  87  91
ENDBRANCH  61  84
ENDBRANCH  35  36
ENDBRANCH  27  30
ENDBRANCH  25  26
ENDBRANCH  24  25
ENDBRANCH   1  24
TORSDOF 17
ENDMDL
MODEL 3
REMARK VINA RESULT:     -11.3      1.566      7.711
REMARK SMILES CC[C@H](C)N(C)C(=O)N1[C@@H](C(=O)NCCCNC(=O)c2ccc(-c3c4nc(c(-c5cc(S(=O)(=O)[O-])ccc5F)c5ccc([nH]5)c(-c5cc(S(=O)(=O)[O-])ccc5F)c5nc(c(-c6cc(S(=O)(=O)[O-])ccc6F)c6ccc3[nH]6)C=C5)C=C4)cc2)CC[C@H]2CCCC[C@@H]21
REMARK SMILES IDX 14 1 13 2 11 3 12 4 10 6 9 7 90 8 83 9 85 10 89 11 84 12
REMARK SMILES IDX 86 13 88 14 87 15 7 16 8 17 5 18 6 19 3 20 4 21 2 22 1 23
REMARK SMILES IDX 15 24 16 25 17 26 18 27 19 29 20 30 21 31 82 32 22 33 81 34
REMARK SMILES IDX 23 35 24 36 25 37 75 38 26 39 80 40 74 41 76 42 27 43 79 44
REMARK SMILES IDX 73 45 72 46 28 48 60 49 40 50 59 51 41 52 44 53 58 54 77 55
REMARK SMILES IDX 42 56 43 57 57 59 78 60 45 61 29 62 30 63 38 64 31 65 37 66
REMARK SMILES IDX 39 67 36 68 32 69 33 70 34 71 35 72 61 73 62 74 70 75 63 76
REMARK SMILES IDX 69 77 71 78 68 79 64 80 65 81 66 82 67 83 46 84 47 85 55 86
REMARK SMILES IDX 48 87 54 88 56 89 53 90 49 91 50 92 51 93 52 94
REMARK H PARENT 13 5 17 28 76 47 44 58
REMARK Flexibility Score: inf
ROOT
ATOM      1  C   UNL A   1      33.535  22.846  24.711  1.00  0.00     0.117 C 
ENDROOT
BRANCH   1   2
ATOM      2  N   UNL A   1      32.542  22.748  25.770  1.00  0.00    -0.354 N 
ATOM      3  C   UNL A   1      32.067  23.694  26.640  1.00  0.00     0.242 C 
ATOM      4  O   UNL A   1      31.240  23.341  27.485  1.00  0.00    -0.273 OA
ATOM      5  H   UNL A   1      32.145  21.854  25.880  1.00  0.00     0.163 HD
BRANCH   3   6
ATOM      6  C   UNL A   1      32.583  25.156  26.552  1.00  0.00     0.176 C 
ATOM      7  N   UNL A   1      31.690  26.217  26.042  1.00  0.00    -0.309 N 
ATOM      8  C   UNL A   1      32.233  27.587  26.146  1.00  0.00     0.091 C 
ATOM      9  C   UNL A   1      33.857  25.162  25.664  1.00  0.00     0.036 C 
ATOM     10  C   UNL A   1      33.771  27.588  26.329  1.00  0.00     0.012 C 
ATOM     11  C   UNL A   1      31.613  28.403  27.288  1.00  0.00     0.025 C 
ATOM     12  C   UNL A   1      34.397  26.574  25.376  1.00  0.00     0.008 C 
ATOM     13  C   UNL A   1      34.305  29.011  26.172  1.00  0.00     0.006 C 
ATOM     14  C   UNL A   1      32.153  29.839  27.269  1.00  0.00     0.002 C 
ATOM     15  C   UNL A   1      33.683  29.914  27.241  1.00  0.00     0.000 C 
BRANCH   7  16
ATOM     16  C   UNL A   1      30.386  25.902  25.706  1.00  0.00     0.320 C 
ATOM     17  O   UNL A   1      29.571  25.613  26.581  1.00  0.00    -0.248 OA
BRANCH  16  18
ATOM     18  N   UNL A   1      30.006  25.895  24.372  1.00  0.00    -0.325 N 
ATOM     19  C   UNL A   1      28.968  26.740  23.802  1.00  0.00     0.149 C 
BRANCH  18  20
ATOM     20  C   UNL A   1      30.924  25.274  23.382  1.00  0.00     0.083 C 
ATOM     21  C   UNL A   1      30.472  23.846  23.045  1.00  0.00     0.031 C 
BRANCH  20  22
ATOM     22  C   UNL A   1      31.228  26.198  22.175  1.00  0.00     0.021 C 
ATOM     23  C   UNL A   1      32.618  26.819  22.132  1.00  0.00     0.006 C 
ENDBRANCH  20  22
ENDBRANCH  18  20
ENDBRANCH  16  18
ENDBRANCH   7  16
ENDBRANCH   3   6
ENDBRANCH   1   2
BRANCH   1  24
ATOM     24  C   UNL A   1      34.599  21.750  24.739  1.00  0.00     0.042 C 
BRANCH  24  25
ATOM     25  C   UNL A   1      35.911  22.149  25.408  1.00  0.00     0.118 C 
BRANCH  25  26
ATOM     26  N   UNL A   1      36.867  21.047  25.444  1.00  0.00    -0.352 N 
ATOM     27  C   UNL A   1      38.222  21.051  25.659  1.00  0.00     0.251 C 
ATOM     28  H   UNL A   1      36.475  20.157  25.290  1.00  0.00     0.163 HD
ATOM     29  O   UNL A   1      38.863  20.024  25.416  1.00  0.00    -0.269 OA
BRANCH  27  30
ATOM     30  C   UNL A   1      38.922  22.259  26.151  1.00  0.00     0.039 A 
ATOM     31  C   UNL A   1      40.036  22.101  26.981  1.00  0.00     0.014 A 
ATOM     32  C   UNL A   1      38.464  23.544  25.847  1.00  0.00     0.014 A 
ATOM     33  C   UNL A   1      40.726  23.224  27.450  1.00  0.00     0.010 A 
ATOM     34  C   UNL A   1      39.191  24.661  26.260  1.00  0.00     0.010 A 
ATOM     35  C   UNL A   1      40.331  24.515  27.066  1.00  0.00    -0.014 A 
BRANCH  35  36
ATOM     36  C   UNL A   1      41.098  25.718  27.492  1.00  0.00     0.031 A 
ATOM     37  C   UNL A   1      40.439  26.785  28.325  1.00  0.00     0.074 A 
ATOM     38  C   UNL A   1      42.372  25.877  27.081  1.00  0.00     0.049 A 
ATOM     39  N   UNL A   1      40.915  27.938  28.724  1.00  0.00    -0.248 NA
ATOM     40  C   UNL A   1      39.052  26.532  28.741  1.00  0.00     0.031 C 
ATOM     41  C   UNL A   1      43.115  24.930  26.247  1.00  0.00     0.029 A 
ATOM     42  N   UNL A   1      43.266  26.896  27.299  1.00  0.00    -0.354 N 
ATOM     43  C   UNL A   1      39.884  28.553  29.428  1.00  0.00     0.074 A 
ATOM     44  C   UNL A   1      38.741  27.668  29.348  1.00  0.00     0.031 C 
ATOM     45  C   UNL A   1      44.354  25.402  26.041  1.00  0.00     0.029 A 
ATOM     46  C   UNL A   1      44.483  26.706  26.685  1.00  0.00     0.049 A 
ATOM     47  H   UNL A   1      43.057  27.689  27.843  1.00  0.00     0.167 HD
ATOM     48  C   UNL A   1      39.897  29.735  30.093  1.00  0.00     0.034 A 
ATOM     49  C   UNL A   1      45.573  27.497  26.629  1.00  0.00     0.034 A 
ATOM     50  C   UNL A   1      41.046  30.606  30.168  1.00  0.00     0.049 A 
ATOM     51  C   UNL A   1      45.549  28.825  27.343  1.00  0.00     0.074 A 
ATOM     52  C   UNL A   1      41.181  31.800  30.857  1.00  0.00     0.029 A 
ATOM     53  N   UNL A   1      42.258  30.385  29.524  1.00  0.00    -0.354 N 
ATOM     54  N   UNL A   1      44.581  29.373  28.040  1.00  0.00    -0.248 NA
ATOM     55  C   UNL A   1      46.771  29.637  27.268  1.00  0.00     0.031 C 
ATOM     56  C   UNL A   1      42.444  32.333  30.574  1.00  0.00     0.029 A 
ATOM     57  C   UNL A   1      43.130  31.434  29.772  1.00  0.00     0.049 A 
ATOM     58  H   UNL A   1      42.467  29.597  28.972  1.00  0.00     0.167 HD
ATOM     59  C   UNL A   1      45.089  30.580  28.512  1.00  0.00     0.074 A 
ATOM     60  C   UNL A   1      46.452  30.672  28.033  1.00  0.00     0.031 C 
ATOM     61  C   UNL A   1      44.485  31.525  29.276  1.00  0.00     0.034 A 
BRANCH  48  62
ATOM     62  C   UNL A   1      38.613  30.164  30.769  1.00  0.00     0.023 A 
ATOM     63  C   UNL A   1      37.747  31.104  30.182  1.00  0.00     0.031 A 
ATOM     64  C   UNL A   1      38.264  29.648  32.030  1.00  0.00     0.131 A 
ATOM     65  C   UNL A   1      36.622  31.556  30.887  1.00  0.00     0.055 A 
ATOM     66  C   UNL A   1      37.097  30.039  32.689  1.00  0.00     0.041 A 
ATOM     67  F   UNL A   1      39.058  28.760  32.650  1.00  0.00    -0.206 F 
ATOM     68  C   UNL A   1      36.276  31.013  32.125  1.00  0.00     0.022 A 
BRANCH  65  69
ATOM     69  S   UNL A   1      35.700  32.973  30.227  1.00  0.00     0.124 S 
ATOM     70  O   UNL A   1      34.359  32.720  30.747  1.00  0.00    -0.237 OA
ATOM     71  O   UNL A   1      36.408  34.108  30.808  1.00  0.00    -0.237 OA
ATOM     72  O   UNL A   1      35.838  32.827  28.779  1.00  0.00    -0.744 OA
ENDBRANCH  65  69
ENDBRANCH  48  62
BRANCH  49  73
ATOM     73  C   UNL A   1      46.777  27.072  25.857  1.00  0.00     0.023 A 
ATOM     74  C   UNL A   1      47.038  27.596  24.581  1.00  0.00     0.031 A 
ATOM     75  C   UNL A   1      47.660  26.104  26.367  1.00  0.00     0.131 A 
ATOM     76  C   UNL A   1      48.127  27.115  23.838  1.00  0.00     0.055 A 
ATOM     77  C   UNL A   1      48.773  25.669  25.646  1.00  0.00     0.041 A 
ATOM     78  F   UNL A   1      47.459  25.574  27.583  1.00  0.00    -0.206 F 
ATOM     79  C   UNL A   1      49.004  26.165  24.366  1.00  0.00     0.022 A 
BRANCH  76  80
ATOM     80  S   UNL A   1      48.333  27.689  22.130  1.00  0.00     0.124 S 
ATOM     81  O   UNL A   1      48.361  26.429  21.394  1.00  0.00    -0.237 OA
ATOM     82  O   UNL A   1      47.146  28.516  21.942  1.00  0.00    -0.237 OA
ATOM     83  O   UNL A   1      49.599  28.418  22.166  1.00  0.00    -0.744 OA
ENDBRANCH  76  80
ENDBRANCH  49  73
BRANCH  61  84
ATOM     84  C   UNL A   1      45.317  32.720  29.676  1.00  0.00     0.023 A 
ATOM     85  C   UNL A   1      45.313  33.910  28.926  1.00  0.00     0.031 A 
ATOM     86  C   UNL A   1      46.140  32.659  30.815  1.00  0.00     0.131 A 
ATOM     87  C   UNL A   1      46.158  34.969  29.293  1.00  0.00     0.055 A 
ATOM     88  C   UNL A   1      46.932  33.739  31.209  1.00  0.00     0.041 A 
ATOM     89  F   UNL A   1      46.187  31.547  31.566  1.00  0.00    -0.206 F 
ATOM     90  C   UNL A   1      46.954  34.897  30.438  1.00  0.00     0.022 A 
BRANCH  87  91
ATOM     91  S   UNL A   1      46.272  36.412  28.197  1.00  0.00     0.124 S 
ATOM     92  O   UNL A   1      45.509  37.413  28.934  1.00  0.00    -0.237 OA
ATOM     93  O   UNL A   1      47.712  36.635  28.123  1.00  0.00    -0.237 OA
ATOM     94  O   UNL A   1      45.653  35.949  26.957  1.00  0.00    -0.744 OA
ENDBRANCH  87  91
ENDBRANCH  61  84
ENDBRANCH  35  36
ENDBRANCH  27  30
ENDBRANCH  25  26
ENDBRANCH  24  25
ENDBRANCH   1  24
TORSDOF 17
ENDMDL
