MODEL 1
REMARK VINA RESULT:     -11.2      0.000      0.000
REMARK SMILES [NH3+][C@H]1C=C[C@@H](C(=O)NC2(CC(=O)NCCCNC(=O)c3ccc(-c4c5nc(c(-c6cc(S(=O)(=O)[O-])ccc6F)c6ccc([nH]6)c(-c6cc(S(=O)(=O)[O-])ccc6F)c6nc(c(-c7cc(S(=O)(=O)[O-])ccc7F)c7ccc4[nH]7)C=C6)C=C5)cc3)CCC2)C1
REMARK SMILES IDX 14 1 13 2 11 3 12 4 10 6 9 7 83 8 85 9 84 10 8 11 6 12 7 13
REMARK SMILES IDX 5 15 2 16 3 17 86 18 4 19 1 20 15 24 16 25 17 26 18 27 19 29
REMARK SMILES IDX 20 30 21 31 82 32 22 33 81 34 23 35 24 36 25 37 75 38 26 39
REMARK SMILES IDX 80 40 74 41 76 42 27 43 79 44 73 45 72 46 28 48 60 49 40 50
REMARK SMILES IDX 59 51 41 52 44 53 58 54 77 55 42 56 43 57 57 59 78 60 45 61
REMARK SMILES IDX 29 62 30 63 38 64 31 65 37 66 39 67 36 68 32 69 33 70 34 71
REMARK SMILES IDX 35 72 61 73 62 74 70 75 63 76 69 77 71 78 68 79 64 80 65 81
REMARK SMILES IDX 66 82 67 83 46 84 47 85 55 86 48 87 54 88 56 89 53 90 49 91
REMARK SMILES IDX 50 92 51 93 52 94
REMARK H PARENT 13 5 8 14 1 21 1 22 1 23 17 28 76 47 44 58
REMARK Flexibility Score: inf
ROOT
ATOM      1  C   UNL A   1      32.254  27.204  26.878  1.00  0.00     0.117 C 
ENDROOT
BRANCH   1   2
ATOM      2  N   UNL A   1      31.020  26.472  26.664  1.00  0.00    -0.356 N 
ATOM      3  C   UNL A   1      30.262  26.385  25.542  1.00  0.00     0.222 C 
ATOM      4  O   UNL A   1      29.117  25.938  25.639  1.00  0.00    -0.275 OA
ATOM      5  H   UNL A   1      30.688  25.968  27.441  1.00  0.00     0.163 HD
BRANCH   3   6
ATOM      6  C   UNL A   1      30.802  26.801  24.194  1.00  0.00     0.128 C 
BRANCH   6   7
ATOM      7  C   UNL A   1      30.087  27.976  23.476  1.00  0.00     0.049 C 
ATOM      8  C   UNL A   1      30.676  28.103  22.047  1.00  0.00     0.029 C 
ATOM      9  C   UNL A   1      30.691  29.363  23.781  1.00  0.00     0.029 C 
ATOM     10  C   UNL A   1      31.613  29.207  22.565  1.00  0.00     0.005 C 
BRANCH   7  11
ATOM     11  N   UNL A   1      28.617  27.823  23.602  1.00  0.00    -0.350 N 
ATOM     12  C   UNL A   1      27.474  28.515  23.365  1.00  0.00     0.227 C 
ATOM     13  O   UNL A   1      26.442  27.904  23.698  1.00  0.00    -0.274 OA
ATOM     14  H   UNL A   1      28.403  26.938  23.977  1.00  0.00     0.164 HD
BRANCH  12  15
ATOM     15  C   UNL A   1      27.286  29.910  22.754  1.00  0.00     0.107 C 
ATOM     16  C   UNL A   1      28.303  32.150  22.847  1.00  0.00     0.205 C 
ATOM     17  C   UNL A   1      28.613  31.435  21.575  1.00  0.00     0.033 C 
ATOM     18  C   UNL A   1      27.503  31.119  23.667  1.00  0.00     0.087 C 
ATOM     19  C   UNL A   1      28.051  30.224  21.517  1.00  0.00    -0.012 C 
BRANCH  16  20
ATOM     20  N   UNL A   1      29.525  32.573  23.507  1.00  0.00    -0.352 N 
ATOM     21  H   UNL A   1      29.299  32.966  24.421  1.00  0.00     0.345 HD
ATOM     22  H   UNL A   1      29.991  33.281  22.938  1.00  0.00     0.345 HD
ATOM     23  H   UNL A   1      30.143  31.771  23.625  1.00  0.00     0.345 HD
ENDBRANCH  16  20
ENDBRANCH  12  15
ENDBRANCH   7  11
ENDBRANCH   6   7
ENDBRANCH   3   6
ENDBRANCH   1   2
BRANCH   1  24
ATOM     24  C   UNL A   1      31.983  28.707  26.941  1.00  0.00     0.042 C 
BRANCH  24  25
ATOM     25  C   UNL A   1      33.038  29.547  26.231  1.00  0.00     0.118 C 
BRANCH  25  26
ATOM     26  N   UNL A   1      32.926  30.952  26.584  1.00  0.00    -0.352 N 
ATOM     27  C   UNL A   1      33.649  31.708  27.472  1.00  0.00     0.251 C 
ATOM     28  H   UNL A   1      32.216  31.441  26.109  1.00  0.00     0.163 HD
ATOM     29  O   UNL A   1      33.196  32.798  27.810  1.00  0.00    -0.269 OA
BRANCH  27  30
ATOM     30  C   UNL A   1      34.943  31.237  28.027  1.00  0.00     0.039 A 
ATOM     31  C   UNL A   1      34.984  29.978  28.637  1.00  0.00     0.014 A 
ATOM     32  C   UNL A   1      36.088  32.038  28.034  1.00  0.00     0.014 A 
ATOM     33  C   UNL A   1      36.167  29.520  29.225  1.00  0.00     0.010 A 
ATOM     34  C   UNL A   1      37.291  31.547  28.544  1.00  0.00     0.010 A 
ATOM     35  C   UNL A   1      37.338  30.293  29.168  1.00  0.00    -0.014 A 
BRANCH  35  36
ATOM     36  C   UNL A   1      38.596  29.819  29.808  1.00  0.00     0.031 A 
ATOM     37  C   UNL A   1      39.001  30.347  31.161  1.00  0.00     0.074 A 
ATOM     38  C   UNL A   1      39.377  28.928  29.167  1.00  0.00     0.049 A 
ATOM     39  N   UNL A   1      40.066  30.074  31.872  1.00  0.00    -0.248 NA
ATOM     40  C   UNL A   1      38.103  31.330  31.784  1.00  0.00     0.031 C 
ATOM     41  C   UNL A   1      39.109  28.368  27.841  1.00  0.00     0.029 A 
ATOM     42  N   UNL A   1      40.552  28.329  29.546  1.00  0.00    -0.354 N 
ATOM     43  C   UNL A   1      39.968  30.854  33.020  1.00  0.00     0.074 A 
ATOM     44  C   UNL A   1      38.776  31.663  32.874  1.00  0.00     0.031 C 
ATOM     45  C   UNL A   1      40.069  27.481  27.534  1.00  0.00     0.029 A 
ATOM     46  C   UNL A   1      41.043  27.436  28.620  1.00  0.00     0.049 A 
ATOM     47  H   UNL A   1      41.003  28.520  30.400  1.00  0.00     0.167 HD
ATOM     48  C   UNL A   1      40.776  30.875  34.110  1.00  0.00     0.034 A 
ATOM     49  C   UNL A   1      42.151  26.670  28.646  1.00  0.00     0.034 A 
ATOM     50  C   UNL A   1      41.955  30.055  34.249  1.00  0.00     0.049 A 
ATOM     51  C   UNL A   1      43.045  26.724  29.860  1.00  0.00     0.074 A 
ATOM     52  C   UNL A   1      42.834  29.976  35.316  1.00  0.00     0.029 A 
ATOM     53  N   UNL A   1      42.421  29.165  33.288  1.00  0.00    -0.354 N 
ATOM     54  N   UNL A   1      42.917  27.445  30.950  1.00  0.00    -0.248 NA
ATOM     55  C   UNL A   1      44.224  25.849  29.850  1.00  0.00     0.031 C 
ATOM     56  C   UNL A   1      43.858  29.083  34.979  1.00  0.00     0.029 A 
ATOM     57  C   UNL A   1      43.582  28.549  33.730  1.00  0.00     0.049 A 
ATOM     58  H   UNL A   1      41.990  28.997  32.420  1.00  0.00     0.167 HD
ATOM     59  C   UNL A   1      43.982  27.081  31.769  1.00  0.00     0.074 A 
ATOM     60  C   UNL A   1      44.727  26.066  31.055  1.00  0.00     0.031 C 
ATOM     61  C   UNL A   1      44.316  27.542  33.002  1.00  0.00     0.034 A 
BRANCH  48  62
ATOM     62  C   UNL A   1      40.412  31.827  35.225  1.00  0.00     0.023 A 
ATOM     63  C   UNL A   1      39.478  31.476  36.216  1.00  0.00     0.031 A 
ATOM     64  C   UNL A   1      40.983  33.111  35.288  1.00  0.00     0.131 A 
ATOM     65  C   UNL A   1      39.084  32.419  37.176  1.00  0.00     0.055 A 
ATOM     66  C   UNL A   1      40.647  34.018  36.295  1.00  0.00     0.041 A 
ATOM     67  F   UNL A   1      41.866  33.512  34.360  1.00  0.00    -0.206 F 
ATOM     68  C   UNL A   1      39.681  33.680  37.238  1.00  0.00     0.022 A 
BRANCH  65  69
ATOM     69  S   UNL A   1      37.681  32.023  38.256  1.00  0.00     0.124 S 
ATOM     70  O   UNL A   1      38.257  32.249  39.580  1.00  0.00    -0.237 OA
ATOM     71  O   UNL A   1      36.670  32.982  37.827  1.00  0.00    -0.237 OA
ATOM     72  O   UNL A   1      37.391  30.626  37.942  1.00  0.00    -0.744 OA
ENDBRANCH  65  69
ENDBRANCH  48  62
BRANCH  49  73
ATOM     73  C   UNL A   1      42.485  25.776  27.499  1.00  0.00     0.023 A 
ATOM     74  C   UNL A   1      42.077  24.432  27.491  1.00  0.00     0.031 A 
ATOM     75  C   UNL A   1      43.266  26.233  26.424  1.00  0.00     0.131 A 
ATOM     76  C   UNL A   1      42.500  23.579  26.460  1.00  0.00     0.055 A 
ATOM     77  C   UNL A   1      43.638  25.395  25.372  1.00  0.00     0.041 A 
ATOM     78  F   UNL A   1      43.678  27.511  26.378  1.00  0.00    -0.206 F 
ATOM     79  C   UNL A   1      43.268  24.053  25.395  1.00  0.00     0.022 A 
BRANCH  76  80
ATOM     80  S   UNL A   1      42.114  21.811  26.585  1.00  0.00     0.124 S 
ATOM     81  O   UNL A   1      42.196  21.588  28.024  1.00  0.00    -0.237 OA
ATOM     82  O   UNL A   1      40.778  21.752  26.002  1.00  0.00    -0.237 OA
ATOM     83  O   UNL A   1      43.166  21.176  25.794  1.00  0.00    -0.744 OA
ENDBRANCH  76  80
ENDBRANCH  49  73
BRANCH  61  84
ATOM     84  C   UNL A   1      45.514  26.908  33.664  1.00  0.00     0.023 A 
ATOM     85  C   UNL A   1      45.400  25.729  34.422  1.00  0.00     0.031 A 
ATOM     86  C   UNL A   1      46.780  27.512  33.565  1.00  0.00     0.131 A 
ATOM     87  C   UNL A   1      46.518  25.230  35.108  1.00  0.00     0.055 A 
ATOM     88  C   UNL A   1      47.901  26.975  34.198  1.00  0.00     0.041 A 
ATOM     89  F   UNL A   1      46.944  28.639  32.854  1.00  0.00    -0.206 F 
ATOM     90  C   UNL A   1      47.771  25.836  34.988  1.00  0.00     0.022 A 
BRANCH  87  91
ATOM     91  S   UNL A   1      46.288  23.834  36.244  1.00  0.00     0.124 S 
ATOM     92  O   UNL A   1      45.144  23.147  35.653  1.00  0.00    -0.237 OA
ATOM     93  O   UNL A   1      47.567  23.140  36.149  1.00  0.00    -0.237 OA
ATOM     94  O   UNL A   1      46.027  24.479  37.530  1.00  0.00    -0.744 OA
ENDBRANCH  87  91
ENDBRANCH  61  84
ENDBRANCH  35  36
ENDBRANCH  27  30
ENDBRANCH  25  26
ENDBRANCH  24  25
ENDBRANCH   1  24
TORSDOF 17
ENDMDL
MODEL 2
REMARK VINA RESULT:     -11.2      3.603      5.133
REMARK SMILES [NH3+][C@H]1C=C[C@@H](C(=O)NC2(CC(=O)NCCCNC(=O)c3ccc(-c4c5nc(c(-c6cc(S(=O)(=O)[O-])ccc6F)c6ccc([nH]6)c(-c6cc(S(=O)(=O)[O-])ccc6F)c6nc(c(-c7cc(S(=O)(=O)[O-])ccc7F)c7ccc4[nH]7)C=C6)C=C5)cc3)CCC2)C1
REMARK SMILES IDX 14 1 13 2 11 3 12 4 10 6 9 7 83 8 85 9 84 10 8 11 6 12 7 13
REMARK SMILES IDX 5 15 2 16 3 17 86 18 4 19 1 20 15 24 16 25 17 26 18 27 19 29
REMARK SMILES IDX 20 30 21 31 82 32 22 33 81 34 23 35 24 36 25 37 75 38 26 39
REMARK SMILES IDX 80 40 74 41 76 42 27 43 79 44 73 45 72 46 28 48 60 49 40 50
REMARK SMILES IDX 59 51 41 52 44 53 58 54 77 55 42 56 43 57 57 59 78 60 45 61
REMARK SMILES IDX 29 62 30 63 38 64 31 65 37 66 39 67 36 68 32 69 33 70 34 71
REMARK SMILES IDX 35 72 61 73 62 74 70 75 63 76 69 77 71 78 68 79 64 80 65 81
REMARK SMILES IDX 66 82 67 83 46 84 47 85 55 86 48 87 54 88 56 89 53 90 49 91
REMARK SMILES IDX 50 92 51 93 52 94
REMARK H PARENT 13 5 8 14 1 21 1 22 1 23 17 28 76 47 44 58
REMARK Flexibility Score: inf
ROOT
ATOM      1  C   UNL A   1      33.695  26.870  24.373  1.00  0.00     0.117 C 
ENDROOT
BRANCH   1   2
ATOM      2  N   UNL A   1      32.979  26.111  25.380  1.00  0.00    -0.356 N 
ATOM      3  C   UNL A   1      33.223  24.858  25.840  1.00  0.00     0.222 C 
ATOM      4  O   UNL A   1      32.346  24.290  26.496  1.00  0.00    -0.275 OA
ATOM      5  H   UNL A   1      32.209  26.570  25.787  1.00  0.00     0.163 HD
BRANCH   3   6
ATOM      6  C   UNL A   1      34.542  24.170  25.582  1.00  0.00     0.128 C 
BRANCH   6   7
ATOM      7  C   UNL A   1      34.516  22.898  24.693  1.00  0.00     0.049 C 
ATOM      8  C   UNL A   1      35.914  22.230  24.758  1.00  0.00     0.029 C 
ATOM      9  C   UNL A   1      34.782  23.167  23.198  1.00  0.00     0.029 C 
ATOM     10  C   UNL A   1      36.279  22.939  23.443  1.00  0.00     0.005 C 
BRANCH   7  11
ATOM     11  N   UNL A   1      33.340  22.063  25.044  1.00  0.00    -0.350 N 
ATOM     12  C   UNL A   1      32.837  20.824  24.816  1.00  0.00     0.227 C 
ATOM     13  O   UNL A   1      31.732  20.625  25.353  1.00  0.00    -0.274 OA
ATOM     14  H   UNL A   1      32.731  22.571  25.627  1.00  0.00     0.164 HD
BRANCH  12  15
ATOM     15  C   UNL A   1      33.433  19.662  24.009  1.00  0.00     0.107 C 
ATOM     16  C   UNL A   1      34.275  17.375  24.358  1.00  0.00     0.205 C 
ATOM     17  C   UNL A   1      32.943  17.396  23.689  1.00  0.00     0.033 C 
ATOM     18  C   UNL A   1      34.566  18.860  24.652  1.00  0.00     0.087 C 
ATOM     19  C   UNL A   1      32.489  18.637  23.487  1.00  0.00    -0.012 C 
BRANCH  16  20
ATOM     20  N   UNL A   1      34.234  16.557  25.557  1.00  0.00    -0.352 N 
ATOM     21  H   UNL A   1      35.029  15.918  25.559  1.00  0.00     0.345 HD
ATOM     22  H   UNL A   1      33.365  16.022  25.573  1.00  0.00     0.345 HD
ATOM     23  H   UNL A   1      34.278  17.158  26.379  1.00  0.00     0.345 HD
ENDBRANCH  16  20
ENDBRANCH  12  15
ENDBRANCH   7  11
ENDBRANCH   6   7
ENDBRANCH   3   6
ENDBRANCH   1   2
BRANCH   1  24
ATOM     24  C   UNL A   1      33.726  28.354  24.738  1.00  0.00     0.042 C 
BRANCH  24  25
ATOM     25  C   UNL A   1      33.849  28.612  26.235  1.00  0.00     0.118 C 
BRANCH  25  26
ATOM     26  N   UNL A   1      33.755  30.029  26.540  1.00  0.00    -0.352 N 
ATOM     27  C   UNL A   1      34.471  30.799  27.422  1.00  0.00     0.251 C 
ATOM     28  H   UNL A   1      33.065  30.515  26.033  1.00  0.00     0.163 HD
ATOM     29  O   UNL A   1      34.030  31.908  27.713  1.00  0.00    -0.269 OA
BRANCH  27  30
ATOM     30  C   UNL A   1      35.742  30.323  28.022  1.00  0.00     0.039 A 
ATOM     31  C   UNL A   1      36.917  30.445  27.271  1.00  0.00     0.014 A 
ATOM     32  C   UNL A   1      35.788  29.688  29.266  1.00  0.00     0.014 A 
ATOM     33  C   UNL A   1      38.126  29.956  27.773  1.00  0.00     0.010 A 
ATOM     34  C   UNL A   1      37.009  29.277  29.804  1.00  0.00     0.010 A 
ATOM     35  C   UNL A   1      38.188  29.383  29.054  1.00  0.00    -0.014 A 
BRANCH  35  36
ATOM     36  C   UNL A   1      39.468  28.844  29.587  1.00  0.00     0.031 A 
ATOM     37  C   UNL A   1      40.112  29.481  30.794  1.00  0.00     0.074 A 
ATOM     38  C   UNL A   1      40.057  27.795  28.981  1.00  0.00     0.049 A 
ATOM     39  N   UNL A   1      41.233  29.172  31.395  1.00  0.00    -0.248 NA
ATOM     40  C   UNL A   1      39.415  30.632  31.385  1.00  0.00     0.031 C 
ATOM     41  C   UNL A   1      39.549  27.114  27.788  1.00  0.00     0.029 A 
ATOM     42  N   UNL A   1      41.207  27.111  29.286  1.00  0.00    -0.354 N 
ATOM     43  C   UNL A   1      41.378  30.092  32.428  1.00  0.00     0.074 A 
ATOM     44  C   UNL A   1      40.266  31.013  32.325  1.00  0.00     0.031 C 
ATOM     45  C   UNL A   1      40.361  26.089  27.486  1.00  0.00     0.029 A 
ATOM     46  C   UNL A   1      41.469  26.061  28.436  1.00  0.00     0.049 A 
ATOM     47  H   UNL A   1      41.791  27.350  30.041  1.00  0.00     0.167 HD
ATOM     48  C   UNL A   1      42.329  30.148  33.394  1.00  0.00     0.034 A 
ATOM     49  C   UNL A   1      42.486  25.177  28.425  1.00  0.00     0.034 A 
ATOM     50  C   UNL A   1      43.427  29.217  33.493  1.00  0.00     0.049 A 
ATOM     51  C   UNL A   1      43.544  25.272  29.497  1.00  0.00     0.074 A 
ATOM     52  C   UNL A   1      44.435  29.164  34.441  1.00  0.00     0.029 A 
ATOM     53  N   UNL A   1      43.659  28.168  32.612  1.00  0.00    -0.354 N 
ATOM     54  N   UNL A   1      43.644  26.129  30.487  1.00  0.00    -0.248 NA
ATOM     55  C   UNL A   1      44.614  24.268  29.458  1.00  0.00     0.031 C 
ATOM     56  C   UNL A   1      45.305  28.121  34.103  1.00  0.00     0.029 A 
ATOM     57  C   UNL A   1      44.803  27.476  32.983  1.00  0.00     0.049 A 
ATOM     58  H   UNL A   1      43.096  27.948  31.836  1.00  0.00     0.167 HD
ATOM     59  C   UNL A   1      44.771  25.744  31.206  1.00  0.00     0.074 A 
ATOM     60  C   UNL A   1      45.301  24.568  30.549  1.00  0.00     0.031 C 
ATOM     61  C   UNL A   1      45.321  26.308  32.312  1.00  0.00     0.034 A 
BRANCH  48  62
ATOM     62  C   UNL A   1      42.225  31.266  34.406  1.00  0.00     0.023 A 
ATOM     63  C   UNL A   1      41.215  31.278  35.385  1.00  0.00     0.031 A 
ATOM     64  C   UNL A   1      43.125  32.345  34.379  1.00  0.00     0.131 A 
ATOM     65  C   UNL A   1      41.081  32.381  36.242  1.00  0.00     0.055 A 
ATOM     66  C   UNL A   1      43.038  33.401  35.289  1.00  0.00     0.041 A 
ATOM     67  F   UNL A   1      44.100  32.400  33.457  1.00  0.00    -0.206 F 
ATOM     68  C   UNL A   1      42.001  33.430  36.218  1.00  0.00     0.022 A 
BRANCH  65  69
ATOM     69  S   UNL A   1      39.608  32.486  37.294  1.00  0.00     0.124 S 
ATOM     70  O   UNL A   1      38.977  33.707  36.795  1.00  0.00    -0.237 OA
ATOM     71  O   UNL A   1      38.913  31.240  36.993  1.00  0.00    -0.237 OA
ATOM     72  O   UNL A   1      40.157  32.586  38.644  1.00  0.00    -0.744 OA
ENDBRANCH  65  69
ENDBRANCH  48  62
BRANCH  49  73
ATOM     73  C   UNL A   1      42.563  24.117  27.379  1.00  0.00     0.023 A 
ATOM     74  C   UNL A   1      41.737  22.982  27.440  1.00  0.00     0.031 A 
ATOM     75  C   UNL A   1      43.501  24.192  26.335  1.00  0.00     0.131 A 
ATOM     76  C   UNL A   1      41.905  21.943  26.512  1.00  0.00     0.055 A 
ATOM     77  C   UNL A   1      43.627  23.181  25.381  1.00  0.00     0.041 A 
ATOM     78  F   UNL A   1      44.311  25.258  26.224  1.00  0.00    -0.206 F 
ATOM     79  C   UNL A   1      42.836  22.039  25.476  1.00  0.00     0.022 A 
BRANCH  76  80
ATOM     80  S   UNL A   1      40.955  20.415  26.741  1.00  0.00     0.124 S 
ATOM     81  O   UNL A   1      40.857  20.339  28.194  1.00  0.00    -0.237 OA
ATOM     82  O   UNL A   1      39.718  20.720  26.029  1.00  0.00    -0.237 OA
ATOM     83  O   UNL A   1      41.795  19.396  26.117  1.00  0.00    -0.744 OA
ENDBRANCH  76  80
ENDBRANCH  49  73
BRANCH  61  84
ATOM     84  C   UNL A   1      46.529  25.621  32.898  1.00  0.00     0.023 A 
ATOM     85  C   UNL A   1      47.825  25.865  32.409  1.00  0.00     0.031 A 
ATOM     86  C   UNL A   1      46.378  24.684  33.934  1.00  0.00     0.131 A 
ATOM     87  C   UNL A   1      48.910  25.129  32.910  1.00  0.00     0.055 A 
ATOM     88  C   UNL A   1      47.469  24.001  34.472  1.00  0.00     0.041 A 
ATOM     89  F   UNL A   1      45.163  24.413  34.437  1.00  0.00    -0.206 F 
ATOM     90  C   UNL A   1      48.742  24.209  33.949  1.00  0.00     0.022 A 
BRANCH  87  91
ATOM     91  S   UNL A   1      50.528  25.314  32.112  1.00  0.00     0.124 S 
ATOM     92  O   UNL A   1      51.363  25.767  33.220  1.00  0.00    -0.237 OA
ATOM     93  O   UNL A   1      50.792  23.964  31.626  1.00  0.00    -0.237 OA
ATOM     94  O   UNL A   1      50.285  26.310  31.070  1.00  0.00    -0.744 OA
ENDBRANCH  87  91
ENDBRANCH  61  84
ENDBRANCH  35  36
ENDBRANCH  27  30
ENDBRANCH  25  26
ENDBRANCH  24  25
ENDBRANCH   1  24
TORSDOF 17
ENDMDL
MODEL 3
REMARK VINA RESULT:     -11.2      5.114      9.951
REMARK SMILES [NH3+][C@H]1C=C[C@@H](C(=O)NC2(CC(=O)NCCCNC(=O)c3ccc(-c4c5nc(c(-c6cc(S(=O)(=O)[O-])ccc6F)c6ccc([nH]6)c(-c6cc(S(=O)(=O)[O-])ccc6F)c6nc(c(-c7cc(S(=O)(=O)[O-])ccc7F)c7ccc4[nH]7)C=C6)C=C5)cc3)CCC2)C1
REMARK SMILES IDX 14 1 13 2 11 3 12 4 10 6 9 7 83 8 85 9 84 10 8 11 6 12 7 13
REMARK SMILES IDX 5 15 2 16 3 17 86 18 4 19 1 20 15 24 16 25 17 26 18 27 19 29
REMARK SMILES IDX 20 30 21 31 82 32 22 33 81 34 23 35 24 36 25 37 75 38 26 39
REMARK SMILES IDX 80 40 74 41 76 42 27 43 79 44 73 45 72 46 28 48 60 49 40 50
REMARK SMILES IDX 59 51 41 52 44 53 58 54 77 55 42 56 43 57 57 59 78 60 45 61
REMARK SMILES IDX 29 62 30 63 38 64 31 65 37 66 39 67 36 68 32 69 33 70 34 71
REMARK SMILES IDX 35 72 61 73 62 74 70 75 63 76 69 77 71 78 68 79 64 80 65 81
REMARK SMILES IDX 66 82 67 83 46 84 47 85 55 86 48 87 54 88 56 89 53 90 49 91
REMARK SMILES IDX 50 92 51 93 52 94
REMARK H PARENT 13 5 8 14 1 21 1 22 1 23 17 28 76 47 44 58
REMARK Flexibility Score: inf
ROOT
ATOM      1  C   UNL A   1      34.876  22.392  24.323  1.00  0.00     0.117 C 
ENDROOT
BRANCH   1   2
ATOM      2  N   UNL A   1      33.541  22.489  24.881  1.00  0.00    -0.356 N 
ATOM      3  C   UNL A   1      33.000  23.480  25.635  1.00  0.00     0.222 C 
ATOM      4  O   UNL A   1      31.947  23.253  26.236  1.00  0.00    -0.275 OA
ATOM      5  H   UNL A   1      32.944  21.732  24.684  1.00  0.00     0.163 HD
BRANCH   3   6
ATOM      6  C   UNL A   1      33.650  24.839  25.729  1.00  0.00     0.128 C 
BRANCH   6   7
ATOM      7  C   UNL A   1      32.779  26.069  25.356  1.00  0.00     0.049 C 
ATOM      8  C   UNL A   1      33.720  27.202  24.871  1.00  0.00     0.029 C 
ATOM      9  C   UNL A   1      32.412  26.969  26.553  1.00  0.00     0.029 C 
ATOM     10  C   UNL A   1      33.670  27.805  26.285  1.00  0.00     0.005 C 
BRANCH   7  11
ATOM     11  N   UNL A   1      31.683  25.651  24.447  1.00  0.00    -0.350 N 
ATOM     12  C   UNL A   1      30.539  26.138  23.902  1.00  0.00     0.227 C 
ATOM     13  O   UNL A   1      29.936  25.316  23.188  1.00  0.00    -0.274 OA
ATOM     14  H   UNL A   1      31.833  24.726  24.143  1.00  0.00     0.164 HD
BRANCH  12  15
ATOM     15  C   UNL A   1      29.908  27.529  24.040  1.00  0.00     0.107 C 
ATOM     16  C   UNL A   1      29.908  29.711  22.898  1.00  0.00     0.205 C 
ATOM     17  C   UNL A   1      28.639  28.955  22.686  1.00  0.00     0.033 C 
ATOM     18  C   UNL A   1      30.784  28.741  23.716  1.00  0.00     0.087 C 
ATOM     19  C   UNL A   1      28.632  27.776  23.315  1.00  0.00    -0.012 C 
BRANCH  16  20
ATOM     20  N   UNL A   1      30.504  30.078  21.626  1.00  0.00    -0.352 N 
ATOM     21  H   UNL A   1      31.242  29.413  21.393  1.00  0.00     0.345 HD
ATOM     22  H   UNL A   1      30.900  31.016  21.695  1.00  0.00     0.345 HD
ATOM     23  H   UNL A   1      29.790  30.062  20.899  1.00  0.00     0.345 HD
ENDBRANCH  16  20
ENDBRANCH  12  15
ENDBRANCH   7  11
ENDBRANCH   6   7
ENDBRANCH   3   6
ENDBRANCH   1   2
BRANCH   1  24
ATOM     24  C   UNL A   1      35.778  21.553  25.227  1.00  0.00     0.042 C 
BRANCH  24  25
ATOM     25  C   UNL A   1      37.096  22.233  25.576  1.00  0.00     0.118 C 
BRANCH  25  26
ATOM     26  N   UNL A   1      38.106  21.266  25.969  1.00  0.00    -0.352 N 
ATOM     27  C   UNL A   1      39.392  21.451  26.411  1.00  0.00     0.251 C 
ATOM     28  H   UNL A   1      37.822  20.325  25.909  1.00  0.00     0.163 HD
ATOM     29  O   UNL A   1      40.149  20.483  26.416  1.00  0.00    -0.269 OA
BRANCH  27  30
ATOM     30  C   UNL A   1      39.878  22.777  26.869  1.00  0.00     0.039 A 
ATOM     31  C   UNL A   1      39.495  23.910  26.143  1.00  0.00     0.014 A 
ATOM     32  C   UNL A   1      40.765  22.917  27.940  1.00  0.00     0.014 A 
ATOM     33  C   UNL A   1      39.977  25.172  26.504  1.00  0.00     0.010 A 
ATOM     34  C   UNL A   1      41.178  24.185  28.353  1.00  0.00     0.010 A 
ATOM     35  C   UNL A   1      40.810  25.324  27.624  1.00  0.00    -0.014 A 
BRANCH  35  36
ATOM     36  C   UNL A   1      41.341  26.662  28.003  1.00  0.00     0.031 A 
ATOM     37  C   UNL A   1      42.756  27.042  27.645  1.00  0.00     0.074 A 
ATOM     38  C   UNL A   1      40.558  27.526  28.678  1.00  0.00     0.049 A 
ATOM     39  N   UNL A   1      43.408  28.148  27.903  1.00  0.00    -0.248 NA
ATOM     40  C   UNL A   1      43.550  26.036  26.925  1.00  0.00     0.031 C 
ATOM     41  C   UNL A   1      39.184  27.262  29.109  1.00  0.00     0.029 A 
ATOM     42  N   UNL A   1      40.801  28.804  29.115  1.00  0.00    -0.354 N 
ATOM     43  C   UNL A   1      44.685  27.968  27.383  1.00  0.00     0.074 A 
ATOM     44  C   UNL A   1      44.736  26.619  26.860  1.00  0.00     0.031 C 
ATOM     45  C   UNL A   1      38.694  28.356  29.713  1.00  0.00     0.029 A 
ATOM     46  C   UNL A   1      39.727  29.385  29.750  1.00  0.00     0.049 A 
ATOM     47  H   UNL A   1      41.662  29.262  28.986  1.00  0.00     0.167 HD
ATOM     48  C   UNL A   1      45.713  28.852  27.318  1.00  0.00     0.034 A 
ATOM     49  C   UNL A   1      39.593  30.609  30.299  1.00  0.00     0.034 A 
ATOM     50  C   UNL A   1      45.646  30.198  27.833  1.00  0.00     0.049 A 
ATOM     51  C   UNL A   1      40.756  31.567  30.232  1.00  0.00     0.074 A 
ATOM     52  C   UNL A   1      46.615  31.186  27.801  1.00  0.00     0.029 A 
ATOM     53  N   UNL A   1      44.542  30.749  28.472  1.00  0.00    -0.354 N 
ATOM     54  N   UNL A   1      41.946  31.389  29.706  1.00  0.00    -0.248 NA
ATOM     55  C   UNL A   1      40.549  32.897  30.820  1.00  0.00     0.031 C 
ATOM     56  C   UNL A   1      46.119  32.312  28.468  1.00  0.00     0.029 A 
ATOM     57  C   UNL A   1      44.814  32.054  28.855  1.00  0.00     0.049 A 
ATOM     58  H   UNL A   1      43.692  30.281  28.632  1.00  0.00     0.167 HD
ATOM     59  C   UNL A   1      42.615  32.599  29.870  1.00  0.00     0.074 A 
ATOM     60  C   UNL A   1      41.690  33.500  30.524  1.00  0.00     0.031 C 
ATOM     61  C   UNL A   1      43.880  32.937  29.512  1.00  0.00     0.034 A 
BRANCH  48  62
ATOM     62  C   UNL A   1      46.997  28.376  26.678  1.00  0.00     0.023 A 
ATOM     63  C   UNL A   1      47.155  28.347  25.281  1.00  0.00     0.031 A 
ATOM     64  C   UNL A   1      48.067  27.922  27.469  1.00  0.00     0.131 A 
ATOM     65  C   UNL A   1      48.318  27.802  24.717  1.00  0.00     0.055 A 
ATOM     66  C   UNL A   1      49.256  27.457  26.902  1.00  0.00     0.041 A 
ATOM     67  F   UNL A   1      47.970  27.907  28.808  1.00  0.00    -0.206 F 
ATOM     68  C   UNL A   1      49.381  27.381  25.518  1.00  0.00     0.022 A 
BRANCH  65  69
ATOM     69  S   UNL A   1      48.365  27.527  22.925  1.00  0.00     0.124 S 
ATOM     70  O   UNL A   1      48.348  26.067  22.851  1.00  0.00    -0.237 OA
ATOM     71  O   UNL A   1      47.156  28.203  22.468  1.00  0.00    -0.237 OA
ATOM     72  O   UNL A   1      49.621  28.149  22.515  1.00  0.00    -0.744 OA
ENDBRANCH  65  69
ENDBRANCH  48  62
BRANCH  49  73
ATOM     73  C   UNL A   1      38.316  31.013  30.955  1.00  0.00     0.023 A 
ATOM     74  C   UNL A   1      37.291  31.630  30.217  1.00  0.00     0.031 A 
ATOM     75  C   UNL A   1      38.121  30.844  32.337  1.00  0.00     0.131 A 
ATOM     76  C   UNL A   1      36.147  32.108  30.873  1.00  0.00     0.055 A 
ATOM     77  C   UNL A   1      36.957  31.271  32.976  1.00  0.00     0.041 A 
ATOM     78  F   UNL A   1      39.066  30.254  33.088  1.00  0.00    -0.206 F 
ATOM     79  C   UNL A   1      35.967  31.922  32.246  1.00  0.00     0.022 A 
BRANCH  76  80
ATOM     80  S   UNL A   1      34.938  33.067  29.921  1.00  0.00     0.124 S 
ATOM     81  O   UNL A   1      34.028  33.523  30.965  1.00  0.00    -0.237 OA
ATOM     82  O   UNL A   1      35.780  34.091  29.311  1.00  0.00    -0.237 OA
ATOM     83  O   UNL A   1      34.382  32.086  28.991  1.00  0.00    -0.744 OA
ENDBRANCH  76  80
ENDBRANCH  49  73
BRANCH  61  84
ATOM     84  C   UNL A   1      44.307  34.359  29.782  1.00  0.00     0.023 A 
ATOM     85  C   UNL A   1      44.052  35.393  28.864  1.00  0.00     0.031 A 
ATOM     86  C   UNL A   1      45.009  34.676  30.959  1.00  0.00     0.131 A 
ATOM     87  C   UNL A   1      44.556  36.680  29.105  1.00  0.00     0.055 A 
ATOM     88  C   UNL A   1      45.454  35.971  31.222  1.00  0.00     0.041 A 
ATOM     89  F   UNL A   1      45.279  33.726  31.869  1.00  0.00    -0.206 F 
ATOM     90  C   UNL A   1      45.242  36.979  30.285  1.00  0.00     0.022 A 
BRANCH  87  91
ATOM     91  S   UNL A   1      44.395  37.934  27.804  1.00  0.00     0.124 S 
ATOM     92  O   UNL A   1      43.483  37.283  26.868  1.00  0.00    -0.237 OA
ATOM     93  O   UNL A   1      43.852  39.074  28.534  1.00  0.00    -0.237 OA
ATOM     94  O   UNL A   1      45.764  38.103  27.319  1.00  0.00    -0.744 OA
ENDBRANCH  87  91
ENDBRANCH  61  84
ENDBRANCH  35  36
ENDBRANCH  27  30
ENDBRANCH  25  26
ENDBRANCH  24  25
ENDBRANCH   1  24
TORSDOF 17
ENDMDL
