MODEL 1
REMARK VINA RESULT:     -12.1      0.000      0.000
REMARK SMILES COCC[C@@H](C)NC(=O)N1Cc2nc[nH]c2C[C@@H]1C(=O)NCCCNC(=O)c1ccc(-c2c3nc(c(-c4cc(S(=O)(=O)[O-])ccc4F)c4ccc([nH]4)c(-c4cc(S(=O)(=O)[O-])ccc4F)c4nc(c(-c5cc(S(=O)(=O)[O-])ccc5F)c5ccc2[nH]5)C=C4)C=C3)cc1
REMARK SMILES IDX 22 1 21 2 19 3 20 4 18 6 10 7 11 8 12 9 17 10 13 11 16 12
REMARK SMILES IDX 14 13 15 14 8 16 7 17 9 19 5 20 6 21 4 22 3 23 2 24 1 25
REMARK SMILES IDX 23 26 24 27 25 28 26 29 27 31 28 32 29 33 90 34 30 35 89 36
REMARK SMILES IDX 31 37 32 38 33 39 83 40 34 41 88 42 82 43 84 44 35 45 87 46
REMARK SMILES IDX 81 47 80 48 36 50 68 51 48 52 67 53 49 54 52 55 66 56 85 57
REMARK SMILES IDX 50 58 51 59 65 61 86 62 53 63 37 64 38 65 46 66 39 67 45 68
REMARK SMILES IDX 47 69 44 70 40 71 41 72 42 73 43 74 69 75 70 76 78 77 71 78
REMARK SMILES IDX 77 79 79 80 76 81 72 82 73 83 74 84 75 85 54 86 55 87 63 88
REMARK SMILES IDX 56 89 62 90 64 91 61 92 57 93 58 94 59 95 60 96
REMARK H PARENT 21 5 15 15 7 18 25 30 84 49 52 60
REMARK Flexibility Score: inf
ROOT
ATOM      1  C   UNL A   1      33.459  29.288  26.885  1.00  0.00     0.117 C 
ENDROOT
BRANCH   1   2
ATOM      2  N   UNL A   1      32.616  28.153  27.247  1.00  0.00    -0.354 N 
ATOM      3  C   UNL A   1      31.668  27.421  26.559  1.00  0.00     0.243 C 
ATOM      4  O   UNL A   1      31.261  26.424  27.173  1.00  0.00    -0.273 OA
ATOM      5  H   UNL A   1      32.752  27.845  28.173  1.00  0.00     0.163 HD
BRANCH   3   6
ATOM      6  C   UNL A   1      31.092  27.730  25.101  1.00  0.00     0.182 C 
ATOM      7  N   UNL A   1      31.861  27.419  23.830  1.00  0.00    -0.306 N 
ATOM      8  C   UNL A   1      31.176  27.641  22.542  1.00  0.00     0.180 C 
ATOM      9  C   UNL A   1      30.471  28.948  22.575  1.00  0.00     0.081 A 
ATOM     10  C   UNL A   1      30.664  29.242  25.094  1.00  0.00     0.091 C 
ATOM     11  N   UNL A   1      29.990  29.625  21.483  1.00  0.00    -0.240 NA
ATOM     12  C   UNL A   1      30.225  29.648  23.732  1.00  0.00     0.042 A 
ATOM     13  C   UNL A   1      29.501  30.744  21.974  1.00  0.00     0.197 A 
ATOM     14  N   UNL A   1      29.609  30.797  23.340  1.00  0.00    -0.348 N 
ATOM     15  H   UNL A   1      29.301  31.527  23.926  1.00  0.00     0.167 HD
BRANCH   7  16
ATOM     16  C   UNL A   1      33.221  27.588  23.705  1.00  0.00     0.318 C 
ATOM     17  N   UNL A   1      33.891  26.406  23.570  1.00  0.00    -0.335 N 
ATOM     18  H   UNL A   1      34.719  26.399  23.038  1.00  0.00     0.165 HD
ATOM     19  O   UNL A   1      33.783  28.644  23.434  1.00  0.00    -0.249 OA
BRANCH  17  20
ATOM     20  C   UNL A   1      33.448  25.163  24.164  1.00  0.00     0.083 C 
ATOM     21  C   UNL A   1      34.292  25.053  25.450  1.00  0.00     0.031 C 
BRANCH  20  22
ATOM     22  C   UNL A   1      33.397  23.995  23.146  1.00  0.00     0.053 C 
BRANCH  22  23
ATOM     23  C   UNL A   1      34.440  22.825  23.283  1.00  0.00     0.162 C 
BRANCH  23  24
ATOM     24  O   UNL A   1      35.737  23.107  22.762  1.00  0.00    -0.385 OA
ATOM     25  C   UNL A   1      36.824  22.876  23.664  1.00  0.00     0.194 C 
ENDBRANCH  23  24
ENDBRANCH  22  23
ENDBRANCH  20  22
ENDBRANCH  17  20
ENDBRANCH   7  16
ENDBRANCH   3   6
ENDBRANCH   1   2
BRANCH   1  26
ATOM     26  C   UNL A   1      34.984  29.171  27.100  1.00  0.00     0.042 C 
BRANCH  26  27
ATOM     27  C   UNL A   1      35.725  30.360  27.663  1.00  0.00     0.118 C 
BRANCH  27  28
ATOM     28  N   UNL A   1      35.979  30.208  29.112  1.00  0.00    -0.352 N 
ATOM     29  C   UNL A   1      36.891  29.365  29.758  1.00  0.00     0.251 C 
ATOM     30  H   UNL A   1      35.434  30.776  29.702  1.00  0.00     0.163 HD
ATOM     31  O   UNL A   1      36.783  29.113  30.937  1.00  0.00    -0.269 OA
BRANCH  29  32
ATOM     32  C   UNL A   1      37.973  28.788  28.927  1.00  0.00     0.039 A 
ATOM     33  C   UNL A   1      38.561  29.453  27.852  1.00  0.00     0.014 A 
ATOM     34  C   UNL A   1      38.534  27.632  29.430  1.00  0.00     0.014 A 
ATOM     35  C   UNL A   1      39.812  29.007  27.418  1.00  0.00     0.010 A 
ATOM     36  C   UNL A   1      39.874  27.473  29.270  1.00  0.00     0.010 A 
ATOM     37  C   UNL A   1      40.505  28.052  28.190  1.00  0.00    -0.014 A 
BRANCH  37  38
ATOM     38  C   UNL A   1      41.922  27.730  28.016  1.00  0.00     0.031 A 
ATOM     39  C   UNL A   1      42.142  26.476  27.263  1.00  0.00     0.074 A 
ATOM     40  C   UNL A   1      42.953  28.560  28.320  1.00  0.00     0.049 A 
ATOM     41  N   UNL A   1      42.294  25.302  27.775  1.00  0.00    -0.248 NA
ATOM     42  C   UNL A   1      41.914  26.458  25.809  1.00  0.00     0.031 C 
ATOM     43  C   UNL A   1      42.918  29.946  28.813  1.00  0.00     0.029 A 
ATOM     44  N   UNL A   1      44.292  28.352  28.180  1.00  0.00    -0.354 N 
ATOM     45  C   UNL A   1      42.541  24.464  26.700  1.00  0.00     0.074 A 
ATOM     46  C   UNL A   1      41.999  25.148  25.558  1.00  0.00     0.031 C 
ATOM     47  C   UNL A   1      44.140  30.515  28.711  1.00  0.00     0.029 A 
ATOM     48  C   UNL A   1      45.094  29.483  28.353  1.00  0.00     0.049 A 
ATOM     49  H   UNL A   1      44.669  27.467  27.971  1.00  0.00     0.167 HD
ATOM     50  C   UNL A   1      43.463  23.467  26.816  1.00  0.00     0.034 A 
ATOM     51  C   UNL A   1      46.452  29.569  28.277  1.00  0.00     0.034 A 
ATOM     52  C   UNL A   1      43.818  23.268  28.215  1.00  0.00     0.049 A 
ATOM     53  C   UNL A   1      46.963  28.205  28.543  1.00  0.00     0.074 A 
ATOM     54  C   UNL A   1      43.095  23.024  29.370  1.00  0.00     0.029 A 
ATOM     55  N   UNL A   1      45.032  23.761  28.651  1.00  0.00    -0.354 N 
ATOM     56  N   UNL A   1      46.826  27.612  29.698  1.00  0.00    -0.248 NA
ATOM     57  C   UNL A   1      47.143  27.315  27.408  1.00  0.00     0.031 C 
ATOM     58  C   UNL A   1      43.690  23.862  30.363  1.00  0.00     0.029 A 
ATOM     59  C   UNL A   1      44.819  24.471  29.809  1.00  0.00     0.049 A 
ATOM     60  H   UNL A   1      45.902  23.626  28.208  1.00  0.00     0.167 HD
ATOM     61  C   UNL A   1      46.432  26.320  29.388  1.00  0.00     0.074 A 
ATOM     62  C   UNL A   1      46.746  26.165  27.966  1.00  0.00     0.031 C 
ATOM     63  C   UNL A   1      45.626  25.605  30.230  1.00  0.00     0.034 A 
BRANCH  50  64
ATOM     64  C   UNL A   1      44.355  22.980  25.690  1.00  0.00     0.023 A 
ATOM     65  C   UNL A   1      44.422  21.587  25.503  1.00  0.00     0.031 A 
ATOM     66  C   UNL A   1      45.330  23.733  24.995  1.00  0.00     0.131 A 
ATOM     67  C   UNL A   1      45.482  21.001  24.791  1.00  0.00     0.055 A 
ATOM     68  C   UNL A   1      46.346  23.148  24.233  1.00  0.00     0.041 A 
ATOM     69  F   UNL A   1      45.418  25.065  25.067  1.00  0.00    -0.206 F 
ATOM     70  C   UNL A   1      46.449  21.772  24.157  1.00  0.00     0.022 A 
BRANCH  67  71
ATOM     71  S   UNL A   1      45.666  19.204  24.875  1.00  0.00     0.124 S 
ATOM     72  O   UNL A   1      46.939  19.080  25.576  1.00  0.00    -0.237 OA
ATOM     73  O   UNL A   1      44.476  18.817  25.626  1.00  0.00    -0.237 OA
ATOM     74  O   UNL A   1      45.677  18.800  23.472  1.00  0.00    -0.744 OA
ENDBRANCH  67  71
ENDBRANCH  50  64
BRANCH  51  75
ATOM     75  C   UNL A   1      47.298  30.664  27.720  1.00  0.00     0.023 A 
ATOM     76  C   UNL A   1      46.765  31.763  27.003  1.00  0.00     0.031 A 
ATOM     77  C   UNL A   1      48.638  30.783  28.147  1.00  0.00     0.131 A 
ATOM     78  C   UNL A   1      47.554  32.917  26.765  1.00  0.00     0.055 A 
ATOM     79  C   UNL A   1      49.409  31.927  27.918  1.00  0.00     0.041 A 
ATOM     80  F   UNL A   1      49.217  29.823  28.886  1.00  0.00    -0.206 F 
ATOM     81  C   UNL A   1      48.865  33.005  27.238  1.00  0.00     0.022 A 
BRANCH  78  82
ATOM     82  S   UNL A   1      46.856  34.377  25.917  1.00  0.00     0.124 S 
ATOM     83  O   UNL A   1      46.571  35.275  27.030  1.00  0.00    -0.237 OA
ATOM     84  O   UNL A   1      47.937  34.773  25.023  1.00  0.00    -0.237 OA
ATOM     85  O   UNL A   1      45.671  33.846  25.241  1.00  0.00    -0.744 OA
ENDBRANCH  78  82
ENDBRANCH  51  75
BRANCH  63  86
ATOM     86  C   UNL A   1      45.432  26.119  31.651  1.00  0.00     0.023 A 
ATOM     87  C   UNL A   1      44.308  26.840  32.127  1.00  0.00     0.031 A 
ATOM     88  C   UNL A   1      46.426  25.788  32.589  1.00  0.00     0.131 A 
ATOM     89  C   UNL A   1      44.229  27.218  33.485  1.00  0.00     0.055 A 
ATOM     90  C   UNL A   1      46.333  26.142  33.935  1.00  0.00     0.041 A 
ATOM     91  F   UNL A   1      47.511  25.090  32.216  1.00  0.00    -0.206 F 
ATOM     92  C   UNL A   1      45.239  26.867  34.387  1.00  0.00     0.022 A 
BRANCH  89  93
ATOM     93  S   UNL A   1      42.834  28.216  34.107  1.00  0.00     0.124 S 
ATOM     94  O   UNL A   1      41.878  27.222  34.578  1.00  0.00    -0.237 OA
ATOM     95  O   UNL A   1      43.465  29.032  35.141  1.00  0.00    -0.237 OA
ATOM     96  O   UNL A   1      42.401  28.967  32.925  1.00  0.00    -0.744 OA
ENDBRANCH  89  93
ENDBRANCH  63  86
ENDBRANCH  37  38
ENDBRANCH  29  32
ENDBRANCH  27  28
ENDBRANCH  26  27
ENDBRANCH   1  26
TORSDOF 18
ENDMDL
MODEL 2
REMARK VINA RESULT:     -11.9      1.522      3.308
REMARK SMILES COCC[C@@H](C)NC(=O)N1Cc2nc[nH]c2C[C@@H]1C(=O)NCCCNC(=O)c1ccc(-c2c3nc(c(-c4cc(S(=O)(=O)[O-])ccc4F)c4ccc([nH]4)c(-c4cc(S(=O)(=O)[O-])ccc4F)c4nc(c(-c5cc(S(=O)(=O)[O-])ccc5F)c5ccc2[nH]5)C=C4)C=C3)cc1
REMARK SMILES IDX 22 1 21 2 19 3 20 4 18 6 10 7 11 8 12 9 17 10 13 11 16 12
REMARK SMILES IDX 14 13 15 14 8 16 7 17 9 19 5 20 6 21 4 22 3 23 2 24 1 25
REMARK SMILES IDX 23 26 24 27 25 28 26 29 27 31 28 32 29 33 90 34 30 35 89 36
REMARK SMILES IDX 31 37 32 38 33 39 83 40 34 41 88 42 82 43 84 44 35 45 87 46
REMARK SMILES IDX 81 47 80 48 36 50 68 51 48 52 67 53 49 54 52 55 66 56 85 57
REMARK SMILES IDX 50 58 51 59 65 61 86 62 53 63 37 64 38 65 46 66 39 67 45 68
REMARK SMILES IDX 47 69 44 70 40 71 41 72 42 73 43 74 69 75 70 76 78 77 71 78
REMARK SMILES IDX 77 79 79 80 76 81 72 82 73 83 74 84 75 85 54 86 55 87 63 88
REMARK SMILES IDX 56 89 62 90 64 91 61 92 57 93 58 94 59 95 60 96
REMARK H PARENT 21 5 15 15 7 18 25 30 84 49 52 60
REMARK Flexibility Score: inf
ROOT
ATOM      1  C   UNL A   1      33.003  30.293  26.834  1.00  0.00     0.117 C 
ENDROOT
BRANCH   1   2
ATOM      2  N   UNL A   1      32.113  29.209  27.235  1.00  0.00    -0.354 N 
ATOM      3  C   UNL A   1      31.900  27.933  26.750  1.00  0.00     0.243 C 
ATOM      4  O   UNL A   1      31.147  27.247  27.457  1.00  0.00    -0.273 OA
ATOM      5  H   UNL A   1      31.549  29.433  28.010  1.00  0.00     0.163 HD
BRANCH   3   6
ATOM      6  C   UNL A   1      32.526  27.292  25.427  1.00  0.00     0.182 C 
ATOM      7  N   UNL A   1      31.808  27.302  24.090  1.00  0.00    -0.306 N 
ATOM      8  C   UNL A   1      32.538  26.786  22.915  1.00  0.00     0.180 C 
ATOM      9  C   UNL A   1      33.226  25.520  23.277  1.00  0.00     0.081 A 
ATOM     10  C   UNL A   1      32.936  25.819  25.787  1.00  0.00     0.091 C 
ATOM     11  N   UNL A   1      33.739  24.607  22.392  1.00  0.00    -0.240 NA
ATOM     12  C   UNL A   1      33.421  25.107  24.574  1.00  0.00     0.042 A 
ATOM     13  C   UNL A   1      34.197  23.631  23.147  1.00  0.00     0.197 A 
ATOM     14  N   UNL A   1      34.037  23.896  24.484  1.00  0.00    -0.348 N 
ATOM     15  H   UNL A   1      34.314  23.322  25.233  1.00  0.00     0.167 HD
BRANCH   7  16
ATOM     16  C   UNL A   1      30.452  27.112  23.955  1.00  0.00     0.318 C 
ATOM     17  N   UNL A   1      29.878  27.997  23.087  1.00  0.00    -0.335 N 
ATOM     18  H   UNL A   1      29.092  27.701  22.573  1.00  0.00     0.165 HD
ATOM     19  O   UNL A   1      29.838  26.108  24.299  1.00  0.00    -0.249 OA
BRANCH  17  20
ATOM     20  C   UNL A   1      30.364  29.345  22.881  1.00  0.00     0.083 C 
ATOM     21  C   UNL A   1      30.122  30.032  24.239  1.00  0.00     0.031 C 
BRANCH  20  22
ATOM     22  C   UNL A   1      29.839  29.977  21.566  1.00  0.00     0.053 C 
BRANCH  22  23
ATOM     23  C   UNL A   1      28.306  30.314  21.448  1.00  0.00     0.162 C 
BRANCH  23  24
ATOM     24  O   UNL A   1      28.000  31.704  21.347  1.00  0.00    -0.385 OA
ATOM     25  C   UNL A   1      28.379  32.498  22.476  1.00  0.00     0.194 C 
ENDBRANCH  23  24
ENDBRANCH  22  23
ENDBRANCH  20  22
ENDBRANCH  17  20
ENDBRANCH   7  16
ENDBRANCH   3   6
ENDBRANCH   1   2
BRANCH   1  26
ATOM     26  C   UNL A   1      34.493  29.970  26.586  1.00  0.00     0.042 C 
BRANCH  26  27
ATOM     27  C   UNL A   1      35.210  29.077  27.570  1.00  0.00     0.118 C 
BRANCH  27  28
ATOM     28  N   UNL A   1      35.690  29.836  28.745  1.00  0.00    -0.352 N 
ATOM     29  C   UNL A   1      36.902  29.713  29.433  1.00  0.00     0.251 C 
ATOM     30  H   UNL A   1      35.073  30.522  29.090  1.00  0.00     0.163 HD
ATOM     31  O   UNL A   1      37.039  30.168  30.547  1.00  0.00    -0.269 OA
BRANCH  29  32
ATOM     32  C   UNL A   1      37.992  28.986  28.741  1.00  0.00     0.039 A 
ATOM     33  C   UNL A   1      38.758  29.535  27.714  1.00  0.00     0.014 A 
ATOM     34  C   UNL A   1      38.366  27.800  29.340  1.00  0.00     0.014 A 
ATOM     35  C   UNL A   1      39.989  28.938  27.431  1.00  0.00     0.010 A 
ATOM     36  C   UNL A   1      39.689  27.490  29.329  1.00  0.00     0.010 A 
ATOM     37  C   UNL A   1      40.488  27.949  28.304  1.00  0.00    -0.014 A 
BRANCH  37  38
ATOM     38  C   UNL A   1      41.871  27.469  28.292  1.00  0.00     0.031 A 
ATOM     39  C   UNL A   1      42.076  26.318  27.387  1.00  0.00     0.074 A 
ATOM     40  C   UNL A   1      42.920  28.101  28.878  1.00  0.00     0.049 A 
ATOM     41  N   UNL A   1      42.010  25.072  27.717  1.00  0.00    -0.248 NA
ATOM     42  C   UNL A   1      42.094  26.539  25.932  1.00  0.00     0.031 C 
ATOM     43  C   UNL A   1      42.954  29.394  29.580  1.00  0.00     0.029 A 
ATOM     44  N   UNL A   1      44.233  27.738  28.907  1.00  0.00    -0.354 N 
ATOM     45  C   UNL A   1      42.341  24.372  26.568  1.00  0.00     0.074 A 
ATOM     46  C   UNL A   1      42.076  25.279  25.486  1.00  0.00     0.031 C 
ATOM     47  C   UNL A   1      44.231  29.802  29.755  1.00  0.00     0.029 A 
ATOM     48  C   UNL A   1      45.113  28.715  29.380  1.00  0.00     0.049 A 
ATOM     49  H   UNL A   1      44.540  26.849  28.615  1.00  0.00     0.167 HD
ATOM     50  C   UNL A   1      43.116  23.254  26.657  1.00  0.00     0.034 A 
ATOM     51  C   UNL A   1      46.465  28.628  29.522  1.00  0.00     0.034 A 
ATOM     52  C   UNL A   1      43.208  22.811  28.042  1.00  0.00     0.049 A 
ATOM     53  C   UNL A   1      46.772  27.184  29.635  1.00  0.00     0.074 A 
ATOM     54  C   UNL A   1      42.278  22.503  29.021  1.00  0.00     0.029 A 
ATOM     55  N   UNL A   1      44.378  23.070  28.728  1.00  0.00    -0.354 N 
ATOM     56  N   UNL A   1      46.379  26.455  30.644  1.00  0.00    -0.248 NA
ATOM     57  C   UNL A   1      47.042  26.450  28.410  1.00  0.00     0.031 C 
ATOM     58  C   UNL A   1      42.787  23.102  30.214  1.00  0.00     0.029 A 
ATOM     59  C   UNL A   1      44.052  23.628  29.941  1.00  0.00     0.049 A 
ATOM     60  H   UNL A   1      45.289  22.885  28.404  1.00  0.00     0.167 HD
ATOM     61  C   UNL A   1      45.905  25.285  30.073  1.00  0.00     0.074 A 
ATOM     62  C   UNL A   1      46.434  25.296  28.707  1.00  0.00     0.031 C 
ATOM     63  C   UNL A   1      44.895  24.572  30.657  1.00  0.00     0.034 A 
BRANCH  50  64
ATOM     64  C   UNL A   1      44.126  22.819  25.612  1.00  0.00     0.023 A 
ATOM     65  C   UNL A   1      44.185  21.441  25.335  1.00  0.00     0.031 A 
ATOM     66  C   UNL A   1      45.192  23.589  25.092  1.00  0.00     0.131 A 
ATOM     67  C   UNL A   1      45.310  20.874  24.714  1.00  0.00     0.055 A 
ATOM     68  C   UNL A   1      46.279  23.027  24.415  1.00  0.00     0.041 A 
ATOM     69  F   UNL A   1      45.299  24.909  25.268  1.00  0.00    -0.206 F 
ATOM     70  C   UNL A   1      46.363  21.657  24.255  1.00  0.00     0.022 A 
BRANCH  67  71
ATOM     71  S   UNL A   1      45.445  19.071  24.691  1.00  0.00     0.124 S 
ATOM     72  O   UNL A   1      46.619  18.862  25.532  1.00  0.00    -0.237 OA
ATOM     73  O   UNL A   1      44.164  18.669  25.261  1.00  0.00    -0.237 OA
ATOM     74  O   UNL A   1      45.623  18.763  23.275  1.00  0.00    -0.744 OA
ENDBRANCH  67  71
ENDBRANCH  50  64
BRANCH  51  75
ATOM     75  C   UNL A   1      47.508  29.669  29.284  1.00  0.00     0.023 A 
ATOM     76  C   UNL A   1      47.448  30.588  28.208  1.00  0.00     0.031 A 
ATOM     77  C   UNL A   1      48.443  29.952  30.302  1.00  0.00     0.131 A 
ATOM     78  C   UNL A   1      48.280  31.737  28.198  1.00  0.00     0.055 A 
ATOM     79  C   UNL A   1      49.253  31.091  30.292  1.00  0.00     0.041 A 
ATOM     80  F   UNL A   1      48.534  29.176  31.394  1.00  0.00    -0.206 F 
ATOM     81  C   UNL A   1      49.165  31.997  29.246  1.00  0.00     0.022 A 
BRANCH  78  82
ATOM     82  S   UNL A   1      48.156  32.977  26.863  1.00  0.00     0.124 S 
ATOM     83  O   UNL A   1      46.895  32.620  26.222  1.00  0.00    -0.237 OA
ATOM     84  O   UNL A   1      48.178  34.237  27.596  1.00  0.00    -0.237 OA
ATOM     85  O   UNL A   1      49.347  32.725  26.050  1.00  0.00    -0.744 OA
ENDBRANCH  78  82
ENDBRANCH  51  75
BRANCH  63  86
ATOM     86  C   UNL A   1      44.523  24.897  32.098  1.00  0.00     0.023 A 
ATOM     87  C   UNL A   1      43.921  26.099  32.548  1.00  0.00     0.031 A 
ATOM     88  C   UNL A   1      44.734  23.887  33.054  1.00  0.00     0.131 A 
ATOM     89  C   UNL A   1      43.581  26.257  33.910  1.00  0.00     0.055 A 
ATOM     90  C   UNL A   1      44.374  24.038  34.394  1.00  0.00     0.041 A 
ATOM     91  F   UNL A   1      45.282  22.714  32.698  1.00  0.00    -0.206 F 
ATOM     92  C   UNL A   1      43.805  25.227  34.829  1.00  0.00     0.022 A 
BRANCH  89  93
ATOM     93  S   UNL A   1      42.881  27.823  34.531  1.00  0.00     0.124 S 
ATOM     94  O   UNL A   1      43.755  28.178  35.643  1.00  0.00    -0.237 OA
ATOM     95  O   UNL A   1      42.959  28.692  33.359  1.00  0.00    -0.237 OA
ATOM     96  O   UNL A   1      41.517  27.455  34.921  1.00  0.00    -0.744 OA
ENDBRANCH  89  93
ENDBRANCH  63  86
ENDBRANCH  37  38
ENDBRANCH  29  32
ENDBRANCH  27  28
ENDBRANCH  26  27
ENDBRANCH   1  26
TORSDOF 18
ENDMDL
MODEL 3
REMARK VINA RESULT:     -11.9      3.549      8.827
REMARK SMILES COCC[C@@H](C)NC(=O)N1Cc2nc[nH]c2C[C@@H]1C(=O)NCCCNC(=O)c1ccc(-c2c3nc(c(-c4cc(S(=O)(=O)[O-])ccc4F)c4ccc([nH]4)c(-c4cc(S(=O)(=O)[O-])ccc4F)c4nc(c(-c5cc(S(=O)(=O)[O-])ccc5F)c5ccc2[nH]5)C=C4)C=C3)cc1
REMARK SMILES IDX 22 1 21 2 19 3 20 4 18 6 10 7 11 8 12 9 17 10 13 11 16 12
REMARK SMILES IDX 14 13 15 14 8 16 7 17 9 19 5 20 6 21 4 22 3 23 2 24 1 25
REMARK SMILES IDX 23 26 24 27 25 28 26 29 27 31 28 32 29 33 90 34 30 35 89 36
REMARK SMILES IDX 31 37 32 38 33 39 83 40 34 41 88 42 82 43 84 44 35 45 87 46
REMARK SMILES IDX 81 47 80 48 36 50 68 51 48 52 67 53 49 54 52 55 66 56 85 57
REMARK SMILES IDX 50 58 51 59 65 61 86 62 53 63 37 64 38 65 46 66 39 67 45 68
REMARK SMILES IDX 47 69 44 70 40 71 41 72 42 73 43 74 69 75 70 76 78 77 71 78
REMARK SMILES IDX 77 79 79 80 76 81 72 82 73 83 74 84 75 85 54 86 55 87 63 88
REMARK SMILES IDX 56 89 62 90 64 91 61 92 57 93 58 94 59 95 60 96
REMARK H PARENT 21 5 15 15 7 18 25 30 84 49 52 60
REMARK Flexibility Score: inf
ROOT
ATOM      1  C   UNL A   1      37.415  22.257  25.604  1.00  0.00     0.117 C 
ENDROOT
BRANCH   1   2
ATOM      2  N   UNL A   1      36.831  22.914  24.439  1.00  0.00    -0.354 N 
ATOM      3  C   UNL A   1      35.603  22.816  23.815  1.00  0.00     0.243 C 
ATOM      4  O   UNL A   1      35.426  23.654  22.920  1.00  0.00    -0.273 OA
ATOM      5  H   UNL A   1      37.438  23.560  24.010  1.00  0.00     0.163 HD
BRANCH   3   6
ATOM      6  C   UNL A   1      34.440  21.771  24.147  1.00  0.00     0.182 C 
ATOM      7  N   UNL A   1      33.411  22.005  25.237  1.00  0.00    -0.306 N 
ATOM      8  C   UNL A   1      32.316  21.023  25.370  1.00  0.00     0.180 C 
ATOM      9  C   UNL A   1      32.871  19.648  25.281  1.00  0.00     0.081 A 
ATOM     10  C   UNL A   1      35.134  20.379  24.375  1.00  0.00     0.091 C 
ATOM     11  N   UNL A   1      32.225  18.499  25.658  1.00  0.00    -0.240 NA
ATOM     12  C   UNL A   1      34.131  19.368  24.809  1.00  0.00     0.042 A 
ATOM     13  C   UNL A   1      33.105  17.540  25.457  1.00  0.00     0.197 A 
ATOM     14  N   UNL A   1      34.276  18.020  24.929  1.00  0.00    -0.348 N 
ATOM     15  H   UNL A   1      35.070  17.491  24.684  1.00  0.00     0.167 HD
BRANCH   7  16
ATOM     16  C   UNL A   1      33.707  22.585  26.449  1.00  0.00     0.318 C 
ATOM     17  N   UNL A   1      33.111  23.802  26.613  1.00  0.00    -0.335 N 
ATOM     18  H   UNL A   1      32.862  24.080  27.524  1.00  0.00     0.165 HD
ATOM     19  O   UNL A   1      34.183  22.002  27.418  1.00  0.00    -0.249 OA
BRANCH  17  20
ATOM     20  C   UNL A   1      32.823  24.706  25.519  1.00  0.00     0.083 C 
ATOM     21  C   UNL A   1      33.593  25.988  25.893  1.00  0.00     0.031 C 
BRANCH  20  22
ATOM     22  C   UNL A   1      31.314  24.759  25.167  1.00  0.00     0.053 C 
BRANCH  22  23
ATOM     23  C   UNL A   1      30.262  24.763  26.337  1.00  0.00     0.162 C 
BRANCH  23  24
ATOM     24  O   UNL A   1      30.395  23.695  27.273  1.00  0.00    -0.385 OA
ATOM     25  C   UNL A   1      29.346  22.722  27.245  1.00  0.00     0.194 C 
ENDBRANCH  23  24
ENDBRANCH  22  23
ENDBRANCH  20  22
ENDBRANCH  17  20
ENDBRANCH   7  16
ENDBRANCH   3   6
ENDBRANCH   1   2
BRANCH   1  26
ATOM     26  C   UNL A   1      38.487  21.168  25.375  1.00  0.00     0.042 C 
BRANCH  26  27
ATOM     27  C   UNL A   1      39.521  20.939  26.450  1.00  0.00     0.118 C 
BRANCH  27  28
ATOM     28  N   UNL A   1      40.489  19.890  26.061  1.00  0.00    -0.352 N 
ATOM     29  C   UNL A   1      41.863  20.008  25.827  1.00  0.00     0.251 C 
ATOM     30  H   UNL A   1      40.115  18.985  25.951  1.00  0.00     0.163 HD
ATOM     31  O   UNL A   1      42.471  19.154  25.221  1.00  0.00    -0.269 OA
BRANCH  29  32
ATOM     32  C   UNL A   1      42.525  21.231  26.339  1.00  0.00     0.039 A 
ATOM     33  C   UNL A   1      42.691  22.393  25.587  1.00  0.00     0.014 A 
ATOM     34  C   UNL A   1      42.763  21.233  27.699  1.00  0.00     0.014 A 
ATOM     35  C   UNL A   1      42.940  23.583  26.276  1.00  0.00     0.010 A 
ATOM     36  C   UNL A   1      42.607  22.414  28.353  1.00  0.00     0.010 A 
ATOM     37  C   UNL A   1      42.820  23.599  27.681  1.00  0.00    -0.014 A 
BRANCH  37  38
ATOM     38  C   UNL A   1      42.759  24.822  28.484  1.00  0.00     0.031 A 
ATOM     39  C   UNL A   1      41.526  25.605  28.251  1.00  0.00     0.074 A 
ATOM     40  C   UNL A   1      43.617  25.139  29.487  1.00  0.00     0.049 A 
ATOM     41  N   UNL A   1      41.389  26.567  27.402  1.00  0.00    -0.248 NA
ATOM     42  C   UNL A   1      40.250  25.125  28.805  1.00  0.00     0.031 C 
ATOM     43  C   UNL A   1      44.730  24.354  30.043  1.00  0.00     0.029 A 
ATOM     44  N   UNL A   1      43.629  26.240  30.290  1.00  0.00    -0.354 N 
ATOM     45  C   UNL A   1      40.100  27.039  27.591  1.00  0.00     0.074 A 
ATOM     46  C   UNL A   1      39.389  25.953  28.206  1.00  0.00     0.031 C 
ATOM     47  C   UNL A   1      45.147  24.890  31.213  1.00  0.00     0.029 A 
ATOM     48  C   UNL A   1      44.489  26.169  31.389  1.00  0.00     0.049 A 
ATOM     49  H   UNL A   1      43.069  27.030  30.109  1.00  0.00     0.167 HD
ATOM     50  C   UNL A   1      39.854  28.379  27.534  1.00  0.00     0.034 A 
ATOM     51  C   UNL A   1      44.707  27.114  32.346  1.00  0.00     0.034 A 
ATOM     52  C   UNL A   1      40.996  29.078  26.959  1.00  0.00     0.049 A 
ATOM     53  C   UNL A   1      44.329  28.409  31.735  1.00  0.00     0.074 A 
ATOM     54  C   UNL A   1      41.720  28.945  25.786  1.00  0.00     0.029 A 
ATOM     55  N   UNL A   1      41.827  29.773  27.816  1.00  0.00    -0.354 N 
ATOM     56  N   UNL A   1      44.979  28.933  30.732  1.00  0.00    -0.248 NA
ATOM     57  C   UNL A   1      42.951  28.850  31.879  1.00  0.00     0.031 C 
ATOM     58  C   UNL A   1      43.087  29.085  26.179  1.00  0.00     0.029 A 
ATOM     59  C   UNL A   1      43.126  29.425  27.533  1.00  0.00     0.049 A 
ATOM     60  H   UNL A   1      41.538  30.409  28.510  1.00  0.00     0.167 HD
ATOM     61  C   UNL A   1      43.993  29.380  29.866  1.00  0.00     0.074 A 
ATOM     62  C   UNL A   1      42.769  29.397  30.671  1.00  0.00     0.031 C 
ATOM     63  C   UNL A   1      44.199  29.411  28.515  1.00  0.00     0.034 A 
BRANCH  50  64
ATOM     64  C   UNL A   1      38.814  29.102  28.368  1.00  0.00     0.023 A 
ATOM     65  C   UNL A   1      38.970  29.027  29.764  1.00  0.00     0.031 A 
ATOM     66  C   UNL A   1      37.568  29.601  27.922  1.00  0.00     0.131 A 
ATOM     67  C   UNL A   1      37.896  29.294  30.629  1.00  0.00     0.055 A 
ATOM     68  C   UNL A   1      36.523  29.929  28.791  1.00  0.00     0.041 A 
ATOM     69  F   UNL A   1      37.248  29.730  26.631  1.00  0.00    -0.206 F 
ATOM     70  C   UNL A   1      36.669  29.740  30.152  1.00  0.00     0.022 A 
BRANCH  67  71
ATOM     71  S   UNL A   1      38.088  28.862  32.374  1.00  0.00     0.124 S 
ATOM     72  O   UNL A   1      36.827  29.344  32.928  1.00  0.00    -0.237 OA
ATOM     73  O   UNL A   1      38.251  27.413  32.307  1.00  0.00    -0.237 OA
ATOM     74  O   UNL A   1      39.277  29.606  32.778  1.00  0.00    -0.744 OA
ENDBRANCH  67  71
ENDBRANCH  50  64
BRANCH  51  75
ATOM     75  C   UNL A   1      44.941  26.938  33.809  1.00  0.00     0.023 A 
ATOM     76  C   UNL A   1      43.891  26.892  34.758  1.00  0.00     0.031 A 
ATOM     77  C   UNL A   1      46.213  26.520  34.257  1.00  0.00     0.131 A 
ATOM     78  C   UNL A   1      44.133  26.422  36.074  1.00  0.00     0.055 A 
ATOM     79  C   UNL A   1      46.443  26.049  35.553  1.00  0.00     0.041 A 
ATOM     80  F   UNL A   1      47.260  26.469  33.418  1.00  0.00    -0.206 F 
ATOM     81  C   UNL A   1      45.400  25.983  36.463  1.00  0.00     0.022 A 
BRANCH  78  82
ATOM     82  S   UNL A   1      42.773  26.275  37.286  1.00  0.00     0.124 S 
ATOM     83  O   UNL A   1      42.223  24.960  36.978  1.00  0.00    -0.237 OA
ATOM     84  O   UNL A   1      43.468  26.406  38.561  1.00  0.00    -0.237 OA
ATOM     85  O   UNL A   1      41.896  27.398  36.953  1.00  0.00    -0.744 OA
ENDBRANCH  78  82
ENDBRANCH  51  75
BRANCH  63  86
ATOM     86  C   UNL A   1      45.624  29.258  28.000  1.00  0.00     0.023 A 
ATOM     87  C   UNL A   1      46.283  28.032  27.732  1.00  0.00     0.031 A 
ATOM     88  C   UNL A   1      46.323  30.441  27.699  1.00  0.00     0.131 A 
ATOM     89  C   UNL A   1      47.595  28.030  27.209  1.00  0.00     0.055 A 
ATOM     90  C   UNL A   1      47.610  30.435  27.160  1.00  0.00     0.041 A 
ATOM     91  F   UNL A   1      45.756  31.641  27.908  1.00  0.00    -0.206 F 
ATOM     92  C   UNL A   1      48.255  29.229  26.922  1.00  0.00     0.022 A 
BRANCH  89  93
ATOM     93  S   UNL A   1      48.497  26.468  26.932  1.00  0.00     0.124 S 
ATOM     94  O   UNL A   1      48.370  26.243  25.497  1.00  0.00    -0.237 OA
ATOM     95  O   UNL A   1      49.840  26.789  27.409  1.00  0.00    -0.237 OA
ATOM     96  O   UNL A   1      47.773  25.505  27.766  1.00  0.00    -0.744 OA
ENDBRANCH  89  93
ENDBRANCH  63  86
ENDBRANCH  37  38
ENDBRANCH  29  32
ENDBRANCH  27  28
ENDBRANCH  26  27
ENDBRANCH   1  26
TORSDOF 18
ENDMDL
