MODEL 1
REMARK VINA RESULT:     -12.4      0.000      0.000
REMARK SMILES C[C@H]1[C@H](C(=O)NCCCNC(=O)c2ccc(-c3c4nc(c(-c5cc(S(=O)(=O)[O-])ccc5F)c5ccc([nH]5)c(-c5cc(S(=O)(=O)[O-])ccc5F)c5nc(c(-c6cc(S(=O)(=O)[O-])ccc6F)c6ccc3[nH]6)C=C5)C=C4)cc2)CCN1c1ccc(C(N)=O)c(Cl)c1
REMARK SMILES IDX 8 1 7 2 6 3 4 4 5 5 3 7 1 8 2 9 78 10 76 11 77 12 79 13
REMARK SMILES IDX 80 14 88 15 81 16 86 17 82 18 87 19 83 20 84 21 85 22 9 25
REMARK SMILES IDX 10 26 11 27 12 29 13 30 14 31 75 32 15 33 74 34 16 35 17 36
REMARK SMILES IDX 18 37 68 38 19 39 73 40 67 41 69 42 20 43 72 44 66 45 65 46
REMARK SMILES IDX 21 48 53 49 33 50 52 51 34 52 37 53 51 54 70 55 35 56 36 57
REMARK SMILES IDX 50 59 71 60 38 61 22 62 23 63 31 64 24 65 30 66 32 67 29 68
REMARK SMILES IDX 25 69 26 70 27 71 28 72 54 73 55 74 63 75 56 76 62 77 64 78
REMARK SMILES IDX 61 79 57 80 58 81 59 82 60 83 39 84 40 85 48 86 41 87 47 88
REMARK SMILES IDX 49 89 46 90 42 91 43 92 44 93 45 94
REMARK H PARENT 6 6 84 23 84 24 10 28 69 47 37 58
REMARK Flexibility Score: inf
ROOT
ATOM      1  C   UNL A   1      32.217  28.098  27.164  1.00  0.00     0.042 C 
ENDROOT
BRANCH   1   2
ATOM      2  C   UNL A   1      31.620  27.273  26.032  1.00  0.00     0.117 C 
BRANCH   2   3
ATOM      3  N   UNL A   1      30.925  26.090  26.518  1.00  0.00    -0.356 N 
ATOM      4  C   UNL A   1      31.321  24.792  26.613  1.00  0.00     0.225 C 
ATOM      5  O   UNL A   1      30.503  23.980  27.055  1.00  0.00    -0.275 OA
ATOM      6  H   UNL A   1      30.008  26.259  26.834  1.00  0.00     0.163 HD
BRANCH   4   7
ATOM      7  C   UNL A   1      32.709  24.324  26.214  1.00  0.00     0.102 C 
ATOM      8  C   UNL A   1      33.916  22.546  27.544  1.00  0.00     0.032 C 
ATOM      9  C   UNL A   1      32.908  22.814  26.425  1.00  0.00     0.091 C 
ATOM     10  N   UNL A   1      33.442  22.334  25.148  1.00  0.00    -0.368 N 
ATOM     11  C   UNL A   1      33.064  24.628  24.759  1.00  0.00     0.037 C 
ATOM     12  C   UNL A   1      33.849  23.418  24.268  1.00  0.00     0.118 C 
BRANCH  10  13
ATOM     13  C   UNL A   1      33.494  21.020  24.752  1.00  0.00     0.038 A 
ATOM     14  C   UNL A   1      32.378  20.381  24.210  1.00  0.00     0.027 A 
ATOM     15  C   UNL A   1      34.644  20.243  24.908  1.00  0.00     0.047 A 
ATOM     16  C   UNL A   1      32.403  19.023  23.857  1.00  0.00     0.017 A 
ATOM     17  C   UNL A   1      34.680  18.871  24.599  1.00  0.00     0.055 A 
ATOM     18  C   UNL A   1      33.552  18.240  24.059  1.00  0.00     0.058 A 
ATOM     19  Cl  UNL A   1      36.177  18.078  24.953  1.00  0.00    -0.083 Cl
BRANCH  18  20
ATOM     20  C   UNL A   1      33.531  16.778  23.736  1.00  0.00     0.250 C 
ATOM     21  N   UNL A   1      32.884  15.925  24.590  1.00  0.00    -0.366 N 
ATOM     22  O   UNL A   1      34.076  16.294  22.751  1.00  0.00    -0.269 OA
ATOM     23  H   UNL A   1      32.435  16.278  25.391  1.00  0.00     0.159 HD
ATOM     24  H   UNL A   1      32.869  14.958  24.402  1.00  0.00     0.159 HD
ENDBRANCH  18  20
ENDBRANCH  10  13
ENDBRANCH   4   7
ENDBRANCH   2   3
ENDBRANCH   1   2
BRANCH   1  25
ATOM     25  C   UNL A   1      33.526  28.787  26.811  1.00  0.00     0.118 C 
BRANCH  25  26
ATOM     26  N   UNL A   1      33.449  30.231  26.957  1.00  0.00    -0.352 N 
ATOM     27  C   UNL A   1      34.248  31.095  27.666  1.00  0.00     0.251 C 
ATOM     28  H   UNL A   1      32.707  30.658  26.471  1.00  0.00     0.163 HD
ATOM     29  O   UNL A   1      33.860  32.248  27.842  1.00  0.00    -0.269 OA
BRANCH  27  30
ATOM     30  C   UNL A   1      35.543  30.647  28.228  1.00  0.00     0.039 A 
ATOM     31  C   UNL A   1      35.539  29.816  29.351  1.00  0.00     0.014 A 
ATOM     32  C   UNL A   1      36.759  31.064  27.681  1.00  0.00     0.014 A 
ATOM     33  C   UNL A   1      36.748  29.359  29.882  1.00  0.00     0.010 A 
ATOM     34  C   UNL A   1      37.956  30.526  28.146  1.00  0.00     0.010 A 
ATOM     35  C   UNL A   1      37.966  29.676  29.261  1.00  0.00    -0.014 A 
BRANCH  35  36
ATOM     36  C   UNL A   1      39.253  29.134  29.774  1.00  0.00     0.031 A 
ATOM     37  C   UNL A   1      39.927  29.768  30.963  1.00  0.00     0.074 A 
ATOM     38  C   UNL A   1      39.836  28.095  29.143  1.00  0.00     0.049 A 
ATOM     39  N   UNL A   1      41.067  29.463  31.530  1.00  0.00    -0.248 NA
ATOM     40  C   UNL A   1      39.243  30.917  31.577  1.00  0.00     0.031 C 
ATOM     41  C   UNL A   1      39.307  27.430  27.949  1.00  0.00     0.029 A 
ATOM     42  N   UNL A   1      40.998  27.416  29.410  1.00  0.00    -0.354 N 
ATOM     43  C   UNL A   1      41.237  30.381  32.561  1.00  0.00     0.074 A 
ATOM     44  C   UNL A   1      40.122  31.301  32.490  1.00  0.00     0.031 C 
ATOM     45  C   UNL A   1      40.121  26.419  27.611  1.00  0.00     0.029 A 
ATOM     46  C   UNL A   1      41.257  26.393  28.527  1.00  0.00     0.049 A 
ATOM     47  H   UNL A   1      41.591  27.640  30.164  1.00  0.00     0.167 HD
ATOM     48  C   UNL A   1      42.217  30.436  33.499  1.00  0.00     0.034 A 
ATOM     49  C   UNL A   1      42.297  25.539  28.453  1.00  0.00     0.034 A 
ATOM     50  C   UNL A   1      43.323  29.510  33.555  1.00  0.00     0.049 A 
ATOM     51  C   UNL A   1      43.390  25.638  29.486  1.00  0.00     0.074 A 
ATOM     52  C   UNL A   1      44.348  29.446  34.482  1.00  0.00     0.029 A 
ATOM     53  N   UNL A   1      43.557  28.490  32.638  1.00  0.00    -0.354 N 
ATOM     54  N   UNL A   1      43.509  26.480  30.488  1.00  0.00    -0.248 NA
ATOM     55  C   UNL A   1      44.482  24.661  29.387  1.00  0.00     0.031 C 
ATOM     56  C   UNL A   1      45.239  28.444  34.085  1.00  0.00     0.029 A 
ATOM     57  C   UNL A   1      44.726  27.817  32.961  1.00  0.00     0.049 A 
ATOM     58  H   UNL A   1      42.976  28.278  31.872  1.00  0.00     0.167 HD
ATOM     59  C   UNL A   1      44.677  26.116  31.153  1.00  0.00     0.074 A 
ATOM     60  C   UNL A   1      45.207  24.963  30.453  1.00  0.00     0.031 C 
ATOM     61  C   UNL A   1      45.258  26.680  32.243  1.00  0.00     0.034 A 
BRANCH  48  62
ATOM     62  C   UNL A   1      42.140  31.548  34.520  1.00  0.00     0.023 A 
ATOM     63  C   UNL A   1      41.213  31.517  35.580  1.00  0.00     0.031 A 
ATOM     64  C   UNL A   1      42.981  32.671  34.423  1.00  0.00     0.131 A 
ATOM     65  C   UNL A   1      41.093  32.617  36.442  1.00  0.00     0.055 A 
ATOM     66  C   UNL A   1      42.919  33.722  35.340  1.00  0.00     0.041 A 
ATOM     67  F   UNL A   1      43.871  32.774  33.423  1.00  0.00    -0.206 F 
ATOM     68  C   UNL A   1      41.959  33.707  36.348  1.00  0.00     0.022 A 
BRANCH  65  69
ATOM     69  S   UNL A   1      39.685  32.669  37.587  1.00  0.00     0.124 S 
ATOM     70  O   UNL A   1      40.342  32.436  38.871  1.00  0.00    -0.237 OA
ATOM     71  O   UNL A   1      39.155  34.010  37.374  1.00  0.00    -0.237 OA
ATOM     72  O   UNL A   1      38.829  31.577  37.126  1.00  0.00    -0.744 OA
ENDBRANCH  65  69
ENDBRANCH  48  62
BRANCH  49  73
ATOM     73  C   UNL A   1      42.368  24.530  27.356  1.00  0.00     0.023 A 
ATOM     74  C   UNL A   1      41.581  23.367  27.382  1.00  0.00     0.031 A 
ATOM     75  C   UNL A   1      43.256  24.698  26.278  1.00  0.00     0.131 A 
ATOM     76  C   UNL A   1      41.732  22.396  26.378  1.00  0.00     0.055 A 
ATOM     77  C   UNL A   1      43.357  23.761  25.249  1.00  0.00     0.041 A 
ATOM     78  F   UNL A   1      44.036  25.790  26.206  1.00  0.00    -0.206 F 
ATOM     79  C   UNL A   1      42.602  22.594  25.303  1.00  0.00     0.022 A 
BRANCH  76  80
ATOM     80  S   UNL A   1      40.846  20.823  26.550  1.00  0.00     0.124 S 
ATOM     81  O   UNL A   1      40.919  20.595  27.988  1.00  0.00    -0.237 OA
ATOM     82  O   UNL A   1      39.527  21.154  26.020  1.00  0.00    -0.237 OA
ATOM     83  O   UNL A   1      41.629  19.898  25.732  1.00  0.00    -0.744 OA
ENDBRANCH  76  80
ENDBRANCH  49  73
BRANCH  61  84
ATOM     84  C   UNL A   1      46.517  26.026  32.762  1.00  0.00     0.023 A 
ATOM     85  C   UNL A   1      46.476  24.972  33.691  1.00  0.00     0.031 A 
ATOM     86  C   UNL A   1      47.779  26.485  32.342  1.00  0.00     0.131 A 
ATOM     87  C   UNL A   1      47.670  24.463  34.226  1.00  0.00     0.055 A 
ATOM     88  C   UNL A   1      48.964  25.923  32.821  1.00  0.00     0.041 A 
ATOM     89  F   UNL A   1      47.883  27.492  31.460  1.00  0.00    -0.206 F 
ATOM     90  C   UNL A   1      48.914  24.918  33.782  1.00  0.00     0.022 A 
BRANCH  87  91
ATOM     91  S   UNL A   1      47.574  23.284  35.602  1.00  0.00     0.124 S 
ATOM     92  O   UNL A   1      48.575  23.810  36.523  1.00  0.00    -0.237 OA
ATOM     93  O   UNL A   1      46.184  23.416  36.029  1.00  0.00    -0.237 OA
ATOM     94  O   UNL A   1      47.912  22.004  34.981  1.00  0.00    -0.744 OA
ENDBRANCH  87  91
ENDBRANCH  61  84
ENDBRANCH  35  36
ENDBRANCH  27  30
ENDBRANCH  25  26
ENDBRANCH   1  25
TORSDOF 15
ENDMDL
MODEL 2
REMARK VINA RESULT:     -12.3      5.874      9.040
REMARK SMILES C[C@H]1[C@H](C(=O)NCCCNC(=O)c2ccc(-c3c4nc(c(-c5cc(S(=O)(=O)[O-])ccc5F)c5ccc([nH]5)c(-c5cc(S(=O)(=O)[O-])ccc5F)c5nc(c(-c6cc(S(=O)(=O)[O-])ccc6F)c6ccc3[nH]6)C=C5)C=C4)cc2)CCN1c1ccc(C(N)=O)c(Cl)c1
REMARK SMILES IDX 8 1 7 2 6 3 4 4 5 5 3 7 1 8 2 9 78 10 76 11 77 12 79 13
REMARK SMILES IDX 80 14 88 15 81 16 86 17 82 18 87 19 83 20 84 21 85 22 9 25
REMARK SMILES IDX 10 26 11 27 12 29 13 30 14 31 75 32 15 33 74 34 16 35 17 36
REMARK SMILES IDX 18 37 68 38 19 39 73 40 67 41 69 42 20 43 72 44 66 45 65 46
REMARK SMILES IDX 21 48 53 49 33 50 52 51 34 52 37 53 51 54 70 55 35 56 36 57
REMARK SMILES IDX 50 59 71 60 38 61 22 62 23 63 31 64 24 65 30 66 32 67 29 68
REMARK SMILES IDX 25 69 26 70 27 71 28 72 54 73 55 74 63 75 56 76 62 77 64 78
REMARK SMILES IDX 61 79 57 80 58 81 59 82 60 83 39 84 40 85 48 86 41 87 47 88
REMARK SMILES IDX 49 89 46 90 42 91 43 92 44 93 45 94
REMARK H PARENT 6 6 84 23 84 24 10 28 69 47 37 58
REMARK Flexibility Score: inf
ROOT
ATOM      1  C   UNL A   1      38.035  19.795  25.030  1.00  0.00     0.042 C 
ENDROOT
BRANCH   1   2
ATOM      2  C   UNL A   1      36.818  20.710  25.003  1.00  0.00     0.117 C 
BRANCH   2   3
ATOM      3  N   UNL A   1      36.946  21.770  24.014  1.00  0.00    -0.356 N 
ATOM      4  C   UNL A   1      36.059  22.705  23.580  1.00  0.00     0.225 C 
ATOM      5  O   UNL A   1      36.439  23.484  22.702  1.00  0.00    -0.275 OA
ATOM      6  H   UNL A   1      37.830  21.819  23.584  1.00  0.00     0.163 HD
BRANCH   4   7
ATOM      7  C   UNL A   1      34.652  22.827  24.140  1.00  0.00     0.102 C 
ATOM      8  C   UNL A   1      34.101  24.541  25.913  1.00  0.00     0.032 C 
ATOM      9  C   UNL A   1      34.248  24.285  24.412  1.00  0.00     0.091 C 
ATOM     10  N   UNL A   1      32.949  24.433  23.751  1.00  0.00    -0.368 N 
ATOM     11  C   UNL A   1      33.579  22.221  23.237  1.00  0.00     0.037 C 
ATOM     12  C   UNL A   1      32.383  23.160  23.336  1.00  0.00     0.118 C 
BRANCH  10  13
ATOM     13  C   UNL A   1      32.337  25.628  23.462  1.00  0.00     0.038 A 
ATOM     14  C   UNL A   1      33.079  26.759  23.117  1.00  0.00     0.027 A 
ATOM     15  C   UNL A   1      30.952  25.790  23.537  1.00  0.00     0.047 A 
ATOM     16  C   UNL A   1      32.468  27.999  22.877  1.00  0.00     0.017 A 
ATOM     17  C   UNL A   1      30.321  27.032  23.340  1.00  0.00     0.055 A 
ATOM     18  C   UNL A   1      31.078  28.161  22.998  1.00  0.00     0.058 A 
ATOM     19  Cl  UNL A   1      28.605  27.029  23.569  1.00  0.00    -0.083 Cl
BRANCH  18  20
ATOM     20  C   UNL A   1      30.458  29.509  22.801  1.00  0.00     0.250 C 
ATOM     21  N   UNL A   1      30.459  30.057  21.546  1.00  0.00    -0.366 N 
ATOM     22  O   UNL A   1      29.960  30.165  23.709  1.00  0.00    -0.269 OA
ATOM     23  H   UNL A   1      30.850  29.560  20.793  1.00  0.00     0.159 HD
ATOM     24  H   UNL A   1      30.067  30.948  21.398  1.00  0.00     0.159 HD
ENDBRANCH  18  20
ENDBRANCH  10  13
ENDBRANCH   4   7
ENDBRANCH   2   3
ENDBRANCH   1   2
BRANCH   1  25
ATOM     25  C   UNL A   1      39.209  20.342  25.829  1.00  0.00     0.118 C 
BRANCH  25  26
ATOM     26  N   UNL A   1      40.266  19.359  26.002  1.00  0.00    -0.352 N 
ATOM     27  C   UNL A   1      41.620  19.530  26.153  1.00  0.00     0.251 C 
ATOM     28  H   UNL A   1      39.963  18.422  26.013  1.00  0.00     0.163 HD
ATOM     29  O   UNL A   1      42.355  18.551  26.048  1.00  0.00    -0.269 OA
BRANCH  27  30
ATOM     30  C   UNL A   1      42.193  20.870  26.421  1.00  0.00     0.039 A 
ATOM     31  C   UNL A   1      42.441  21.723  25.342  1.00  0.00     0.014 A 
ATOM     32  C   UNL A   1      42.520  21.280  27.716  1.00  0.00     0.014 A 
ATOM     33  C   UNL A   1      42.956  23.002  25.572  1.00  0.00     0.010 A 
ATOM     34  C   UNL A   1      42.934  22.588  27.952  1.00  0.00     0.010 A 
ATOM     35  C   UNL A   1      43.169  23.462  26.881  1.00  0.00    -0.014 A 
BRANCH  35  36
ATOM     36  C   UNL A   1      43.646  24.847  27.140  1.00  0.00     0.031 A 
ATOM     37  C   UNL A   1      42.701  25.892  27.671  1.00  0.00     0.074 A 
ATOM     38  C   UNL A   1      44.924  25.173  26.857  1.00  0.00     0.049 A 
ATOM     39  N   UNL A   1      42.921  27.159  27.922  1.00  0.00    -0.248 NA
ATOM     40  C   UNL A   1      41.316  25.465  27.925  1.00  0.00     0.031 C 
ATOM     41  C   UNL A   1      45.920  24.261  26.290  1.00  0.00     0.029 A 
ATOM     42  N   UNL A   1      45.605  26.355  27.004  1.00  0.00    -0.354 N 
ATOM     43  C   UNL A   1      41.706  27.678  28.357  1.00  0.00     0.074 A 
ATOM     44  C   UNL A   1      40.737  26.608  28.261  1.00  0.00     0.031 C 
ATOM     45  C   UNL A   1      47.091  24.906  26.172  1.00  0.00     0.029 A 
ATOM     46  C   UNL A   1      46.919  26.290  26.602  1.00  0.00     0.049 A 
ATOM     47  H   UNL A   1      45.192  27.173  27.363  1.00  0.00     0.167 HD
ATOM     48  C   UNL A   1      41.431  28.923  28.823  1.00  0.00     0.034 A 
ATOM     49  C   UNL A   1      47.876  27.238  26.571  1.00  0.00     0.034 A 
ATOM     50  C   UNL A   1      42.411  29.979  28.911  1.00  0.00     0.049 A 
ATOM     51  C   UNL A   1      47.540  28.623  27.062  1.00  0.00     0.074 A 
ATOM     52  C   UNL A   1      42.254  31.263  29.403  1.00  0.00     0.029 A 
ATOM     53  N   UNL A   1      43.732  29.878  28.488  1.00  0.00    -0.354 N 
ATOM     54  N   UNL A   1      46.398  29.083  27.522  1.00  0.00    -0.248 NA
ATOM     55  C   UNL A   1      48.625  29.611  27.045  1.00  0.00     0.031 C 
ATOM     56  C   UNL A   1      43.450  31.960  29.206  1.00  0.00     0.029 A 
ATOM     57  C   UNL A   1      44.387  31.086  28.676  1.00  0.00     0.049 A 
ATOM     58  H   UNL A   1      44.142  29.067  28.109  1.00  0.00     0.167 HD
ATOM     59  C   UNL A   1      46.637  30.410  27.872  1.00  0.00     0.074 A 
ATOM     60  C   UNL A   1      48.037  30.663  27.596  1.00  0.00     0.031 C 
ATOM     61  C   UNL A   1      45.779  31.335  28.378  1.00  0.00     0.034 A 
BRANCH  48  62
ATOM     62  C   UNL A   1      40.007  29.207  29.246  1.00  0.00     0.023 A 
ATOM     63  C   UNL A   1      39.639  29.274  30.603  1.00  0.00     0.031 A 
ATOM     64  C   UNL A   1      38.995  29.384  28.286  1.00  0.00     0.131 A 
ATOM     65  C   UNL A   1      38.291  29.427  30.960  1.00  0.00     0.055 A 
ATOM     66  C   UNL A   1      37.668  29.628  28.648  1.00  0.00     0.041 A 
ATOM     67  F   UNL A   1      39.275  29.309  26.975  1.00  0.00    -0.206 F 
ATOM     68  C   UNL A   1      37.306  29.634  29.992  1.00  0.00     0.022 A 
BRANCH  65  69
ATOM     69  S   UNL A   1      37.823  29.195  32.697  1.00  0.00     0.124 S 
ATOM     70  O   UNL A   1      38.958  29.800  33.391  1.00  0.00    -0.237 OA
ATOM     71  O   UNL A   1      36.561  29.918  32.785  1.00  0.00    -0.237 OA
ATOM     72  O   UNL A   1      37.723  27.742  32.833  1.00  0.00    -0.744 OA
ENDBRANCH  65  69
ENDBRANCH  48  62
BRANCH  49  73
ATOM     73  C   UNL A   1      49.235  26.922  26.042  1.00  0.00     0.023 A 
ATOM     74  C   UNL A   1      49.640  27.351  24.767  1.00  0.00     0.031 A 
ATOM     75  C   UNL A   1      50.140  26.151  26.794  1.00  0.00     0.131 A 
ATOM     76  C   UNL A   1      50.893  26.966  24.264  1.00  0.00     0.055 A 
ATOM     77  C   UNL A   1      51.410  25.825  26.315  1.00  0.00     0.041 A 
ATOM     78  F   UNL A   1      49.803  25.711  28.018  1.00  0.00    -0.206 F 
ATOM     79  C   UNL A   1      51.787  26.221  25.037  1.00  0.00     0.022 A 
BRANCH  76  80
ATOM     80  S   UNL A   1      51.300  27.369  22.543  1.00  0.00     0.124 S 
ATOM     81  O   UNL A   1      51.288  28.827  22.568  1.00  0.00    -0.237 OA
ATOM     82  O   UNL A   1      52.608  26.742  22.382  1.00  0.00    -0.237 OA
ATOM     83  O   UNL A   1      50.217  26.750  21.781  1.00  0.00    -0.744 OA
ENDBRANCH  76  80
ENDBRANCH  49  73
BRANCH  61  84
ATOM     84  C   UNL A   1      46.353  32.696  28.697  1.00  0.00     0.023 A 
ATOM     85  C   UNL A   1      46.351  33.741  27.757  1.00  0.00     0.031 A 
ATOM     86  C   UNL A   1      46.939  32.940  29.953  1.00  0.00     0.131 A 
ATOM     87  C   UNL A   1      46.987  34.955  28.058  1.00  0.00     0.055 A 
ATOM     88  C   UNL A   1      47.503  34.176  30.274  1.00  0.00     0.041 A 
ATOM     89  F   UNL A   1      46.975  31.980  30.891  1.00  0.00    -0.206 F 
ATOM     90  C   UNL A   1      47.546  35.186  29.317  1.00  0.00     0.022 A 
BRANCH  87  91
ATOM     91  S   UNL A   1      47.185  36.184  26.738  1.00  0.00     0.124 S 
ATOM     92  O   UNL A   1      48.259  37.020  27.261  1.00  0.00    -0.237 OA
ATOM     93  O   UNL A   1      47.526  35.353  25.587  1.00  0.00    -0.237 OA
ATOM     94  O   UNL A   1      45.874  36.828  26.670  1.00  0.00    -0.744 OA
ENDBRANCH  87  91
ENDBRANCH  61  84
ENDBRANCH  35  36
ENDBRANCH  27  30
ENDBRANCH  25  26
ENDBRANCH   1  25
TORSDOF 15
ENDMDL
MODEL 3
REMARK VINA RESULT:     -12.2      3.193      8.535
REMARK SMILES C[C@H]1[C@H](C(=O)NCCCNC(=O)c2ccc(-c3c4nc(c(-c5cc(S(=O)(=O)[O-])ccc5F)c5ccc([nH]5)c(-c5cc(S(=O)(=O)[O-])ccc5F)c5nc(c(-c6cc(S(=O)(=O)[O-])ccc6F)c6ccc3[nH]6)C=C5)C=C4)cc2)CCN1c1ccc(C(N)=O)c(Cl)c1
REMARK SMILES IDX 8 1 7 2 6 3 4 4 5 5 3 7 1 8 2 9 78 10 76 11 77 12 79 13
REMARK SMILES IDX 80 14 88 15 81 16 86 17 82 18 87 19 83 20 84 21 85 22 9 25
REMARK SMILES IDX 10 26 11 27 12 29 13 30 14 31 75 32 15 33 74 34 16 35 17 36
REMARK SMILES IDX 18 37 68 38 19 39 73 40 67 41 69 42 20 43 72 44 66 45 65 46
REMARK SMILES IDX 21 48 53 49 33 50 52 51 34 52 37 53 51 54 70 55 35 56 36 57
REMARK SMILES IDX 50 59 71 60 38 61 22 62 23 63 31 64 24 65 30 66 32 67 29 68
REMARK SMILES IDX 25 69 26 70 27 71 28 72 54 73 55 74 63 75 56 76 62 77 64 78
REMARK SMILES IDX 61 79 57 80 58 81 59 82 60 83 39 84 40 85 48 86 41 87 47 88
REMARK SMILES IDX 49 89 46 90 42 91 43 92 44 93 45 94
REMARK H PARENT 6 6 84 23 84 24 10 28 69 47 37 58
REMARK Flexibility Score: inf
ROOT
ATOM      1  C   UNL A   1      31.489  32.076  26.673  1.00  0.00     0.042 C 
ENDROOT
BRANCH   1   2
ATOM      2  C   UNL A   1      31.601  30.704  26.020  1.00  0.00     0.117 C 
BRANCH   2   3
ATOM      3  N   UNL A   1      31.532  29.623  26.992  1.00  0.00    -0.356 N 
ATOM      4  C   UNL A   1      31.581  28.273  26.838  1.00  0.00     0.225 C 
ATOM      5  O   UNL A   1      31.479  27.581  27.855  1.00  0.00    -0.275 OA
ATOM      6  H   UNL A   1      31.432  29.922  27.925  1.00  0.00     0.163 HD
BRANCH   4   7
ATOM      7  C   UNL A   1      31.769  27.605  25.487  1.00  0.00     0.102 C 
ATOM      8  C   UNL A   1      33.965  26.521  24.864  1.00  0.00     0.032 C 
ATOM      9  C   UNL A   1      32.622  26.329  25.571  1.00  0.00     0.091 C 
ATOM     10  N   UNL A   1      31.831  25.314  24.870  1.00  0.00    -0.368 N 
ATOM     11  C   UNL A   1      30.456  27.228  24.803  1.00  0.00     0.037 C 
ATOM     12  C   UNL A   1      30.716  25.885  24.132  1.00  0.00     0.118 C 
BRANCH  10  13
ATOM     13  C   UNL A   1      32.035  23.959  24.944  1.00  0.00     0.038 A 
ATOM     14  C   UNL A   1      32.436  23.348  26.133  1.00  0.00     0.027 A 
ATOM     15  C   UNL A   1      31.894  23.126  23.831  1.00  0.00     0.047 A 
ATOM     16  C   UNL A   1      32.704  21.972  26.203  1.00  0.00     0.017 A 
ATOM     17  C   UNL A   1      32.196  21.752  23.869  1.00  0.00     0.055 A 
ATOM     18  C   UNL A   1      32.602  21.151  25.068  1.00  0.00     0.058 A 
ATOM     19  Cl  UNL A   1      32.039  20.924  22.357  1.00  0.00    -0.083 Cl
BRANCH  18  20
ATOM     20  C   UNL A   1      32.957  19.700  25.156  1.00  0.00     0.250 C 
ATOM     21  N   UNL A   1      34.241  19.319  24.869  1.00  0.00    -0.366 N 
ATOM     22  O   UNL A   1      32.157  18.823  25.457  1.00  0.00    -0.269 OA
ATOM     23  H   UNL A   1      34.912  19.996  24.623  1.00  0.00     0.159 HD
ATOM     24  H   UNL A   1      34.493  18.368  24.909  1.00  0.00     0.159 HD
ENDBRANCH  18  20
ENDBRANCH  10  13
ENDBRANCH   4   7
ENDBRANCH   2   3
ENDBRANCH   1   2
BRANCH   1  25
ATOM     25  C   UNL A   1      32.824  32.696  27.056  1.00  0.00     0.118 C 
BRANCH  25  26
ATOM     26  N   UNL A   1      32.670  34.007  27.666  1.00  0.00    -0.352 N 
ATOM     27  C   UNL A   1      33.261  34.539  28.785  1.00  0.00     0.251 C 
ATOM     28  H   UNL A   1      32.044  34.608  27.202  1.00  0.00     0.163 HD
ATOM     29  O   UNL A   1      32.808  35.582  29.253  1.00  0.00    -0.269 OA
BRANCH  27  30
ATOM     30  C   UNL A   1      34.411  33.866  29.433  1.00  0.00     0.039 A 
ATOM     31  C   UNL A   1      35.704  34.291  29.117  1.00  0.00     0.014 A 
ATOM     32  C   UNL A   1      34.230  32.802  30.319  1.00  0.00     0.014 A 
ATOM     33  C   UNL A   1      36.803  33.689  29.736  1.00  0.00     0.010 A 
ATOM     34  C   UNL A   1      35.317  32.274  31.011  1.00  0.00     0.010 A 
ATOM     35  C   UNL A   1      36.619  32.704  30.719  1.00  0.00    -0.014 A 
BRANCH  35  36
ATOM     36  C   UNL A   1      37.779  32.109  31.437  1.00  0.00     0.031 A 
ATOM     37  C   UNL A   1      38.586  31.008  30.801  1.00  0.00     0.074 A 
ATOM     38  C   UNL A   1      38.079  32.534  32.681  1.00  0.00     0.049 A 
ATOM     39  N   UNL A   1      39.604  30.341  31.284  1.00  0.00    -0.248 NA
ATOM     40  C   UNL A   1      38.175  30.579  29.454  1.00  0.00     0.031 C 
ATOM     41  C   UNL A   1      37.338  33.557  33.423  1.00  0.00     0.029 A 
ATOM     42  N   UNL A   1      39.080  32.162  33.542  1.00  0.00    -0.354 N 
ATOM     43  C   UNL A   1      39.951  29.415  30.306  1.00  0.00     0.074 A 
ATOM     44  C   UNL A   1      38.986  29.555  29.237  1.00  0.00     0.031 C 
ATOM     45  C   UNL A   1      37.932  33.756  34.610  1.00  0.00     0.029 A 
ATOM     46  C   UNL A   1      39.061  32.840  34.739  1.00  0.00     0.049 A 
ATOM     47  H   UNL A   1      39.750  31.474  33.324  1.00  0.00     0.167 HD
ATOM     48  C   UNL A   1      40.995  28.548  30.287  1.00  0.00     0.034 A 
ATOM     49  C   UNL A   1      39.853  32.729  35.823  1.00  0.00     0.034 A 
ATOM     50  C   UNL A   1      41.949  28.421  31.363  1.00  0.00     0.049 A 
ATOM     51  C   UNL A   1      40.987  31.738  35.794  1.00  0.00     0.074 A 
ATOM     52  C   UNL A   1      43.066  27.607  31.434  1.00  0.00     0.029 A 
ATOM     53  N   UNL A   1      41.893  29.120  32.564  1.00  0.00    -0.354 N 
ATOM     54  N   UNL A   1      41.335  30.905  34.838  1.00  0.00    -0.248 NA
ATOM     55  C   UNL A   1      41.846  31.681  36.983  1.00  0.00     0.031 C 
ATOM     56  C   UNL A   1      43.639  27.755  32.702  1.00  0.00     0.029 A 
ATOM     57  C   UNL A   1      42.935  28.730  33.392  1.00  0.00     0.049 A 
ATOM     58  H   UNL A   1      41.213  29.794  32.793  1.00  0.00     0.167 HD
ATOM     59  C   UNL A   1      42.469  30.245  35.304  1.00  0.00     0.074 A 
ATOM     60  C   UNL A   1      42.759  30.797  36.611  1.00  0.00     0.031 C 
ATOM     61  C   UNL A   1      43.205  29.272  34.705  1.00  0.00     0.034 A 
BRANCH  48  62
ATOM     62  C   UNL A   1      41.138  27.659  29.072  1.00  0.00     0.023 A 
ATOM     63  C   UNL A   1      42.142  27.877  28.110  1.00  0.00     0.031 A 
ATOM     64  C   UNL A   1      40.244  26.596  28.853  1.00  0.00     0.131 A 
ATOM     65  C   UNL A   1      42.176  27.103  26.941  1.00  0.00     0.055 A 
ATOM     66  C   UNL A   1      40.340  25.770  27.730  1.00  0.00     0.041 A 
ATOM     67  F   UNL A   1      39.250  26.347  29.720  1.00  0.00    -0.206 F 
ATOM     68  C   UNL A   1      41.300  26.032  26.757  1.00  0.00     0.022 A 
BRANCH  65  69
ATOM     69  S   UNL A   1      43.278  27.617  25.594  1.00  0.00     0.124 S 
ATOM     70  O   UNL A   1      44.027  28.702  26.224  1.00  0.00    -0.237 OA
ATOM     71  O   UNL A   1      44.029  26.399  25.317  1.00  0.00    -0.237 OA
ATOM     72  O   UNL A   1      42.357  28.038  24.540  1.00  0.00    -0.744 OA
ENDBRANCH  65  69
ENDBRANCH  48  62
BRANCH  49  73
ATOM     73  C   UNL A   1      39.595  33.563  37.035  1.00  0.00     0.023 A 
ATOM     74  C   UNL A   1      38.905  33.045  38.143  1.00  0.00     0.031 A 
ATOM     75  C   UNL A   1      40.006  34.907  37.085  1.00  0.00     0.131 A 
ATOM     76  C   UNL A   1      38.605  33.879  39.232  1.00  0.00     0.055 A 
ATOM     77  C   UNL A   1      39.761  35.714  38.197  1.00  0.00     0.041 A 
ATOM     78  F   UNL A   1      40.665  35.455  36.051  1.00  0.00    -0.206 F 
ATOM     79  C   UNL A   1      39.043  35.205  39.274  1.00  0.00     0.022 A 
BRANCH  76  80
ATOM     80  S   UNL A   1      37.544  33.234  40.555  1.00  0.00     0.124 S 
ATOM     81  O   UNL A   1      38.357  32.146  41.085  1.00  0.00    -0.237 OA
ATOM     82  O   UNL A   1      37.389  34.399  41.420  1.00  0.00    -0.237 OA
ATOM     83  O   UNL A   1      36.332  32.819  39.849  1.00  0.00    -0.744 OA
ENDBRANCH  76  80
ENDBRANCH  49  73
BRANCH  61  84
ATOM     84  C   UNL A   1      44.419  28.775  35.455  1.00  0.00     0.023 A 
ATOM     85  C   UNL A   1      44.339  27.718  36.378  1.00  0.00     0.031 A 
ATOM     86  C   UNL A   1      45.670  29.390  35.264  1.00  0.00     0.131 A 
ATOM     87  C   UNL A   1      45.469  27.357  37.128  1.00  0.00     0.055 A 
ATOM     88  C   UNL A   1      46.808  28.976  35.959  1.00  0.00     0.041 A 
ATOM     89  F   UNL A   1      45.808  30.408  34.400  1.00  0.00    -0.206 F 
ATOM     90  C   UNL A   1      46.707  27.966  36.912  1.00  0.00     0.022 A 
BRANCH  87  91
ATOM     91  S   UNL A   1      45.269  26.166  38.483  1.00  0.00     0.124 S 
ATOM     92  O   UNL A   1      44.240  26.804  39.298  1.00  0.00    -0.237 OA
ATOM     93  O   UNL A   1      44.863  24.955  37.776  1.00  0.00    -0.237 OA
ATOM     94  O   UNL A   1      46.598  26.112  39.091  1.00  0.00    -0.744 OA
ENDBRANCH  87  91
ENDBRANCH  61  84
ENDBRANCH  35  36
ENDBRANCH  27  30
ENDBRANCH  25  26
ENDBRANCH   1  25
TORSDOF 15
ENDMDL
