MODEL 1
REMARK VINA RESULT:      -9.0      0.000      0.000
REMARK SMILES C/C=C(\C)[C@H]1C(C)=C[C@H]2CC[C@@H](OS(=O)(=O)[O-])[C@@H](C)[C@H]2[C@H]1/C=C/C=C/C(=O)NCCCNC(=O)c1ccc(-c2c3nc(c(-c4cc(S(=O)(=O)[O-])ccc4F)c4ccc([nH]4)c(-c4cc(S(=O)(=O)[O-])ccc4F)c4nc(c(-c5cc(S(=O)(=O)[O-])ccc5F)c5ccc2[nH]5)C=C4)C=C3)cc1
REMARK SMILES IDX 29 1 28 2 26 3 27 4 25 6 24 7 23 8 22 9 21 10 5 11 6 12 7 13
REMARK SMILES IDX 8 14 20 15 9 16 18 17 10 18 12 19 19 20 11 21 3 22 1 23 2 24
REMARK SMILES IDX 4 25 13 26 14 27 15 28 16 29 17 30 30 31 31 32 32 33 33 34
REMARK SMILES IDX 34 36 35 37 36 38 97 39 37 40 96 41 38 42 39 43 40 44 90 45
REMARK SMILES IDX 41 46 95 47 89 48 91 49 42 50 94 51 88 52 87 53 43 55 75 56
REMARK SMILES IDX 55 57 74 58 56 59 59 60 73 61 92 62 57 63 58 64 72 66 93 67
REMARK SMILES IDX 60 68 44 69 45 70 53 71 46 72 52 73 54 74 51 75 47 76 48 77
REMARK SMILES IDX 49 78 50 79 76 80 77 81 85 82 78 83 84 84 86 85 83 86 79 87
REMARK SMILES IDX 80 88 81 89 82 90 61 91 62 92 70 93 63 94 69 95 71 96 68 97
REMARK SMILES IDX 64 98 65 99 66 100 67 101
REMARK H PARENT 28 5 32 35 91 54 59 65
REMARK Flexibility Score: inf
ROOT
ATOM      1  C   UNL A   1      47.006  31.739  27.561  1.00  0.00     0.118 C 
ENDROOT
BRANCH   1   2
ATOM      2  N   UNL A   1      46.213  30.692  26.930  1.00  0.00    -0.352 N 
ATOM      3  C   UNL A   1      45.211  29.905  27.421  1.00  0.00     0.243 C 
ATOM      4  O   UNL A   1      44.706  29.035  26.717  1.00  0.00    -0.270 OA
ATOM      5  H   UNL A   1      46.439  30.522  25.987  1.00  0.00     0.163 HD
BRANCH   3   6
ATOM      6  C   UNL A   1      44.809  30.024  28.837  1.00  0.00     0.071 C 
ATOM      7  C   UNL A   1      44.164  29.052  29.495  1.00  0.00     0.005 C 
BRANCH   7   8
ATOM      8  C   UNL A   1      43.518  29.316  30.759  1.00  0.00    -0.004 C 
ATOM      9  C   UNL A   1      42.215  29.646  30.781  1.00  0.00    -0.022 C 
BRANCH   9  10
ATOM     10  C   UNL A   1      41.502  30.230  31.979  1.00  0.00     0.027 C 
ATOM     11  C   UNL A   1      39.944  30.552  31.843  1.00  0.00     0.047 C 
ATOM     12  C   UNL A   1      39.222  30.550  33.214  1.00  0.00    -0.069 C 
ATOM     13  C   UNL A   1      37.718  30.598  33.276  1.00  0.00     0.040 C 
ATOM     14  C   UNL A   1      39.897  30.527  34.385  1.00  0.00    -0.024 C 
ATOM     15  C   UNL A   1      41.922  29.526  33.324  1.00  0.00     0.009 C 
ATOM     16  C   UNL A   1      41.389  30.374  34.495  1.00  0.00     0.016 C 
ATOM     17  C   UNL A   1      41.623  27.991  33.498  1.00  0.00     0.021 C 
ATOM     18  C   UNL A   1      41.856  29.802  35.844  1.00  0.00     0.011 C 
ATOM     19  C   UNL A   1      42.060  27.463  34.891  1.00  0.00     0.141 C 
ATOM     20  C   UNL A   1      40.186  27.555  33.254  1.00  0.00     0.011 C 
ATOM     21  C   UNL A   1      41.525  28.328  36.039  1.00  0.00     0.034 C 
BRANCH  11  22
ATOM     22  C   UNL A   1      39.103  29.972  30.648  1.00  0.00    -0.070 C 
ATOM     23  C   UNL A   1      37.856  30.488  28.460  1.00  0.00     0.035 C 
ATOM     24  C   UNL A   1      38.726  30.798  29.642  1.00  0.00    -0.031 C 
ATOM     25  C   UNL A   1      38.692  28.516  30.598  1.00  0.00     0.040 C 
ENDBRANCH  11  22
BRANCH  19  26
ATOM     26  O   UNL A   1      41.792  26.060  34.980  1.00  0.00    -0.276 OA
BRANCH  26  27
ATOM     27  S   UNL A   1      42.873  24.961  35.500  1.00  0.00     0.217 S 
ATOM     28  O   UNL A   1      43.200  25.249  36.880  1.00  0.00    -0.213 OA
ATOM     29  O   UNL A   1      42.479  23.640  35.077  1.00  0.00    -0.213 OA
ATOM     30  O   UNL A   1      44.173  25.300  34.615  1.00  0.00    -0.726 OA
ENDBRANCH  26  27
ENDBRANCH  19  26
ENDBRANCH   9  10
ENDBRANCH   7   8
ENDBRANCH   3   6
ENDBRANCH   1   2
BRANCH   1  31
ATOM     31  C   UNL A   1      47.433  32.845  26.606  1.00  0.00     0.042 C 
BRANCH  31  32
ATOM     32  C   UNL A   1      46.880  34.224  26.939  1.00  0.00     0.118 C 
BRANCH  32  33
ATOM     33  N   UNL A   1      45.789  34.626  26.061  1.00  0.00    -0.352 N 
ATOM     34  C   UNL A   1      44.433  34.683  26.279  1.00  0.00     0.251 C 
ATOM     35  H   UNL A   1      46.071  34.905  25.159  1.00  0.00     0.163 HD
ATOM     36  O   UNL A   1      43.689  34.876  25.319  1.00  0.00    -0.269 OA
BRANCH  34  37
ATOM     37  C   UNL A   1      43.863  34.489  27.632  1.00  0.00     0.039 A 
ATOM     38  C   UNL A   1      43.600  35.613  28.421  1.00  0.00     0.014 A 
ATOM     39  C   UNL A   1      43.618  33.215  28.147  1.00  0.00     0.014 A 
ATOM     40  C   UNL A   1      43.030  35.459  29.689  1.00  0.00     0.010 A 
ATOM     41  C   UNL A   1      42.960  33.067  29.367  1.00  0.00     0.010 A 
ATOM     42  C   UNL A   1      42.666  34.187  30.158  1.00  0.00    -0.014 A 
BRANCH  42  43
ATOM     43  C   UNL A   1      41.998  34.010  31.477  1.00  0.00     0.031 A 
ATOM     44  C   UNL A   1      40.498  34.108  31.586  1.00  0.00     0.074 A 
ATOM     45  C   UNL A   1      42.743  33.812  32.584  1.00  0.00     0.049 A 
ATOM     46  N   UNL A   1      39.739  34.041  32.651  1.00  0.00    -0.248 NA
ATOM     47  C   UNL A   1      39.757  34.342  30.338  1.00  0.00     0.031 C 
ATOM     48  C   UNL A   1      44.204  33.737  32.614  1.00  0.00     0.029 A 
ATOM     49  N   UNL A   1      42.377  33.637  33.895  1.00  0.00    -0.354 N 
ATOM     50  C   UNL A   1      38.436  34.236  32.202  1.00  0.00     0.074 A 
ATOM     51  C   UNL A   1      38.519  34.496  30.780  1.00  0.00     0.031 C 
ATOM     52  C   UNL A   1      44.608  33.496  33.872  1.00  0.00     0.029 A 
ATOM     53  C   UNL A   1      43.442  33.453  34.749  1.00  0.00     0.049 A 
ATOM     54  H   UNL A   1      41.440  33.644  34.198  1.00  0.00     0.167 HD
ATOM     55  C   UNL A   1      37.276  34.176  32.903  1.00  0.00     0.034 A 
ATOM     56  C   UNL A   1      43.477  33.282  36.086  1.00  0.00     0.034 A 
ATOM     57  C   UNL A   1      37.210  33.910  34.320  1.00  0.00     0.049 A 
ATOM     58  C   UNL A   1      42.177  33.259  36.851  1.00  0.00     0.074 A 
ATOM     59  C   UNL A   1      36.088  33.780  35.121  1.00  0.00     0.029 A 
ATOM     60  N   UNL A   1      38.311  33.741  35.152  1.00  0.00    -0.354 N 
ATOM     61  N   UNL A   1      40.950  33.395  36.401  1.00  0.00    -0.248 NA
ATOM     62  C   UNL A   1      42.267  33.044  38.300  1.00  0.00     0.031 C 
ATOM     63  C   UNL A   1      36.510  33.618  36.444  1.00  0.00     0.029 A 
ATOM     64  C   UNL A   1      37.894  33.547  36.461  1.00  0.00     0.049 A 
ATOM     65  H   UNL A   1      39.249  33.757  34.855  1.00  0.00     0.167 HD
ATOM     66  C   UNL A   1      40.122  33.246  37.511  1.00  0.00     0.074 A 
ATOM     67  C   UNL A   1      40.989  32.993  38.643  1.00  0.00     0.031 C 
ATOM     68  C   UNL A   1      38.767  33.305  37.586  1.00  0.00     0.034 A 
BRANCH  55  69
ATOM     69  C   UNL A   1      35.992  34.431  32.147  1.00  0.00     0.023 A 
ATOM     70  C   UNL A   1      35.210  35.576  32.379  1.00  0.00     0.031 A 
ATOM     71  C   UNL A   1      35.526  33.503  31.197  1.00  0.00     0.131 A 
ATOM     72  C   UNL A   1      33.969  35.722  31.739  1.00  0.00     0.055 A 
ATOM     73  C   UNL A   1      34.335  33.701  30.494  1.00  0.00     0.041 A 
ATOM     74  F   UNL A   1      36.214  32.378  30.945  1.00  0.00    -0.206 F 
ATOM     75  C   UNL A   1      33.540  34.807  30.777  1.00  0.00     0.022 A 
BRANCH  72  76
ATOM     76  S   UNL A   1      32.854  37.037  32.305  1.00  0.00     0.124 S 
ATOM     77  O   UNL A   1      31.588  36.317  32.425  1.00  0.00    -0.237 OA
ATOM     78  O   UNL A   1      33.471  37.457  33.557  1.00  0.00    -0.237 OA
ATOM     79  O   UNL A   1      32.904  38.018  31.222  1.00  0.00    -0.744 OA
ENDBRANCH  72  76
ENDBRANCH  55  69
BRANCH  56  80
ATOM     80  C   UNL A   1      44.782  33.127  36.794  1.00  0.00     0.023 A 
ATOM     81  C   UNL A   1      45.326  31.856  37.041  1.00  0.00     0.031 A 
ATOM     82  C   UNL A   1      45.482  34.246  37.279  1.00  0.00     0.131 A 
ATOM     83  C   UNL A   1      46.503  31.732  37.795  1.00  0.00     0.055 A 
ATOM     84  C   UNL A   1      46.687  34.121  37.975  1.00  0.00     0.041 A 
ATOM     85  F   UNL A   1      45.010  35.486  37.071  1.00  0.00    -0.206 F 
ATOM     86  C   UNL A   1      47.196  32.855  38.250  1.00  0.00     0.022 A 
BRANCH  83  87
ATOM     87  S   UNL A   1      47.067  30.071  38.257  1.00  0.00     0.124 S 
ATOM     88  O   UNL A   1      46.073  29.688  39.255  1.00  0.00    -0.237 OA
ATOM     89  O   UNL A   1      47.003  29.365  36.983  1.00  0.00    -0.237 OA
ATOM     90  O   UNL A   1      48.415  30.302  38.774  1.00  0.00    -0.744 OA
ENDBRANCH  83  87
ENDBRANCH  56  80
BRANCH  68  91
ATOM     91  C   UNL A   1      38.139  33.038  38.935  1.00  0.00     0.023 A 
ATOM     92  C   UNL A   1      38.198  33.974  39.982  1.00  0.00     0.031 A 
ATOM     93  C   UNL A   1      37.486  31.817  39.178  1.00  0.00     0.131 A 
ATOM     94  C   UNL A   1      37.674  33.646  41.242  1.00  0.00     0.055 A 
ATOM     95  C   UNL A   1      36.900  31.526  40.411  1.00  0.00     0.041 A 
ATOM     96  F   UNL A   1      37.402  30.881  38.217  1.00  0.00    -0.206 F 
ATOM     97  C   UNL A   1      37.008  32.437  41.457  1.00  0.00     0.022 A 
BRANCH  94  98
ATOM     98  S   UNL A   1      37.982  34.772  42.631  1.00  0.00     0.124 S 
ATOM     99  O   UNL A   1      38.925  34.006  43.439  1.00  0.00    -0.237 OA
ATOM    100  O   UNL A   1      38.526  35.950  41.963  1.00  0.00    -0.237 OA
ATOM    101  O   UNL A   1      36.659  34.953  43.226  1.00  0.00    -0.744 OA
ENDBRANCH  94  98
ENDBRANCH  68  91
ENDBRANCH  42  43
ENDBRANCH  34  37
ENDBRANCH  32  33
ENDBRANCH  31  32
ENDBRANCH   1  31
TORSDOF 18
ENDMDL
MODEL 2
REMARK VINA RESULT:      -8.8      7.493     13.668
REMARK SMILES C/C=C(\C)[C@H]1C(C)=C[C@H]2CC[C@@H](OS(=O)(=O)[O-])[C@@H](C)[C@H]2[C@H]1/C=C/C=C/C(=O)NCCCNC(=O)c1ccc(-c2c3nc(c(-c4cc(S(=O)(=O)[O-])ccc4F)c4ccc([nH]4)c(-c4cc(S(=O)(=O)[O-])ccc4F)c4nc(c(-c5cc(S(=O)(=O)[O-])ccc5F)c5ccc2[nH]5)C=C4)C=C3)cc1
REMARK SMILES IDX 29 1 28 2 26 3 27 4 25 6 24 7 23 8 22 9 21 10 5 11 6 12 7 13
REMARK SMILES IDX 8 14 20 15 9 16 18 17 10 18 12 19 19 20 11 21 3 22 1 23 2 24
REMARK SMILES IDX 4 25 13 26 14 27 15 28 16 29 17 30 30 31 31 32 32 33 33 34
REMARK SMILES IDX 34 36 35 37 36 38 97 39 37 40 96 41 38 42 39 43 40 44 90 45
REMARK SMILES IDX 41 46 95 47 89 48 91 49 42 50 94 51 88 52 87 53 43 55 75 56
REMARK SMILES IDX 55 57 74 58 56 59 59 60 73 61 92 62 57 63 58 64 72 66 93 67
REMARK SMILES IDX 60 68 44 69 45 70 53 71 46 72 52 73 54 74 51 75 47 76 48 77
REMARK SMILES IDX 49 78 50 79 76 80 77 81 85 82 78 83 84 84 86 85 83 86 79 87
REMARK SMILES IDX 80 88 81 89 82 90 61 91 62 92 70 93 63 94 69 95 71 96 68 97
REMARK SMILES IDX 64 98 65 99 66 100 67 101
REMARK H PARENT 28 5 32 35 91 54 59 65
REMARK Flexibility Score: inf
ROOT
ATOM      1  C   UNL A   1      38.751  20.552  25.426  1.00  0.00     0.118 C 
ENDROOT
BRANCH   1   2
ATOM      2  N   UNL A   1      39.226  21.835  25.927  1.00  0.00    -0.352 N 
ATOM      3  C   UNL A   1      38.568  23.009  26.156  1.00  0.00     0.243 C 
ATOM      4  O   UNL A   1      39.184  23.999  26.540  1.00  0.00    -0.270 OA
ATOM      5  H   UNL A   1      40.188  21.860  26.136  1.00  0.00     0.163 HD
BRANCH   3   6
ATOM      6  C   UNL A   1      37.131  23.121  25.836  1.00  0.00     0.071 C 
ATOM      7  C   UNL A   1      36.656  23.949  24.898  1.00  0.00     0.005 C 
BRANCH   7   8
ATOM      8  C   UNL A   1      35.248  24.262  24.829  1.00  0.00    -0.004 C 
ATOM      9  C   UNL A   1      34.727  25.166  25.677  1.00  0.00    -0.022 C 
BRANCH   9  10
ATOM     10  C   UNL A   1      33.247  25.363  25.913  1.00  0.00     0.027 C 
ATOM     11  C   UNL A   1      32.463  26.380  24.963  1.00  0.00     0.047 C 
ATOM     12  C   UNL A   1      30.950  26.057  24.881  1.00  0.00    -0.069 C 
ATOM     13  C   UNL A   1      30.085  26.748  23.859  1.00  0.00     0.040 C 
ATOM     14  C   UNL A   1      30.353  25.177  25.715  1.00  0.00    -0.024 C 
ATOM     15  C   UNL A   1      32.503  24.003  26.193  1.00  0.00     0.009 C 
ATOM     16  C   UNL A   1      31.090  24.331  26.715  1.00  0.00     0.016 C 
ATOM     17  C   UNL A   1      32.498  22.900  25.071  1.00  0.00     0.021 C 
ATOM     18  C   UNL A   1      30.341  23.047  27.113  1.00  0.00     0.011 C 
ATOM     19  C   UNL A   1      31.687  21.643  25.490  1.00  0.00     0.141 C 
ATOM     20  C   UNL A   1      32.013  23.341  23.698  1.00  0.00     0.011 C 
ATOM     21  C   UNL A   1      30.290  21.994  26.013  1.00  0.00     0.034 C 
BRANCH  11  22
ATOM     22  C   UNL A   1      33.108  26.891  23.624  1.00  0.00    -0.070 C 
ATOM     23  C   UNL A   1      34.265  28.844  22.416  1.00  0.00     0.035 C 
ATOM     24  C   UNL A   1      33.676  28.122  23.592  1.00  0.00    -0.031 C 
ATOM     25  C   UNL A   1      33.101  26.050  22.366  1.00  0.00     0.040 C 
ENDBRANCH  11  22
BRANCH  19  26
ATOM     26  O   UNL A   1      31.743  20.665  24.446  1.00  0.00    -0.276 OA
BRANCH  26  27
ATOM     27  S   UNL A   1      32.643  19.312  24.517  1.00  0.00     0.217 S 
ATOM     28  O   UNL A   1      32.350  18.626  25.757  1.00  0.00    -0.213 OA
ATOM     29  O   UNL A   1      32.608  18.627  23.249  1.00  0.00    -0.213 OA
ATOM     30  O   UNL A   1      34.140  19.889  24.626  1.00  0.00    -0.726 OA
ENDBRANCH  26  27
ENDBRANCH  19  26
ENDBRANCH   9  10
ENDBRANCH   7   8
ENDBRANCH   3   6
ENDBRANCH   1   2
BRANCH   1  31
ATOM     31  C   UNL A   1      39.696  19.393  25.715  1.00  0.00     0.042 C 
BRANCH  31  32
ATOM     32  C   UNL A   1      40.982  19.783  26.430  1.00  0.00     0.118 C 
BRANCH  32  33
ATOM     33  N   UNL A   1      42.180  19.403  25.693  1.00  0.00    -0.352 N 
ATOM     34  C   UNL A   1      43.246  20.155  25.261  1.00  0.00     0.251 C 
ATOM     35  H   UNL A   1      42.235  18.446  25.468  1.00  0.00     0.163 HD
ATOM     36  O   UNL A   1      44.054  19.644  24.489  1.00  0.00    -0.269 OA
BRANCH  34  37
ATOM     37  C   UNL A   1      43.415  21.565  25.685  1.00  0.00     0.039 A 
ATOM     38  C   UNL A   1      43.790  21.832  27.006  1.00  0.00     0.014 A 
ATOM     39  C   UNL A   1      43.176  22.626  24.810  1.00  0.00     0.014 A 
ATOM     40  C   UNL A   1      43.990  23.152  27.422  1.00  0.00     0.010 A 
ATOM     41  C   UNL A   1      43.471  23.932  25.197  1.00  0.00     0.010 A 
ATOM     42  C   UNL A   1      43.872  24.213  26.511  1.00  0.00    -0.014 A 
BRANCH  42  43
ATOM     43  C   UNL A   1      44.146  25.619  26.919  1.00  0.00     0.031 A 
ATOM     44  C   UNL A   1      45.535  26.188  26.794  1.00  0.00     0.074 A 
ATOM     45  C   UNL A   1      43.157  26.366  27.450  1.00  0.00     0.049 A 
ATOM     46  N   UNL A   1      45.983  27.366  27.149  1.00  0.00    -0.248 NA
ATOM     47  C   UNL A   1      46.563  25.306  26.221  1.00  0.00     0.031 C 
ATOM     48  C   UNL A   1      41.780  25.916  27.660  1.00  0.00     0.029 A 
ATOM     49  N   UNL A   1      43.154  27.659  27.911  1.00  0.00    -0.354 N 
ATOM     50  C   UNL A   1      47.344  27.360  26.854  1.00  0.00     0.074 A 
ATOM     51  C   UNL A   1      47.658  26.037  26.359  1.00  0.00     0.031 C 
ATOM     52  C   UNL A   1      41.058  26.927  28.173  1.00  0.00     0.029 A 
ATOM     53  C   UNL A   1      41.930  28.079  28.380  1.00  0.00     0.049 A 
ATOM     54  H   UNL A   1      43.954  28.233  27.906  1.00  0.00     0.167 HD
ATOM     55  C   UNL A   1      48.242  28.372  26.958  1.00  0.00     0.034 A 
ATOM     56  C   UNL A   1      41.553  29.252  28.927  1.00  0.00     0.034 A 
ATOM     57  C   UNL A   1      47.910  29.689  27.448  1.00  0.00     0.049 A 
ATOM     58  C   UNL A   1      42.578  30.350  29.070  1.00  0.00     0.074 A 
ATOM     59  C   UNL A   1      48.729  30.800  27.551  1.00  0.00     0.029 A 
ATOM     60  N   UNL A   1      46.662  30.071  27.926  1.00  0.00    -0.354 N 
ATOM     61  N   UNL A   1      43.849  30.344  28.739  1.00  0.00    -0.248 NA
ATOM     62  C   UNL A   1      42.113  31.617  29.648  1.00  0.00     0.031 C 
ATOM     63  C   UNL A   1      48.002  31.825  28.167  1.00  0.00     0.029 A 
ATOM     64  C   UNL A   1      46.701  31.389  28.359  1.00  0.00     0.049 A 
ATOM     65  H   UNL A   1      45.867  29.491  27.953  1.00  0.00     0.167 HD
ATOM     66  C   UNL A   1      44.324  31.619  29.035  1.00  0.00     0.074 A 
ATOM     67  C   UNL A   1      43.199  32.368  29.555  1.00  0.00     0.031 C 
ATOM     68  C   UNL A   1      45.576  32.126  28.885  1.00  0.00     0.034 A 
BRANCH  55  69
ATOM     69  C   UNL A   1      49.670  28.079  26.559  1.00  0.00     0.023 A 
ATOM     70  C   UNL A   1      50.099  28.168  25.223  1.00  0.00     0.031 A 
ATOM     71  C   UNL A   1      50.613  27.679  27.524  1.00  0.00     0.131 A 
ATOM     72  C   UNL A   1      51.403  27.780  24.876  1.00  0.00     0.055 A 
ATOM     73  C   UNL A   1      51.936  27.384  27.185  1.00  0.00     0.041 A 
ATOM     74  F   UNL A   1      50.262  27.552  28.813  1.00  0.00    -0.206 F 
ATOM     75  C   UNL A   1      52.333  27.417  25.851  1.00  0.00     0.022 A 
BRANCH  72  76
ATOM     76  S   UNL A   1      51.812  27.600  23.118  1.00  0.00     0.124 S 
ATOM     77  O   UNL A   1      52.854  26.575  23.162  1.00  0.00    -0.237 OA
ATOM     78  O   UNL A   1      50.539  27.191  22.538  1.00  0.00    -0.237 OA
ATOM     79  O   UNL A   1      52.275  28.933  22.736  1.00  0.00    -0.744 OA
ENDBRANCH  72  76
ENDBRANCH  55  69
BRANCH  56  80
ATOM     80  C   UNL A   1      40.148  29.456  29.389  1.00  0.00     0.023 A 
ATOM     81  C   UNL A   1      39.825  29.447  30.755  1.00  0.00     0.031 A 
ATOM     82  C   UNL A   1      39.097  29.615  28.467  1.00  0.00     0.131 A 
ATOM     83  C   UNL A   1      38.484  29.542  31.158  1.00  0.00     0.055 A 
ATOM     84  C   UNL A   1      37.772  29.772  28.876  1.00  0.00     0.041 A 
ATOM     85  F   UNL A   1      39.348  29.634  27.147  1.00  0.00    -0.206 F 
ATOM     86  C   UNL A   1      37.458  29.721  30.231  1.00  0.00     0.022 A 
BRANCH  83  87
ATOM     87  S   UNL A   1      38.091  29.331  32.917  1.00  0.00     0.124 S 
ATOM     88  O   UNL A   1      37.158  30.429  33.145  1.00  0.00    -0.237 OA
ATOM     89  O   UNL A   1      37.521  27.989  32.940  1.00  0.00    -0.237 OA
ATOM     90  O   UNL A   1      39.390  29.466  33.574  1.00  0.00    -0.744 OA
ENDBRANCH  83  87
ENDBRANCH  56  80
BRANCH  68  91
ATOM     91  C   UNL A   1      45.777  33.581  29.241  1.00  0.00     0.023 A 
ATOM     92  C   UNL A   1      45.634  34.607  28.291  1.00  0.00     0.031 A 
ATOM     93  C   UNL A   1      46.136  33.942  30.552  1.00  0.00     0.131 A 
ATOM     94  C   UNL A   1      45.914  35.935  28.648  1.00  0.00     0.055 A 
ATOM     95  C   UNL A   1      46.340  35.273  30.920  1.00  0.00     0.041 A 
ATOM     96  F   UNL A   1      46.292  33.006  31.502  1.00  0.00    -0.206 F 
ATOM     97  C   UNL A   1      46.246  36.277  29.961  1.00  0.00     0.022 A 
BRANCH  94  98
ATOM     98  S   UNL A   1      45.957  37.195  27.344  1.00  0.00     0.124 S 
ATOM     99  O   UNL A   1      46.188  36.388  26.150  1.00  0.00    -0.237 OA
ATOM    100  O   UNL A   1      44.636  37.805  27.455  1.00  0.00    -0.237 OA
ATOM    101  O   UNL A   1      47.072  38.056  27.736  1.00  0.00    -0.744 OA
ENDBRANCH  94  98
ENDBRANCH  68  91
ENDBRANCH  42  43
ENDBRANCH  34  37
ENDBRANCH  32  33
ENDBRANCH  31  32
ENDBRANCH   1  31
TORSDOF 18
ENDMDL
MODEL 3
REMARK VINA RESULT:      -8.8      7.223     13.842
REMARK SMILES C/C=C(\C)[C@H]1C(C)=C[C@H]2CC[C@@H](OS(=O)(=O)[O-])[C@@H](C)[C@H]2[C@H]1/C=C/C=C/C(=O)NCCCNC(=O)c1ccc(-c2c3nc(c(-c4cc(S(=O)(=O)[O-])ccc4F)c4ccc([nH]4)c(-c4cc(S(=O)(=O)[O-])ccc4F)c4nc(c(-c5cc(S(=O)(=O)[O-])ccc5F)c5ccc2[nH]5)C=C4)C=C3)cc1
REMARK SMILES IDX 29 1 28 2 26 3 27 4 25 6 24 7 23 8 22 9 21 10 5 11 6 12 7 13
REMARK SMILES IDX 8 14 20 15 9 16 18 17 10 18 12 19 19 20 11 21 3 22 1 23 2 24
REMARK SMILES IDX 4 25 13 26 14 27 15 28 16 29 17 30 30 31 31 32 32 33 33 34
REMARK SMILES IDX 34 36 35 37 36 38 97 39 37 40 96 41 38 42 39 43 40 44 90 45
REMARK SMILES IDX 41 46 95 47 89 48 91 49 42 50 94 51 88 52 87 53 43 55 75 56
REMARK SMILES IDX 55 57 74 58 56 59 59 60 73 61 92 62 57 63 58 64 72 66 93 67
REMARK SMILES IDX 60 68 44 69 45 70 53 71 46 72 52 73 54 74 51 75 47 76 48 77
REMARK SMILES IDX 49 78 50 79 76 80 77 81 85 82 78 83 84 84 86 85 83 86 79 87
REMARK SMILES IDX 80 88 81 89 82 90 61 91 62 92 70 93 63 94 69 95 71 96 68 97
REMARK SMILES IDX 64 98 65 99 66 100 67 101
REMARK H PARENT 28 5 32 35 91 54 59 65
REMARK Flexibility Score: inf
ROOT
ATOM      1  C   UNL A   1      40.255  20.611  26.099  1.00  0.00     0.118 C 
ENDROOT
BRANCH   1   2
ATOM      2  N   UNL A   1      40.625  21.541  27.159  1.00  0.00    -0.352 N 
ATOM      3  C   UNL A   1      40.221  22.820  27.412  1.00  0.00     0.243 C 
ATOM      4  O   UNL A   1      40.707  23.448  28.348  1.00  0.00    -0.270 OA
ATOM      5  H   UNL A   1      41.279  21.185  27.803  1.00  0.00     0.163 HD
BRANCH   3   6
ATOM      6  C   UNL A   1      39.280  23.490  26.493  1.00  0.00     0.071 C 
ATOM      7  C   UNL A   1      37.994  23.707  26.797  1.00  0.00     0.005 C 
BRANCH   7   8
ATOM      8  C   UNL A   1      37.042  24.071  25.775  1.00  0.00    -0.004 C 
ATOM      9  C   UNL A   1      36.053  23.219  25.456  1.00  0.00    -0.022 C 
BRANCH   9  10
ATOM     10  C   UNL A   1      35.185  23.339  24.224  1.00  0.00     0.027 C 
ATOM     11  C   UNL A   1      34.286  22.085  23.813  1.00  0.00     0.047 C 
ATOM     12  C   UNL A   1      33.053  22.498  22.972  1.00  0.00    -0.069 C 
ATOM     13  C   UNL A   1      31.962  21.499  22.689  1.00  0.00     0.040 C 
ATOM     14  C   UNL A   1      32.916  23.739  22.451  1.00  0.00    -0.024 C 
ATOM     15  C   UNL A   1      34.461  24.736  24.139  1.00  0.00     0.009 C 
ATOM     16  C   UNL A   1      33.859  24.877  22.727  1.00  0.00     0.016 C 
ATOM     17  C   UNL A   1      33.448  25.131  25.276  1.00  0.00     0.021 C 
ATOM     18  C   UNL A   1      33.228  26.266  22.537  1.00  0.00     0.011 C 
ATOM     19  C   UNL A   1      32.792  26.515  25.020  1.00  0.00     0.141 C 
ATOM     20  C   UNL A   1      32.342  24.128  25.568  1.00  0.00     0.011 C 
ATOM     21  C   UNL A   1      32.208  26.635  23.608  1.00  0.00     0.034 C 
BRANCH  11  22
ATOM     22  C   UNL A   1      34.037  20.907  24.823  1.00  0.00    -0.070 C 
ATOM     23  C   UNL A   1      33.790  18.366  25.127  1.00  0.00     0.035 C 
ATOM     24  C   UNL A   1      34.081  19.629  24.372  1.00  0.00    -0.031 C 
ATOM     25  C   UNL A   1      33.738  21.161  26.285  1.00  0.00     0.040 C 
ENDBRANCH  11  22
BRANCH  19  26
ATOM     26  O   UNL A   1      31.906  26.834  26.099  1.00  0.00    -0.276 OA
BRANCH  26  27
ATOM     27  S   UNL A   1      31.911  28.257  26.886  1.00  0.00     0.217 S 
ATOM     28  O   UNL A   1      31.654  29.315  25.933  1.00  0.00    -0.213 OA
ATOM     29  O   UNL A   1      31.160  28.147  28.112  1.00  0.00    -0.213 OA
ATOM     30  O   UNL A   1      33.442  28.393  27.359  1.00  0.00    -0.726 OA
ENDBRANCH  26  27
ENDBRANCH  19  26
ENDBRANCH   9  10
ENDBRANCH   7   8
ENDBRANCH   3   6
ENDBRANCH   1   2
BRANCH   1  31
ATOM     31  C   UNL A   1      41.101  19.345  26.071  1.00  0.00     0.042 C 
BRANCH  31  32
ATOM     32  C   UNL A   1      42.578  19.560  26.372  1.00  0.00     0.118 C 
BRANCH  32  33
ATOM     33  N   UNL A   1      43.434  19.318  25.218  1.00  0.00    -0.352 N 
ATOM     34  C   UNL A   1      44.233  20.172  24.496  1.00  0.00     0.251 C 
ATOM     35  H   UNL A   1      43.442  18.385  24.902  1.00  0.00     0.163 HD
ATOM     36  O   UNL A   1      44.720  19.773  23.440  1.00  0.00    -0.269 OA
BRANCH  34  37
ATOM     37  C   UNL A   1      44.489  21.557  24.955  1.00  0.00     0.039 A 
ATOM     38  C   UNL A   1      43.962  22.621  24.217  1.00  0.00     0.014 A 
ATOM     39  C   UNL A   1      45.271  21.823  26.082  1.00  0.00     0.014 A 
ATOM     40  C   UNL A   1      44.160  23.937  24.647  1.00  0.00     0.010 A 
ATOM     41  C   UNL A   1      45.384  23.125  26.564  1.00  0.00     0.010 A 
ATOM     42  C   UNL A   1      44.839  24.200  25.848  1.00  0.00    -0.014 A 
BRANCH  42  43
ATOM     43  C   UNL A   1      45.002  25.590  26.356  1.00  0.00     0.031 A 
ATOM     44  C   UNL A   1      46.361  26.240  26.367  1.00  0.00     0.074 A 
ATOM     45  C   UNL A   1      43.936  26.250  26.855  1.00  0.00     0.049 A 
ATOM     46  N   UNL A   1      46.714  27.415  26.823  1.00  0.00    -0.248 NA
ATOM     47  C   UNL A   1      47.476  25.450  25.822  1.00  0.00     0.031 C 
ATOM     48  C   UNL A   1      42.576  25.715  26.935  1.00  0.00     0.029 A 
ATOM     49  N   UNL A   1      43.826  27.510  27.388  1.00  0.00    -0.354 N 
ATOM     50  C   UNL A   1      48.091  27.500  26.629  1.00  0.00     0.074 A 
ATOM     51  C   UNL A   1      48.514  26.228  26.084  1.00  0.00     0.031 C 
ATOM     52  C   UNL A   1      41.763  26.652  27.450  1.00  0.00     0.029 A 
ATOM     53  C   UNL A   1      42.550  27.834  27.789  1.00  0.00     0.049 A 
ATOM     54  H   UNL A   1      44.590  28.125  27.476  1.00  0.00     0.167 HD
ATOM     55  C   UNL A   1      48.919  28.550  26.859  1.00  0.00     0.034 A 
ATOM     56  C   UNL A   1      42.068  28.949  28.373  1.00  0.00     0.034 A 
ATOM     57  C   UNL A   1      48.478  29.814  27.398  1.00  0.00     0.049 A 
ATOM     58  C   UNL A   1      43.015  30.089  28.655  1.00  0.00     0.074 A 
ATOM     59  C   UNL A   1      49.223  30.959  27.626  1.00  0.00     0.029 A 
ATOM     60  N   UNL A   1      47.180  30.100  27.803  1.00  0.00    -0.354 N 
ATOM     61  N   UNL A   1      44.305  30.171  28.420  1.00  0.00    -0.248 NA
ATOM     62  C   UNL A   1      42.439  31.291  29.269  1.00  0.00     0.031 C 
ATOM     63  C   UNL A   1      48.396  31.903  28.244  1.00  0.00     0.029 A 
ATOM     64  C   UNL A   1      47.112  31.388  28.314  1.00  0.00     0.049 A 
ATOM     65  H   UNL A   1      46.420  29.478  27.737  1.00  0.00     0.167 HD
ATOM     66  C   UNL A   1      44.684  31.449  28.824  1.00  0.00     0.074 A 
ATOM     67  C   UNL A   1      43.484  32.104  29.301  1.00  0.00     0.031 C 
ATOM     68  C   UNL A   1      45.912  32.030  28.797  1.00  0.00     0.034 A 
BRANCH  55  69
ATOM     69  C   UNL A   1      50.387  28.358  26.550  1.00  0.00     0.023 A 
ATOM     70  C   UNL A   1      50.913  28.604  25.270  1.00  0.00     0.031 A 
ATOM     71  C   UNL A   1      51.271  27.898  27.543  1.00  0.00     0.131 A 
ATOM     72  C   UNL A   1      52.257  28.308  24.993  1.00  0.00     0.055 A 
ATOM     73  C   UNL A   1      52.628  27.695  27.286  1.00  0.00     0.041 A 
ATOM     74  F   UNL A   1      50.827  27.623  28.780  1.00  0.00    -0.206 F 
ATOM     75  C   UNL A   1      53.126  27.883  26.000  1.00  0.00     0.022 A 
BRANCH  72  76
ATOM     76  S   UNL A   1      52.809  28.330  23.265  1.00  0.00     0.124 S 
ATOM     77  O   UNL A   1      52.032  29.443  22.723  1.00  0.00    -0.237 OA
ATOM     78  O   UNL A   1      54.243  28.557  23.395  1.00  0.00    -0.237 OA
ATOM     79  O   UNL A   1      52.427  27.011  22.766  1.00  0.00    -0.744 OA
ENDBRANCH  72  76
ENDBRANCH  55  69
BRANCH  56  80
ATOM     80  C   UNL A   1      40.625  29.049  28.740  1.00  0.00     0.023 A 
ATOM     81  C   UNL A   1      40.208  28.952  30.077  1.00  0.00     0.031 A 
ATOM     82  C   UNL A   1      39.633  29.194  27.753  1.00  0.00     0.131 A 
ATOM     83  C   UNL A   1      38.839  28.950  30.386  1.00  0.00     0.055 A 
ATOM     84  C   UNL A   1      38.275  29.255  28.071  1.00  0.00     0.041 A 
ATOM     85  F   UNL A   1      39.974  29.294  26.457  1.00  0.00    -0.206 F 
ATOM     86  C   UNL A   1      37.871  29.117  29.395  1.00  0.00     0.022 A 
BRANCH  83  87
ATOM     87  S   UNL A   1      38.337  28.628  32.100  1.00  0.00     0.124 S 
ATOM     88  O   UNL A   1      39.306  29.423  32.846  1.00  0.00    -0.237 OA
ATOM     89  O   UNL A   1      36.962  29.116  32.109  1.00  0.00    -0.237 OA
ATOM     90  O   UNL A   1      38.484  27.179  32.230  1.00  0.00    -0.744 OA
ENDBRANCH  83  87
ENDBRANCH  56  80
BRANCH  68  91
ATOM     91  C   UNL A   1      46.003  33.469  29.250  1.00  0.00     0.023 A 
ATOM     92  C   UNL A   1      45.657  34.539  28.407  1.00  0.00     0.031 A 
ATOM     93  C   UNL A   1      46.463  33.771  30.544  1.00  0.00     0.131 A 
ATOM     94  C   UNL A   1      45.839  35.860  28.844  1.00  0.00     0.055 A 
ATOM     95  C   UNL A   1      46.571  35.087  31.000  1.00  0.00     0.041 A 
ATOM     96  F   UNL A   1      46.814  32.792  31.393  1.00  0.00    -0.206 F 
ATOM     97  C   UNL A   1      46.274  36.140  30.141  1.00  0.00     0.022 A 
BRANCH  94  98
ATOM     98  S   UNL A   1      45.615  37.209  27.650  1.00  0.00     0.124 S 
ATOM     99  O   UNL A   1      46.896  37.211  26.952  1.00  0.00    -0.237 OA
ATOM    100  O   UNL A   1      44.467  36.752  26.875  1.00  0.00    -0.237 OA
ATOM    101  O   UNL A   1      45.367  38.376  28.495  1.00  0.00    -0.744 OA
ENDBRANCH  94  98
ENDBRANCH  68  91
ENDBRANCH  42  43
ENDBRANCH  34  37
ENDBRANCH  32  33
ENDBRANCH  31  32
ENDBRANCH   1  31
TORSDOF 18
ENDMDL
