MODEL 1
REMARK VINA RESULT:     -12.5      0.000      0.000
REMARK SMILES Cc1ccc(N2CC[C@H]([NH+]3CCOCC3)[C@H](CCC(=O)NCCCNC(=O)c3ccc(-c4c5nc(c(-c6cc(S(=O)(=O)[O-])ccc6F)c6ccc([nH]6)c(-c6cc(S(=O)(=O)[O-])ccc6F)c6nc(c(-c7cc(S(=O)(=O)[O-])ccc7F)c7ccc4[nH]7)C=C6)C=C5)cc3)C2)nc1
REMARK SMILES IDX 23 1 22 2 21 3 19 4 20 5 18 7 17 8 16 9 6 10 7 11 91 12 8 13
REMARK SMILES IDX 9 14 5 15 1 16 2 17 3 18 93 19 4 20 92 21 10 22 11 23 15 24
REMARK SMILES IDX 12 26 14 27 13 28 24 29 25 30 26 31 27 33 28 34 29 35 90 36
REMARK SMILES IDX 30 37 89 38 31 39 32 40 33 41 83 42 34 43 88 44 82 45 84 46
REMARK SMILES IDX 35 47 87 48 81 49 80 50 36 52 68 53 48 54 67 55 49 56 52 57
REMARK SMILES IDX 66 58 85 59 50 60 51 61 65 63 86 64 53 65 37 66 38 67 46 68
REMARK SMILES IDX 39 69 45 70 47 71 44 72 40 73 41 74 42 75 43 76 69 77 70 78
REMARK SMILES IDX 78 79 71 80 77 81 79 82 76 83 72 84 73 85 74 86 75 87 54 88
REMARK SMILES IDX 55 89 63 90 56 91 62 92 64 93 61 94 57 95 58 96 59 97 60 98
REMARK H PARENT 21 6 10 25 25 32 84 51 52 62
REMARK Flexibility Score: inf
ROOT
ATOM      1  C   UNL A   1      31.663  32.111  26.833  1.00  0.00     0.042 C 
ENDROOT
BRANCH   1   2
ATOM      2  C   UNL A   1      31.929  30.722  26.250  1.00  0.00     0.117 C 
BRANCH   2   3
ATOM      3  N   UNL A   1      31.623  29.704  27.243  1.00  0.00    -0.356 N 
ATOM      4  C   UNL A   1      31.774  28.347  27.185  1.00  0.00     0.220 C 
ATOM      5  O   UNL A   1      31.262  27.668  28.076  1.00  0.00    -0.275 OA
ATOM      6  H   UNL A   1      31.250  30.045  28.087  1.00  0.00     0.163 HD
BRANCH   4   7
ATOM      7  C   UNL A   1      32.666  27.712  26.128  1.00  0.00     0.100 C 
BRANCH   7   8
ATOM      8  C   UNL A   1      33.109  26.239  26.277  1.00  0.00     0.021 C 
BRANCH   8   9
ATOM      9  C   UNL A   1      33.751  25.593  25.030  1.00  0.00     0.067 C 
ATOM     10  N   UNL A   1      32.282  25.911  23.049  1.00  0.00    -0.356 N 
ATOM     11  C   UNL A   1      32.211  24.503  22.744  1.00  0.00     0.124 C 
ATOM     12  C   UNL A   1      33.456  26.406  23.737  1.00  0.00     0.127 C 
ATOM     13  C   UNL A   1      32.358  23.678  24.014  1.00  0.00     0.087 C 
ATOM     14  C   UNL A   1      33.654  24.046  24.746  1.00  0.00     0.190 C 
BRANCH  10  15
ATOM     15  C   UNL A   1      31.105  26.622  23.106  1.00  0.00     0.128 A 
ATOM     16  C   UNL A   1      27.395  28.708  23.182  1.00  0.00     0.046 C 
ATOM     17  C   UNL A   1      28.711  28.003  23.124  1.00  0.00    -0.033 A 
ATOM     18  C   UNL A   1      29.802  28.538  22.448  1.00  0.00     0.009 A 
ATOM     19  C   UNL A   1      28.895  26.783  23.761  1.00  0.00     0.117 A 
ATOM     20  C   UNL A   1      31.010  27.847  22.450  1.00  0.00     0.047 A 
ATOM     21  N   UNL A   1      30.050  26.081  23.750  1.00  0.00    -0.239 NA
ENDBRANCH  10  15
BRANCH  14  22
ATOM     22  N   UNL A   1      34.108  23.093  25.790  1.00  0.00    -0.328 N 
ATOM     23  C   UNL A   1      35.561  23.188  26.096  1.00  0.00     0.291 C 
ATOM     24  C   UNL A   1      33.751  21.673  25.696  1.00  0.00     0.291 C 
ATOM     25  H   UNL A   1      33.528  23.449  26.550  1.00  0.00     0.348 HD
ATOM     26  C   UNL A   1      36.487  22.215  25.329  1.00  0.00     0.221 C 
ATOM     27  C   UNL A   1      34.692  20.779  24.892  1.00  0.00     0.221 C 
ATOM     28  O   UNL A   1      36.025  20.863  25.392  1.00  0.00    -0.370 OA
ENDBRANCH  14  22
ENDBRANCH   8   9
ENDBRANCH   7   8
ENDBRANCH   4   7
ENDBRANCH   2   3
ENDBRANCH   1   2
BRANCH   1  29
ATOM     29  C   UNL A   1      32.918  32.852  27.223  1.00  0.00     0.118 C 
BRANCH  29  30
ATOM     30  N   UNL A   1      32.625  34.200  27.673  1.00  0.00    -0.352 N 
ATOM     31  C   UNL A   1      33.136  34.885  28.752  1.00  0.00     0.251 C 
ATOM     32  H   UNL A   1      31.970  34.695  27.129  1.00  0.00     0.163 HD
ATOM     33  O   UNL A   1      32.607  35.935  29.096  1.00  0.00    -0.269 OA
BRANCH  31  34
ATOM     34  C   UNL A   1      34.286  34.334  29.514  1.00  0.00     0.039 A 
ATOM     35  C   UNL A   1      34.035  33.568  30.654  1.00  0.00     0.014 A 
ATOM     36  C   UNL A   1      35.605  34.563  29.114  1.00  0.00     0.014 A 
ATOM     37  C   UNL A   1      35.101  32.992  31.353  1.00  0.00     0.010 A 
ATOM     38  C   UNL A   1      36.651  33.888  29.733  1.00  0.00     0.010 A 
ATOM     39  C   UNL A   1      36.416  33.115  30.877  1.00  0.00    -0.014 A 
BRANCH  39  40
ATOM     40  C   UNL A   1      37.563  32.489  31.587  1.00  0.00     0.031 A 
ATOM     41  C   UNL A   1      38.309  31.348  30.938  1.00  0.00     0.074 A 
ATOM     42  C   UNL A   1      37.904  32.909  32.822  1.00  0.00     0.049 A 
ATOM     43  N   UNL A   1      39.283  30.617  31.417  1.00  0.00    -0.248 NA
ATOM     44  C   UNL A   1      37.878  30.955  29.587  1.00  0.00     0.031 C 
ATOM     45  C   UNL A   1      37.234  33.977  33.566  1.00  0.00     0.029 A 
ATOM     46  N   UNL A   1      38.898  32.489  33.671  1.00  0.00    -0.354 N 
ATOM     47  C   UNL A   1      39.568  29.675  30.432  1.00  0.00     0.074 A 
ATOM     48  C   UNL A   1      38.613  29.878  29.367  1.00  0.00     0.031 C 
ATOM     49  C   UNL A   1      37.860  34.155  34.742  1.00  0.00     0.029 A 
ATOM     50  C   UNL A   1      38.938  33.179  34.863  1.00  0.00     0.049 A 
ATOM     51  H   UNL A   1      39.525  31.764  33.448  1.00  0.00     0.167 HD
ATOM     52  C   UNL A   1      40.558  28.749  30.405  1.00  0.00     0.034 A 
ATOM     53  C   UNL A   1      39.743  33.033  35.934  1.00  0.00     0.034 A 
ATOM     54  C   UNL A   1      41.516  28.574  31.466  1.00  0.00     0.049 A 
ATOM     55  C   UNL A   1      40.814  31.969  35.892  1.00  0.00     0.074 A 
ATOM     56  C   UNL A   1      42.587  27.701  31.525  1.00  0.00     0.029 A 
ATOM     57  N   UNL A   1      41.519  29.287  32.659  1.00  0.00    -0.354 N 
ATOM     58  N   UNL A   1      41.099  31.119  34.931  1.00  0.00    -0.248 NA
ATOM     59  C   UNL A   1      41.679  31.854  37.073  1.00  0.00     0.031 C 
ATOM     60  C   UNL A   1      43.191  27.832  32.778  1.00  0.00     0.029 A 
ATOM     61  C   UNL A   1      42.554  28.849  33.471  1.00  0.00     0.049 A 
ATOM     62  H   UNL A   1      40.881  29.998  32.893  1.00  0.00     0.167 HD
ATOM     63  C   UNL A   1      42.199  30.394  35.381  1.00  0.00     0.074 A 
ATOM     64  C   UNL A   1      42.537  30.921  36.687  1.00  0.00     0.031 C 
ATOM     65  C   UNL A   1      42.874  29.385  34.772  1.00  0.00     0.034 A 
BRANCH  52  66
ATOM     66  C   UNL A   1      40.639  27.849  29.193  1.00  0.00     0.023 A 
ATOM     67  C   UNL A   1      41.576  28.072  28.168  1.00  0.00     0.031 A 
ATOM     68  C   UNL A   1      39.760  26.761  29.054  1.00  0.00     0.131 A 
ATOM     69  C   UNL A   1      41.565  27.266  27.020  1.00  0.00     0.055 A 
ATOM     70  C   UNL A   1      39.812  25.909  27.948  1.00  0.00     0.041 A 
ATOM     71  F   UNL A   1      38.828  26.510  29.986  1.00  0.00    -0.206 F 
ATOM     72  C   UNL A   1      40.710  26.168  26.916  1.00  0.00     0.022 A 
BRANCH  69  73
ATOM     73  S   UNL A   1      42.592  27.757  25.608  1.00  0.00     0.124 S 
ATOM     74  O   UNL A   1      43.861  28.068  26.262  1.00  0.00    -0.237 OA
ATOM     75  O   UNL A   1      42.578  26.560  24.775  1.00  0.00    -0.237 OA
ATOM     76  O   UNL A   1      41.885  28.911  25.056  1.00  0.00    -0.744 OA
ENDBRANCH  69  73
ENDBRANCH  52  66
BRANCH  53  77
ATOM     77  C   UNL A   1      39.574  33.893  37.142  1.00  0.00     0.023 A 
ATOM     78  C   UNL A   1      38.956  33.398  38.302  1.00  0.00     0.031 A 
ATOM     79  C   UNL A   1      39.968  35.243  37.135  1.00  0.00     0.131 A 
ATOM     80  C   UNL A   1      38.689  34.260  39.377  1.00  0.00     0.055 A 
ATOM     81  C   UNL A   1      39.761  36.080  38.234  1.00  0.00     0.041 A 
ATOM     82  F   UNL A   1      40.564  35.772  36.055  1.00  0.00    -0.206 F 
ATOM     83  C   UNL A   1      39.101  35.594  39.357  1.00  0.00     0.022 A 
BRANCH  80  84
ATOM     84  S   UNL A   1      37.684  33.641  40.755  1.00  0.00     0.124 S 
ATOM     85  O   UNL A   1      38.603  32.708  41.395  1.00  0.00    -0.237 OA
ATOM     86  O   UNL A   1      37.396  34.867  41.493  1.00  0.00    -0.237 OA
ATOM     87  O   UNL A   1      36.535  33.031  40.090  1.00  0.00    -0.744 OA
ENDBRANCH  80  84
ENDBRANCH  53  77
BRANCH  65  88
ATOM     88  C   UNL A   1      44.075  28.825  35.494  1.00  0.00     0.023 A 
ATOM     89  C   UNL A   1      43.967  27.737  36.379  1.00  0.00     0.031 A 
ATOM     90  C   UNL A   1      45.345  29.395  35.299  1.00  0.00     0.131 A 
ATOM     91  C   UNL A   1      45.098  27.295  37.081  1.00  0.00     0.055 A 
ATOM     92  C   UNL A   1      46.480  28.904  35.946  1.00  0.00     0.041 A 
ATOM     93  F   UNL A   1      45.507  30.437  34.467  1.00  0.00    -0.206 F 
ATOM     94  C   UNL A   1      46.356  27.857  36.854  1.00  0.00     0.022 A 
BRANCH  91  95
ATOM     95  S   UNL A   1      44.883  26.038  38.370  1.00  0.00     0.124 S 
ATOM     96  O   UNL A   1      46.263  25.658  38.655  1.00  0.00    -0.237 OA
ATOM     97  O   UNL A   1      44.200  26.784  39.422  1.00  0.00    -0.237 OA
ATOM     98  O   UNL A   1      44.078  25.009  37.717  1.00  0.00    -0.744 OA
ENDBRANCH  91  95
ENDBRANCH  65  88
ENDBRANCH  39  40
ENDBRANCH  31  34
ENDBRANCH  29  30
ENDBRANCH   1  29
TORSDOF 17
ENDMDL
MODEL 2
REMARK VINA RESULT:     -12.5      1.575      1.936
REMARK SMILES Cc1ccc(N2CC[C@H]([NH+]3CCOCC3)[C@H](CCC(=O)NCCCNC(=O)c3ccc(-c4c5nc(c(-c6cc(S(=O)(=O)[O-])ccc6F)c6ccc([nH]6)c(-c6cc(S(=O)(=O)[O-])ccc6F)c6nc(c(-c7cc(S(=O)(=O)[O-])ccc7F)c7ccc4[nH]7)C=C6)C=C5)cc3)C2)nc1
REMARK SMILES IDX 23 1 22 2 21 3 19 4 20 5 18 7 17 8 16 9 6 10 7 11 91 12 8 13
REMARK SMILES IDX 9 14 5 15 1 16 2 17 3 18 93 19 4 20 92 21 10 22 11 23 15 24
REMARK SMILES IDX 12 26 14 27 13 28 24 29 25 30 26 31 27 33 28 34 29 35 90 36
REMARK SMILES IDX 30 37 89 38 31 39 32 40 33 41 83 42 34 43 88 44 82 45 84 46
REMARK SMILES IDX 35 47 87 48 81 49 80 50 36 52 68 53 48 54 67 55 49 56 52 57
REMARK SMILES IDX 66 58 85 59 50 60 51 61 65 63 86 64 53 65 37 66 38 67 46 68
REMARK SMILES IDX 39 69 45 70 47 71 44 72 40 73 41 74 42 75 43 76 69 77 70 78
REMARK SMILES IDX 78 79 71 80 77 81 79 82 76 83 72 84 73 85 74 86 75 87 54 88
REMARK SMILES IDX 55 89 63 90 56 91 62 92 64 93 61 94 57 95 58 96 59 97 60 98
REMARK H PARENT 21 6 10 25 25 32 84 51 52 62
REMARK Flexibility Score: inf
ROOT
ATOM      1  C   UNL A   1      31.432  31.885  26.849  1.00  0.00     0.042 C 
ENDROOT
BRANCH   1   2
ATOM      2  C   UNL A   1      31.618  30.663  25.948  1.00  0.00     0.117 C 
BRANCH   2   3
ATOM      3  N   UNL A   1      32.883  30.014  26.255  1.00  0.00    -0.356 N 
ATOM      4  C   UNL A   1      33.148  28.940  27.058  1.00  0.00     0.220 C 
ATOM      5  O   UNL A   1      34.325  28.689  27.320  1.00  0.00    -0.275 OA
ATOM      6  H   UNL A   1      33.671  30.409  25.816  1.00  0.00     0.163 HD
BRANCH   4   7
ATOM      7  C   UNL A   1      32.030  28.006  27.494  1.00  0.00     0.100 C 
BRANCH   7   8
ATOM      8  C   UNL A   1      31.301  27.133  26.448  1.00  0.00     0.021 C 
BRANCH   8   9
ATOM      9  C   UNL A   1      32.201  26.368  25.455  1.00  0.00     0.067 C 
ATOM     10  N   UNL A   1      31.598  26.964  23.117  1.00  0.00    -0.356 N 
ATOM     11  C   UNL A   1      31.374  25.596  22.714  1.00  0.00     0.124 C 
ATOM     12  C   UNL A   1      32.532  27.217  24.195  1.00  0.00     0.127 C 
ATOM     13  C   UNL A   1      30.913  24.764  23.901  1.00  0.00     0.087 C 
ATOM     14  C   UNL A   1      31.919  24.870  25.054  1.00  0.00     0.190 C 
BRANCH  10  15
ATOM     15  C   UNL A   1      30.631  27.895  22.816  1.00  0.00     0.128 A 
ATOM     16  C   UNL A   1      27.706  30.877  21.997  1.00  0.00     0.046 C 
ATOM     17  C   UNL A   1      28.704  29.811  22.311  1.00  0.00    -0.033 A 
ATOM     18  C   UNL A   1      28.349  28.648  22.986  1.00  0.00     0.009 A 
ATOM     19  C   UNL A   1      30.031  29.940  21.925  1.00  0.00     0.117 A 
ATOM     20  C   UNL A   1      29.318  27.679  23.229  1.00  0.00     0.047 A 
ATOM     21  N   UNL A   1      30.994  29.026  22.177  1.00  0.00    -0.239 NA
ENDBRANCH  10  15
BRANCH  14  22
ATOM     22  N   UNL A   1      31.794  23.850  26.125  1.00  0.00    -0.328 N 
ATOM     23  C   UNL A   1      33.085  23.512  26.784  1.00  0.00     0.291 C 
ATOM     24  C   UNL A   1      31.068  22.600  25.872  1.00  0.00     0.291 C 
ATOM     25  H   UNL A   1      31.175  24.381  26.737  1.00  0.00     0.348 HD
ATOM     26  C   UNL A   1      33.843  22.288  26.218  1.00  0.00     0.221 C 
ATOM     27  C   UNL A   1      31.873  21.446  25.278  1.00  0.00     0.221 C 
ATOM     28  O   UNL A   1      33.001  21.138  26.094  1.00  0.00    -0.370 OA
ENDBRANCH  14  22
ENDBRANCH   8   9
ENDBRANCH   7   8
ENDBRANCH   4   7
ENDBRANCH   2   3
ENDBRANCH   1   2
BRANCH   1  29
ATOM     29  C   UNL A   1      32.730  32.536  27.259  1.00  0.00     0.118 C 
BRANCH  29  30
ATOM     30  N   UNL A   1      32.549  33.940  27.575  1.00  0.00    -0.352 N 
ATOM     31  C   UNL A   1      33.152  34.694  28.557  1.00  0.00     0.251 C 
ATOM     32  H   UNL A   1      31.906  34.422  27.006  1.00  0.00     0.163 HD
ATOM     33  O   UNL A   1      32.711  35.808  28.808  1.00  0.00    -0.269 OA
BRANCH  31  34
ATOM     34  C   UNL A   1      34.294  34.143  29.330  1.00  0.00     0.039 A 
ATOM     35  C   UNL A   1      34.032  33.378  30.469  1.00  0.00     0.014 A 
ATOM     36  C   UNL A   1      35.617  34.370  28.942  1.00  0.00     0.014 A 
ATOM     37  C   UNL A   1      35.090  32.802  31.179  1.00  0.00     0.010 A 
ATOM     38  C   UNL A   1      36.656  33.694  29.573  1.00  0.00     0.010 A 
ATOM     39  C   UNL A   1      36.411  32.923  30.715  1.00  0.00    -0.014 A 
BRANCH  39  40
ATOM     40  C   UNL A   1      37.550  32.297  31.436  1.00  0.00     0.031 A 
ATOM     41  C   UNL A   1      38.328  31.184  30.778  1.00  0.00     0.074 A 
ATOM     42  C   UNL A   1      37.855  32.691  32.689  1.00  0.00     0.049 A 
ATOM     43  N   UNL A   1      39.302  30.456  31.262  1.00  0.00    -0.248 NA
ATOM     44  C   UNL A   1      37.936  30.818  29.408  1.00  0.00     0.031 C 
ATOM     45  C   UNL A   1      37.151  33.730  33.444  1.00  0.00     0.029 A 
ATOM     46  N   UNL A   1      38.836  32.266  33.551  1.00  0.00    -0.354 N 
ATOM     47  C   UNL A   1      39.625  29.543  30.261  1.00  0.00     0.074 A 
ATOM     48  C   UNL A   1      38.692  29.758  29.179  1.00  0.00     0.031 C 
ATOM     49  C   UNL A   1      37.746  33.888  34.638  1.00  0.00     0.029 A 
ATOM     50  C   UNL A   1      38.836  32.926  34.760  1.00  0.00     0.049 A 
ATOM     51  H   UNL A   1      39.478  31.555  33.326  1.00  0.00     0.167 HD
ATOM     52  C   UNL A   1      40.629  28.633  30.235  1.00  0.00     0.034 A 
ATOM     53  C   UNL A   1      39.618  32.765  35.846  1.00  0.00     0.034 A 
ATOM     54  C   UNL A   1      41.565  28.447  31.314  1.00  0.00     0.049 A 
ATOM     55  C   UNL A   1      40.707  31.719  35.804  1.00  0.00     0.074 A 
ATOM     56  C   UNL A   1      42.648  27.588  31.377  1.00  0.00     0.029 A 
ATOM     57  N   UNL A   1      41.529  29.129  32.524  1.00  0.00    -0.354 N 
ATOM     58  N   UNL A   1      41.027  30.898  34.830  1.00  0.00    -0.248 NA
ATOM     59  C   UNL A   1      41.545  31.588  37.002  1.00  0.00     0.031 C 
ATOM     60  C   UNL A   1      43.220  27.697  32.648  1.00  0.00     0.029 A 
ATOM     61  C   UNL A   1      42.552  28.686  33.350  1.00  0.00     0.049 A 
ATOM     62  H   UNL A   1      40.874  29.824  32.761  1.00  0.00     0.167 HD
ATOM     63  C   UNL A   1      42.128  30.179  35.288  1.00  0.00     0.074 A 
ATOM     64  C   UNL A   1      42.427  30.677  36.614  1.00  0.00     0.031 C 
ATOM     65  C   UNL A   1      42.832  29.195  34.670  1.00  0.00     0.034 A 
BRANCH  52  66
ATOM     66  C   UNL A   1      40.753  27.765  29.004  1.00  0.00     0.023 A 
ATOM     67  C   UNL A   1      41.681  28.052  27.987  1.00  0.00     0.031 A 
ATOM     68  C   UNL A   1      39.924  26.642  28.838  1.00  0.00     0.131 A 
ATOM     69  C   UNL A   1      41.709  27.272  26.822  1.00  0.00     0.055 A 
ATOM     70  C   UNL A   1      40.016  25.818  27.713  1.00  0.00     0.041 A 
ATOM     71  F   UNL A   1      39.002  26.329  29.762  1.00  0.00    -0.206 F 
ATOM     72  C   UNL A   1      40.904  26.140  26.690  1.00  0.00     0.022 A 
BRANCH  69  73
ATOM     73  S   UNL A   1      42.715  27.840  25.423  1.00  0.00     0.124 S 
ATOM     74  O   UNL A   1      42.720  26.658  24.566  1.00  0.00    -0.237 OA
ATOM     75  O   UNL A   1      41.956  28.983  24.931  1.00  0.00    -0.237 OA
ATOM     76  O   UNL A   1      44.002  28.162  26.036  1.00  0.00    -0.744 OA
ENDBRANCH  69  73
ENDBRANCH  52  66
BRANCH  53  77
ATOM     77  C   UNL A   1      39.408  33.593  37.071  1.00  0.00     0.023 A 
ATOM     78  C   UNL A   1      40.180  34.741  37.310  1.00  0.00     0.031 A 
ATOM     79  C   UNL A   1      38.479  33.213  38.056  1.00  0.00     0.131 A 
ATOM     80  C   UNL A   1      40.059  35.429  38.527  1.00  0.00     0.055 A 
ATOM     81  C   UNL A   1      38.313  33.939  39.237  1.00  0.00     0.041 A 
ATOM     82  F   UNL A   1      37.712  32.124  37.884  1.00  0.00    -0.206 F 
ATOM     83  C   UNL A   1      39.119  35.045  39.486  1.00  0.00     0.022 A 
BRANCH  80  84
ATOM     84  S   UNL A   1      41.234  36.762  38.891  1.00  0.00     0.124 S 
ATOM     85  O   UNL A   1      41.978  36.849  37.640  1.00  0.00    -0.237 OA
ATOM     86  O   UNL A   1      40.341  37.878  39.186  1.00  0.00    -0.237 OA
ATOM     87  O   UNL A   1      41.987  36.249  40.033  1.00  0.00    -0.744 OA
ENDBRANCH  80  84
ENDBRANCH  53  77
BRANCH  65  88
ATOM     88  C   UNL A   1      44.024  28.635  35.408  1.00  0.00     0.023 A 
ATOM     89  C   UNL A   1      43.905  27.552  36.296  1.00  0.00     0.031 A 
ATOM     90  C   UNL A   1      45.298  29.202  35.222  1.00  0.00     0.131 A 
ATOM     91  C   UNL A   1      45.028  27.109  37.011  1.00  0.00     0.055 A 
ATOM     92  C   UNL A   1      46.425  28.711  35.883  1.00  0.00     0.041 A 
ATOM     93  F   UNL A   1      45.470  30.240  34.388  1.00  0.00    -0.206 F 
ATOM     94  C   UNL A   1      46.290  27.668  36.794  1.00  0.00     0.022 A 
BRANCH  91  95
ATOM     95  S   UNL A   1      44.797  25.859  38.303  1.00  0.00     0.124 S 
ATOM     96  O   UNL A   1      44.240  26.651  39.395  1.00  0.00    -0.237 OA
ATOM     97  O   UNL A   1      43.881  24.918  37.668  1.00  0.00    -0.237 OA
ATOM     98  O   UNL A   1      46.148  25.350  38.533  1.00  0.00    -0.744 OA
ENDBRANCH  91  95
ENDBRANCH  65  88
ENDBRANCH  39  40
ENDBRANCH  31  34
ENDBRANCH  29  30
ENDBRANCH   1  29
TORSDOF 17
ENDMDL
MODEL 3
REMARK VINA RESULT:     -12.3      6.145     11.590
REMARK SMILES Cc1ccc(N2CC[C@H]([NH+]3CCOCC3)[C@H](CCC(=O)NCCCNC(=O)c3ccc(-c4c5nc(c(-c6cc(S(=O)(=O)[O-])ccc6F)c6ccc([nH]6)c(-c6cc(S(=O)(=O)[O-])ccc6F)c6nc(c(-c7cc(S(=O)(=O)[O-])ccc7F)c7ccc4[nH]7)C=C6)C=C5)cc3)C2)nc1
REMARK SMILES IDX 23 1 22 2 21 3 19 4 20 5 18 7 17 8 16 9 6 10 7 11 91 12 8 13
REMARK SMILES IDX 9 14 5 15 1 16 2 17 3 18 93 19 4 20 92 21 10 22 11 23 15 24
REMARK SMILES IDX 12 26 14 27 13 28 24 29 25 30 26 31 27 33 28 34 29 35 90 36
REMARK SMILES IDX 30 37 89 38 31 39 32 40 33 41 83 42 34 43 88 44 82 45 84 46
REMARK SMILES IDX 35 47 87 48 81 49 80 50 36 52 68 53 48 54 67 55 49 56 52 57
REMARK SMILES IDX 66 58 85 59 50 60 51 61 65 63 86 64 53 65 37 66 38 67 46 68
REMARK SMILES IDX 39 69 45 70 47 71 44 72 40 73 41 74 42 75 43 76 69 77 70 78
REMARK SMILES IDX 78 79 71 80 77 81 79 82 76 83 72 84 73 85 74 86 75 87 54 88
REMARK SMILES IDX 55 89 63 90 56 91 62 92 64 93 61 94 57 95 58 96 59 97 60 98
REMARK H PARENT 21 6 10 25 25 32 84 51 52 62
REMARK Flexibility Score: inf
ROOT
ATOM      1  C   UNL A   1      37.855  19.582  25.121  1.00  0.00     0.042 C 
ENDROOT
BRANCH   1   2
ATOM      2  C   UNL A   1      36.680  20.552  24.982  1.00  0.00     0.117 C 
BRANCH   2   3
ATOM      3  N   UNL A   1      37.048  21.646  24.096  1.00  0.00    -0.356 N 
ATOM      4  C   UNL A   1      36.293  22.680  23.618  1.00  0.00     0.220 C 
ATOM      5  O   UNL A   1      36.770  23.379  22.723  1.00  0.00    -0.275 OA
ATOM      6  H   UNL A   1      37.985  21.640  23.795  1.00  0.00     0.163 HD
BRANCH   4   7
ATOM      7  C   UNL A   1      34.967  23.037  24.272  1.00  0.00     0.100 C 
BRANCH   7   8
ATOM      8  C   UNL A   1      34.943  23.585  25.718  1.00  0.00     0.021 C 
BRANCH   8   9
ATOM      9  C   UNL A   1      33.553  23.943  26.286  1.00  0.00     0.067 C 
ATOM     10  N   UNL A   1      31.936  22.114  25.808  1.00  0.00    -0.356 N 
ATOM     11  C   UNL A   1      30.993  22.979  25.143  1.00  0.00     0.124 C 
ATOM     12  C   UNL A   1      32.801  22.689  26.817  1.00  0.00     0.127 C 
ATOM     13  C   UNL A   1      31.715  24.148  24.490  1.00  0.00     0.087 C 
ATOM     14  C   UNL A   1      32.561  24.901  25.524  1.00  0.00     0.190 C 
BRANCH  10  15
ATOM     15  C   UNL A   1      32.302  20.947  25.177  1.00  0.00     0.128 A 
ATOM     16  C   UNL A   1      33.595  17.383  23.241  1.00  0.00     0.046 C 
ATOM     17  C   UNL A   1      33.135  18.653  23.881  1.00  0.00    -0.033 A 
ATOM     18  C   UNL A   1      32.520  19.663  23.150  1.00  0.00     0.009 A 
ATOM     19  C   UNL A   1      33.297  18.863  25.243  1.00  0.00     0.117 A 
ATOM     20  C   UNL A   1      32.091  20.813  23.806  1.00  0.00     0.047 A 
ATOM     21  N   UNL A   1      32.915  19.984  25.895  1.00  0.00    -0.239 NA
ENDBRANCH  10  15
BRANCH  14  22
ATOM     22  N   UNL A   1      33.030  26.252  25.125  1.00  0.00    -0.328 N 
ATOM     23  C   UNL A   1      33.224  27.181  26.271  1.00  0.00     0.291 C 
ATOM     24  C   UNL A   1      32.344  26.983  24.053  1.00  0.00     0.291 C 
ATOM     25  H   UNL A   1      33.914  25.963  24.707  1.00  0.00     0.348 HD
ATOM     26  C   UNL A   1      32.030  28.103  26.615  1.00  0.00     0.221 C 
ATOM     27  C   UNL A   1      31.151  27.844  24.462  1.00  0.00     0.221 C 
ATOM     28  O   UNL A   1      31.523  28.787  25.466  1.00  0.00    -0.370 OA
ENDBRANCH  14  22
ENDBRANCH   8   9
ENDBRANCH   7   8
ENDBRANCH   4   7
ENDBRANCH   2   3
ENDBRANCH   1   2
BRANCH   1  29
ATOM     29  C   UNL A   1      39.082  20.205  25.739  1.00  0.00     0.118 C 
BRANCH  29  30
ATOM     30  N   UNL A   1      40.134  19.227  25.943  1.00  0.00    -0.352 N 
ATOM     31  C   UNL A   1      41.478  19.431  26.165  1.00  0.00     0.251 C 
ATOM     32  H   UNL A   1      39.847  18.285  25.921  1.00  0.00     0.163 HD
ATOM     33  O   UNL A   1      42.244  18.478  26.098  1.00  0.00    -0.269 OA
BRANCH  31  34
ATOM     34  C   UNL A   1      41.994  20.797  26.440  1.00  0.00     0.039 A 
ATOM     35  C   UNL A   1      42.192  21.671  25.369  1.00  0.00     0.014 A 
ATOM     36  C   UNL A   1      42.280  21.222  27.739  1.00  0.00     0.014 A 
ATOM     37  C   UNL A   1      42.621  22.980  25.610  1.00  0.00     0.010 A 
ATOM     38  C   UNL A   1      42.584  22.557  27.987  1.00  0.00     0.010 A 
ATOM     39  C   UNL A   1      42.785  23.447  26.925  1.00  0.00    -0.014 A 
BRANCH  39  40
ATOM     40  C   UNL A   1      43.215  24.842  27.208  1.00  0.00     0.031 A 
ATOM     41  C   UNL A   1      42.257  25.795  27.880  1.00  0.00     0.074 A 
ATOM     42  C   UNL A   1      44.436  25.263  26.824  1.00  0.00     0.049 A 
ATOM     43  N   UNL A   1      42.406  27.067  28.147  1.00  0.00    -0.248 NA
ATOM     44  C   UNL A   1      40.946  25.254  28.273  1.00  0.00     0.031 C 
ATOM     45  C   UNL A   1      45.435  24.445  26.133  1.00  0.00     0.029 A 
ATOM     46  N   UNL A   1      45.049  26.485  26.960  1.00  0.00    -0.354 N 
ATOM     47  C   UNL A   1      41.206  27.476  28.723  1.00  0.00     0.074 A 
ATOM     48  C   UNL A   1      40.317  26.338  28.694  1.00  0.00     0.031 C 
ATOM     49  C   UNL A   1      46.546  25.174  25.941  1.00  0.00     0.029 A 
ATOM     50  C   UNL A   1      46.325  26.526  26.441  1.00  0.00     0.049 A 
ATOM     51  H   UNL A   1      44.617  27.259  27.388  1.00  0.00     0.167 HD
ATOM     52  C   UNL A   1      40.889  28.680  29.258  1.00  0.00     0.034 A 
ATOM     53  C   UNL A   1      47.208  27.542  26.367  1.00  0.00     0.034 A 
ATOM     54  C   UNL A   1      41.796  29.799  29.300  1.00  0.00     0.049 A 
ATOM     55  C   UNL A   1      46.815  28.884  26.938  1.00  0.00     0.074 A 
ATOM     56  C   UNL A   1      41.597  31.050  29.857  1.00  0.00     0.029 A 
ATOM     57  N   UNL A   1      43.076  29.804  28.758  1.00  0.00    -0.354 N 
ATOM     58  N   UNL A   1      45.693  29.238  27.523  1.00  0.00    -0.248 NA
ATOM     59  C   UNL A   1      47.812  29.958  26.851  1.00  0.00     0.031 C 
ATOM     60  C   UNL A   1      42.724  31.832  29.589  1.00  0.00     0.029 A 
ATOM     61  C   UNL A   1      43.663  31.047  28.941  1.00  0.00     0.049 A 
ATOM     62  H   UNL A   1      43.502  29.039  28.310  1.00  0.00     0.167 HD
ATOM     63  C   UNL A   1      45.867  30.566  27.903  1.00  0.00     0.074 A 
ATOM     64  C   UNL A   1      47.206  30.941  27.501  1.00  0.00     0.031 C 
ATOM     65  C   UNL A   1      45.000  31.402  28.531  1.00  0.00     0.034 A 
BRANCH  52  66
ATOM     66  C   UNL A   1      39.499  28.847  29.828  1.00  0.00     0.023 A 
ATOM     67  C   UNL A   1      38.441  29.361  29.057  1.00  0.00     0.031 A 
ATOM     68  C   UNL A   1      39.230  28.499  31.164  1.00  0.00     0.131 A 
ATOM     69  C   UNL A   1      37.186  29.579  29.645  1.00  0.00     0.055 A 
ATOM     70  C   UNL A   1      37.955  28.638  31.718  1.00  0.00     0.041 A 
ATOM     71  F   UNL A   1      40.203  28.025  31.957  1.00  0.00    -0.206 F 
ATOM     72  C   UNL A   1      36.927  29.194  30.961  1.00  0.00     0.022 A 
BRANCH  69  73
ATOM     73  S   UNL A   1      35.938  30.500  28.704  1.00  0.00     0.124 S 
ATOM     74  O   UNL A   1      35.290  31.276  29.758  1.00  0.00    -0.237 OA
ATOM     75  O   UNL A   1      36.750  31.258  27.759  1.00  0.00    -0.237 OA
ATOM     76  O   UNL A   1      35.109  29.450  28.116  1.00  0.00    -0.744 OA
ENDBRANCH  69  73
ENDBRANCH  52  66
BRANCH  53  77
ATOM     77  C   UNL A   1      48.541  27.352  25.723  1.00  0.00     0.023 A 
ATOM     78  C   UNL A   1      48.716  27.562  24.345  1.00  0.00     0.031 A 
ATOM     79  C   UNL A   1      49.647  26.893  26.461  1.00  0.00     0.131 A 
ATOM     80  C   UNL A   1      49.942  27.251  23.738  1.00  0.00     0.055 A 
ATOM     81  C   UNL A   1      50.886  26.649  25.864  1.00  0.00     0.041 A 
ATOM     82  F   UNL A   1      49.540  26.675  27.782  1.00  0.00    -0.206 F 
ATOM     83  C   UNL A   1      51.033  26.811  24.490  1.00  0.00     0.022 A 
BRANCH  80  84
ATOM     84  S   UNL A   1      50.055  27.314  21.928  1.00  0.00     0.124 S 
ATOM     85  O   UNL A   1      49.835  28.733  21.668  1.00  0.00    -0.237 OA
ATOM     86  O   UNL A   1      51.407  26.820  21.693  1.00  0.00    -0.237 OA
ATOM     87  O   UNL A   1      48.982  26.425  21.490  1.00  0.00    -0.744 OA
ENDBRANCH  80  84
ENDBRANCH  53  77
BRANCH  65  88
ATOM     88  C   UNL A   1      45.500  32.787  28.864  1.00  0.00     0.023 A 
ATOM     89  C   UNL A   1      45.325  33.870  27.984  1.00  0.00     0.031 A 
ATOM     90  C   UNL A   1      46.167  33.023  30.079  1.00  0.00     0.131 A 
ATOM     91  C   UNL A   1      45.867  35.123  28.305  1.00  0.00     0.055 A 
ATOM     92  C   UNL A   1      46.641  34.289  30.424  1.00  0.00     0.041 A 
ATOM     93  F   UNL A   1      46.364  32.026  30.956  1.00  0.00    -0.206 F 
ATOM     94  C   UNL A   1      46.505  35.344  29.528  1.00  0.00     0.022 A 
BRANCH  91  95
ATOM     95  S   UNL A   1      45.814  36.437  27.057  1.00  0.00     0.124 S 
ATOM     96  O   UNL A   1      46.701  37.441  27.636  1.00  0.00    -0.237 OA
ATOM     97  O   UNL A   1      46.316  35.758  25.866  1.00  0.00    -0.237 OA
ATOM     98  O   UNL A   1      44.402  36.810  27.009  1.00  0.00    -0.744 OA
ENDBRANCH  91  95
ENDBRANCH  65  88
ENDBRANCH  39  40
ENDBRANCH  31  34
ENDBRANCH  29  30
ENDBRANCH   1  29
TORSDOF 17
ENDMDL
