MODEL 1
REMARK VINA RESULT:     -11.7      0.000      0.000
REMARK SMILES Cc1ccc2nc(Cl)c([C@@H]3CC(c4cccs4)=NN3C(=O)CCCC(=O)NCCCNC(=O)c3ccc(-c4c5nc(c(-c6cc(S(=O)(=O)[O-])ccc6F)c6ccc([nH]6)c(-c6cc(S(=O)(=O)[O-])ccc6F)c6nc(c(-c7cc(S(=O)(=O)[O-])ccc7F)c7ccc4[nH]7)C=C6)C=C5)cc3)cc2c1
REMARK SMILES IDX 28 1 27 2 25 3 26 4 24 6 23 7 22 8 20 9 21 10 19 11 10 12
REMARK SMILES IDX 11 13 12 14 18 15 9 16 1 17 2 18 3 19 99 20 4 21 98 22 5 23
REMARK SMILES IDX 97 24 6 25 7 26 8 27 13 28 14 29 17 30 15 31 16 32 29 33
REMARK SMILES IDX 30 34 31 35 32 36 33 38 34 39 35 40 96 41 36 42 95 43 37 44
REMARK SMILES IDX 38 45 39 46 89 47 40 48 94 49 88 50 90 51 41 52 93 53 87 54
REMARK SMILES IDX 86 55 42 57 74 58 54 59 73 60 55 61 58 62 72 63 91 64 56 65
REMARK SMILES IDX 57 66 71 68 92 69 59 70 43 71 44 72 52 73 45 74 51 75 53 76
REMARK SMILES IDX 50 77 46 78 47 79 48 80 49 81 75 82 76 83 84 84 77 85 83 86
REMARK SMILES IDX 85 87 82 88 78 89 79 90 80 91 81 92 60 93 61 94 69 95 62 96
REMARK SMILES IDX 68 97 70 98 67 99 63 100 64 101 65 102 66 103
REMARK H PARENT 27 5 31 37 90 56 58 67
REMARK Flexibility Score: inf
ROOT
ATOM      1  C   UNL A   1      35.167  33.118  27.704  1.00  0.00     0.117 C 
ENDROOT
BRANCH   1   2
ATOM      2  N   UNL A   1      36.374  32.568  28.281  1.00  0.00    -0.356 N 
ATOM      3  C   UNL A   1      36.746  31.277  28.463  1.00  0.00     0.220 C 
ATOM      4  O   UNL A   1      37.954  31.031  28.493  1.00  0.00    -0.275 OA
ATOM      5  H   UNL A   1      37.028  33.237  28.590  1.00  0.00     0.163 HD
BRANCH   3   6
ATOM      6  C   UNL A   1      35.743  30.142  28.538  1.00  0.00     0.100 C 
BRANCH   6   7
ATOM      7  C   UNL A   1      35.423  29.380  27.258  1.00  0.00     0.020 C 
BRANCH   7   8
ATOM      8  C   UNL A   1      34.033  28.741  27.150  1.00  0.00     0.103 C 
BRANCH   8   9
ATOM      9  C   UNL A   1      33.209  29.261  25.983  1.00  0.00     0.243 C 
ATOM     10  O   UNL A   1      32.834  30.437  25.960  1.00  0.00    -0.273 OA
BRANCH   9  11
ATOM     11  N   UNL A   1      32.916  28.355  24.941  1.00  0.00    -0.225 N 
ATOM     12  C   UNL A   1      32.370  27.005  25.276  1.00  0.00     0.150 C 
ATOM     13  C   UNL A   1      30.909  27.073  24.875  1.00  0.00     0.092 C 
ATOM     14  C   UNL A   1      30.944  28.284  23.998  1.00  0.00     0.081 C 
ATOM     15  N   UNL A   1      32.059  28.950  24.001  1.00  0.00    -0.173 NA
BRANCH  12  16
ATOM     16  C   UNL A   1      33.137  25.824  24.685  1.00  0.00     0.015 A 
ATOM     17  C   UNL A   1      38.220  22.501  25.946  1.00  0.00     0.044 C 
ATOM     18  C   UNL A   1      37.004  22.892  25.154  1.00  0.00    -0.050 A 
ATOM     19  C   UNL A   1      36.940  22.643  23.783  1.00  0.00     0.005 A 
ATOM     20  C   UNL A   1      35.952  23.588  25.767  1.00  0.00     0.013 A 
ATOM     21  C   UNL A   1      35.864  23.127  23.034  1.00  0.00     0.029 A 
ATOM     22  C   UNL A   1      34.902  24.132  24.996  1.00  0.00     0.001 A 
ATOM     23  C   UNL A   1      34.868  23.901  23.612  1.00  0.00     0.072 A 
ATOM     24  C   UNL A   1      33.968  25.050  25.526  1.00  0.00     0.019 A 
ATOM     25  N   UNL A   1      33.970  24.500  22.824  1.00  0.00    -0.236 NA
ATOM     26  C   UNL A   1      33.158  25.448  23.346  1.00  0.00     0.135 A 
ATOM     27  Cl  UNL A   1      32.201  26.146  22.108  1.00  0.00    -0.062 Cl
ENDBRANCH  12  16
BRANCH  14  28
ATOM     28  C   UNL A   1      29.762  28.709  23.302  1.00  0.00     0.050 A 
ATOM     29  C   UNL A   1      28.488  28.191  23.424  1.00  0.00     0.022 A 
ATOM     30  S   UNL A   1      29.818  30.004  22.196  1.00  0.00    -0.142 S 
ATOM     31  C   UNL A   1      27.544  28.889  22.620  1.00  0.00     0.012 A 
ATOM     32  C   UNL A   1      28.140  29.888  21.883  1.00  0.00     0.065 A 
ENDBRANCH  14  28
ENDBRANCH   9  11
ENDBRANCH   8   9
ENDBRANCH   7   8
ENDBRANCH   6   7
ENDBRANCH   3   6
ENDBRANCH   1   2
BRANCH   1  33
ATOM     33  C   UNL A   1      33.967  33.123  28.634  1.00  0.00     0.042 C 
BRANCH  33  34
ATOM     34  C   UNL A   1      34.299  33.864  29.922  1.00  0.00     0.118 C 
BRANCH  34  35
ATOM     35  N   UNL A   1      33.195  34.651  30.475  1.00  0.00    -0.352 N 
ATOM     36  C   UNL A   1      33.084  35.077  31.785  1.00  0.00     0.251 C 
ATOM     37  H   UNL A   1      32.468  34.899  29.859  1.00  0.00     0.163 HD
ATOM     38  O   UNL A   1      32.095  35.668  32.203  1.00  0.00    -0.269 OA
BRANCH  36  39
ATOM     39  C   UNL A   1      34.202  34.741  32.684  1.00  0.00     0.039 A 
ATOM     40  C   UNL A   1      34.152  33.549  33.409  1.00  0.00     0.014 A 
ATOM     41  C   UNL A   1      35.378  35.485  32.589  1.00  0.00     0.014 A 
ATOM     42  C   UNL A   1      35.330  33.036  33.947  1.00  0.00     0.010 A 
ATOM     43  C   UNL A   1      36.560  34.925  33.042  1.00  0.00     0.010 A 
ATOM     44  C   UNL A   1      36.551  33.685  33.705  1.00  0.00    -0.014 A 
BRANCH  44  45
ATOM     45  C   UNL A   1      37.852  33.090  34.103  1.00  0.00     0.031 A 
ATOM     46  C   UNL A   1      38.427  31.979  33.274  1.00  0.00     0.074 A 
ATOM     47  C   UNL A   1      38.422  33.446  35.272  1.00  0.00     0.049 A 
ATOM     48  N   UNL A   1      39.424  31.177  33.537  1.00  0.00    -0.248 NA
ATOM     49  C   UNL A   1      37.741  31.696  32.004  1.00  0.00     0.031 C 
ATOM     50  C   UNL A   1      37.912  34.465  36.192  1.00  0.00     0.029 A 
ATOM     51  N   UNL A   1      39.543  32.966  35.903  1.00  0.00    -0.354 N 
ATOM     52  C   UNL A   1      39.455  30.265  32.489  1.00  0.00     0.074 A 
ATOM     53  C   UNL A   1      38.337  30.579  31.624  1.00  0.00     0.031 C 
ATOM     54  C   UNL A   1      38.720  34.541  37.262  1.00  0.00     0.029 A 
ATOM     55  C   UNL A   1      39.779  33.546  37.129  1.00  0.00     0.049 A 
ATOM     56  H   UNL A   1      40.124  32.272  35.515  1.00  0.00     0.167 HD
ATOM     57  C   UNL A   1      40.348  29.270  32.262  1.00  0.00     0.034 A 
ATOM     58  C   UNL A   1      40.729  33.287  38.049  1.00  0.00     0.034 A 
ATOM     59  C   UNL A   1      41.477  29.011  33.120  1.00  0.00     0.049 A 
ATOM     60  C   UNL A   1      41.742  32.212  37.758  1.00  0.00     0.074 A 
ATOM     61  C   UNL A   1      42.501  28.099  32.949  1.00  0.00     0.029 A 
ATOM     62  N   UNL A   1      41.728  29.671  34.318  1.00  0.00    -0.354 N 
ATOM     63  N   UNL A   1      41.802  31.395  36.730  1.00  0.00    -0.248 NA
ATOM     64  C   UNL A   1      42.821  32.027  38.738  1.00  0.00     0.031 C 
ATOM     65  C   UNL A   1      43.340  28.168  34.066  1.00  0.00     0.029 A 
ATOM     66  C   UNL A   1      42.878  29.170  34.905  1.00  0.00     0.049 A 
ATOM     67  H   UNL A   1      41.169  30.388  34.694  1.00  0.00     0.167 HD
ATOM     68  C   UNL A   1      42.941  30.621  36.926  1.00  0.00     0.074 A 
ATOM     69  C   UNL A   1      43.538  31.068  38.169  1.00  0.00     0.031 C 
ATOM     70  C   UNL A   1      43.453  29.636  36.144  1.00  0.00     0.034 A 
BRANCH  57  71
ATOM     71  C   UNL A   1      40.113  28.392  31.056  1.00  0.00     0.023 A 
ATOM     72  C   UNL A   1      40.781  28.614  29.838  1.00  0.00     0.031 A 
ATOM     73  C   UNL A   1      39.157  27.363  31.100  1.00  0.00     0.131 A 
ATOM     74  C   UNL A   1      40.405  27.899  28.692  1.00  0.00     0.055 A 
ATOM     75  C   UNL A   1      38.859  26.586  29.977  1.00  0.00     0.041 A 
ATOM     76  F   UNL A   1      38.472  27.112  32.227  1.00  0.00    -0.206 F 
ATOM     77  C   UNL A   1      39.468  26.868  28.758  1.00  0.00     0.022 A 
BRANCH  74  78
ATOM     78  S   UNL A   1      41.026  28.465  27.084  1.00  0.00     0.124 S 
ATOM     79  O   UNL A   1      42.183  29.264  27.482  1.00  0.00    -0.237 OA
ATOM     80  O   UNL A   1      41.318  27.212  26.400  1.00  0.00    -0.237 OA
ATOM     81  O   UNL A   1      39.909  29.232  26.537  1.00  0.00    -0.744 OA
ENDBRANCH  74  78
ENDBRANCH  57  71
BRANCH  58  82
ATOM     82  C   UNL A   1      40.762  34.052  39.328  1.00  0.00     0.023 A 
ATOM     83  C   UNL A   1      39.863  33.767  40.367  1.00  0.00     0.031 A 
ATOM     84  C   UNL A   1      41.697  35.084  39.528  1.00  0.00     0.131 A 
ATOM     85  C   UNL A   1      39.894  34.525  41.548  1.00  0.00     0.055 A 
ATOM     86  C   UNL A   1      41.751  35.809  40.722  1.00  0.00     0.041 A 
ATOM     87  F   UNL A   1      42.588  35.388  38.572  1.00  0.00    -0.206 F 
ATOM     88  C   UNL A   1      40.839  35.537  41.736  1.00  0.00     0.022 A 
BRANCH  85  89
ATOM     89  S   UNL A   1      38.643  34.203  42.822  1.00  0.00     0.124 S 
ATOM     90  O   UNL A   1      37.738  35.333  42.643  1.00  0.00    -0.237 OA
ATOM     91  O   UNL A   1      38.130  32.899  42.421  1.00  0.00    -0.237 OA
ATOM     92  O   UNL A   1      39.414  34.212  44.064  1.00  0.00    -0.744 OA
ENDBRANCH  85  89
ENDBRANCH  58  82
BRANCH  70  93
ATOM     93  C   UNL A   1      44.753  29.018  36.582  1.00  0.00     0.023 A 
ATOM     94  C   UNL A   1      44.795  27.837  37.341  1.00  0.00     0.031 A 
ATOM     95  C   UNL A   1      45.971  29.608  36.197  1.00  0.00     0.131 A 
ATOM     96  C   UNL A   1      46.033  27.295  37.715  1.00  0.00     0.055 A 
ATOM     97  C   UNL A   1      47.198  29.040  36.534  1.00  0.00     0.041 A 
ATOM     98  F   UNL A   1      45.982  30.738  35.470  1.00  0.00    -0.206 F 
ATOM     99  C   UNL A   1      47.235  27.879  37.302  1.00  0.00     0.022 A 
BRANCH  96 100
ATOM    100  S   UNL A   1      46.059  25.831  38.784  1.00  0.00     0.124 S 
ATOM    101  O   UNL A   1      47.349  25.235  38.450  1.00  0.00    -0.237 OA
ATOM    102  O   UNL A   1      45.953  26.413  40.118  1.00  0.00    -0.237 OA
ATOM    103  O   UNL A   1      44.891  25.067  38.348  1.00  0.00    -0.744 OA
ENDBRANCH  96 100
ENDBRANCH  70  93
ENDBRANCH  44  45
ENDBRANCH  36  39
ENDBRANCH  34  35
ENDBRANCH  33  34
ENDBRANCH   1  33
TORSDOF 19
ENDMDL
MODEL 2
REMARK VINA RESULT:     -11.6      4.855     10.840
REMARK SMILES Cc1ccc2nc(Cl)c([C@@H]3CC(c4cccs4)=NN3C(=O)CCCC(=O)NCCCNC(=O)c3ccc(-c4c5nc(c(-c6cc(S(=O)(=O)[O-])ccc6F)c6ccc([nH]6)c(-c6cc(S(=O)(=O)[O-])ccc6F)c6nc(c(-c7cc(S(=O)(=O)[O-])ccc7F)c7ccc4[nH]7)C=C6)C=C5)cc3)cc2c1
REMARK SMILES IDX 28 1 27 2 25 3 26 4 24 6 23 7 22 8 20 9 21 10 19 11 10 12
REMARK SMILES IDX 11 13 12 14 18 15 9 16 1 17 2 18 3 19 99 20 4 21 98 22 5 23
REMARK SMILES IDX 97 24 6 25 7 26 8 27 13 28 14 29 17 30 15 31 16 32 29 33
REMARK SMILES IDX 30 34 31 35 32 36 33 38 34 39 35 40 96 41 36 42 95 43 37 44
REMARK SMILES IDX 38 45 39 46 89 47 40 48 94 49 88 50 90 51 41 52 93 53 87 54
REMARK SMILES IDX 86 55 42 57 74 58 54 59 73 60 55 61 58 62 72 63 91 64 56 65
REMARK SMILES IDX 57 66 71 68 92 69 59 70 43 71 44 72 52 73 45 74 51 75 53 76
REMARK SMILES IDX 50 77 46 78 47 79 48 80 49 81 75 82 76 83 84 84 77 85 83 86
REMARK SMILES IDX 85 87 82 88 78 89 79 90 80 91 81 92 60 93 61 94 69 95 62 96
REMARK SMILES IDX 68 97 70 98 67 99 63 100 64 101 65 102 66 103
REMARK H PARENT 27 5 31 37 90 56 58 67
REMARK Flexibility Score: inf
ROOT
ATOM      1  C   UNL A   1      36.189  33.883  31.128  1.00  0.00     0.117 C 
ENDROOT
BRANCH   1   2
ATOM      2  N   UNL A   1      37.122  34.536  30.236  1.00  0.00    -0.356 N 
ATOM      3  C   UNL A   1      38.466  34.394  30.120  1.00  0.00     0.220 C 
ATOM      4  O   UNL A   1      38.972  34.638  29.022  1.00  0.00    -0.275 OA
ATOM      5  H   UNL A   1      36.717  35.186  29.616  1.00  0.00     0.163 HD
BRANCH   3   6
ATOM      6  C   UNL A   1      39.330  33.867  31.249  1.00  0.00     0.100 C 
BRANCH   6   7
ATOM      7  C   UNL A   1      40.500  32.957  30.895  1.00  0.00     0.020 C 
BRANCH   7   8
ATOM      8  C   UNL A   1      41.906  33.450  31.255  1.00  0.00     0.103 C 
BRANCH   8   9
ATOM      9  C   UNL A   1      42.860  32.337  31.661  1.00  0.00     0.243 C 
ATOM     10  O   UNL A   1      42.675  31.709  32.707  1.00  0.00    -0.273 OA
BRANCH   9  11
ATOM     11  N   UNL A   1      43.934  32.054  30.790  1.00  0.00    -0.225 N 
ATOM     12  C   UNL A   1      43.939  30.770  30.027  1.00  0.00     0.150 C 
ATOM     13  C   UNL A   1      43.620  31.173  28.599  1.00  0.00     0.092 C 
ATOM     14  C   UNL A   1      43.896  32.640  28.684  1.00  0.00     0.081 C 
ATOM     15  N   UNL A   1      44.115  33.105  29.878  1.00  0.00    -0.173 NA
BRANCH  12  16
ATOM     16  C   UNL A   1      45.200  29.921  30.180  1.00  0.00     0.015 A 
ATOM     17  C   UNL A   1      47.683  24.820  27.672  1.00  0.00     0.044 C 
ATOM     18  C   UNL A   1      47.624  25.991  28.612  1.00  0.00    -0.050 A 
ATOM     19  C   UNL A   1      48.284  25.950  29.840  1.00  0.00     0.005 A 
ATOM     20  C   UNL A   1      46.833  27.109  28.304  1.00  0.00     0.013 A 
ATOM     21  C   UNL A   1      48.114  26.988  30.760  1.00  0.00     0.029 A 
ATOM     22  C   UNL A   1      46.612  28.122  29.262  1.00  0.00     0.001 A 
ATOM     23  C   UNL A   1      47.258  28.050  30.507  1.00  0.00     0.072 A 
ATOM     24  C   UNL A   1      45.630  29.123  29.096  1.00  0.00     0.019 A 
ATOM     25  N   UNL A   1      46.981  28.911  31.490  1.00  0.00    -0.236 NA
ATOM     26  C   UNL A   1      45.967  29.792  31.333  1.00  0.00     0.135 A 
ATOM     27  Cl  UNL A   1      45.737  30.685  32.777  1.00  0.00    -0.062 Cl
ENDBRANCH  12  16
BRANCH  14  28
ATOM     28  C   UNL A   1      43.802  33.464  27.512  1.00  0.00     0.050 A 
ATOM     29  C   UNL A   1      43.439  34.796  27.452  1.00  0.00     0.022 A 
ATOM     30  S   UNL A   1      44.179  32.839  25.971  1.00  0.00    -0.142 S 
ATOM     31  C   UNL A   1      43.502  35.312  26.127  1.00  0.00     0.012 A 
ATOM     32  C   UNL A   1      43.871  34.345  25.219  1.00  0.00     0.065 A 
ENDBRANCH  14  28
ENDBRANCH   9  11
ENDBRANCH   8   9
ENDBRANCH   7   8
ENDBRANCH   6   7
ENDBRANCH   3   6
ENDBRANCH   1   2
BRANCH   1  33
ATOM     33  C   UNL A   1      34.813  33.637  30.533  1.00  0.00     0.042 C 
BRANCH  33  34
ATOM     34  C   UNL A   1      34.824  33.924  29.038  1.00  0.00     0.118 C 
BRANCH  34  35
ATOM     35  N   UNL A   1      33.754  33.270  28.283  1.00  0.00    -0.352 N 
ATOM     36  C   UNL A   1      33.809  32.000  27.741  1.00  0.00     0.251 C 
ATOM     37  H   UNL A   1      32.922  33.779  28.150  1.00  0.00     0.163 HD
ATOM     38  O   UNL A   1      32.905  31.539  27.052  1.00  0.00    -0.269 OA
BRANCH  36  39
ATOM     39  C   UNL A   1      35.040  31.231  27.988  1.00  0.00     0.039 A 
ATOM     40  C   UNL A   1      36.269  31.892  27.950  1.00  0.00     0.014 A 
ATOM     41  C   UNL A   1      34.925  29.938  28.500  1.00  0.00     0.014 A 
ATOM     42  C   UNL A   1      37.378  31.291  28.545  1.00  0.00     0.010 A 
ATOM     43  C   UNL A   1      36.004  29.389  29.173  1.00  0.00     0.010 A 
ATOM     44  C   UNL A   1      37.233  30.070  29.222  1.00  0.00    -0.014 A 
BRANCH  44  45
ATOM     45  C   UNL A   1      38.335  29.476  30.020  1.00  0.00     0.031 A 
ATOM     46  C   UNL A   1      38.543  29.941  31.431  1.00  0.00     0.074 A 
ATOM     47  C   UNL A   1      39.219  28.646  29.429  1.00  0.00     0.049 A 
ATOM     48  N   UNL A   1      39.548  29.728  32.237  1.00  0.00    -0.248 NA
ATOM     49  C   UNL A   1      37.501  30.821  31.984  1.00  0.00     0.031 C 
ATOM     50  C   UNL A   1      39.154  28.182  28.041  1.00  0.00     0.029 A 
ATOM     51  N   UNL A   1      40.366  28.068  29.915  1.00  0.00    -0.354 N 
ATOM     52  C   UNL A   1      39.283  30.483  33.373  1.00  0.00     0.074 A 
ATOM     53  C   UNL A   1      38.055  31.207  33.120  1.00  0.00     0.031 C 
ATOM     54  C   UNL A   1      40.206  27.386  27.791  1.00  0.00     0.029 A 
ATOM     55  C   UNL A   1      41.045  27.319  28.982  1.00  0.00     0.049 A 
ATOM     56  H   UNL A   1      40.673  28.180  30.844  1.00  0.00     0.167 HD
ATOM     57  C   UNL A   1      39.991  30.549  34.527  1.00  0.00     0.034 A 
ATOM     58  C   UNL A   1      42.223  26.670  29.073  1.00  0.00     0.034 A 
ATOM     59  C   UNL A   1      41.189  29.781  34.764  1.00  0.00     0.049 A 
ATOM     60  C   UNL A   1      42.973  26.714  30.379  1.00  0.00     0.074 A 
ATOM     61  C   UNL A   1      41.941  29.689  35.920  1.00  0.00     0.029 A 
ATOM     62  N   UNL A   1      41.808  28.971  33.819  1.00  0.00    -0.354 N 
ATOM     63  N   UNL A   1      42.680  27.381  31.472  1.00  0.00    -0.248 NA
ATOM     64  C   UNL A   1      44.200  25.913  30.471  1.00  0.00     0.031 C 
ATOM     65  C   UNL A   1      43.043  28.867  35.660  1.00  0.00     0.029 A 
ATOM     66  C   UNL A   1      42.945  28.393  34.361  1.00  0.00     0.049 A 
ATOM     67  H   UNL A   1      41.487  28.830  32.900  1.00  0.00     0.167 HD
ATOM     68  C   UNL A   1      43.672  27.056  32.392  1.00  0.00     0.074 A 
ATOM     69  C   UNL A   1      44.570  26.134  31.726  1.00  0.00     0.031 C 
ATOM     70  C   UNL A   1      43.821  27.474  33.675  1.00  0.00     0.034 A 
BRANCH  57  71
ATOM     71  C   UNL A   1      39.493  31.497  35.591  1.00  0.00     0.023 A 
ATOM     72  C   UNL A   1      38.804  31.037  36.728  1.00  0.00     0.031 A 
ATOM     73  C   UNL A   1      39.643  32.886  35.435  1.00  0.00     0.131 A 
ATOM     74  C   UNL A   1      38.198  31.952  37.600  1.00  0.00     0.055 A 
ATOM     75  C   UNL A   1      39.121  33.792  36.362  1.00  0.00     0.041 A 
ATOM     76  F   UNL A   1      40.274  33.390  34.363  1.00  0.00    -0.206 F 
ATOM     77  C   UNL A   1      38.374  33.328  37.440  1.00  0.00     0.022 A 
BRANCH  74  78
ATOM     78  S   UNL A   1      37.026  31.320  38.832  1.00  0.00     0.124 S 
ATOM     79  O   UNL A   1      35.954  32.309  38.749  1.00  0.00    -0.237 OA
ATOM     80  O   UNL A   1      36.712  29.993  38.316  1.00  0.00    -0.237 OA
ATOM     81  O   UNL A   1      37.791  31.344  40.076  1.00  0.00    -0.744 OA
ENDBRANCH  74  78
ENDBRANCH  57  71
BRANCH  58  82
ATOM     82  C   UNL A   1      42.766  25.932  27.897  1.00  0.00     0.023 A 
ATOM     83  C   UNL A   1      42.522  24.561  27.726  1.00  0.00     0.031 A 
ATOM     84  C   UNL A   1      43.542  26.591  26.926  1.00  0.00     0.131 A 
ATOM     85  C   UNL A   1      43.074  23.883  26.627  1.00  0.00     0.055 A 
ATOM     86  C   UNL A   1      44.055  25.921  25.812  1.00  0.00     0.041 A 
ATOM     87  F   UNL A   1      43.793  27.906  27.035  1.00  0.00    -0.206 F 
ATOM     88  C   UNL A   1      43.829  24.557  25.664  1.00  0.00     0.022 A 
BRANCH  85  89
ATOM     89  S   UNL A   1      42.832  22.090  26.500  1.00  0.00     0.124 S 
ATOM     90  O   UNL A   1      44.089  21.662  25.896  1.00  0.00    -0.237 OA
ATOM     91  O   UNL A   1      42.627  21.711  27.893  1.00  0.00    -0.237 OA
ATOM     92  O   UNL A   1      41.654  21.966  25.643  1.00  0.00    -0.744 OA
ENDBRANCH  85  89
ENDBRANCH  58  82
BRANCH  70  93
ATOM     93  C   UNL A   1      44.966  26.890  34.458  1.00  0.00     0.023 A 
ATOM     94  C   UNL A   1      46.199  27.552  34.574  1.00  0.00     0.031 A 
ATOM     95  C   UNL A   1      44.799  25.666  35.130  1.00  0.00     0.131 A 
ATOM     96  C   UNL A   1      47.232  26.970  35.324  1.00  0.00     0.055 A 
ATOM     97  C   UNL A   1      45.813  25.115  35.911  1.00  0.00     0.041 A 
ATOM     98  F   UNL A   1      43.636  24.997  35.051  1.00  0.00    -0.206 F 
ATOM     99  C   UNL A   1      47.041  25.765  36.007  1.00  0.00     0.022 A 
BRANCH  96 100
ATOM    100  S   UNL A   1      48.848  27.791  35.369  1.00  0.00     0.124 S 
ATOM    101  O   UNL A   1      49.294  27.506  36.730  1.00  0.00    -0.237 OA
ATOM    102  O   UNL A   1      49.577  27.109  34.304  1.00  0.00    -0.237 OA
ATOM    103  O   UNL A   1      48.530  29.192  35.101  1.00  0.00    -0.744 OA
ENDBRANCH  96 100
ENDBRANCH  70  93
ENDBRANCH  44  45
ENDBRANCH  36  39
ENDBRANCH  34  35
ENDBRANCH  33  34
ENDBRANCH   1  33
TORSDOF 19
ENDMDL
MODEL 3
REMARK VINA RESULT:     -11.5      1.390      7.293
REMARK SMILES Cc1ccc2nc(Cl)c([C@@H]3CC(c4cccs4)=NN3C(=O)CCCC(=O)NCCCNC(=O)c3ccc(-c4c5nc(c(-c6cc(S(=O)(=O)[O-])ccc6F)c6ccc([nH]6)c(-c6cc(S(=O)(=O)[O-])ccc6F)c6nc(c(-c7cc(S(=O)(=O)[O-])ccc7F)c7ccc4[nH]7)C=C6)C=C5)cc3)cc2c1
REMARK SMILES IDX 28 1 27 2 25 3 26 4 24 6 23 7 22 8 20 9 21 10 19 11 10 12
REMARK SMILES IDX 11 13 12 14 18 15 9 16 1 17 2 18 3 19 99 20 4 21 98 22 5 23
REMARK SMILES IDX 97 24 6 25 7 26 8 27 13 28 14 29 17 30 15 31 16 32 29 33
REMARK SMILES IDX 30 34 31 35 32 36 33 38 34 39 35 40 96 41 36 42 95 43 37 44
REMARK SMILES IDX 38 45 39 46 89 47 40 48 94 49 88 50 90 51 41 52 93 53 87 54
REMARK SMILES IDX 86 55 42 57 74 58 54 59 73 60 55 61 58 62 72 63 91 64 56 65
REMARK SMILES IDX 57 66 71 68 92 69 59 70 43 71 44 72 52 73 45 74 51 75 53 76
REMARK SMILES IDX 50 77 46 78 47 79 48 80 49 81 75 82 76 83 84 84 77 85 83 86
REMARK SMILES IDX 85 87 82 88 78 89 79 90 80 91 81 92 60 93 61 94 69 95 62 96
REMARK SMILES IDX 68 97 70 98 67 99 63 100 64 101 65 102 66 103
REMARK H PARENT 27 5 31 37 90 56 58 67
REMARK Flexibility Score: inf
ROOT
ATOM      1  C   UNL A   1      35.495  32.437  28.115  1.00  0.00     0.117 C 
ENDROOT
BRANCH   1   2
ATOM      2  N   UNL A   1      35.435  31.305  29.013  1.00  0.00    -0.356 N 
ATOM      3  C   UNL A   1      35.782  30.009  28.810  1.00  0.00     0.220 C 
ATOM      4  O   UNL A   1      36.123  29.350  29.794  1.00  0.00    -0.275 OA
ATOM      5  H   UNL A   1      35.088  31.506  29.912  1.00  0.00     0.163 HD
BRANCH   3   6
ATOM      6  C   UNL A   1      35.850  29.390  27.427  1.00  0.00     0.100 C 
BRANCH   6   7
ATOM      7  C   UNL A   1      34.564  28.845  26.819  1.00  0.00     0.020 C 
BRANCH   7   8
ATOM      8  C   UNL A   1      33.274  29.023  27.627  1.00  0.00     0.103 C 
BRANCH   8   9
ATOM      9  C   UNL A   1      32.107  28.197  27.109  1.00  0.00     0.243 C 
ATOM     10  O   UNL A   1      31.095  28.047  27.800  1.00  0.00    -0.273 OA
BRANCH   9  11
ATOM     11  N   UNL A   1      32.230  27.638  25.819  1.00  0.00    -0.225 N 
ATOM     12  C   UNL A   1      31.616  26.306  25.537  1.00  0.00     0.150 C 
ATOM     13  C   UNL A   1      30.405  26.617  24.678  1.00  0.00     0.092 C 
ATOM     14  C   UNL A   1      30.746  28.011  24.256  1.00  0.00     0.081 C 
ATOM     15  N   UNL A   1      31.773  28.543  24.848  1.00  0.00    -0.173 NA
BRANCH  12  16
ATOM     16  C   UNL A   1      32.561  25.261  24.946  1.00  0.00     0.015 A 
ATOM     17  C   UNL A   1      38.274  23.075  25.975  1.00  0.00     0.044 C 
ATOM     18  C   UNL A   1      36.956  23.172  25.260  1.00  0.00    -0.050 A 
ATOM     19  C   UNL A   1      36.853  22.830  23.912  1.00  0.00     0.005 A 
ATOM     20  C   UNL A   1      35.828  23.688  25.918  1.00  0.00     0.013 A 
ATOM     21  C   UNL A   1      35.656  23.048  23.225  1.00  0.00     0.029 A 
ATOM     22  C   UNL A   1      34.643  23.968  25.204  1.00  0.00     0.001 A 
ATOM     23  C   UNL A   1      34.566  23.648  23.839  1.00  0.00     0.072 A 
ATOM     24  C   UNL A   1      33.583  24.718  25.758  1.00  0.00     0.019 A 
ATOM     25  N   UNL A   1      33.518  24.011  23.094  1.00  0.00    -0.236 NA
ATOM     26  C   UNL A   1      32.569  24.813  23.629  1.00  0.00     0.135 A 
ATOM     27  Cl  UNL A   1      31.414  25.234  22.436  1.00  0.00    -0.062 Cl
ENDBRANCH  12  16
BRANCH  14  28
ATOM     28  C   UNL A   1      29.899  28.718  23.337  1.00  0.00     0.050 A 
ATOM     29  C   UNL A   1      30.272  29.704  22.445  1.00  0.00     0.022 A 
ATOM     30  S   UNL A   1      28.234  28.366  23.236  1.00  0.00    -0.142 S 
ATOM     31  C   UNL A   1      29.180  30.151  21.649  1.00  0.00     0.012 A 
ATOM     32  C   UNL A   1      28.005  29.519  21.993  1.00  0.00     0.065 A 
ENDBRANCH  14  28
ENDBRANCH   9  11
ENDBRANCH   8   9
ENDBRANCH   7   8
ENDBRANCH   6   7
ENDBRANCH   3   6
ENDBRANCH   1   2
BRANCH   1  33
ATOM     33  C   UNL A   1      34.362  33.435  28.281  1.00  0.00     0.042 C 
BRANCH  33  34
ATOM     34  C   UNL A   1      34.697  34.439  29.376  1.00  0.00     0.118 C 
BRANCH  34  35
ATOM     35  N   UNL A   1      33.539  35.136  29.939  1.00  0.00    -0.352 N 
ATOM     36  C   UNL A   1      33.248  35.262  31.284  1.00  0.00     0.251 C 
ATOM     37  H   UNL A   1      32.913  35.552  29.303  1.00  0.00     0.163 HD
ATOM     38  O   UNL A   1      32.220  35.794  31.688  1.00  0.00    -0.269 OA
BRANCH  36  39
ATOM     39  C   UNL A   1      34.218  34.676  32.225  1.00  0.00     0.039 A 
ATOM     40  C   UNL A   1      34.107  33.325  32.556  1.00  0.00     0.014 A 
ATOM     41  C   UNL A   1      35.355  35.414  32.552  1.00  0.00     0.014 A 
ATOM     42  C   UNL A   1      35.205  32.675  33.118  1.00  0.00     0.010 A 
ATOM     43  C   UNL A   1      36.473  34.744  33.020  1.00  0.00     0.010 A 
ATOM     44  C   UNL A   1      36.416  33.365  33.286  1.00  0.00    -0.014 A 
BRANCH  44  45
ATOM     45  C   UNL A   1      37.661  32.678  33.713  1.00  0.00     0.031 A 
ATOM     46  C   UNL A   1      38.212  32.957  35.081  1.00  0.00     0.074 A 
ATOM     47  C   UNL A   1      38.357  31.938  32.826  1.00  0.00     0.049 A 
ATOM     48  N   UNL A   1      39.375  32.646  35.587  1.00  0.00    -0.248 NA
ATOM     49  C   UNL A   1      37.356  33.751  35.975  1.00  0.00     0.031 C 
ATOM     50  C   UNL A   1      37.950  31.659  31.447  1.00  0.00     0.029 A 
ATOM     51  N   UNL A   1      39.571  31.308  32.945  1.00  0.00    -0.354 N 
ATOM     52  C   UNL A   1      39.408  33.246  36.840  1.00  0.00     0.074 A 
ATOM     53  C   UNL A   1      38.174  33.989  36.985  1.00  0.00     0.031 C 
ATOM     54  C   UNL A   1      38.891  30.908  30.852  1.00  0.00     0.029 A 
ATOM     55  C   UNL A   1      39.989  30.691  31.788  1.00  0.00     0.049 A 
ATOM     56  H   UNL A   1      40.094  31.300  33.779  1.00  0.00     0.167 HD
ATOM     57  C   UNL A   1      40.373  33.164  37.790  1.00  0.00     0.034 A 
ATOM     58  C   UNL A   1      41.137  30.042  31.509  1.00  0.00     0.034 A 
ATOM     59  C   UNL A   1      41.572  32.379  37.632  1.00  0.00     0.049 A 
ATOM     60  C   UNL A   1      42.178  29.920  32.591  1.00  0.00     0.074 A 
ATOM     61  C   UNL A   1      42.576  32.141  38.552  1.00  0.00     0.029 A 
ATOM     62  N   UNL A   1      41.927  31.703  36.471  1.00  0.00    -0.354 N 
ATOM     63  N   UNL A   1      42.172  30.438  33.799  1.00  0.00    -0.248 NA
ATOM     64  C   UNL A   1      43.371  29.121  32.283  1.00  0.00     0.031 C 
ATOM     65  C   UNL A   1      43.563  31.367  37.932  1.00  0.00     0.029 A 
ATOM     66  C   UNL A   1      43.145  31.066  36.645  1.00  0.00     0.049 A 
ATOM     67  H   UNL A   1      41.392  31.681  35.645  1.00  0.00     0.167 HD
ATOM     68  C   UNL A   1      43.346  30.001  34.404  1.00  0.00     0.074 A 
ATOM     69  C   UNL A   1      44.035  29.179  33.430  1.00  0.00     0.031 C 
ATOM     70  C   UNL A   1      43.808  30.249  35.657  1.00  0.00     0.034 A 
BRANCH  57  71
ATOM     71  C   UNL A   1      40.168  33.963  39.055  1.00  0.00     0.023 A 
ATOM     72  C   UNL A   1      39.361  33.490  40.105  1.00  0.00     0.031 A 
ATOM     73  C   UNL A   1      40.726  35.246  39.186  1.00  0.00     0.131 A 
ATOM     74  C   UNL A   1      39.045  34.331  41.181  1.00  0.00     0.055 A 
ATOM     75  C   UNL A   1      40.487  36.042  40.309  1.00  0.00     0.041 A 
ATOM     76  F   UNL A   1      41.490  35.764  38.211  1.00  0.00    -0.206 F 
ATOM     77  C   UNL A   1      39.624  35.595  41.304  1.00  0.00     0.022 A 
BRANCH  74  78
ATOM     78  S   UNL A   1      37.724  33.819  42.314  1.00  0.00     0.124 S 
ATOM     79  O   UNL A   1      38.438  32.901  43.199  1.00  0.00    -0.237 OA
ATOM     80  O   UNL A   1      37.308  35.084  42.906  1.00  0.00    -0.237 OA
ATOM     81  O   UNL A   1      36.744  33.186  41.434  1.00  0.00    -0.744 OA
ENDBRANCH  74  78
ENDBRANCH  57  71
BRANCH  58  82
ATOM     82  C   UNL A   1      41.365  29.468  30.153  1.00  0.00     0.023 A 
ATOM     83  C   UNL A   1      40.867  28.201  29.810  1.00  0.00     0.031 A 
ATOM     84  C   UNL A   1      42.088  30.179  29.179  1.00  0.00     0.131 A 
ATOM     85  C   UNL A   1      41.125  27.668  28.537  1.00  0.00     0.055 A 
ATOM     86  C   UNL A   1      42.307  29.663  27.899  1.00  0.00     0.041 A 
ATOM     87  F   UNL A   1      42.573  31.401  29.451  1.00  0.00    -0.206 F 
ATOM     88  C   UNL A   1      41.832  28.396  27.575  1.00  0.00     0.022 A 
BRANCH  85  89
ATOM     89  S   UNL A   1      40.564  25.983  28.168  1.00  0.00     0.124 S 
ATOM     90  O   UNL A   1      40.368  26.044  26.724  1.00  0.00    -0.237 OA
ATOM     91  O   UNL A   1      41.690  25.180  28.631  1.00  0.00    -0.237 OA
ATOM     92  O   UNL A   1      39.341  25.852  28.958  1.00  0.00    -0.744 OA
ENDBRANCH  85  89
ENDBRANCH  58  82
BRANCH  70  93
ATOM     93  C   UNL A   1      45.091  29.575  36.061  1.00  0.00     0.023 A 
ATOM     94  C   UNL A   1      45.106  28.303  36.656  1.00  0.00     0.031 A 
ATOM     95  C   UNL A   1      46.322  30.207  35.808  1.00  0.00     0.131 A 
ATOM     96  C   UNL A   1      46.329  27.713  37.005  1.00  0.00     0.055 A 
ATOM     97  C   UNL A   1      47.536  29.597  36.116  1.00  0.00     0.041 A 
ATOM     98  F   UNL A   1      46.359  31.424  35.238  1.00  0.00    -0.206 F 
ATOM     99  C   UNL A   1      47.544  28.343  36.724  1.00  0.00     0.022 A 
BRANCH  96 100
ATOM    100  S   UNL A   1      46.315  26.119  37.869  1.00  0.00     0.124 S 
ATOM    101  O   UNL A   1      47.394  26.290  38.838  1.00  0.00    -0.237 OA
ATOM    102  O   UNL A   1      44.965  26.072  38.422  1.00  0.00    -0.237 OA
ATOM    103  O   UNL A   1      46.583  25.150  36.808  1.00  0.00    -0.744 OA
ENDBRANCH  96 100
ENDBRANCH  70  93
ENDBRANCH  44  45
ENDBRANCH  36  39
ENDBRANCH  34  35
ENDBRANCH  33  34
ENDBRANCH   1  33
TORSDOF 19
ENDMDL
