MODEL 1
REMARK VINA RESULT:     -10.7      0.000      0.000
REMARK SMILES COc1ccc(/C=C2/SC(=S)N(NC(=O)c3ccc(C(C)(C)C)cc3)C2=O)c(C(=O)NCCCNC(=O)c2ccc(-c3c4nc(c(-c5cc(S(=O)(=O)[O-])ccc5F)c5ccc([nH]5)c(-c5cc(S(=O)(=O)[O-])ccc5F)c5nc(c(-c6cc(S(=O)(=O)[O-])ccc6F)c6ccc3[nH]6)C=C5)C=C4)cc2)c1OC
REMARK SMILES IDX 32 1 31 2 29 3 30 4 28 6 3 7 4 8 101 9 5 10 6 11 2 12 1 13
REMARK SMILES IDX 102 14 103 15 7 16 8 17 9 18 26 19 10 20 12 21 27 22 11 23
REMARK SMILES IDX 13 24 14 25 15 27 16 28 17 29 25 30 18 31 24 32 19 33 20 34
REMARK SMILES IDX 21 35 22 36 23 37 33 38 34 39 35 40 36 41 37 43 38 44 39 45
REMARK SMILES IDX 100 46 40 47 99 48 41 49 42 50 43 51 93 52 44 53 98 54 92 55
REMARK SMILES IDX 94 56 45 57 97 58 91 59 90 60 46 62 78 63 58 64 77 65 59 66
REMARK SMILES IDX 62 67 76 68 95 69 60 70 61 71 75 73 96 74 63 75 47 76 48 77
REMARK SMILES IDX 56 78 49 79 55 80 57 81 54 82 50 83 51 84 52 85 53 86 79 87
REMARK SMILES IDX 80 88 88 89 81 90 87 91 89 92 86 93 82 94 83 95 84 96 85 97
REMARK SMILES IDX 64 98 65 99 73 100 66 101 72 102 74 103 71 104 67 105 68 106
REMARK SMILES IDX 69 107 70 108
REMARK H PARENT 31 5 13 26 35 42 94 61 62 72
REMARK Flexibility Score: inf
ROOT
ATOM      1  C   UNL A   1      39.611  30.623  35.342  1.00  0.00     0.118 C 
ENDROOT
BRANCH   1   2
ATOM      2  N   UNL A   1      39.799  31.771  34.493  1.00  0.00    -0.352 N 
ATOM      3  C   UNL A   1      39.273  32.254  33.328  1.00  0.00     0.255 C 
ATOM      4  O   UNL A   1      39.333  33.491  33.245  1.00  0.00    -0.269 OA
ATOM      5  H   UNL A   1      40.494  32.370  34.848  1.00  0.00     0.163 HD
BRANCH   3   6
ATOM      6  C   UNL A   1      38.807  31.518  32.101  1.00  0.00     0.092 A 
ATOM      7  C   UNL A   1      38.949  29.836  30.313  1.00  0.00     0.161 A 
ATOM      8  C   UNL A   1      37.549  29.719  30.371  1.00  0.00     0.051 A 
ATOM      9  C   UNL A   1      39.609  30.766  31.169  1.00  0.00     0.174 A 
ATOM     10  C   UNL A   1      36.768  30.456  31.220  1.00  0.00     0.013 A 
ATOM     11  C   UNL A   1      37.371  31.365  32.081  1.00  0.00    -0.007 A 
BRANCH   7  12
ATOM     12  O   UNL A   1      39.258  28.907  29.393  1.00  0.00    -0.493 OA
ATOM     13  C   UNL A   1      38.705  28.068  28.424  1.00  0.00     0.278 C 
ENDBRANCH   7  12
BRANCH   9  14
ATOM     14  O   UNL A   1      40.979  30.798  31.307  1.00  0.00    -0.492 OA
ATOM     15  C   UNL A   1      41.652  31.799  30.537  1.00  0.00     0.278 C 
ENDBRANCH   9  14
BRANCH  11  16
ATOM     16  C   UNL A   1      36.349  32.006  32.942  1.00  0.00     0.030 C 
ATOM     17  C   UNL A   1      35.639  33.095  32.630  1.00  0.00     0.082 C 
ATOM     18  S   UNL A   1      34.198  33.574  33.452  1.00  0.00    -0.052 SA
ATOM     19  C   UNL A   1      35.839  33.957  31.454  1.00  0.00     0.285 C 
ATOM     20  C   UNL A   1      33.703  34.618  32.116  1.00  0.00     0.168 C 
ATOM     21  N   UNL A   1      34.657  34.560  31.114  1.00  0.00    -0.198 N 
ATOM     22  O   UNL A   1      36.934  34.165  30.926  1.00  0.00    -0.266 OA
ATOM     23  S   UNL A   1      32.309  35.535  32.151  1.00  0.00    -0.050 S 
BRANCH  21  24
ATOM     24  N   UNL A   1      34.556  35.358  29.966  1.00  0.00    -0.255 N 
ATOM     25  C   UNL A   1      34.346  34.963  28.654  1.00  0.00     0.270 C 
ATOM     26  H   UNL A   1      34.647  36.328  30.110  1.00  0.00     0.192 HD
ATOM     27  O   UNL A   1      34.537  35.810  27.778  1.00  0.00    -0.267 OA
BRANCH  25  28
ATOM     28  C   UNL A   1      33.911  33.596  28.223  1.00  0.00     0.041 A 
ATOM     29  C   UNL A   1      34.820  32.538  28.375  1.00  0.00     0.014 A 
ATOM     30  C   UNL A   1      32.678  33.316  27.639  1.00  0.00     0.014 A 
ATOM     31  C   UNL A   1      34.508  31.228  27.952  1.00  0.00     0.005 A 
ATOM     32  C   UNL A   1      32.368  32.001  27.223  1.00  0.00     0.005 A 
ATOM     33  C   UNL A   1      33.286  30.930  27.326  1.00  0.00    -0.043 A 
BRANCH  33  34
ATOM     34  C   UNL A   1      33.036  29.545  26.663  1.00  0.00    -0.013 C 
ATOM     35  C   UNL A   1      34.361  28.768  26.551  1.00  0.00     0.016 C 
ATOM     36  C   UNL A   1      32.122  28.590  27.438  1.00  0.00     0.016 C 
ATOM     37  C   UNL A   1      32.418  29.681  25.252  1.00  0.00     0.016 C 
ENDBRANCH  33  34
ENDBRANCH  25  28
ENDBRANCH  21  24
ENDBRANCH  11  16
ENDBRANCH   3   6
ENDBRANCH   1   2
BRANCH   1  38
ATOM     38  C   UNL A   1      40.401  29.373  34.980  1.00  0.00     0.042 C 
BRANCH  38  39
ATOM     39  C   UNL A   1      41.380  28.941  36.078  1.00  0.00     0.118 C 
BRANCH  39  40
ATOM     40  N   UNL A   1      41.354  27.513  36.369  1.00  0.00    -0.352 N 
ATOM     41  C   UNL A   1      41.931  26.429  35.756  1.00  0.00     0.251 C 
ATOM     42  H   UNL A   1      40.819  27.280  37.162  1.00  0.00     0.163 HD
ATOM     43  O   UNL A   1      41.678  25.314  36.212  1.00  0.00    -0.269 OA
BRANCH  41  44
ATOM     44  C   UNL A   1      42.798  26.556  34.560  1.00  0.00     0.039 A 
ATOM     45  C   UNL A   1      43.926  25.730  34.475  1.00  0.00     0.014 A 
ATOM     46  C   UNL A   1      42.555  27.478  33.544  1.00  0.00     0.014 A 
ATOM     47  C   UNL A   1      44.763  25.790  33.358  1.00  0.00     0.010 A 
ATOM     48  C   UNL A   1      43.318  27.455  32.379  1.00  0.00     0.010 A 
ATOM     49  C   UNL A   1      44.442  26.623  32.276  1.00  0.00    -0.014 A 
BRANCH  49  50
ATOM     50  C   UNL A   1      45.282  26.665  31.049  1.00  0.00     0.031 A 
ATOM     51  C   UNL A   1      46.311  27.755  30.880  1.00  0.00     0.074 A 
ATOM     52  C   UNL A   1      45.078  25.764  30.068  1.00  0.00     0.049 A 
ATOM     53  N   UNL A   1      47.073  28.023  29.850  1.00  0.00    -0.248 NA
ATOM     54  C   UNL A   1      46.477  28.690  32.004  1.00  0.00     0.031 C 
ATOM     55  C   UNL A   1      44.081  24.690  30.100  1.00  0.00     0.029 A 
ATOM     56  N   UNL A   1      45.689  25.607  28.849  1.00  0.00    -0.354 N 
ATOM     57  C   UNL A   1      47.786  29.168  30.193  1.00  0.00     0.074 A 
ATOM     58  C   UNL A   1      47.311  29.583  31.494  1.00  0.00     0.031 C 
ATOM     59  C   UNL A   1      44.175  23.966  28.974  1.00  0.00     0.029 A 
ATOM     60  C   UNL A   1      45.192  24.556  28.112  1.00  0.00     0.049 A 
ATOM     61  H   UNL A   1      46.415  26.192  28.532  1.00  0.00     0.167 HD
ATOM     62  C   UNL A   1      48.765  29.799  29.499  1.00  0.00     0.034 A 
ATOM     63  C   UNL A   1      45.510  24.126  26.874  1.00  0.00     0.034 A 
ATOM     64  C   UNL A   1      49.239  29.355  28.212  1.00  0.00     0.049 A 
ATOM     65  C   UNL A   1      46.588  24.855  26.112  1.00  0.00     0.074 A 
ATOM     66  C   UNL A   1      50.265  29.876  27.444  1.00  0.00     0.029 A 
ATOM     67  N   UNL A   1      48.712  28.284  27.498  1.00  0.00    -0.354 N 
ATOM     68  N   UNL A   1      47.290  25.906  26.474  1.00  0.00    -0.248 NA
ATOM     69  C   UNL A   1      46.924  24.337  24.782  1.00  0.00     0.031 C 
ATOM     70  C   UNL A   1      50.307  29.173  26.235  1.00  0.00     0.029 A 
ATOM     71  C   UNL A   1      49.369  28.154  26.284  1.00  0.00     0.049 A 
ATOM     72  H   UNL A   1      47.980  27.704  27.808  1.00  0.00     0.167 HD
ATOM     73  C   UNL A   1      48.172  26.152  25.426  1.00  0.00     0.074 A 
ATOM     74  C   UNL A   1      47.925  25.129  24.430  1.00  0.00     0.031 C 
ATOM     75  C   UNL A   1      49.103  27.132  25.298  1.00  0.00     0.034 A 
BRANCH  62  76
ATOM     76  C   UNL A   1      49.365  31.044  30.111  1.00  0.00     0.023 A 
ATOM     77  C   UNL A   1      50.365  30.978  31.099  1.00  0.00     0.031 A 
ATOM     78  C   UNL A   1      48.919  32.318  29.718  1.00  0.00     0.131 A 
ATOM     79  C   UNL A   1      50.823  32.153  31.715  1.00  0.00     0.055 A 
ATOM     80  C   UNL A   1      49.442  33.489  30.273  1.00  0.00     0.041 A 
ATOM     81  F   UNL A   1      47.951  32.450  28.796  1.00  0.00    -0.206 F 
ATOM     82  C   UNL A   1      50.389  33.410  31.289  1.00  0.00     0.022 A 
BRANCH  79  83
ATOM     83  S   UNL A   1      51.878  32.005  33.184  1.00  0.00     0.124 S 
ATOM     84  O   UNL A   1      53.181  32.400  32.653  1.00  0.00    -0.237 OA
ATOM     85  O   UNL A   1      51.257  32.941  34.114  1.00  0.00    -0.237 OA
ATOM     86  O   UNL A   1      51.763  30.595  33.548  1.00  0.00    -0.744 OA
ENDBRANCH  79  83
ENDBRANCH  62  76
BRANCH  63  87
ATOM     87  C   UNL A   1      44.800  22.960  26.271  1.00  0.00     0.023 A 
ATOM     88  C   UNL A   1      45.462  21.741  26.056  1.00  0.00     0.031 A 
ATOM     89  C   UNL A   1      43.458  23.059  25.861  1.00  0.00     0.131 A 
ATOM     90  C   UNL A   1      44.799  20.687  25.406  1.00  0.00     0.055 A 
ATOM     91  C   UNL A   1      42.784  21.989  25.270  1.00  0.00     0.041 A 
ATOM     92  F   UNL A   1      42.773  24.199  26.044  1.00  0.00    -0.206 F 
ATOM     93  C   UNL A   1      43.461  20.798  25.025  1.00  0.00     0.022 A 
BRANCH  90  94
ATOM     94  S   UNL A   1      45.745  19.201  24.974  1.00  0.00     0.124 S 
ATOM     95  O   UNL A   1      45.643  19.196  23.520  1.00  0.00    -0.237 OA
ATOM     96  O   UNL A   1      47.060  19.508  25.525  1.00  0.00    -0.237 OA
ATOM     97  O   UNL A   1      45.022  18.129  25.655  1.00  0.00    -0.744 OA
ENDBRANCH  90  94
ENDBRANCH  63  87
BRANCH  75  98
ATOM     98  C   UNL A   1      49.954  27.110  24.051  1.00  0.00     0.023 A 
ATOM     99  C   UNL A   1      51.324  26.801  24.093  1.00  0.00     0.031 A 
ATOM    100  C   UNL A   1      49.382  27.414  22.802  1.00  0.00     0.131 A 
ATOM    101  C   UNL A   1      52.090  26.863  22.920  1.00  0.00     0.055 A 
ATOM    102  C   UNL A   1      50.134  27.404  21.627  1.00  0.00     0.041 A 
ATOM    103  F   UNL A   1      48.079  27.722  22.702  1.00  0.00    -0.206 F 
ATOM    104  C   UNL A   1      51.500  27.142  21.683  1.00  0.00     0.022 A 
BRANCH 101 105
ATOM    105  S   UNL A   1      53.889  26.679  23.045  1.00  0.00     0.124 S 
ATOM    106  O   UNL A   1      54.252  26.312  21.680  1.00  0.00    -0.237 OA
ATOM    107  O   UNL A   1      54.309  28.007  23.481  1.00  0.00    -0.237 OA
ATOM    108  O   UNL A   1      54.058  25.620  24.038  1.00  0.00    -0.744 OA
ENDBRANCH 101 105
ENDBRANCH  75  98
ENDBRANCH  49  50
ENDBRANCH  41  44
ENDBRANCH  39  40
ENDBRANCH  38  39
ENDBRANCH   1  38
TORSDOF 19
ENDMDL
MODEL 2
REMARK VINA RESULT:     -10.5      4.832     10.391
REMARK SMILES COc1ccc(/C=C2/SC(=S)N(NC(=O)c3ccc(C(C)(C)C)cc3)C2=O)c(C(=O)NCCCNC(=O)c2ccc(-c3c4nc(c(-c5cc(S(=O)(=O)[O-])ccc5F)c5ccc([nH]5)c(-c5cc(S(=O)(=O)[O-])ccc5F)c5nc(c(-c6cc(S(=O)(=O)[O-])ccc6F)c6ccc3[nH]6)C=C5)C=C4)cc2)c1OC
REMARK SMILES IDX 32 1 31 2 29 3 30 4 28 6 3 7 4 8 101 9 5 10 6 11 2 12 1 13
REMARK SMILES IDX 102 14 103 15 7 16 8 17 9 18 26 19 10 20 12 21 27 22 11 23
REMARK SMILES IDX 13 24 14 25 15 27 16 28 17 29 25 30 18 31 24 32 19 33 20 34
REMARK SMILES IDX 21 35 22 36 23 37 33 38 34 39 35 40 36 41 37 43 38 44 39 45
REMARK SMILES IDX 100 46 40 47 99 48 41 49 42 50 43 51 93 52 44 53 98 54 92 55
REMARK SMILES IDX 94 56 45 57 97 58 91 59 90 60 46 62 78 63 58 64 77 65 59 66
REMARK SMILES IDX 62 67 76 68 95 69 60 70 61 71 75 73 96 74 63 75 47 76 48 77
REMARK SMILES IDX 56 78 49 79 55 80 57 81 54 82 50 83 51 84 52 85 53 86 79 87
REMARK SMILES IDX 80 88 88 89 81 90 87 91 89 92 86 93 82 94 83 95 84 96 85 97
REMARK SMILES IDX 64 98 65 99 73 100 66 101 72 102 74 103 71 104 67 105 68 106
REMARK SMILES IDX 69 107 70 108
REMARK H PARENT 31 5 13 26 35 42 94 61 62 72
REMARK Flexibility Score: inf
ROOT
ATOM      1  C   UNL A   1      35.776  31.054  29.069  1.00  0.00     0.118 C 
ENDROOT
BRANCH   1   2
ATOM      2  N   UNL A   1      36.748  31.984  29.587  1.00  0.00    -0.352 N 
ATOM      3  C   UNL A   1      36.891  32.775  30.691  1.00  0.00     0.255 C 
ATOM      4  O   UNL A   1      38.078  32.985  30.987  1.00  0.00    -0.269 OA
ATOM      5  H   UNL A   1      37.518  32.071  28.980  1.00  0.00     0.163 HD
BRANCH   3   6
ATOM      6  C   UNL A   1      35.857  33.542  31.469  1.00  0.00     0.092 A 
ATOM      7  C   UNL A   1      33.726  34.727  31.793  1.00  0.00     0.161 A 
ATOM      8  C   UNL A   1      33.698  34.227  33.108  1.00  0.00     0.051 A 
ATOM      9  C   UNL A   1      34.830  34.410  30.948  1.00  0.00     0.174 A 
ATOM     10  C   UNL A   1      34.684  33.436  33.631  1.00  0.00     0.013 A 
ATOM     11  C   UNL A   1      35.773  33.093  32.839  1.00  0.00    -0.007 A 
BRANCH   7  12
ATOM     12  O   UNL A   1      32.558  35.387  31.733  1.00  0.00    -0.493 OA
ATOM     13  C   UNL A   1      31.476  35.815  32.504  1.00  0.00     0.278 C 
ENDBRANCH   7  12
BRANCH   9  14
ATOM     14  O   UNL A   1      34.834  34.699  29.602  1.00  0.00    -0.492 OA
ATOM     15  C   UNL A   1      33.628  34.382  28.900  1.00  0.00     0.278 C 
ENDBRANCH   9  14
BRANCH  11  16
ATOM     16  C   UNL A   1      36.683  32.191  33.585  1.00  0.00     0.030 C 
ATOM     17  C   UNL A   1      37.644  32.580  34.430  1.00  0.00     0.082 C 
ATOM     18  S   UNL A   1      38.402  31.533  35.575  1.00  0.00    -0.052 SA
ATOM     19  C   UNL A   1      38.090  33.962  34.664  1.00  0.00     0.285 C 
ATOM     20  C   UNL A   1      38.994  32.895  36.530  1.00  0.00     0.168 C 
ATOM     21  N   UNL A   1      38.596  34.079  35.931  1.00  0.00    -0.198 N 
ATOM     22  O   UNL A   1      38.088  34.845  33.803  1.00  0.00    -0.266 OA
ATOM     23  S   UNL A   1      39.921  32.704  37.903  1.00  0.00    -0.050 S 
BRANCH  21  24
ATOM     24  N   UNL A   1      39.001  35.322  36.438  1.00  0.00    -0.255 N 
ATOM     25  C   UNL A   1      40.255  35.910  36.385  1.00  0.00     0.270 C 
ATOM     26  H   UNL A   1      38.302  35.847  36.892  1.00  0.00     0.192 HD
ATOM     27  O   UNL A   1      40.443  36.892  37.108  1.00  0.00    -0.267 OA
BRANCH  25  28
ATOM     28  C   UNL A   1      41.391  35.445  35.527  1.00  0.00     0.041 A 
ATOM     29  C   UNL A   1      42.461  34.785  36.152  1.00  0.00     0.014 A 
ATOM     30  C   UNL A   1      41.476  35.665  34.155  1.00  0.00     0.014 A 
ATOM     31  C   UNL A   1      43.591  34.356  35.424  1.00  0.00     0.005 A 
ATOM     32  C   UNL A   1      42.607  35.228  33.430  1.00  0.00     0.005 A 
ATOM     33  C   UNL A   1      43.715  34.600  34.047  1.00  0.00    -0.043 A 
BRANCH  33  34
ATOM     34  C   UNL A   1      45.049  34.329  33.296  1.00  0.00    -0.013 C 
ATOM     35  C   UNL A   1      45.041  32.907  32.703  1.00  0.00     0.016 C 
ATOM     36  C   UNL A   1      45.325  35.223  32.082  1.00  0.00     0.016 C 
ATOM     37  C   UNL A   1      46.278  34.474  34.224  1.00  0.00     0.016 C 
ENDBRANCH  33  34
ENDBRANCH  25  28
ENDBRANCH  21  24
ENDBRANCH  11  16
ENDBRANCH   3   6
ENDBRANCH   1   2
BRANCH   1  38
ATOM     38  C   UNL A   1      35.707  29.693  29.748  1.00  0.00     0.042 C 
BRANCH  38  39
ATOM     39  C   UNL A   1      37.086  29.053  29.951  1.00  0.00     0.118 C 
BRANCH  39  40
ATOM     40  N   UNL A   1      37.478  28.920  31.349  1.00  0.00    -0.352 N 
ATOM     41  C   UNL A   1      38.590  29.322  32.045  1.00  0.00     0.251 C 
ATOM     42  H   UNL A   1      36.814  28.449  31.903  1.00  0.00     0.163 HD
ATOM     43  O   UNL A   1      38.663  29.011  33.233  1.00  0.00    -0.269 OA
BRANCH  41  44
ATOM     44  C   UNL A   1      39.703  30.068  31.410  1.00  0.00     0.039 A 
ATOM     45  C   UNL A   1      40.580  30.776  32.243  1.00  0.00     0.014 A 
ATOM     46  C   UNL A   1      39.889  30.119  30.029  1.00  0.00     0.014 A 
ATOM     47  C   UNL A   1      41.660  31.475  31.699  1.00  0.00     0.010 A 
ATOM     48  C   UNL A   1      41.031  30.715  29.498  1.00  0.00     0.010 A 
ATOM     49  C   UNL A   1      41.923  31.415  30.323  1.00  0.00    -0.014 A 
BRANCH  49  50
ATOM     50  C   UNL A   1      43.098  32.101  29.724  1.00  0.00     0.031 A 
ATOM     51  C   UNL A   1      44.362  31.325  29.450  1.00  0.00     0.074 A 
ATOM     52  C   UNL A   1      43.049  33.426  29.485  1.00  0.00     0.049 A 
ATOM     53  N   UNL A   1      45.522  31.754  29.022  1.00  0.00    -0.248 NA
ATOM     54  C   UNL A   1      44.326  29.881  29.729  1.00  0.00     0.031 C 
ATOM     55  C   UNL A   1      41.896  34.291  29.750  1.00  0.00     0.029 A 
ATOM     56  N   UNL A   1      43.990  34.284  28.972  1.00  0.00    -0.354 N 
ATOM     57  C   UNL A   1      46.357  30.641  29.008  1.00  0.00     0.074 A 
ATOM     58  C   UNL A   1      45.590  29.535  29.538  1.00  0.00     0.031 C 
ATOM     59  C   UNL A   1      42.184  35.544  29.364  1.00  0.00     0.029 A 
ATOM     60  C   UNL A   1      43.560  35.589  28.882  1.00  0.00     0.049 A 
ATOM     61  H   UNL A   1      44.889  33.993  28.694  1.00  0.00     0.167 HD
ATOM     62  C   UNL A   1      47.636  30.543  28.568  1.00  0.00     0.034 A 
ATOM     63  C   UNL A   1      44.207  36.699  28.472  1.00  0.00     0.034 A 
ATOM     64  C   UNL A   1      48.375  31.654  28.023  1.00  0.00     0.049 A 
ATOM     65  C   UNL A   1      45.634  36.570  28.006  1.00  0.00     0.074 A 
ATOM     66  C   UNL A   1      49.652  31.662  27.489  1.00  0.00     0.029 A 
ATOM     67  N   UNL A   1      47.905  32.961  27.946  1.00  0.00    -0.354 N 
ATOM     68  N   UNL A   1      46.392  35.498  27.949  1.00  0.00    -0.248 NA
ATOM     69  C   UNL A   1      46.291  37.797  27.540  1.00  0.00     0.031 C 
ATOM     70  C   UNL A   1      49.982  32.982  27.164  1.00  0.00     0.029 A 
ATOM     71  C   UNL A   1      48.881  33.786  27.408  1.00  0.00     0.049 A 
ATOM     72  H   UNL A   1      47.011  33.256  28.232  1.00  0.00     0.167 HD
ATOM     73  C   UNL A   1      47.605  35.920  27.410  1.00  0.00     0.074 A 
ATOM     74  C   UNL A   1      47.468  37.337  27.144  1.00  0.00     0.031 C 
ATOM     75  C   UNL A   1      48.729  35.201  27.158  1.00  0.00     0.034 A 
BRANCH  62  76
ATOM     76  C   UNL A   1      48.316  29.197  28.683  1.00  0.00     0.023 A 
ATOM     77  C   UNL A   1      48.236  28.236  27.658  1.00  0.00     0.031 A 
ATOM     78  C   UNL A   1      49.036  28.859  29.842  1.00  0.00     0.131 A 
ATOM     79  C   UNL A   1      48.793  26.962  27.845  1.00  0.00     0.055 A 
ATOM     80  C   UNL A   1      49.663  27.619  29.986  1.00  0.00     0.041 A 
ATOM     81  F   UNL A   1      49.130  29.722  30.866  1.00  0.00    -0.206 F 
ATOM     82  C   UNL A   1      49.531  26.655  28.991  1.00  0.00     0.022 A 
BRANCH  79  83
ATOM     83  S   UNL A   1      48.408  25.663  26.638  1.00  0.00     0.124 S 
ATOM     84  O   UNL A   1      48.613  24.453  27.431  1.00  0.00    -0.237 OA
ATOM     85  O   UNL A   1      47.027  25.965  26.279  1.00  0.00    -0.237 OA
ATOM     86  O   UNL A   1      49.390  25.878  25.578  1.00  0.00    -0.744 OA
ENDBRANCH  79  83
ENDBRANCH  62  76
BRANCH  63  87
ATOM     87  C   UNL A   1      43.523  38.025  28.492  1.00  0.00     0.023 A 
ATOM     88  C   UNL A   1      43.643  38.887  29.594  1.00  0.00     0.031 A 
ATOM     89  C   UNL A   1      42.703  38.436  27.425  1.00  0.00     0.131 A 
ATOM     90  C   UNL A   1      42.919  40.089  29.627  1.00  0.00     0.055 A 
ATOM     91  C   UNL A   1      42.032  39.660  27.436  1.00  0.00     0.041 A 
ATOM     92  F   UNL A   1      42.552  37.655  26.343  1.00  0.00    -0.206 F 
ATOM     93  C   UNL A   1      42.126  40.489  28.550  1.00  0.00     0.022 A 
BRANCH  90  94
ATOM     94  S   UNL A   1      42.949  41.079  31.147  1.00  0.00     0.124 S 
ATOM     95  O   UNL A   1      41.528  41.252  31.418  1.00  0.00    -0.237 OA
ATOM     96  O   UNL A   1      43.677  40.207  32.062  1.00  0.00    -0.237 OA
ATOM     97  O   UNL A   1      43.661  42.292  30.748  1.00  0.00    -0.744 OA
ENDBRANCH  90  94
ENDBRANCH  63  87
BRANCH  75  98
ATOM     98  C   UNL A   1      49.882  35.936  26.517  1.00  0.00     0.023 A 
ATOM     99  C   UNL A   1      50.889  36.547  27.282  1.00  0.00     0.031 A 
ATOM    100  C   UNL A   1      49.965  36.032  25.116  1.00  0.00     0.131 A 
ATOM    101  C   UNL A   1      51.902  37.280  26.646  1.00  0.00     0.055 A 
ATOM    102  C   UNL A   1      51.014  36.701  24.486  1.00  0.00     0.041 A 
ATOM    103  F   UNL A   1      49.028  35.471  24.334  1.00  0.00    -0.206 F 
ATOM    104  C   UNL A   1      51.982  37.344  25.252  1.00  0.00     0.022 A 
BRANCH 101 105
ATOM    105  S   UNL A   1      53.052  38.241  27.666  1.00  0.00     0.124 S 
ATOM    106  O   UNL A   1      52.931  37.581  28.962  1.00  0.00    -0.237 OA
ATOM    107  O   UNL A   1      54.321  38.051  26.970  1.00  0.00    -0.237 OA
ATOM    108  O   UNL A   1      52.512  39.598  27.609  1.00  0.00    -0.744 OA
ENDBRANCH 101 105
ENDBRANCH  75  98
ENDBRANCH  49  50
ENDBRANCH  41  44
ENDBRANCH  39  40
ENDBRANCH  38  39
ENDBRANCH   1  38
TORSDOF 19
ENDMDL
MODEL 3
REMARK VINA RESULT:     -10.4      4.252     11.133
REMARK SMILES COc1ccc(/C=C2/SC(=S)N(NC(=O)c3ccc(C(C)(C)C)cc3)C2=O)c(C(=O)NCCCNC(=O)c2ccc(-c3c4nc(c(-c5cc(S(=O)(=O)[O-])ccc5F)c5ccc([nH]5)c(-c5cc(S(=O)(=O)[O-])ccc5F)c5nc(c(-c6cc(S(=O)(=O)[O-])ccc6F)c6ccc3[nH]6)C=C5)C=C4)cc2)c1OC
REMARK SMILES IDX 32 1 31 2 29 3 30 4 28 6 3 7 4 8 101 9 5 10 6 11 2 12 1 13
REMARK SMILES IDX 102 14 103 15 7 16 8 17 9 18 26 19 10 20 12 21 27 22 11 23
REMARK SMILES IDX 13 24 14 25 15 27 16 28 17 29 25 30 18 31 24 32 19 33 20 34
REMARK SMILES IDX 21 35 22 36 23 37 33 38 34 39 35 40 36 41 37 43 38 44 39 45
REMARK SMILES IDX 100 46 40 47 99 48 41 49 42 50 43 51 93 52 44 53 98 54 92 55
REMARK SMILES IDX 94 56 45 57 97 58 91 59 90 60 46 62 78 63 58 64 77 65 59 66
REMARK SMILES IDX 62 67 76 68 95 69 60 70 61 71 75 73 96 74 63 75 47 76 48 77
REMARK SMILES IDX 56 78 49 79 55 80 57 81 54 82 50 83 51 84 52 85 53 86 79 87
REMARK SMILES IDX 80 88 88 89 81 90 87 91 89 92 86 93 82 94 83 95 84 96 85 97
REMARK SMILES IDX 64 98 65 99 73 100 66 101 72 102 74 103 71 104 67 105 68 106
REMARK SMILES IDX 69 107 70 108
REMARK H PARENT 31 5 13 26 35 42 94 61 62 72
REMARK Flexibility Score: inf
ROOT
ATOM      1  C   UNL A   1      43.879  36.051  33.047  1.00  0.00     0.118 C 
ENDROOT
BRANCH   1   2
ATOM      2  N   UNL A   1      43.672  35.689  34.427  1.00  0.00    -0.352 N 
ATOM      3  C   UNL A   1      42.924  34.785  35.126  1.00  0.00     0.255 C 
ATOM      4  O   UNL A   1      43.440  34.461  36.207  1.00  0.00    -0.269 OA
ATOM      5  H   UNL A   1      44.219  36.245  35.028  1.00  0.00     0.163 HD
BRANCH   3   6
ATOM      6  C   UNL A   1      41.533  34.274  34.862  1.00  0.00     0.092 A 
ATOM      7  C   UNL A   1      39.112  34.476  34.483  1.00  0.00     0.161 A 
ATOM      8  C   UNL A   1      39.200  33.372  33.615  1.00  0.00     0.051 A 
ATOM      9  C   UNL A   1      40.285  34.937  35.149  1.00  0.00     0.174 A 
ATOM     10  C   UNL A   1      40.368  32.706  33.364  1.00  0.00     0.013 A 
ATOM     11  C   UNL A   1      41.539  33.130  33.982  1.00  0.00    -0.007 A 
BRANCH   7  12
ATOM     12  O   UNL A   1      37.814  34.802  34.369  1.00  0.00    -0.493 OA
ATOM     13  C   UNL A   1      36.592  34.363  33.855  1.00  0.00     0.278 C 
ENDBRANCH   7  12
BRANCH   9  14
ATOM     14  O   UNL A   1      40.315  36.118  35.855  1.00  0.00    -0.492 OA
ATOM     15  C   UNL A   1      39.841  36.042  37.204  1.00  0.00     0.278 C 
ENDBRANCH   9  14
BRANCH  11  16
ATOM     16  C   UNL A   1      42.684  32.306  33.525  1.00  0.00     0.030 C 
ATOM     17  C   UNL A   1      42.866  31.009  33.794  1.00  0.00     0.082 C 
ATOM     18  S   UNL A   1      43.964  29.991  32.933  1.00  0.00    -0.052 SA
ATOM     19  C   UNL A   1      42.063  30.190  34.716  1.00  0.00     0.285 C 
ATOM     20  C   UNL A   1      43.157  28.527  33.501  1.00  0.00     0.168 C 
ATOM     21  N   UNL A   1      42.099  28.878  34.323  1.00  0.00    -0.198 N 
ATOM     22  O   UNL A   1      41.524  30.623  35.737  1.00  0.00    -0.266 OA
ATOM     23  S   UNL A   1      43.677  26.993  33.102  1.00  0.00    -0.050 S 
BRANCH  21  24
ATOM     24  N   UNL A   1      41.334  27.904  34.979  1.00  0.00    -0.255 N 
ATOM     25  C   UNL A   1      41.734  26.999  35.949  1.00  0.00     0.270 C 
ATOM     26  H   UNL A   1      40.386  27.856  34.716  1.00  0.00     0.192 HD
ATOM     27  O   UNL A   1      40.958  26.075  36.207  1.00  0.00    -0.267 OA
BRANCH  25  28
ATOM     28  C   UNL A   1      43.029  27.054  36.699  1.00  0.00     0.041 A 
ATOM     29  C   UNL A   1      43.548  25.853  37.207  1.00  0.00     0.014 A 
ATOM     30  C   UNL A   1      43.729  28.228  36.966  1.00  0.00     0.014 A 
ATOM     31  C   UNL A   1      44.738  25.823  37.964  1.00  0.00     0.005 A 
ATOM     32  C   UNL A   1      44.924  28.191  37.719  1.00  0.00     0.005 A 
ATOM     33  C   UNL A   1      45.441  26.999  38.277  1.00  0.00    -0.043 A 
BRANCH  33  34
ATOM     34  C   UNL A   1      46.619  26.990  39.292  1.00  0.00    -0.013 C 
ATOM     35  C   UNL A   1      47.733  27.940  38.815  1.00  0.00     0.016 C 
ATOM     36  C   UNL A   1      46.289  27.498  40.700  1.00  0.00     0.016 C 
ATOM     37  C   UNL A   1      47.216  25.575  39.475  1.00  0.00     0.016 C 
ENDBRANCH  33  34
ENDBRANCH  25  28
ENDBRANCH  21  24
ENDBRANCH  11  16
ENDBRANCH   3   6
ENDBRANCH   1   2
BRANCH   1  38
ATOM     38  C   UNL A   1      45.180  36.772  32.721  1.00  0.00     0.042 C 
BRANCH  38  39
ATOM     39  C   UNL A   1      45.129  37.531  31.390  1.00  0.00     0.118 C 
BRANCH  39  40
ATOM     40  N   UNL A   1      46.351  37.429  30.601  1.00  0.00    -0.352 N 
ATOM     41  C   UNL A   1      46.872  36.429  29.820  1.00  0.00     0.251 C 
ATOM     42  H   UNL A   1      46.911  38.238  30.634  1.00  0.00     0.163 HD
ATOM     43  O   UNL A   1      47.976  36.620  29.309  1.00  0.00    -0.269 OA
BRANCH  41  44
ATOM     44  C   UNL A   1      46.180  35.135  29.611  1.00  0.00     0.039 A 
ATOM     45  C   UNL A   1      45.380  34.993  28.469  1.00  0.00     0.014 A 
ATOM     46  C   UNL A   1      46.264  34.077  30.515  1.00  0.00     0.014 A 
ATOM     47  C   UNL A   1      44.726  33.786  28.212  1.00  0.00     0.010 A 
ATOM     48  C   UNL A   1      45.711  32.838  30.198  1.00  0.00     0.010 A 
ATOM     49  C   UNL A   1      44.920  32.680  29.052  1.00  0.00    -0.014 A 
BRANCH  49  50
ATOM     50  C   UNL A   1      44.282  31.366  28.770  1.00  0.00     0.031 A 
ATOM     51  C   UNL A   1      45.004  30.346  27.926  1.00  0.00     0.074 A 
ATOM     52  C   UNL A   1      43.037  31.118  29.220  1.00  0.00     0.049 A 
ATOM     53  N   UNL A   1      44.585  29.186  27.489  1.00  0.00    -0.248 NA
ATOM     54  C   UNL A   1      46.364  30.694  27.486  1.00  0.00     0.031 C 
ATOM     55  C   UNL A   1      42.222  32.046  30.010  1.00  0.00     0.029 A 
ATOM     56  N   UNL A   1      42.231  30.016  29.077  1.00  0.00    -0.354 N 
ATOM     57  C   UNL A   1      45.617  28.682  26.703  1.00  0.00     0.074 A 
ATOM     58  C   UNL A   1      46.649  29.694  26.666  1.00  0.00     0.031 C 
ATOM     59  C   UNL A   1      41.052  31.461  30.310  1.00  0.00     0.029 A 
ATOM     60  C   UNL A   1      41.004  30.143  29.687  1.00  0.00     0.049 A 
ATOM     61  H   UNL A   1      42.506  29.209  28.583  1.00  0.00     0.167 HD
ATOM     62  C   UNL A   1      45.707  27.475  26.091  1.00  0.00     0.034 A 
ATOM     63  C   UNL A   1      39.952  29.300  29.726  1.00  0.00     0.034 A 
ATOM     64  C   UNL A   1      44.674  26.471  26.159  1.00  0.00     0.049 A 
ATOM     65  C   UNL A   1      40.067  27.972  29.022  1.00  0.00     0.074 A 
ATOM     66  C   UNL A   1      44.680  25.191  25.633  1.00  0.00     0.029 A 
ATOM     67  N   UNL A   1      43.446  26.636  26.789  1.00  0.00    -0.354 N 
ATOM     68  N   UNL A   1      41.072  27.488  28.327  1.00  0.00    -0.248 NA
ATOM     69  C   UNL A   1      38.912  27.071  29.115  1.00  0.00     0.031 C 
ATOM     70  C   UNL A   1      43.429  24.613  25.875  1.00  0.00     0.029 A 
ATOM     71  C   UNL A   1      42.674  25.495  26.631  1.00  0.00     0.049 A 
ATOM     72  H   UNL A   1      43.165  27.445  27.274  1.00  0.00     0.167 HD
ATOM     73  C   UNL A   1      40.679  26.214  27.928  1.00  0.00     0.074 A 
ATOM     74  C   UNL A   1      39.355  25.999  28.476  1.00  0.00     0.031 C 
ATOM     75  C   UNL A   1      41.351  25.302  27.178  1.00  0.00     0.034 A 
BRANCH  62  76
ATOM     76  C   UNL A   1      46.952  27.191  25.281  1.00  0.00     0.023 A 
ATOM     77  C   UNL A   1      47.135  27.723  23.991  1.00  0.00     0.031 A 
ATOM     78  C   UNL A   1      47.962  26.359  25.794  1.00  0.00     0.131 A 
ATOM     79  C   UNL A   1      48.255  27.354  23.231  1.00  0.00     0.055 A 
ATOM     80  C   UNL A   1      49.118  26.065  25.066  1.00  0.00     0.041 A 
ATOM     81  F   UNL A   1      47.838  25.801  27.009  1.00  0.00    -0.206 F 
ATOM     82  C   UNL A   1      49.262  26.551  23.770  1.00  0.00     0.022 A 
BRANCH  79  83
ATOM     83  S   UNL A   1      48.300  27.813  21.476  1.00  0.00     0.124 S 
ATOM     84  O   UNL A   1      48.727  26.561  20.855  1.00  0.00    -0.237 OA
ATOM     85  O   UNL A   1      46.922  28.216  21.220  1.00  0.00    -0.237 OA
ATOM     86  O   UNL A   1      49.286  28.891  21.429  1.00  0.00    -0.744 OA
ENDBRANCH  79  83
ENDBRANCH  62  76
BRANCH  63  87
ATOM     87  C   UNL A   1      38.701  29.682  30.443  1.00  0.00     0.023 A 
ATOM     88  C   UNL A   1      37.722  30.474  29.822  1.00  0.00     0.031 A 
ATOM     89  C   UNL A   1      38.481  29.295  31.778  1.00  0.00     0.131 A 
ATOM     90  C   UNL A   1      36.595  30.895  30.546  1.00  0.00     0.055 A 
ATOM     91  C   UNL A   1      37.330  29.666  32.476  1.00  0.00     0.041 A 
ATOM     92  F   UNL A   1      39.380  28.535  32.423  1.00  0.00    -0.206 F 
ATOM     93  C   UNL A   1      36.385  30.484  31.863  1.00  0.00     0.022 A 
BRANCH  90  94
ATOM     94  S   UNL A   1      35.454  32.073  29.770  1.00  0.00     0.124 S 
ATOM     95  O   UNL A   1      34.897  31.275  28.685  1.00  0.00    -0.237 OA
ATOM     96  O   UNL A   1      34.547  32.384  30.870  1.00  0.00    -0.237 OA
ATOM     97  O   UNL A   1      36.327  33.169  29.356  1.00  0.00    -0.744 OA
ENDBRANCH  90  94
ENDBRANCH  63  87
BRANCH  75  98
ATOM     98  C   UNL A   1      40.675  23.971  26.951  1.00  0.00     0.023 A 
ATOM     99  C   UNL A   1      39.507  23.855  26.180  1.00  0.00     0.031 A 
ATOM    100  C   UNL A   1      41.208  22.803  27.525  1.00  0.00     0.131 A 
ATOM    101  C   UNL A   1      38.874  22.609  26.055  1.00  0.00     0.055 A 
ATOM    102  C   UNL A   1      40.614  21.555  27.338  1.00  0.00     0.041 A 
ATOM    103  F   UNL A   1      42.320  22.856  28.277  1.00  0.00    -0.206 F 
ATOM    104  C   UNL A   1      39.431  21.455  26.612  1.00  0.00     0.022 A 
BRANCH 101 105
ATOM    105  S   UNL A   1      37.253  22.535  25.245  1.00  0.00     0.124 S 
ATOM    106  O   UNL A   1      36.988  23.943  24.968  1.00  0.00    -0.237 OA
ATOM    107  O   UNL A   1      37.523  21.696  24.082  1.00  0.00    -0.237 OA
ATOM    108  O   UNL A   1      36.390  21.929  26.258  1.00  0.00    -0.744 OA
ENDBRANCH 101 105
ENDBRANCH  75  98
ENDBRANCH  49  50
ENDBRANCH  41  44
ENDBRANCH  39  40
ENDBRANCH  38  39
ENDBRANCH   1  38
TORSDOF 19
ENDMDL
