MODEL 1
REMARK VINA RESULT:     -13.2      0.000      0.000
REMARK SMILES O=C(NCCCNC(=O)c1ccc(-c2c3nc(c(-c4cc(S(=O)(=O)[O-])ccc4F)c4ccc([nH]4)c(-c4cc(S(=O)(=O)[O-])ccc4F)c4nc(c(-c5cc(S(=O)(=O)[O-])ccc5F)c5ccc2[nH]5)C=C4)C=C3)cc1)c1ccc(NS(=O)(=O)C2=Cc3ccccc3CC2)cc1
REMARK SMILES IDX 5 1 4 2 3 3 1 4 2 5 73 7 74 8 92 9 75 10 91 11 76 12 77 13
REMARK SMILES IDX 78 15 79 16 80 17 81 18 82 19 90 20 83 21 89 22 84 23 88 24
REMARK SMILES IDX 85 25 87 26 86 27 6 28 7 29 8 30 9 32 10 33 11 34 72 35
REMARK SMILES IDX 12 36 71 37 13 38 14 39 15 40 65 41 16 42 70 43 64 44 66 45
REMARK SMILES IDX 17 46 69 47 63 48 62 49 18 51 50 52 30 53 49 54 31 55 34 56
REMARK SMILES IDX 48 57 67 58 32 59 33 60 47 62 68 63 35 64 19 65 20 66 28 67
REMARK SMILES IDX 21 68 27 69 29 70 26 71 22 72 23 73 24 74 25 75 51 76 52 77
REMARK SMILES IDX 60 78 53 79 59 80 61 81 58 82 54 83 55 84 56 85 57 86 36 87
REMARK SMILES IDX 37 88 45 89 38 90 44 91 46 92 43 93 39 94 40 95 41 96 42 97
REMARK H PARENT 3 6 77 14 7 31 66 50 34 61
REMARK Flexibility Score: inf
ROOT
ATOM      1  C   UNL A   1      35.151  21.976  27.364  1.00  0.00     0.042 C 
ENDROOT
BRANCH   1   2
ATOM      2  C   UNL A   1      33.647  21.764  27.320  1.00  0.00     0.118 C 
BRANCH   2   3
ATOM      3  N   UNL A   1      33.293  20.489  26.712  1.00  0.00    -0.352 N 
ATOM      4  O   UNL A   1      32.190  19.108  25.311  1.00  0.00    -0.269 OA
ATOM      5  C   UNL A   1      32.578  20.243  25.569  1.00  0.00     0.251 C 
ATOM      6  H   UNL A   1      33.615  19.691  27.189  1.00  0.00     0.163 HD
BRANCH   5   7
ATOM      7  C   UNL A   1      32.304  21.341  24.620  1.00  0.00     0.039 A 
ATOM      8  C   UNL A   1      31.362  22.320  24.938  1.00  0.00     0.016 A 
ATOM      9  C   UNL A   1      33.075  21.467  23.461  1.00  0.00     0.016 A 
ATOM     10  C   UNL A   1      31.161  23.398  24.080  1.00  0.00     0.027 A 
ATOM     11  C   UNL A   1      32.861  22.550  22.598  1.00  0.00     0.027 A 
ATOM     12  C   UNL A   1      31.887  23.509  22.895  1.00  0.00     0.049 A 
BRANCH  12  13
ATOM     13  N   UNL A   1      31.816  24.707  22.118  1.00  0.00    -0.280 N 
ATOM     14  H   UNL A   1      31.176  24.762  21.372  1.00  0.00     0.180 HD
BRANCH  13  15
ATOM     15  S   UNL A   1      32.819  26.040  22.458  1.00  0.00     0.258 S 
ATOM     16  O   UNL A   1      33.569  25.622  23.630  1.00  0.00    -0.202 OA
ATOM     17  O   UNL A   1      33.540  26.288  21.226  1.00  0.00    -0.202 OA
BRANCH  15  18
ATOM     18  C   UNL A   1      31.821  27.444  22.842  1.00  0.00     0.066 C 
ATOM     19  C   UNL A   1      31.087  27.367  23.975  1.00  0.00     0.026 C 
ATOM     20  C   UNL A   1      32.459  28.780  22.549  1.00  0.00     0.055 C 
ATOM     21  C   UNL A   1      31.769  27.917  25.181  1.00  0.00    -0.021 A 
ATOM     22  C   UNL A   1      33.406  29.174  23.690  1.00  0.00     0.041 C 
ATOM     23  C   UNL A   1      31.295  27.569  26.450  1.00  0.00     0.008 A 
ATOM     24  C   UNL A   1      32.886  28.769  25.054  1.00  0.00    -0.040 A 
ATOM     25  C   UNL A   1      31.954  28.026  27.591  1.00  0.00     0.001 A 
ATOM     26  C   UNL A   1      33.552  29.202  26.208  1.00  0.00     0.004 A 
ATOM     27  C   UNL A   1      33.089  28.827  27.470  1.00  0.00     0.000 A 
ENDBRANCH  15  18
ENDBRANCH  13  15
ENDBRANCH  12  13
ENDBRANCH   5   7
ENDBRANCH   2   3
ENDBRANCH   1   2
BRANCH   1  28
ATOM     28  C   UNL A   1      35.765  22.283  26.008  1.00  0.00     0.118 C 
BRANCH  28  29
ATOM     29  N   UNL A   1      36.725  21.272  25.577  1.00  0.00    -0.352 N 
ATOM     30  C   UNL A   1      38.102  21.316  25.582  1.00  0.00     0.251 C 
ATOM     31  H   UNL A   1      36.332  20.437  25.234  1.00  0.00     0.163 HD
ATOM     32  O   UNL A   1      38.744  20.436  25.017  1.00  0.00    -0.269 OA
BRANCH  30  33
ATOM     33  C   UNL A   1      38.790  22.451  26.234  1.00  0.00     0.039 A 
ATOM     34  C   UNL A   1      39.869  22.205  27.086  1.00  0.00     0.014 A 
ATOM     35  C   UNL A   1      38.401  23.762  25.952  1.00  0.00     0.014 A 
ATOM     36  C   UNL A   1      40.623  23.277  27.571  1.00  0.00     0.010 A 
ATOM     37  C   UNL A   1      39.213  24.816  26.347  1.00  0.00     0.010 A 
ATOM     38  C   UNL A   1      40.337  24.587  27.158  1.00  0.00    -0.014 A 
BRANCH  38  39
ATOM     39  C   UNL A   1      41.165  25.754  27.559  1.00  0.00     0.031 A 
ATOM     40  C   UNL A   1      40.558  26.821  28.429  1.00  0.00     0.074 A 
ATOM     41  C   UNL A   1      42.402  25.919  27.051  1.00  0.00     0.049 A 
ATOM     42  N   UNL A   1      40.997  28.020  28.706  1.00  0.00    -0.248 NA
ATOM     43  C   UNL A   1      39.250  26.504  29.022  1.00  0.00     0.031 C 
ATOM     44  C   UNL A   1      43.097  24.970  26.177  1.00  0.00     0.029 A 
ATOM     45  N   UNL A   1      43.289  26.958  27.179  1.00  0.00    -0.354 N 
ATOM     46  C   UNL A   1      40.002  28.616  29.475  1.00  0.00     0.074 A 
ATOM     47  C   UNL A   1      38.913  27.666  29.558  1.00  0.00     0.031 C 
ATOM     48  C   UNL A   1      44.307  25.462  25.867  1.00  0.00     0.029 A 
ATOM     49  C   UNL A   1      44.453  26.785  26.466  1.00  0.00     0.049 A 
ATOM     50  H   UNL A   1      43.109  27.755  27.729  1.00  0.00     0.167 HD
ATOM     51  C   UNL A   1      40.006  29.833  30.076  1.00  0.00     0.034 A 
ATOM     52  C   UNL A   1      45.505  27.609  26.295  1.00  0.00     0.034 A 
ATOM     53  C   UNL A   1      41.113  30.754  30.004  1.00  0.00     0.049 A 
ATOM     54  C   UNL A   1      45.482  28.967  26.949  1.00  0.00     0.074 A 
ATOM     55  C   UNL A   1      41.247  31.996  30.600  1.00  0.00     0.029 A 
ATOM     56  N   UNL A   1      42.282  30.532  29.286  1.00  0.00    -0.354 N 
ATOM     57  N   UNL A   1      44.539  29.519  27.676  1.00  0.00    -0.248 NA
ATOM     58  C   UNL A   1      46.667  29.813  26.757  1.00  0.00     0.031 C 
ATOM     59  C   UNL A   1      42.473  32.543  30.205  1.00  0.00     0.029 A 
ATOM     60  C   UNL A   1      43.135  31.617  29.414  1.00  0.00     0.049 A 
ATOM     61  H   UNL A   1      42.478  29.720  28.765  1.00  0.00     0.167 HD
ATOM     62  C   UNL A   1      45.033  30.761  28.060  1.00  0.00     0.074 A 
ATOM     63  C   UNL A   1      46.357  30.877  27.482  1.00  0.00     0.031 C 
ATOM     64  C   UNL A   1      44.451  31.715  28.829  1.00  0.00     0.034 A 
BRANCH  51  65
ATOM     65  C   UNL A   1      38.760  30.226  30.835  1.00  0.00     0.023 A 
ATOM     66  C   UNL A   1      37.788  31.067  30.265  1.00  0.00     0.031 A 
ATOM     67  C   UNL A   1      38.575  29.818  32.167  1.00  0.00     0.131 A 
ATOM     68  C   UNL A   1      36.739  31.562  31.055  1.00  0.00     0.055 A 
ATOM     69  C   UNL A   1      37.473  30.235  32.919  1.00  0.00     0.041 A 
ATOM     70  F   UNL A   1      39.476  29.030  32.774  1.00  0.00    -0.206 F 
ATOM     71  C   UNL A   1      36.559  31.132  32.370  1.00  0.00     0.022 A 
BRANCH  68  72
ATOM     72  S   UNL A   1      35.732  32.919  30.394  1.00  0.00     0.124 S 
ATOM     73  O   UNL A   1      36.315  34.074  31.073  1.00  0.00    -0.237 OA
ATOM     74  O   UNL A   1      35.982  32.828  28.961  1.00  0.00    -0.237 OA
ATOM     75  O   UNL A   1      34.376  32.577  30.817  1.00  0.00    -0.744 OA
ENDBRANCH  68  72
ENDBRANCH  51  65
BRANCH  52  76
ATOM     76  C   UNL A   1      46.669  27.183  25.469  1.00  0.00     0.023 A 
ATOM     77  C   UNL A   1      46.869  27.716  24.186  1.00  0.00     0.031 A 
ATOM     78  C   UNL A   1      47.585  26.224  25.937  1.00  0.00     0.131 A 
ATOM     79  C   UNL A   1      47.935  27.260  23.397  1.00  0.00     0.055 A 
ATOM     80  C   UNL A   1      48.670  25.805  25.164  1.00  0.00     0.041 A 
ATOM     81  F   UNL A   1      47.444  25.692  27.160  1.00  0.00    -0.206 F 
ATOM     82  C   UNL A   1      48.843  26.317  23.882  1.00  0.00     0.022 A 
BRANCH  79  83
ATOM     83  S   UNL A   1      48.084  27.879  21.698  1.00  0.00     0.124 S 
ATOM     84  O   UNL A   1      48.311  26.646  20.953  1.00  0.00    -0.237 OA
ATOM     85  O   UNL A   1      46.791  28.522  21.496  1.00  0.00    -0.237 OA
ATOM     86  O   UNL A   1      49.225  28.788  21.767  1.00  0.00    -0.744 OA
ENDBRANCH  79  83
ENDBRANCH  52  76
BRANCH  64  87
ATOM     87  C   UNL A   1      45.276  32.937  29.145  1.00  0.00     0.023 A 
ATOM     88  C   UNL A   1      45.317  34.048  28.288  1.00  0.00     0.031 A 
ATOM     89  C   UNL A   1      46.032  32.982  30.330  1.00  0.00     0.131 A 
ATOM     90  C   UNL A   1      46.133  35.145  28.607  1.00  0.00     0.055 A 
ATOM     91  C   UNL A   1      46.802  34.094  30.667  1.00  0.00     0.041 A 
ATOM     92  F   UNL A   1      46.027  31.944  31.183  1.00  0.00    -0.206 F 
ATOM     93  C   UNL A   1      46.863  35.180  29.798  1.00  0.00     0.022 A 
BRANCH  90  94
ATOM     94  S   UNL A   1      46.280  36.502  27.413  1.00  0.00     0.124 S 
ATOM     95  O   UNL A   1      47.439  37.229  27.923  1.00  0.00    -0.237 OA
ATOM     96  O   UNL A   1      46.477  35.792  26.154  1.00  0.00    -0.237 OA
ATOM     97  O   UNL A   1      45.004  37.205  27.534  1.00  0.00    -0.744 OA
ENDBRANCH  90  94
ENDBRANCH  64  87
ENDBRANCH  38  39
ENDBRANCH  30  33
ENDBRANCH  28  29
ENDBRANCH   1  28
TORSDOF 16
ENDMDL
MODEL 2
REMARK VINA RESULT:     -13.0      1.533      1.709
REMARK SMILES O=C(NCCCNC(=O)c1ccc(-c2c3nc(c(-c4cc(S(=O)(=O)[O-])ccc4F)c4ccc([nH]4)c(-c4cc(S(=O)(=O)[O-])ccc4F)c4nc(c(-c5cc(S(=O)(=O)[O-])ccc5F)c5ccc2[nH]5)C=C4)C=C3)cc1)c1ccc(NS(=O)(=O)C2=Cc3ccccc3CC2)cc1
REMARK SMILES IDX 5 1 4 2 3 3 1 4 2 5 73 7 74 8 92 9 75 10 91 11 76 12 77 13
REMARK SMILES IDX 78 15 79 16 80 17 81 18 82 19 90 20 83 21 89 22 84 23 88 24
REMARK SMILES IDX 85 25 87 26 86 27 6 28 7 29 8 30 9 32 10 33 11 34 72 35
REMARK SMILES IDX 12 36 71 37 13 38 14 39 15 40 65 41 16 42 70 43 64 44 66 45
REMARK SMILES IDX 17 46 69 47 63 48 62 49 18 51 50 52 30 53 49 54 31 55 34 56
REMARK SMILES IDX 48 57 67 58 32 59 33 60 47 62 68 63 35 64 19 65 20 66 28 67
REMARK SMILES IDX 21 68 27 69 29 70 26 71 22 72 23 73 24 74 25 75 51 76 52 77
REMARK SMILES IDX 60 78 53 79 59 80 61 81 58 82 54 83 55 84 56 85 57 86 36 87
REMARK SMILES IDX 37 88 45 89 38 90 44 91 46 92 43 93 39 94 40 95 41 96 42 97
REMARK H PARENT 3 6 77 14 7 31 66 50 34 61
REMARK Flexibility Score: inf
ROOT
ATOM      1  C   UNL A   1      35.154  21.944  27.372  1.00  0.00     0.042 C 
ENDROOT
BRANCH   1   2
ATOM      2  C   UNL A   1      33.648  21.796  27.236  1.00  0.00     0.118 C 
BRANCH   2   3
ATOM      3  N   UNL A   1      33.277  20.525  26.628  1.00  0.00    -0.352 N 
ATOM      4  O   UNL A   1      32.159  19.159  25.224  1.00  0.00    -0.269 OA
ATOM      5  C   UNL A   1      32.563  20.288  25.482  1.00  0.00     0.251 C 
ATOM      6  H   UNL A   1      33.583  19.723  27.108  1.00  0.00     0.163 HD
BRANCH   5   7
ATOM      7  C   UNL A   1      32.311  21.389  24.530  1.00  0.00     0.039 A 
ATOM      8  C   UNL A   1      31.397  22.394  24.850  1.00  0.00     0.016 A 
ATOM      9  C   UNL A   1      33.076  21.489  23.365  1.00  0.00     0.016 A 
ATOM     10  C   UNL A   1      31.218  23.472  23.989  1.00  0.00     0.027 A 
ATOM     11  C   UNL A   1      32.885  22.573  22.498  1.00  0.00     0.027 A 
ATOM     12  C   UNL A   1      31.938  23.559  22.798  1.00  0.00     0.049 A 
BRANCH  12  13
ATOM     13  N   UNL A   1      31.893  24.755  22.015  1.00  0.00    -0.280 N 
ATOM     14  H   UNL A   1      31.281  24.806  21.246  1.00  0.00     0.180 HD
BRANCH  13  15
ATOM     15  S   UNL A   1      32.879  26.091  22.390  1.00  0.00     0.258 S 
ATOM     16  O   UNL A   1      33.619  25.661  23.562  1.00  0.00    -0.202 OA
ATOM     17  O   UNL A   1      33.610  26.368  21.170  1.00  0.00    -0.202 OA
BRANCH  15  18
ATOM     18  C   UNL A   1      31.862  27.479  22.786  1.00  0.00     0.066 C 
ATOM     19  C   UNL A   1      31.081  27.357  23.882  1.00  0.00     0.026 C 
ATOM     20  C   UNL A   1      32.510  28.826  22.574  1.00  0.00     0.055 C 
ATOM     21  C   UNL A   1      31.710  27.858  25.138  1.00  0.00    -0.021 A 
ATOM     22  C   UNL A   1      33.407  29.174  23.769  1.00  0.00     0.041 C 
ATOM     23  C   UNL A   1      31.183  27.460  26.370  1.00  0.00     0.008 A 
ATOM     24  C   UNL A   1      32.830  28.715  25.092  1.00  0.00    -0.040 A 
ATOM     25  C   UNL A   1      31.792  27.871  27.556  1.00  0.00     0.001 A 
ATOM     26  C   UNL A   1      33.445  29.102  26.290  1.00  0.00     0.004 A 
ATOM     27  C   UNL A   1      32.929  28.677  27.515  1.00  0.00     0.000 A 
ENDBRANCH  15  18
ENDBRANCH  13  15
ENDBRANCH  12  13
ENDBRANCH   5   7
ENDBRANCH   2   3
ENDBRANCH   1   2
BRANCH   1  28
ATOM     28  C   UNL A   1      35.857  22.274  26.065  1.00  0.00     0.118 C 
BRANCH  28  29
ATOM     29  N   UNL A   1      36.826  21.258  25.668  1.00  0.00    -0.352 N 
ATOM     30  C   UNL A   1      38.202  21.294  25.728  1.00  0.00     0.251 C 
ATOM     31  H   UNL A   1      36.442  20.428  25.306  1.00  0.00     0.163 HD
ATOM     32  O   UNL A   1      38.861  20.412  25.186  1.00  0.00    -0.269 OA
BRANCH  30  33
ATOM     33  C   UNL A   1      38.870  22.423  26.412  1.00  0.00     0.039 A 
ATOM     34  C   UNL A   1      39.950  22.170  27.262  1.00  0.00     0.014 A 
ATOM     35  C   UNL A   1      38.463  23.734  26.162  1.00  0.00     0.014 A 
ATOM     36  C   UNL A   1      40.686  23.241  27.777  1.00  0.00     0.010 A 
ATOM     37  C   UNL A   1      39.258  24.790  26.587  1.00  0.00     0.010 A 
ATOM     38  C   UNL A   1      40.382  24.557  27.395  1.00  0.00    -0.014 A 
BRANCH  38  39
ATOM     39  C   UNL A   1      41.191  25.726  27.830  1.00  0.00     0.031 A 
ATOM     40  C   UNL A   1      40.531  26.823  28.620  1.00  0.00     0.074 A 
ATOM     41  C   UNL A   1      42.467  25.862  27.418  1.00  0.00     0.049 A 
ATOM     42  N   UNL A   1      40.962  28.025  28.898  1.00  0.00    -0.248 NA
ATOM     43  C   UNL A   1      39.176  26.538  29.114  1.00  0.00     0.031 C 
ATOM     44  C   UNL A   1      43.216  24.882  26.628  1.00  0.00     0.029 A 
ATOM     45  N   UNL A   1      43.354  26.895  27.588  1.00  0.00    -0.354 N 
ATOM     46  C   UNL A   1      39.917  28.653  29.569  1.00  0.00     0.074 A 
ATOM     47  C   UNL A   1      38.813  27.718  29.590  1.00  0.00     0.031 C 
ATOM     48  C   UNL A   1      44.454  25.352  26.403  1.00  0.00     0.029 A 
ATOM     49  C   UNL A   1      44.568  26.689  26.975  1.00  0.00     0.049 A 
ATOM     50  H   UNL A   1      43.141  27.709  28.100  1.00  0.00     0.167 HD
ATOM     51  C   UNL A   1      39.890  29.887  30.135  1.00  0.00     0.034 A 
ATOM     52  C   UNL A   1      45.642  27.496  26.866  1.00  0.00     0.034 A 
ATOM     53  C   UNL A   1      41.011  30.793  30.126  1.00  0.00     0.049 A 
ATOM     54  C   UNL A   1      45.585  28.873  27.478  1.00  0.00     0.074 A 
ATOM     55  C   UNL A   1      41.113  32.049  30.697  1.00  0.00     0.029 A 
ATOM     56  N   UNL A   1      42.230  30.537  29.510  1.00  0.00    -0.354 N 
ATOM     57  N   UNL A   1      44.594  29.455  28.113  1.00  0.00    -0.248 NA
ATOM     58  C   UNL A   1      46.793  29.700  27.359  1.00  0.00     0.031 C 
ATOM     59  C   UNL A   1      42.374  32.571  30.386  1.00  0.00     0.029 A 
ATOM     60  C   UNL A   1      43.084  31.617  29.676  1.00  0.00     0.049 A 
ATOM     61  H   UNL A   1      42.456  29.709  29.028  1.00  0.00     0.167 HD
ATOM     62  C   UNL A   1      45.073  30.702  28.501  1.00  0.00     0.074 A 
ATOM     63  C   UNL A   1      46.440  30.787  28.027  1.00  0.00     0.031 C 
ATOM     64  C   UNL A   1      44.444  31.683  29.196  1.00  0.00     0.034 A 
BRANCH  51  65
ATOM     65  C   UNL A   1      38.592  30.314  30.781  1.00  0.00     0.023 A 
ATOM     66  C   UNL A   1      37.575  30.943  30.040  1.00  0.00     0.031 A 
ATOM     67  C   UNL A   1      38.397  30.161  32.164  1.00  0.00     0.131 A 
ATOM     68  C   UNL A   1      36.466  31.492  30.699  1.00  0.00     0.055 A 
ATOM     69  C   UNL A   1      37.242  30.623  32.801  1.00  0.00     0.041 A 
ATOM     70  F   UNL A   1      39.338  29.585  32.929  1.00  0.00    -0.206 F 
ATOM     71  C   UNL A   1      36.279  31.315  32.071  1.00  0.00     0.022 A 
BRANCH  68  72
ATOM     72  S   UNL A   1      35.377  32.605  29.767  1.00  0.00     0.124 S 
ATOM     73  O   UNL A   1      36.243  33.765  29.568  1.00  0.00    -0.237 OA
ATOM     74  O   UNL A   1      35.073  31.823  28.575  1.00  0.00    -0.237 OA
ATOM     75  O   UNL A   1      34.253  32.825  30.676  1.00  0.00    -0.744 OA
ENDBRANCH  68  72
ENDBRANCH  51  65
BRANCH  52  76
ATOM     76  C   UNL A   1      46.862  27.035  26.147  1.00  0.00     0.023 A 
ATOM     77  C   UNL A   1      47.906  26.406  26.843  1.00  0.00     0.031 A 
ATOM     78  C   UNL A   1      47.014  27.234  24.763  1.00  0.00     0.131 A 
ATOM     79  C   UNL A   1      49.075  26.032  26.163  1.00  0.00     0.055 A 
ATOM     80  C   UNL A   1      48.160  26.820  24.083  1.00  0.00     0.041 A 
ATOM     81  F   UNL A   1      46.039  27.820  24.052  1.00  0.00    -0.206 F 
ATOM     82  C   UNL A   1      49.204  26.224  24.785  1.00  0.00     0.022 A 
BRANCH  79  83
ATOM     83  S   UNL A   1      50.452  25.341  27.119  1.00  0.00     0.124 S 
ATOM     84  O   UNL A   1      50.832  26.474  27.953  1.00  0.00    -0.237 OA
ATOM     85  O   UNL A   1      49.813  24.223  27.805  1.00  0.00    -0.237 OA
ATOM     86  O   UNL A   1      51.423  24.965  26.093  1.00  0.00    -0.744 OA
ENDBRANCH  79  83
ENDBRANCH  52  76
BRANCH  64  87
ATOM     87  C   UNL A   1      45.257  32.905  29.543  1.00  0.00     0.023 A 
ATOM     88  C   UNL A   1      45.299  34.032  28.707  1.00  0.00     0.031 A 
ATOM     89  C   UNL A   1      46.001  32.932  30.736  1.00  0.00     0.131 A 
ATOM     90  C   UNL A   1      46.104  35.128  29.055  1.00  0.00     0.055 A 
ATOM     91  C   UNL A   1      46.760  34.043  31.102  1.00  0.00     0.041 A 
ATOM     92  F   UNL A   1      45.994  31.879  31.569  1.00  0.00    -0.206 F 
ATOM     93  C   UNL A   1      46.822  35.146  30.254  1.00  0.00     0.022 A 
BRANCH  90  94
ATOM     94  S   UNL A   1      46.255  36.508  27.888  1.00  0.00     0.124 S 
ATOM     95  O   UNL A   1      47.309  36.036  26.995  1.00  0.00    -0.237 OA
ATOM     96  O   UNL A   1      44.916  36.579  27.312  1.00  0.00    -0.237 OA
ATOM     97  O   UNL A   1      46.623  37.638  28.739  1.00  0.00    -0.744 OA
ENDBRANCH  90  94
ENDBRANCH  64  87
ENDBRANCH  38  39
ENDBRANCH  30  33
ENDBRANCH  28  29
ENDBRANCH   1  28
TORSDOF 16
ENDMDL
MODEL 3
REMARK VINA RESULT:     -12.9      4.983      8.074
REMARK SMILES O=C(NCCCNC(=O)c1ccc(-c2c3nc(c(-c4cc(S(=O)(=O)[O-])ccc4F)c4ccc([nH]4)c(-c4cc(S(=O)(=O)[O-])ccc4F)c4nc(c(-c5cc(S(=O)(=O)[O-])ccc5F)c5ccc2[nH]5)C=C4)C=C3)cc1)c1ccc(NS(=O)(=O)C2=Cc3ccccc3CC2)cc1
REMARK SMILES IDX 5 1 4 2 3 3 1 4 2 5 73 7 74 8 92 9 75 10 91 11 76 12 77 13
REMARK SMILES IDX 78 15 79 16 80 17 81 18 82 19 90 20 83 21 89 22 84 23 88 24
REMARK SMILES IDX 85 25 87 26 86 27 6 28 7 29 8 30 9 32 10 33 11 34 72 35
REMARK SMILES IDX 12 36 71 37 13 38 14 39 15 40 65 41 16 42 70 43 64 44 66 45
REMARK SMILES IDX 17 46 69 47 63 48 62 49 18 51 50 52 30 53 49 54 31 55 34 56
REMARK SMILES IDX 48 57 67 58 32 59 33 60 47 62 68 63 35 64 19 65 20 66 28 67
REMARK SMILES IDX 21 68 27 69 29 70 26 71 22 72 23 73 24 74 25 75 51 76 52 77
REMARK SMILES IDX 60 78 53 79 59 80 61 81 58 82 54 83 55 84 56 85 57 86 36 87
REMARK SMILES IDX 37 88 45 89 38 90 44 91 46 92 43 93 39 94 40 95 41 96 42 97
REMARK H PARENT 3 6 77 14 7 31 66 50 34 61
REMARK Flexibility Score: inf
ROOT
ATOM      1  C   UNL A   1      30.898  31.427  25.687  1.00  0.00     0.042 C 
ENDROOT
BRANCH   1   2
ATOM      2  C   UNL A   1      31.107  30.156  24.880  1.00  0.00     0.118 C 
BRANCH   2   3
ATOM      3  N   UNL A   1      30.485  30.236  23.566  1.00  0.00    -0.352 N 
ATOM      4  O   UNL A   1      29.897  29.505  21.515  1.00  0.00    -0.269 OA
ATOM      5  C   UNL A   1      30.237  29.236  22.662  1.00  0.00     0.251 C 
ATOM      6  H   UNL A   1      30.200  31.136  23.287  1.00  0.00     0.163 HD
BRANCH   5   7
ATOM      7  C   UNL A   1      30.342  27.823  23.079  1.00  0.00     0.039 A 
ATOM      8  C   UNL A   1      29.484  27.317  24.057  1.00  0.00     0.016 A 
ATOM      9  C   UNL A   1      31.216  26.963  22.408  1.00  0.00     0.016 A 
ATOM     10  C   UNL A   1      29.529  25.968  24.394  1.00  0.00     0.027 A 
ATOM     11  C   UNL A   1      31.262  25.607  22.758  1.00  0.00     0.027 A 
ATOM     12  C   UNL A   1      30.432  25.109  23.768  1.00  0.00     0.049 A 
BRANCH  12  13
ATOM     13  N   UNL A   1      30.344  23.696  23.976  1.00  0.00    -0.280 N 
ATOM     14  H   UNL A   1      29.560  23.206  23.639  1.00  0.00     0.180 HD
BRANCH  13  15
ATOM     15  S   UNL A   1      31.571  22.848  24.796  1.00  0.00     0.258 S 
ATOM     16  O   UNL A   1      32.352  23.893  25.433  1.00  0.00    -0.202 OA
ATOM     17  O   UNL A   1      30.869  21.898  25.635  1.00  0.00    -0.202 OA
BRANCH  15  18
ATOM     18  C   UNL A   1      32.562  21.972  23.628  1.00  0.00     0.066 C 
ATOM     19  C   UNL A   1      33.623  22.639  23.122  1.00  0.00     0.026 C 
ATOM     20  C   UNL A   1      32.779  20.512  23.943  1.00  0.00     0.055 C 
ATOM     21  C   UNL A   1      34.891  22.432  23.879  1.00  0.00    -0.021 A 
ATOM     22  C   UNL A   1      33.904  20.357  24.975  1.00  0.00     0.041 C 
ATOM     23  C   UNL A   1      35.947  23.330  23.698  1.00  0.00     0.008 A 
ATOM     24  C   UNL A   1      35.028  21.352  24.776  1.00  0.00    -0.040 A 
ATOM     25  C   UNL A   1      37.120  23.187  24.439  1.00  0.00     0.001 A 
ATOM     26  C   UNL A   1      36.202  21.233  25.530  1.00  0.00     0.004 A 
ATOM     27  C   UNL A   1      37.241  22.151  25.365  1.00  0.00     0.000 A 
ENDBRANCH  15  18
ENDBRANCH  13  15
ENDBRANCH  12  13
ENDBRANCH   5   7
ENDBRANCH   2   3
ENDBRANCH   1   2
BRANCH   1  28
ATOM     28  C   UNL A   1      32.008  31.706  26.687  1.00  0.00     0.118 C 
BRANCH  28  29
ATOM     29  N   UNL A   1      32.122  33.120  27.030  1.00  0.00    -0.352 N 
ATOM     30  C   UNL A   1      33.085  33.763  27.776  1.00  0.00     0.251 C 
ATOM     31  H   UNL A   1      31.407  33.697  26.677  1.00  0.00     0.163 HD
ATOM     32  O   UNL A   1      32.922  34.933  28.107  1.00  0.00    -0.269 OA
BRANCH  30  33
ATOM     33  C   UNL A   1      34.289  33.018  28.205  1.00  0.00     0.039 A 
ATOM     34  C   UNL A   1      35.515  33.682  28.291  1.00  0.00     0.014 A 
ATOM     35  C   UNL A   1      34.187  31.676  28.578  1.00  0.00     0.014 A 
ATOM     36  C   UNL A   1      36.615  33.027  28.853  1.00  0.00     0.010 A 
ATOM     37  C   UNL A   1      35.249  31.066  29.231  1.00  0.00     0.010 A 
ATOM     38  C   UNL A   1      36.474  31.735  29.381  1.00  0.00    -0.014 A 
BRANCH  38  39
ATOM     39  C   UNL A   1      37.580  31.029  30.080  1.00  0.00     0.031 A 
ATOM     40  C   UNL A   1      37.882  31.374  31.513  1.00  0.00     0.074 A 
ATOM     41  C   UNL A   1      38.382  30.181  29.406  1.00  0.00     0.049 A 
ATOM     42  N   UNL A   1      38.924  31.072  32.242  1.00  0.00    -0.248 NA
ATOM     43  C   UNL A   1      36.892  32.222  32.195  1.00  0.00     0.031 C 
ATOM     44  C   UNL A   1      38.212  29.780  28.007  1.00  0.00     0.029 A 
ATOM     45  N   UNL A   1      39.517  29.520  29.803  1.00  0.00    -0.354 N 
ATOM     46  C   UNL A   1      38.734  31.724  33.457  1.00  0.00     0.074 A 
ATOM     47  C   UNL A   1      37.511  32.488  33.334  1.00  0.00     0.031 C 
ATOM     48  C   UNL A   1      39.193  28.927  27.672  1.00  0.00     0.029 A 
ATOM     49  C   UNL A   1      40.097  28.768  28.807  1.00  0.00     0.049 A 
ATOM     50  H   UNL A   1      39.883  29.579  30.714  1.00  0.00     0.167 HD
ATOM     51  C   UNL A   1      39.496  31.670  34.579  1.00  0.00     0.034 A 
ATOM     52  C   UNL A   1      41.238  28.052  28.803  1.00  0.00     0.034 A 
ATOM     53  C   UNL A   1      40.698  30.880  34.689  1.00  0.00     0.049 A 
ATOM     54  C   UNL A   1      42.086  28.024  30.049  1.00  0.00     0.074 A 
ATOM     55  C   UNL A   1      41.529  30.718  35.783  1.00  0.00     0.029 A 
ATOM     56  N   UNL A   1      41.240  30.116  33.662  1.00  0.00    -0.354 N 
ATOM     57  N   UNL A   1      41.895  28.640  31.192  1.00  0.00    -0.248 NA
ATOM     58  C   UNL A   1      43.303  27.203  30.002  1.00  0.00     0.031 C 
ATOM     59  C   UNL A   1      42.598  29.897  35.404  1.00  0.00     0.029 A 
ATOM     60  C   UNL A   1      42.401  29.493  34.093  1.00  0.00     0.049 A 
ATOM     61  H   UNL A   1      40.854  30.029  32.761  1.00  0.00     0.167 HD
ATOM     62  C   UNL A   1      42.949  28.250  32.013  1.00  0.00     0.074 A 
ATOM     63  C   UNL A   1      43.772  27.348  31.232  1.00  0.00     0.031 C 
ATOM     64  C   UNL A   1      43.207  28.598  33.299  1.00  0.00     0.034 A 
BRANCH  51  65
ATOM     65  C   UNL A   1      39.050  32.514  35.750  1.00  0.00     0.023 A 
ATOM     66  C   UNL A   1      39.434  33.861  35.874  1.00  0.00     0.031 A 
ATOM     67  C   UNL A   1      38.296  31.948  36.793  1.00  0.00     0.131 A 
ATOM     68  C   UNL A   1      39.161  34.562  37.058  1.00  0.00     0.055 A 
ATOM     69  C   UNL A   1      37.941  32.683  37.927  1.00  0.00     0.041 A 
ATOM     70  F   UNL A   1      37.914  30.662  36.743  1.00  0.00    -0.206 F 
ATOM     71  C   UNL A   1      38.395  33.991  38.076  1.00  0.00     0.022 A 
BRANCH  68  72
ATOM     72  S   UNL A   1      39.986  36.156  37.323  1.00  0.00     0.124 S 
ATOM     73  O   UNL A   1      41.328  35.730  37.716  1.00  0.00    -0.237 OA
ATOM     74  O   UNL A   1      39.875  36.790  36.016  1.00  0.00    -0.237 OA
ATOM     75  O   UNL A   1      39.201  36.775  38.389  1.00  0.00    -0.744 OA
ENDBRANCH  68  72
ENDBRANCH  51  65
BRANCH  52  76
ATOM     76  C   UNL A   1      41.655  27.305  27.584  1.00  0.00     0.023 A 
ATOM     77  C   UNL A   1      41.524  25.909  27.521  1.00  0.00     0.031 A 
ATOM     78  C   UNL A   1      42.209  27.968  26.475  1.00  0.00     0.131 A 
ATOM     79  C   UNL A   1      41.977  25.214  26.390  1.00  0.00     0.055 A 
ATOM     80  C   UNL A   1      42.619  27.276  25.333  1.00  0.00     0.041 A 
ATOM     81  F   UNL A   1      42.346  29.303  26.481  1.00  0.00    -0.206 F 
ATOM     82  C   UNL A   1      42.513  25.889  25.291  1.00  0.00     0.022 A 
BRANCH  79  83
ATOM     83  S   UNL A   1      41.909  23.401  26.401  1.00  0.00     0.124 S 
ATOM     84  O   UNL A   1      40.476  23.159  26.519  1.00  0.00    -0.237 OA
ATOM     85  O   UNL A   1      42.513  23.068  25.116  1.00  0.00    -0.237 OA
ATOM     86  O   UNL A   1      42.703  23.038  27.572  1.00  0.00    -0.744 OA
ENDBRANCH  79  83
ENDBRANCH  52  76
BRANCH  64  87
ATOM     87  C   UNL A   1      44.394  27.942  33.960  1.00  0.00     0.023 A 
ATOM     88  C   UNL A   1      44.281  26.725  34.651  1.00  0.00     0.031 A 
ATOM     89  C   UNL A   1      45.658  28.553  33.890  1.00  0.00     0.131 A 
ATOM     90  C   UNL A   1      45.407  26.176  35.284  1.00  0.00     0.055 A 
ATOM     91  C   UNL A   1      46.784  27.979  34.479  1.00  0.00     0.041 A 
ATOM     92  F   UNL A   1      45.818  29.718  33.241  1.00  0.00    -0.206 F 
ATOM     93  C   UNL A   1      46.660  26.788  35.189  1.00  0.00     0.022 A 
BRANCH  90  94
ATOM     94  S   UNL A   1      45.203  24.682  36.292  1.00  0.00     0.124 S 
ATOM     95  O   UNL A   1      44.175  23.956  35.551  1.00  0.00    -0.237 OA
ATOM     96  O   UNL A   1      46.540  24.099  36.263  1.00  0.00    -0.237 OA
ATOM     97  O   UNL A   1      44.781  25.200  37.592  1.00  0.00    -0.744 OA
ENDBRANCH  90  94
ENDBRANCH  64  87
ENDBRANCH  38  39
ENDBRANCH  30  33
ENDBRANCH  28  29
ENDBRANCH   1  28
TORSDOF 16
ENDMDL
