MODEL 1
REMARK VINA RESULT:     -12.5      0.000      0.000
REMARK SMILES COc1ccccc1OC1CCN(c2cccc(C(=O)NCCCNC(=O)c3ccc(-c4c5nc(c(-c6cc(S(=O)(=O)[O-])ccc6F)c6ccc([nH]6)c(-c6cc(S(=O)(=O)[O-])ccc6F)c6nc(c(-c7cc(S(=O)(=O)[O-])ccc7F)c7ccc4[nH]7)C=C6)C=C5)cc3)n2)CC1
REMARK SMILES IDX 22 1 21 2 19 3 20 4 18 6 14 7 15 8 91 9 16 10 17 11 13 12
REMARK SMILES IDX 10 13 11 14 93 15 12 16 92 17 9 18 8 19 3 20 4 21 5 22 7 23
REMARK SMILES IDX 6 24 2 25 1 26 23 27 24 28 25 29 26 30 27 32 28 33 29 34
REMARK SMILES IDX 90 35 30 36 89 37 31 38 32 39 33 40 83 41 34 42 88 43 82 44
REMARK SMILES IDX 84 45 35 46 87 47 81 48 80 49 36 51 68 52 48 53 67 54 49 55
REMARK SMILES IDX 52 56 66 57 85 58 50 59 51 60 65 62 86 63 53 64 37 65 38 66
REMARK SMILES IDX 46 67 39 68 45 69 47 70 44 71 40 72 41 73 42 74 43 75 69 76
REMARK SMILES IDX 70 77 78 78 71 79 77 80 79 81 76 82 72 83 73 84 74 85 75 86
REMARK SMILES IDX 54 87 55 88 63 89 56 90 62 91 64 92 61 93 57 94 58 95 59 96
REMARK SMILES IDX 60 97
REMARK H PARENT 21 5 25 31 84 50 52 61
REMARK Flexibility Score: inf
ROOT
ATOM      1  C   UNL A   1      36.906  20.692  24.662  1.00  0.00     0.118 C 
ENDROOT
BRANCH   1   2
ATOM      2  N   UNL A   1      36.141  20.937  25.869  1.00  0.00    -0.351 N 
ATOM      3  C   UNL A   1      34.885  21.450  26.095  1.00  0.00     0.269 C 
ATOM      4  O   UNL A   1      34.526  21.485  27.276  1.00  0.00    -0.268 OA
ATOM      5  H   UNL A   1      36.617  20.685  26.693  1.00  0.00     0.163 HD
BRANCH   3   6
ATOM      6  C   UNL A   1      33.939  21.903  25.010  1.00  0.00     0.130 A 
ATOM      7  C   UNL A   1      32.602  23.680  24.324  1.00  0.00     0.129 A 
ATOM      8  C   UNL A   1      32.067  22.924  23.295  1.00  0.00     0.047 A 
ATOM      9  N   UNL A   1      33.520  23.185  25.170  1.00  0.00    -0.226 NA
ATOM     10  C   UNL A   1      32.537  21.634  23.090  1.00  0.00     0.006 A 
ATOM     11  C   UNL A   1      33.501  21.120  23.951  1.00  0.00     0.034 A 
BRANCH   7  12
ATOM     12  N   UNL A   1      32.120  24.949  24.557  1.00  0.00    -0.356 N 
ATOM     13  C   UNL A   1      30.462  28.138  23.346  1.00  0.00     0.177 C 
ATOM     14  C   UNL A   1      29.411  26.680  24.090  1.00  0.00     0.066 C 
ATOM     15  C   UNL A   1      32.378  27.852  23.149  1.00  0.00     0.066 C 
ATOM     16  C   UNL A   1      30.319  25.124  24.816  1.00  0.00     0.122 C 
ATOM     17  C   UNL A   1      33.194  26.287  23.943  1.00  0.00     0.122 C 
BRANCH  13  18
ATOM     18  O   UNL A   1      30.275  29.309  24.151  1.00  0.00    -0.486 OA
BRANCH  18  19
ATOM     19  C   UNL A   1      29.589  30.161  23.348  1.00  0.00     0.161 A 
ATOM     20  C   UNL A   1      29.360  31.457  23.785  1.00  0.00     0.160 A 
ATOM     21  C   UNL A   1      28.634  32.335  22.976  1.00  0.00     0.050 A 
ATOM     22  C   UNL A   1      28.204  31.924  21.714  1.00  0.00     0.004 A 
ATOM     23  C   UNL A   1      29.159  29.736  22.096  1.00  0.00     0.050 A 
ATOM     24  C   UNL A   1      28.478  30.629  21.269  1.00  0.00     0.004 A 
BRANCH  20  25
ATOM     25  O   UNL A   1      29.886  31.939  24.990  1.00  0.00    -0.493 OA
ATOM     26  C   UNL A   1      31.164  32.311  26.337  1.00  0.00     0.278 C 
ENDBRANCH  20  25
ENDBRANCH  18  19
ENDBRANCH  13  18
ENDBRANCH   7  12
ENDBRANCH   3   6
ENDBRANCH   1   2
BRANCH   1  27
ATOM     27  C   UNL A   1      38.028  19.685  24.913  1.00  0.00     0.042 C 
BRANCH  27  28
ATOM     28  C   UNL A   1      38.904  20.040  26.114  1.00  0.00     0.118 C 
BRANCH  28  29
ATOM     29  N   UNL A   1      40.131  19.257  26.128  1.00  0.00    -0.352 N 
ATOM     30  C   UNL A   1      41.444  19.651  26.117  1.00  0.00     0.251 C 
ATOM     31  H   UNL A   1      39.994  18.283  26.149  1.00  0.00     0.163 HD
ATOM     32  O   UNL A   1      42.299  18.816  25.836  1.00  0.00    -0.269 OA
BRANCH  30  33
ATOM     33  C   UNL A   1      41.843  21.044  26.432  1.00  0.00     0.039 A 
ATOM     34  C   UNL A   1      41.927  21.962  25.381  1.00  0.00     0.014 A 
ATOM     35  C   UNL A   1      42.220  21.436  27.721  1.00  0.00     0.014 A 
ATOM     36  C   UNL A   1      42.354  23.270  25.624  1.00  0.00     0.010 A 
ATOM     37  C   UNL A   1      42.580  22.761  27.975  1.00  0.00     0.010 A 
ATOM     38  C   UNL A   1      42.664  23.689  26.928  1.00  0.00    -0.014 A 
BRANCH  38  39
ATOM     39  C   UNL A   1      43.072  25.094  27.191  1.00  0.00     0.031 A 
ATOM     40  C   UNL A   1      42.129  26.053  27.872  1.00  0.00     0.074 A 
ATOM     41  C   UNL A   1      44.286  25.513  26.783  1.00  0.00     0.049 A 
ATOM     42  N   UNL A   1      42.314  27.310  28.187  1.00  0.00    -0.248 NA
ATOM     43  C   UNL A   1      40.796  25.540  28.218  1.00  0.00     0.031 C 
ATOM     44  C   UNL A   1      45.259  24.691  26.057  1.00  0.00     0.029 A 
ATOM     45  N   UNL A   1      44.912  26.727  26.912  1.00  0.00    -0.354 N 
ATOM     46  C   UNL A   1      41.118  27.742  28.751  1.00  0.00     0.074 A 
ATOM     47  C   UNL A   1      40.200  26.625  28.690  1.00  0.00     0.031 C 
ATOM     48  C   UNL A   1      46.364  25.418  25.828  1.00  0.00     0.029 A 
ATOM     49  C   UNL A   1      46.171  26.762  26.358  1.00  0.00     0.049 A 
ATOM     50  H   UNL A   1      44.499  27.500  27.360  1.00  0.00     0.167 HD
ATOM     51  C   UNL A   1      40.821  28.955  29.285  1.00  0.00     0.034 A 
ATOM     52  C   UNL A   1      47.067  27.766  26.283  1.00  0.00     0.034 A 
ATOM     53  C   UNL A   1      41.760  30.049  29.360  1.00  0.00     0.049 A 
ATOM     54  C   UNL A   1      46.725  29.090  26.916  1.00  0.00     0.074 A 
ATOM     55  C   UNL A   1      41.596  31.287  29.957  1.00  0.00     0.029 A 
ATOM     56  N   UNL A   1      43.036  30.043  28.810  1.00  0.00    -0.354 N 
ATOM     57  N   UNL A   1      45.620  29.453  27.525  1.00  0.00    -0.248 NA
ATOM     58  C   UNL A   1      47.759  30.130  26.869  1.00  0.00     0.031 C 
ATOM     59  C   UNL A   1      42.742  32.051  29.712  1.00  0.00     0.029 A 
ATOM     60  C   UNL A   1      43.655  31.266  29.025  1.00  0.00     0.049 A 
ATOM     61  H   UNL A   1      43.442  29.282  28.338  1.00  0.00     0.167 HD
ATOM     62  C   UNL A   1      45.836  30.762  27.951  1.00  0.00     0.074 A 
ATOM     63  C   UNL A   1      47.187  31.106  27.557  1.00  0.00     0.031 C 
ATOM     64  C   UNL A   1      44.995  31.603  28.605  1.00  0.00     0.034 A 
BRANCH  51  65
ATOM     65  C   UNL A   1      39.418  29.169  29.803  1.00  0.00     0.023 A 
ATOM     66  C   UNL A   1      38.433  29.818  29.037  1.00  0.00     0.031 A 
ATOM     67  C   UNL A   1      39.060  28.718  31.087  1.00  0.00     0.131 A 
ATOM     68  C   UNL A   1      37.162  30.055  29.585  1.00  0.00     0.055 A 
ATOM     69  C   UNL A   1      37.772  28.892  31.597  1.00  0.00     0.041 A 
ATOM     70  F   UNL A   1      39.963  28.108  31.872  1.00  0.00    -0.206 F 
ATOM     71  C   UNL A   1      36.817  29.575  30.850  1.00  0.00     0.022 A 
BRANCH  68  72
ATOM     72  S   UNL A   1      36.002  31.105  28.667  1.00  0.00     0.124 S 
ATOM     73  O   UNL A   1      36.909  32.052  28.022  1.00  0.00    -0.237 OA
ATOM     74  O   UNL A   1      35.341  30.151  27.785  1.00  0.00    -0.237 OA
ATOM     75  O   UNL A   1      35.156  31.678  29.713  1.00  0.00    -0.744 OA
ENDBRANCH  68  72
ENDBRANCH  51  65
BRANCH  52  76
ATOM     76  C   UNL A   1      48.367  27.567  25.580  1.00  0.00     0.023 A 
ATOM     77  C   UNL A   1      48.476  27.737  24.191  1.00  0.00     0.031 A 
ATOM     78  C   UNL A   1      49.513  27.161  26.286  1.00  0.00     0.131 A 
ATOM     79  C   UNL A   1      49.689  27.452  23.544  1.00  0.00     0.055 A 
ATOM     80  C   UNL A   1      50.733  26.931  25.646  1.00  0.00     0.041 A 
ATOM     81  F   UNL A   1      49.467  26.993  27.618  1.00  0.00    -0.206 F 
ATOM     82  C   UNL A   1      50.820  27.061  24.263  1.00  0.00     0.022 A 
BRANCH  79  83
ATOM     83  S   UNL A   1      49.742  27.511  21.731  1.00  0.00     0.124 S 
ATOM     84  O   UNL A   1      49.659  28.946  21.478  1.00  0.00    -0.237 OA
ATOM     85  O   UNL A   1      51.027  26.883  21.447  1.00  0.00    -0.237 OA
ATOM     86  O   UNL A   1      48.569  26.738  21.331  1.00  0.00    -0.744 OA
ENDBRANCH  79  83
ENDBRANCH  52  76
BRANCH  64  87
ATOM     87  C   UNL A   1      45.538  32.969  28.948  1.00  0.00     0.023 A 
ATOM     88  C   UNL A   1      45.367  34.065  28.085  1.00  0.00     0.031 A 
ATOM     89  C   UNL A   1      46.270  33.168  30.132  1.00  0.00     0.131 A 
ATOM     90  C   UNL A   1      45.982  35.290  28.379  1.00  0.00     0.055 A 
ATOM     91  C   UNL A   1      46.824  34.407  30.452  1.00  0.00     0.041 A 
ATOM     92  F   UNL A   1      46.467  32.156  30.992  1.00  0.00    -0.206 F 
ATOM     93  C   UNL A   1      46.697  35.473  29.566  1.00  0.00     0.022 A 
BRANCH  90  94
ATOM     94  S   UNL A   1      45.936  36.607  27.133  1.00  0.00     0.124 S 
ATOM     95  O   UNL A   1      46.745  36.038  26.060  1.00  0.00    -0.237 OA
ATOM     96  O   UNL A   1      44.508  36.728  26.860  1.00  0.00    -0.237 OA
ATOM     97  O   UNL A   1      46.535  37.751  27.820  1.00  0.00    -0.744 OA
ENDBRANCH  90  94
ENDBRANCH  64  87
ENDBRANCH  38  39
ENDBRANCH  30  33
ENDBRANCH  28  29
ENDBRANCH  27  28
ENDBRANCH   1  27
TORSDOF 17
ENDMDL
MODEL 2
REMARK VINA RESULT:     -12.4      5.811     11.722
REMARK SMILES COc1ccccc1OC1CCN(c2cccc(C(=O)NCCCNC(=O)c3ccc(-c4c5nc(c(-c6cc(S(=O)(=O)[O-])ccc6F)c6ccc([nH]6)c(-c6cc(S(=O)(=O)[O-])ccc6F)c6nc(c(-c7cc(S(=O)(=O)[O-])ccc7F)c7ccc4[nH]7)C=C6)C=C5)cc3)n2)CC1
REMARK SMILES IDX 22 1 21 2 19 3 20 4 18 6 14 7 15 8 91 9 16 10 17 11 13 12
REMARK SMILES IDX 10 13 11 14 93 15 12 16 92 17 9 18 8 19 3 20 4 21 5 22 7 23
REMARK SMILES IDX 6 24 2 25 1 26 23 27 24 28 25 29 26 30 27 32 28 33 29 34
REMARK SMILES IDX 90 35 30 36 89 37 31 38 32 39 33 40 83 41 34 42 88 43 82 44
REMARK SMILES IDX 84 45 35 46 87 47 81 48 80 49 36 51 68 52 48 53 67 54 49 55
REMARK SMILES IDX 52 56 66 57 85 58 50 59 51 60 65 62 86 63 53 64 37 65 38 66
REMARK SMILES IDX 46 67 39 68 45 69 47 70 44 71 40 72 41 73 42 74 43 75 69 76
REMARK SMILES IDX 70 77 78 78 71 79 77 80 79 81 76 82 72 83 73 84 74 85 75 86
REMARK SMILES IDX 54 87 55 88 63 89 56 90 62 91 64 92 61 93 57 94 58 95 59 96
REMARK SMILES IDX 60 97
REMARK H PARENT 21 5 25 31 84 50 52 61
REMARK Flexibility Score: inf
ROOT
ATOM      1  C   UNL A   1      32.859  35.200  30.607  1.00  0.00     0.118 C 
ENDROOT
BRANCH   1   2
ATOM      2  N   UNL A   1      33.046  36.086  31.739  1.00  0.00    -0.351 N 
ATOM      3  C   UNL A   1      33.895  36.059  32.821  1.00  0.00     0.269 C 
ATOM      4  O   UNL A   1      33.808  37.019  33.593  1.00  0.00    -0.268 OA
ATOM      5  H   UNL A   1      32.444  36.865  31.732  1.00  0.00     0.163 HD
BRANCH   3   6
ATOM      6  C   UNL A   1      34.927  34.987  33.070  1.00  0.00     0.130 A 
ATOM      7  C   UNL A   1      37.176  34.460  32.782  1.00  0.00     0.129 A 
ATOM      8  C   UNL A   1      36.964  33.166  33.230  1.00  0.00     0.047 A 
ATOM      9  N   UNL A   1      36.180  35.357  32.700  1.00  0.00    -0.226 NA
ATOM     10  C   UNL A   1      35.699  32.802  33.668  1.00  0.00     0.006 A 
ATOM     11  C   UNL A   1      34.666  33.732  33.602  1.00  0.00     0.034 A 
BRANCH   7  12
ATOM     12  N   UNL A   1      38.419  34.823  32.314  1.00  0.00    -0.356 N 
ATOM     13  C   UNL A   1      42.001  33.962  31.414  1.00  0.00     0.177 C 
ATOM     14  C   UNL A   1      40.584  33.880  30.083  1.00  0.00     0.066 C 
ATOM     15  C   UNL A   1      41.491  34.396  33.242  1.00  0.00     0.066 C 
ATOM     16  C   UNL A   1      38.793  34.457  30.563  1.00  0.00     0.122 C 
ATOM     17  C   UNL A   1      39.689  34.999  33.610  1.00  0.00     0.122 C 
BRANCH  13  18
ATOM     18  O   UNL A   1      42.983  34.919  30.995  1.00  0.00    -0.486 OA
BRANCH  18  19
ATOM     19  C   UNL A   1      43.984  34.165  30.474  1.00  0.00     0.161 A 
ATOM     20  C   UNL A   1      44.253  34.250  29.117  1.00  0.00     0.160 A 
ATOM     21  C   UNL A   1      45.266  33.461  28.567  1.00  0.00     0.050 A 
ATOM     22  C   UNL A   1      46.039  32.645  29.394  1.00  0.00     0.004 A 
ATOM     23  C   UNL A   1      44.741  33.351  31.309  1.00  0.00     0.050 A 
ATOM     24  C   UNL A   1      45.785  32.600  30.767  1.00  0.00     0.004 A 
BRANCH  20  25
ATOM     25  O   UNL A   1      43.581  35.152  28.281  1.00  0.00    -0.493 OA
ATOM     26  C   UNL A   1      42.189  35.883  27.227  1.00  0.00     0.278 C 
ENDBRANCH  20  25
ENDBRANCH  18  19
ENDBRANCH  13  18
ENDBRANCH   7  12
ENDBRANCH   3   6
ENDBRANCH   1   2
BRANCH   1  27
ATOM     27  C   UNL A   1      33.993  35.352  29.592  1.00  0.00     0.042 C 
BRANCH  27  28
ATOM     28  C   UNL A   1      34.839  34.089  29.434  1.00  0.00     0.118 C 
BRANCH  28  29
ATOM     29  N   UNL A   1      34.161  33.093  28.619  1.00  0.00    -0.352 N 
ATOM     30  C   UNL A   1      34.592  31.882  28.142  1.00  0.00     0.251 C 
ATOM     31  H   UNL A   1      33.238  33.328  28.369  1.00  0.00     0.163 HD
ATOM     32  O   UNL A   1      33.953  31.352  27.238  1.00  0.00    -0.269 OA
BRANCH  30  33
ATOM     33  C   UNL A   1      35.796  31.212  28.691  1.00  0.00     0.039 A 
ATOM     34  C   UNL A   1      37.049  31.757  28.394  1.00  0.00     0.014 A 
ATOM     35  C   UNL A   1      35.718  30.016  29.411  1.00  0.00     0.014 A 
ATOM     36  C   UNL A   1      38.212  31.127  28.843  1.00  0.00     0.010 A 
ATOM     37  C   UNL A   1      36.877  29.424  29.918  1.00  0.00     0.010 A 
ATOM     38  C   UNL A   1      38.138  29.965  29.628  1.00  0.00    -0.014 A 
BRANCH  38  39
ATOM     39  C   UNL A   1      39.375  29.323  30.144  1.00  0.00     0.031 A 
ATOM     40  C   UNL A   1      40.039  29.831  31.398  1.00  0.00     0.074 A 
ATOM     41  C   UNL A   1      39.918  28.298  29.458  1.00  0.00     0.049 A 
ATOM     42  N   UNL A   1      41.117  29.394  31.997  1.00  0.00    -0.248 NA
ATOM     43  C   UNL A   1      39.427  31.000  32.046  1.00  0.00     0.031 C 
ATOM     44  C   UNL A   1      39.399  27.761  28.196  1.00  0.00     0.029 A 
ATOM     45  N   UNL A   1      41.023  27.526  29.714  1.00  0.00    -0.354 N 
ATOM     46  C   UNL A   1      41.323  30.243  33.080  1.00  0.00     0.074 A 
ATOM     47  C   UNL A   1      40.283  31.249  33.026  1.00  0.00     0.031 C 
ATOM     48  C   UNL A   1      40.170  26.734  27.805  1.00  0.00     0.029 A 
ATOM     49  C   UNL A   1      41.255  26.559  28.763  1.00  0.00     0.049 A 
ATOM     50  H   UNL A   1      41.596  27.651  30.505  1.00  0.00     0.167 HD
ATOM     51  C   UNL A   1      42.281  30.177  34.040  1.00  0.00     0.034 A 
ATOM     52  C   UNL A   1      42.233  25.636  28.672  1.00  0.00     0.034 A 
ATOM     53  C   UNL A   1      43.294  29.150  34.091  1.00  0.00     0.049 A 
ATOM     54  C   UNL A   1      43.262  25.562  29.770  1.00  0.00     0.074 A 
ATOM     55  C   UNL A   1      44.257  28.936  35.064  1.00  0.00     0.029 A 
ATOM     56  N   UNL A   1      43.486  28.171  33.124  1.00  0.00    -0.354 N 
ATOM     57  N   UNL A   1      43.389  26.319  30.836  1.00  0.00    -0.248 NA
ATOM     58  C   UNL A   1      44.267  24.498  29.663  1.00  0.00     0.031 C 
ATOM     59  C   UNL A   1      45.069  27.872  34.654  1.00  0.00     0.029 A 
ATOM     60  C   UNL A   1      44.570  27.373  33.461  1.00  0.00     0.049 A 
ATOM     61  H   UNL A   1      42.933  28.058  32.319  1.00  0.00     0.167 HD
ATOM     62  C   UNL A   1      44.478  25.807  31.536  1.00  0.00     0.074 A 
ATOM     63  C   UNL A   1      44.948  24.660  30.787  1.00  0.00     0.031 C 
ATOM     64  C   UNL A   1      45.041  26.246  32.690  1.00  0.00     0.034 A 
BRANCH  51  65
ATOM     65  C   UNL A   1      42.295  31.260  35.094  1.00  0.00     0.023 A 
ATOM     66  C   UNL A   1      41.234  31.428  36.002  1.00  0.00     0.031 A 
ATOM     67  C   UNL A   1      43.388  32.141  35.190  1.00  0.00     0.131 A 
ATOM     68  C   UNL A   1      41.261  32.490  36.921  1.00  0.00     0.055 A 
ATOM     69  C   UNL A   1      43.441  33.148  36.156  1.00  0.00     0.041 A 
ATOM     70  F   UNL A   1      44.422  32.040  34.340  1.00  0.00    -0.206 F 
ATOM     71  C   UNL A   1      42.367  33.335  37.020  1.00  0.00     0.022 A 
BRANCH  68  72
ATOM     72  S   UNL A   1      39.774  32.823  37.905  1.00  0.00     0.124 S 
ATOM     73  O   UNL A   1      38.880  31.754  37.462  1.00  0.00    -0.237 OA
ATOM     74  O   UNL A   1      40.268  32.715  39.273  1.00  0.00    -0.237 OA
ATOM     75  O   UNL A   1      39.380  34.167  37.488  1.00  0.00    -0.744 OA
ENDBRANCH  68  72
ENDBRANCH  51  65
BRANCH  52  76
ATOM     76  C   UNL A   1      42.295  24.713  27.502  1.00  0.00     0.023 A 
ATOM     77  C   UNL A   1      41.548  23.525  27.473  1.00  0.00     0.031 A 
ATOM     78  C   UNL A   1      43.140  24.986  26.413  1.00  0.00     0.131 A 
ATOM     79  C   UNL A   1      41.698  22.630  26.403  1.00  0.00     0.055 A 
ATOM     80  C   UNL A   1      43.246  24.119  25.324  1.00  0.00     0.041 A 
ATOM     81  F   UNL A   1      43.870  26.113  26.385  1.00  0.00    -0.206 F 
ATOM     82  C   UNL A   1      42.533  22.924  25.323  1.00  0.00     0.022 A 
BRANCH  79  83
ATOM     83  S   UNL A   1      40.852  21.027  26.485  1.00  0.00     0.124 S 
ATOM     84  O   UNL A   1      41.774  20.166  25.751  1.00  0.00    -0.237 OA
ATOM     85  O   UNL A   1      40.772  20.802  27.924  1.00  0.00    -0.237 OA
ATOM     86  O   UNL A   1      39.575  21.282  25.823  1.00  0.00    -0.744 OA
ENDBRANCH  79  83
ENDBRANCH  52  76
BRANCH  64  87
ATOM     87  C   UNL A   1      46.216  25.455  33.212  1.00  0.00     0.023 A 
ATOM     88  C   UNL A   1      46.040  24.369  34.088  1.00  0.00     0.031 A 
ATOM     89  C   UNL A   1      47.529  25.817  32.865  1.00  0.00     0.131 A 
ATOM     90  C   UNL A   1      47.157  23.730  34.644  1.00  0.00     0.055 A 
ATOM     91  C   UNL A   1      48.637  25.135  33.370  1.00  0.00     0.041 A 
ATOM     92  F   UNL A   1      47.758  26.847  32.035  1.00  0.00    -0.206 F 
ATOM     93  C   UNL A   1      48.455  24.096  34.278  1.00  0.00     0.022 A 
BRANCH  90  94
ATOM     94  S   UNL A   1      46.892  22.493  35.945  1.00  0.00     0.124 S 
ATOM     95  O   UNL A   1      47.391  23.185  37.128  1.00  0.00    -0.237 OA
ATOM     96  O   UNL A   1      45.449  22.286  35.887  1.00  0.00    -0.237 OA
ATOM     97  O   UNL A   1      47.700  21.356  35.505  1.00  0.00    -0.744 OA
ENDBRANCH  90  94
ENDBRANCH  64  87
ENDBRANCH  38  39
ENDBRANCH  30  33
ENDBRANCH  28  29
ENDBRANCH  27  28
ENDBRANCH   1  27
TORSDOF 17
ENDMDL
MODEL 3
REMARK VINA RESULT:     -12.4      1.202      7.409
REMARK SMILES COc1ccccc1OC1CCN(c2cccc(C(=O)NCCCNC(=O)c3ccc(-c4c5nc(c(-c6cc(S(=O)(=O)[O-])ccc6F)c6ccc([nH]6)c(-c6cc(S(=O)(=O)[O-])ccc6F)c6nc(c(-c7cc(S(=O)(=O)[O-])ccc7F)c7ccc4[nH]7)C=C6)C=C5)cc3)n2)CC1
REMARK SMILES IDX 22 1 21 2 19 3 20 4 18 6 14 7 15 8 91 9 16 10 17 11 13 12
REMARK SMILES IDX 10 13 11 14 93 15 12 16 92 17 9 18 8 19 3 20 4 21 5 22 7 23
REMARK SMILES IDX 6 24 2 25 1 26 23 27 24 28 25 29 26 30 27 32 28 33 29 34
REMARK SMILES IDX 90 35 30 36 89 37 31 38 32 39 33 40 83 41 34 42 88 43 82 44
REMARK SMILES IDX 84 45 35 46 87 47 81 48 80 49 36 51 68 52 48 53 67 54 49 55
REMARK SMILES IDX 52 56 66 57 85 58 50 59 51 60 65 62 86 63 53 64 37 65 38 66
REMARK SMILES IDX 46 67 39 68 45 69 47 70 44 71 40 72 41 73 42 74 43 75 69 76
REMARK SMILES IDX 70 77 78 78 71 79 77 80 79 81 76 82 72 83 73 84 74 85 75 86
REMARK SMILES IDX 54 87 55 88 63 89 56 90 62 91 64 92 61 93 57 94 58 95 59 96
REMARK SMILES IDX 60 97
REMARK H PARENT 21 5 25 31 84 50 52 61
REMARK Flexibility Score: inf
ROOT
ATOM      1  C   UNL A   1      36.612  20.832  24.696  1.00  0.00     0.118 C 
ENDROOT
BRANCH   1   2
ATOM      2  N   UNL A   1      35.721  20.844  25.839  1.00  0.00    -0.351 N 
ATOM      3  C   UNL A   1      34.406  21.217  25.999  1.00  0.00     0.269 C 
ATOM      4  O   UNL A   1      33.940  21.059  27.132  1.00  0.00    -0.268 OA
ATOM      5  H   UNL A   1      36.141  20.520  26.668  1.00  0.00     0.163 HD
BRANCH   3   6
ATOM      6  C   UNL A   1      33.525  21.737  24.891  1.00  0.00     0.130 A 
ATOM      7  C   UNL A   1      32.361  23.615  24.159  1.00  0.00     0.129 A 
ATOM      8  C   UNL A   1      31.782  22.895  23.126  1.00  0.00     0.047 A 
ATOM      9  N   UNL A   1      33.215  23.052  25.029  1.00  0.00    -0.226 NA
ATOM     10  C   UNL A   1      32.144  21.568  22.944  1.00  0.00     0.006 A 
ATOM     11  C   UNL A   1      33.042  20.983  23.831  1.00  0.00     0.034 A 
BRANCH   7  12
ATOM     12  N   UNL A   1      31.985  24.923  24.370  1.00  0.00    -0.356 N 
ATOM     13  C   UNL A   1      30.279  28.107  23.215  1.00  0.00     0.177 C 
ATOM     14  C   UNL A   1      29.315  26.770  24.250  1.00  0.00     0.066 C 
ATOM     15  C   UNL A   1      32.113  27.698  22.707  1.00  0.00     0.066 C 
ATOM     16  C   UNL A   1      30.271  25.221  24.928  1.00  0.00     0.122 C 
ATOM     17  C   UNL A   1      32.989  26.149  23.469  1.00  0.00     0.122 C 
BRANCH  13  18
ATOM     18  O   UNL A   1      30.292  29.342  23.943  1.00  0.00    -0.486 OA
BRANCH  18  19
ATOM     19  C   UNL A   1      29.524  30.178  23.198  1.00  0.00     0.161 A 
ATOM     20  C   UNL A   1      29.218  31.433  23.700  1.00  0.00     0.160 A 
ATOM     21  C   UNL A   1      28.409  32.292  22.952  1.00  0.00     0.050 A 
ATOM     22  C   UNL A   1      27.971  31.907  21.684  1.00  0.00     0.004 A 
ATOM     23  C   UNL A   1      29.089  29.779  21.940  1.00  0.00     0.050 A 
ATOM     24  C   UNL A   1      28.322  30.656  21.173  1.00  0.00     0.004 A 
BRANCH  20  25
ATOM     25  O   UNL A   1      29.745  31.899  24.912  1.00  0.00    -0.493 OA
ATOM     26  C   UNL A   1      31.032  32.490  26.167  1.00  0.00     0.278 C 
ENDBRANCH  20  25
ENDBRANCH  18  19
ENDBRANCH  13  18
ENDBRANCH   7  12
ENDBRANCH   3   6
ENDBRANCH   1   2
BRANCH   1  27
ATOM     27  C   UNL A   1      37.894  20.057  25.003  1.00  0.00     0.042 C 
BRANCH  27  28
ATOM     28  C   UNL A   1      38.922  20.870  25.789  1.00  0.00     0.118 C 
BRANCH  28  29
ATOM     29  N   UNL A   1      40.099  20.077  26.106  1.00  0.00    -0.352 N 
ATOM     30  C   UNL A   1      41.377  20.459  26.424  1.00  0.00     0.251 C 
ATOM     31  H   UNL A   1      39.954  19.104  26.088  1.00  0.00     0.163 HD
ATOM     32  O   UNL A   1      42.268  19.617  26.363  1.00  0.00    -0.269 OA
BRANCH  30  33
ATOM     33  C   UNL A   1      41.696  21.848  26.835  1.00  0.00     0.039 A 
ATOM     34  C   UNL A   1      41.868  22.810  25.835  1.00  0.00     0.014 A 
ATOM     35  C   UNL A   1      41.915  22.197  28.172  1.00  0.00     0.014 A 
ATOM     36  C   UNL A   1      42.225  24.117  26.174  1.00  0.00     0.010 A 
ATOM     37  C   UNL A   1      42.204  23.518  28.514  1.00  0.00     0.010 A 
ATOM     38  C   UNL A   1      42.376  24.491  27.519  1.00  0.00    -0.014 A 
BRANCH  38  39
ATOM     39  C   UNL A   1      42.709  25.894  27.879  1.00  0.00     0.031 A 
ATOM     40  C   UNL A   1      44.110  26.421  27.705  1.00  0.00     0.074 A 
ATOM     41  C   UNL A   1      41.748  26.684  28.398  1.00  0.00     0.049 A 
ATOM     42  N   UNL A   1      44.582  27.615  27.960  1.00  0.00    -0.248 NA
ATOM     43  C   UNL A   1      45.117  25.475  27.204  1.00  0.00     0.031 C 
ATOM     44  C   UNL A   1      40.370  26.264  28.672  1.00  0.00     0.029 A 
ATOM     45  N   UNL A   1      41.776  27.998  28.791  1.00  0.00    -0.354 N 
ATOM     46  C   UNL A   1      45.941  27.559  27.669  1.00  0.00     0.074 A 
ATOM     47  C   UNL A   1      46.226  26.199  27.264  1.00  0.00     0.031 C 
ATOM     48  C   UNL A   1      39.683  27.306  29.165  1.00  0.00     0.029 A 
ATOM     49  C   UNL A   1      40.572  28.457  29.274  1.00  0.00     0.049 A 
ATOM     50  H   UNL A   1      42.582  28.561  28.733  1.00  0.00     0.167 HD
ATOM     51  C   UNL A   1      46.862  28.555  27.720  1.00  0.00     0.034 A 
ATOM     52  C   UNL A   1      40.223  29.667  29.754  1.00  0.00     0.034 A 
ATOM     53  C   UNL A   1      46.553  29.913  28.103  1.00  0.00     0.049 A 
ATOM     54  C   UNL A   1      41.256  30.765  29.765  1.00  0.00     0.074 A 
ATOM     55  C   UNL A   1      47.385  31.019  28.105  1.00  0.00     0.029 A 
ATOM     56  N   UNL A   1      45.317  30.349  28.564  1.00  0.00    -0.354 N 
ATOM     57  N   UNL A   1      42.517  30.717  29.402  1.00  0.00    -0.248 NA
ATOM     58  C   UNL A   1      40.812  32.084  30.232  1.00  0.00     0.031 C 
ATOM     59  C   UNL A   1      46.674  32.105  28.627  1.00  0.00     0.029 A 
ATOM     60  C   UNL A   1      45.375  31.698  28.884  1.00  0.00     0.049 A 
ATOM     61  H   UNL A   1      44.516  29.784  28.650  1.00  0.00     0.167 HD
ATOM     62  C   UNL A   1      43.011  32.006  29.579  1.00  0.00     0.074 A 
ATOM     63  C   UNL A   1      41.903  32.812  30.048  1.00  0.00     0.031 C 
ATOM     64  C   UNL A   1      44.266  32.482  29.375  1.00  0.00     0.034 A 
BRANCH  51  65
ATOM     65  C   UNL A   1      48.293  28.208  27.382  1.00  0.00     0.023 A 
ATOM     66  C   UNL A   1      48.797  28.323  26.073  1.00  0.00     0.031 A 
ATOM     67  C   UNL A   1      49.168  27.753  28.385  1.00  0.00     0.131 A 
ATOM     68  C   UNL A   1      50.114  27.925  25.792  1.00  0.00     0.055 A 
ATOM     69  C   UNL A   1      50.499  27.430  28.111  1.00  0.00     0.041 A 
ATOM     70  F   UNL A   1      48.740  27.606  29.648  1.00  0.00    -0.206 F 
ATOM     71  C   UNL A   1      50.975  27.503  26.806  1.00  0.00     0.022 A 
BRANCH  68  72
ATOM     72  S   UNL A   1      50.649  27.855  24.060  1.00  0.00     0.124 S 
ATOM     73  O   UNL A   1      51.427  26.618  24.042  1.00  0.00    -0.237 OA
ATOM     74  O   UNL A   1      49.382  27.822  23.339  1.00  0.00    -0.237 OA
ATOM     75  O   UNL A   1      51.431  29.078  23.892  1.00  0.00    -0.744 OA
ENDBRANCH  68  72
ENDBRANCH  51  65
BRANCH  52  76
ATOM     76  C   UNL A   1      38.845  29.909  30.268  1.00  0.00     0.023 A 
ATOM     77  C   UNL A   1      37.869  30.526  29.470  1.00  0.00     0.031 A 
ATOM     78  C   UNL A   1      38.496  29.563  31.586  1.00  0.00     0.131 A 
ATOM     79  C   UNL A   1      36.609  30.827  30.012  1.00  0.00     0.055 A 
ATOM     80  C   UNL A   1      37.224  29.815  32.104  1.00  0.00     0.041 A 
ATOM     81  F   UNL A   1      39.389  28.962  32.389  1.00  0.00    -0.206 F 
ATOM     82  C   UNL A   1      36.277  30.465  31.319  1.00  0.00     0.022 A 
BRANCH  79  83
ATOM     83  S   UNL A   1      35.437  31.781  29.009  1.00  0.00     0.124 S 
ATOM     84  O   UNL A   1      36.319  32.742  28.354  1.00  0.00    -0.237 OA
ATOM     85  O   UNL A   1      34.863  30.749  28.153  1.00  0.00    -0.237 OA
ATOM     86  O   UNL A   1      34.524  32.346  30.000  1.00  0.00    -0.744 OA
ENDBRANCH  79  83
ENDBRANCH  52  76
BRANCH  64  87
ATOM     87  C   UNL A   1      44.483  33.951  29.643  1.00  0.00     0.023 A 
ATOM     88  C   UNL A   1      44.190  34.926  28.673  1.00  0.00     0.031 A 
ATOM     89  C   UNL A   1      45.030  34.379  30.866  1.00  0.00     0.131 A 
ATOM     90  C   UNL A   1      44.512  36.270  28.912  1.00  0.00     0.055 A 
ATOM     91  C   UNL A   1      45.287  35.726  31.123  1.00  0.00     0.041 A 
ATOM     92  F   UNL A   1      45.332  33.492  31.827  1.00  0.00    -0.206 F 
ATOM     93  C   UNL A   1      45.045  36.678  30.138  1.00  0.00     0.022 A 
BRANCH  90  94
ATOM     94  S   UNL A   1      44.338  37.460  27.554  1.00  0.00     0.124 S 
ATOM     95  O   UNL A   1      43.230  36.892  26.793  1.00  0.00    -0.237 OA
ATOM     96  O   UNL A   1      44.055  38.702  28.264  1.00  0.00    -0.237 OA
ATOM     97  O   UNL A   1      45.639  37.409  26.886  1.00  0.00    -0.744 OA
ENDBRANCH  90  94
ENDBRANCH  64  87
ENDBRANCH  38  39
ENDBRANCH  30  33
ENDBRANCH  28  29
ENDBRANCH  27  28
ENDBRANCH   1  27
TORSDOF 17
ENDMDL
