MODEL 1
REMARK VINA RESULT:     -14.1      0.000      0.000
REMARK SMILES COc1ccc(-n2ccnc2C[N@@H+]2CCn3nc(C(=O)NCCCNC(=O)c4ccc(-c5c6nc(c(-c7cc(S(=O)(=O)[O-])ccc7F)c7ccc([nH]7)c(-c7cc(S(=O)(=O)[O-])ccc7F)c7nc(c(-c8cc(S(=O)(=O)[O-])ccc8F)c8ccc5[nH]8)C=C7)C=C6)cc4)cc3C2)cc1
REMARK SMILES IDX 22 1 21 2 19 3 20 4 18 6 13 7 14 8 93 9 15 11 92 12 16 13
REMARK SMILES IDX 91 14 17 15 12 16 11 17 7 18 8 19 9 20 10 21 6 22 3 23 4 24
REMARK SMILES IDX 95 25 5 26 94 27 2 28 1 29 23 30 24 31 25 32 26 33 27 35
REMARK SMILES IDX 28 36 29 37 90 38 30 39 89 40 31 41 32 42 33 43 83 44 34 45
REMARK SMILES IDX 88 46 82 47 84 48 35 49 87 50 81 51 80 52 36 54 68 55 48 56
REMARK SMILES IDX 67 57 49 58 52 59 66 60 85 61 50 62 51 63 65 65 86 66 53 67
REMARK SMILES IDX 37 68 38 69 46 70 39 71 45 72 47 73 44 74 40 75 41 76 42 77
REMARK SMILES IDX 43 78 69 79 70 80 78 81 71 82 77 83 79 84 76 85 72 86 73 87
REMARK SMILES IDX 74 88 75 89 54 90 55 91 63 92 56 93 62 94 64 95 61 96 57 97
REMARK SMILES IDX 58 98 59 99 60 100
REMARK H PARENT 21 5 13 10 25 34 84 53 52 64
REMARK Flexibility Score: inf
ROOT
ATOM      1  C   UNL A   1      33.231  30.504  27.291  1.00  0.00     0.118 C 
ENDROOT
BRANCH   1   2
ATOM      2  N   UNL A   1      32.619  29.197  27.604  1.00  0.00    -0.351 N 
ATOM      3  C   UNL A   1      31.753  28.108  27.059  1.00  0.00     0.271 C 
ATOM      4  O   UNL A   1      31.414  27.794  28.274  1.00  0.00    -0.267 OA
ATOM      5  H   UNL A   1      32.879  28.950  28.521  1.00  0.00     0.163 HD
BRANCH   3   6
ATOM      6  C   UNL A   1      31.257  27.301  25.196  1.00  0.00     0.150 A 
ATOM      7  N   UNL A   1      32.818  24.218  23.163  1.00  0.00    -0.322 N 
ATOM      8  C   UNL A   1      33.530  25.400  22.593  1.00  0.00     0.286 C 
ATOM      9  C   UNL A   1      31.356  24.300  22.957  1.00  0.00     0.319 C 
ATOM     10  H   UNL A   1      33.218  23.457  22.614  1.00  0.00     0.348 HD
ATOM     11  C   UNL A   1      32.641  26.572  22.105  1.00  0.00     0.206 C 
ATOM     12  C   UNL A   1      30.942  25.607  23.510  1.00  0.00     0.094 A 
ATOM     13  N   UNL A   1      31.566  26.715  23.068  1.00  0.00    -0.257 N 
ATOM     14  C   UNL A   1      30.432  25.960  24.723  1.00  0.00     0.065 A 
ATOM     15  N   UNL A   1      31.524  27.767  23.879  1.00  0.00    -0.167 NA
BRANCH   7  16
ATOM     16  C   UNL A   1      33.123  23.822  24.573  1.00  0.00     0.339 C 
BRANCH  16  17
ATOM     17  C   UNL A   1      34.526  23.502  25.017  1.00  0.00     0.168 A 
ATOM     18  N   UNL A   1      35.182  22.273  24.949  1.00  0.00    -0.299 N 
ATOM     19  C   UNL A   1      36.386  22.442  25.597  1.00  0.00     0.113 A 
ATOM     20  C   UNL A   1      36.462  23.768  25.930  1.00  0.00     0.132 A 
ATOM     21  N   UNL A   1      35.322  24.416  25.560  1.00  0.00    -0.236 NA
BRANCH  18  22
ATOM     22  C   UNL A   1      34.693  20.995  24.623  1.00  0.00     0.047 A 
ATOM     23  C   UNL A   1      33.639  17.516  24.273  1.00  0.00     0.119 A 
ATOM     24  C   UNL A   1      32.427  18.855  24.003  1.00  0.00     0.048 A 
ATOM     25  C   UNL A   1      35.372  17.901  24.679  1.00  0.00     0.048 A 
ATOM     26  C   UNL A   1      32.948  20.623  24.223  1.00  0.00     0.030 A 
ATOM     27  C   UNL A   1      35.896  19.652  24.805  1.00  0.00     0.030 A 
BRANCH  23  28
ATOM     28  O   UNL A   1      33.177  16.241  24.100  1.00  0.00    -0.497 OA
ATOM     29  C   UNL A   1      32.856  15.584  25.322  1.00  0.00     0.278 C 
ENDBRANCH  23  28
ENDBRANCH  18  22
ENDBRANCH  16  17
ENDBRANCH   7  16
ENDBRANCH   3   6
ENDBRANCH   1   2
BRANCH   1  30
ATOM     30  C   UNL A   1      34.697  30.343  26.909  1.00  0.00     0.042 C 
BRANCH  30  31
ATOM     31  C   UNL A   1      35.355  29.267  27.735  1.00  0.00     0.118 C 
BRANCH  31  32
ATOM     32  N   UNL A   1      35.609  29.706  29.117  1.00  0.00    -0.352 N 
ATOM     33  C   UNL A   1      36.676  29.352  29.927  1.00  0.00     0.251 C 
ATOM     34  H   UNL A   1      34.948  30.321  29.509  1.00  0.00     0.163 HD
ATOM     35  O   UNL A   1      36.628  29.494  31.140  1.00  0.00    -0.269 OA
BRANCH  33  36
ATOM     36  C   UNL A   1      37.885  28.865  29.243  1.00  0.00     0.039 A 
ATOM     37  C   UNL A   1      38.430  29.452  28.103  1.00  0.00     0.014 A 
ATOM     38  C   UNL A   1      38.561  27.860  29.921  1.00  0.00     0.014 A 
ATOM     39  C   UNL A   1      39.675  28.989  27.669  1.00  0.00     0.010 A 
ATOM     40  C   UNL A   1      39.899  27.765  29.729  1.00  0.00     0.010 A 
ATOM     41  C   UNL A   1      40.403  28.118  28.500  1.00  0.00    -0.014 A 
BRANCH  41  42
ATOM     42  C   UNL A   1      41.797  27.741  28.300  1.00  0.00     0.031 A 
ATOM     43  C   UNL A   1      41.870  26.493  27.505  1.00  0.00     0.074 A 
ATOM     44  C   UNL A   1      42.850  28.552  28.592  1.00  0.00     0.049 A 
ATOM     45  N   UNL A   1      41.937  25.299  27.991  1.00  0.00    -0.248 NA
ATOM     46  C   UNL A   1      41.485  26.515  26.079  1.00  0.00     0.031 C 
ATOM     47  C   UNL A   1      42.857  29.914  29.148  1.00  0.00     0.029 A 
ATOM     48  N   UNL A   1      44.188  28.325  28.417  1.00  0.00    -0.354 N 
ATOM     49  C   UNL A   1      42.010  24.466  26.887  1.00  0.00     0.074 A 
ATOM     50  C   UNL A   1      41.410  25.206  25.814  1.00  0.00     0.031 C 
ATOM     51  C   UNL A   1      44.102  30.454  29.070  1.00  0.00     0.029 A 
ATOM     52  C   UNL A   1      45.032  29.440  28.604  1.00  0.00     0.049 A 
ATOM     53  H   UNL A   1      44.540  27.439  28.174  1.00  0.00     0.167 HD
ATOM     54  C   UNL A   1      42.895  23.430  26.890  1.00  0.00     0.034 A 
ATOM     55  C   UNL A   1      46.397  29.490  28.438  1.00  0.00     0.034 A 
ATOM     56  C   UNL A   1      43.389  23.209  28.240  1.00  0.00     0.049 A 
ATOM     57  C   UNL A   1      46.861  28.079  28.561  1.00  0.00     0.074 A 
ATOM     58  C   UNL A   1      42.796  22.923  29.454  1.00  0.00     0.029 A 
ATOM     59  N   UNL A   1      44.622  23.748  28.543  1.00  0.00    -0.354 N 
ATOM     60  N   UNL A   1      46.757  27.406  29.677  1.00  0.00    -0.248 NA
ATOM     61  C   UNL A   1      46.854  27.275  27.344  1.00  0.00     0.031 C 
ATOM     62  C   UNL A   1      43.474  23.752  30.398  1.00  0.00     0.029 A 
ATOM     63  C   UNL A   1      44.541  24.387  29.757  1.00  0.00     0.049 A 
ATOM     64  H   UNL A   1      45.430  23.683  27.983  1.00  0.00     0.167 HD
ATOM     65  C   UNL A   1      46.221  26.181  29.307  1.00  0.00     0.074 A 
ATOM     66  C   UNL A   1      46.341  26.145  27.844  1.00  0.00     0.031 C 
ATOM     67  C   UNL A   1      45.427  25.468  30.164  1.00  0.00     0.034 A 
BRANCH  54  68
ATOM     68  C   UNL A   1      43.666  22.946  25.681  1.00  0.00     0.023 A 
ATOM     69  C   UNL A   1      43.712  21.551  25.489  1.00  0.00     0.031 A 
ATOM     70  C   UNL A   1      44.575  23.699  24.904  1.00  0.00     0.131 A 
ATOM     71  C   UNL A   1      44.693  20.964  24.675  1.00  0.00     0.055 A 
ATOM     72  C   UNL A   1      45.512  23.112  24.048  1.00  0.00     0.041 A 
ATOM     73  F   UNL A   1      44.677  25.029  24.978  1.00  0.00    -0.206 F 
ATOM     74  C   UNL A   1      45.598  21.736  23.955  1.00  0.00     0.022 A 
BRANCH  71  75
ATOM     75  S   UNL A   1      44.875  19.165  24.724  1.00  0.00     0.124 S 
ATOM     76  O   UNL A   1      43.625  18.764  25.361  1.00  0.00    -0.237 OA
ATOM     77  O   UNL A   1      45.010  18.841  23.307  1.00  0.00    -0.237 OA
ATOM     78  O   UNL A   1      46.080  18.969  25.525  1.00  0.00    -0.744 OA
ENDBRANCH  71  75
ENDBRANCH  54  68
BRANCH  55  79
ATOM     79  C   UNL A   1      47.234  30.552  27.758  1.00  0.00     0.023 A 
ATOM     80  C   UNL A   1      46.726  31.727  27.126  1.00  0.00     0.031 A 
ATOM     81  C   UNL A   1      48.629  30.535  27.979  1.00  0.00     0.131 A 
ATOM     82  C   UNL A   1      47.601  32.793  26.751  1.00  0.00     0.055 A 
ATOM     83  C   UNL A   1      49.477  31.593  27.629  1.00  0.00     0.041 A 
ATOM     84  F   UNL A   1      49.210  29.514  28.627  1.00  0.00    -0.206 F 
ATOM     85  C   UNL A   1      48.968  32.728  27.023  1.00  0.00     0.022 A 
BRANCH  82  86
ATOM     86  S   UNL A   1      46.998  34.328  25.936  1.00  0.00     0.124 S 
ATOM     87  O   UNL A   1      46.862  35.250  27.058  1.00  0.00    -0.237 OA
ATOM     88  O   UNL A   1      48.056  34.621  24.978  1.00  0.00    -0.237 OA
ATOM     89  O   UNL A   1      45.728  33.921  25.329  1.00  0.00    -0.744 OA
ENDBRANCH  82  86
ENDBRANCH  55  79
BRANCH  67  90
ATOM     90  C   UNL A   1      45.369  25.886  31.625  1.00  0.00     0.023 A 
ATOM     91  C   UNL A   1      46.346  25.626  32.620  1.00  0.00     0.031 A 
ATOM     92  C   UNL A   1      44.286  26.707  31.980  1.00  0.00     0.131 A 
ATOM     93  C   UNL A   1      46.198  26.184  33.913  1.00  0.00     0.055 A 
ATOM     94  C   UNL A   1      44.162  27.279  33.242  1.00  0.00     0.041 A 
ATOM     95  F   UNL A   1      43.336  27.002  31.077  1.00  0.00    -0.206 F 
ATOM     96  C   UNL A   1      45.115  27.017  34.216  1.00  0.00     0.022 A 
BRANCH  93  97
ATOM     97  S   UNL A   1      47.384  25.815  35.254  1.00  0.00     0.124 S 
ATOM     98  O   UNL A   1      47.281  24.369  35.409  1.00  0.00    -0.237 OA
ATOM     99  O   UNL A   1      48.645  26.312  34.710  1.00  0.00    -0.237 OA
ATOM    100  O   UNL A   1      46.868  26.586  36.388  1.00  0.00    -0.744 OA
ENDBRANCH  93  97
ENDBRANCH  67  90
ENDBRANCH  41  42
ENDBRANCH  33  36
ENDBRANCH  31  32
ENDBRANCH  30  31
ENDBRANCH   1  30
TORSDOF 17
ENDMDL
MODEL 2
REMARK VINA RESULT:     -14.0      1.947      2.513
REMARK SMILES COc1ccc(-n2ccnc2C[N@@H+]2CCn3nc(C(=O)NCCCNC(=O)c4ccc(-c5c6nc(c(-c7cc(S(=O)(=O)[O-])ccc7F)c7ccc([nH]7)c(-c7cc(S(=O)(=O)[O-])ccc7F)c7nc(c(-c8cc(S(=O)(=O)[O-])ccc8F)c8ccc5[nH]8)C=C7)C=C6)cc4)cc3C2)cc1
REMARK SMILES IDX 22 1 21 2 19 3 20 4 18 6 13 7 14 8 93 9 15 11 92 12 16 13
REMARK SMILES IDX 91 14 17 15 12 16 11 17 7 18 8 19 9 20 10 21 6 22 3 23 4 24
REMARK SMILES IDX 95 25 5 26 94 27 2 28 1 29 23 30 24 31 25 32 26 33 27 35
REMARK SMILES IDX 28 36 29 37 90 38 30 39 89 40 31 41 32 42 33 43 83 44 34 45
REMARK SMILES IDX 88 46 82 47 84 48 35 49 87 50 81 51 80 52 36 54 68 55 48 56
REMARK SMILES IDX 67 57 49 58 52 59 66 60 85 61 50 62 51 63 65 65 86 66 53 67
REMARK SMILES IDX 37 68 38 69 46 70 39 71 45 72 47 73 44 74 40 75 41 76 42 77
REMARK SMILES IDX 43 78 69 79 70 80 78 81 71 82 77 83 79 84 76 85 72 86 73 87
REMARK SMILES IDX 74 88 75 89 54 90 55 91 63 92 56 93 62 94 64 95 61 96 57 97
REMARK SMILES IDX 58 98 59 99 60 100
REMARK H PARENT 21 5 13 10 25 34 84 53 52 64
REMARK Flexibility Score: inf
ROOT
ATOM      1  C   UNL A   1      34.087  29.616  26.136  1.00  0.00     0.118 C 
ENDROOT
BRANCH   1   2
ATOM      2  N   UNL A   1      32.655  29.859  25.865  1.00  0.00    -0.351 N 
ATOM      3  C   UNL A   1      31.516  29.486  24.973  1.00  0.00     0.271 C 
ATOM      4  O   UNL A   1      30.964  30.636  25.229  1.00  0.00    -0.267 OA
ATOM      5  H   UNL A   1      32.327  30.515  26.521  1.00  0.00     0.163 HD
BRANCH   3   6
ATOM      6  C   UNL A   1      30.918  27.855  23.812  1.00  0.00     0.150 A 
ATOM      7  N   UNL A   1      32.740  24.369  23.035  1.00  0.00    -0.322 N 
ATOM      8  C   UNL A   1      33.110  25.217  21.863  1.00  0.00     0.286 C 
ATOM      9  C   UNL A   1      31.277  24.186  23.146  1.00  0.00     0.319 C 
ATOM     10  H   UNL A   1      33.197  23.488  22.799  1.00  0.00     0.348 HD
ATOM     11  C   UNL A   1      31.943  25.922  21.126  1.00  0.00     0.206 C 
ATOM     12  C   UNL A   1      30.699  25.547  23.151  1.00  0.00     0.094 A 
ATOM     13  N   UNL A   1      31.017  26.381  22.143  1.00  0.00    -0.257 N 
ATOM     14  C   UNL A   1      30.315  26.368  24.169  1.00  0.00     0.065 A 
ATOM     15  N   UNL A   1      30.888  27.678  22.400  1.00  0.00    -0.167 NA
BRANCH   7  16
ATOM     16  C   UNL A   1      33.324  24.712  24.369  1.00  0.00     0.339 C 
BRANCH  16  17
ATOM     17  C   UNL A   1      33.054  23.874  25.590  1.00  0.00     0.168 A 
ATOM     18  N   UNL A   1      33.967  23.113  26.320  1.00  0.00    -0.299 N 
ATOM     19  C   UNL A   1      33.230  22.421  27.257  1.00  0.00     0.113 A 
ATOM     20  C   UNL A   1      31.940  22.863  27.135  1.00  0.00     0.132 A 
ATOM     21  N   UNL A   1      31.841  23.765  26.119  1.00  0.00    -0.236 NA
BRANCH  18  22
ATOM     22  C   UNL A   1      35.306  22.781  26.043  1.00  0.00     0.047 A 
ATOM     23  C   UNL A   1      38.884  22.073  25.855  1.00  0.00     0.119 A 
ATOM     24  C   UNL A   1      37.685  20.811  25.301  1.00  0.00     0.048 A 
ATOM     25  C   UNL A   1      38.311  23.690  26.467  1.00  0.00     0.048 A 
ATOM     26  C   UNL A   1      35.865  21.151  25.435  1.00  0.00     0.030 A 
ATOM     27  C   UNL A   1      36.515  24.048  26.511  1.00  0.00     0.030 A 
BRANCH  23  28
ATOM     28  O   UNL A   1      40.205  21.745  25.733  1.00  0.00    -0.497 OA
ATOM     29  C   UNL A   1      40.589  20.630  26.530  1.00  0.00     0.278 C 
ENDBRANCH  23  28
ENDBRANCH  18  22
ENDBRANCH  16  17
ENDBRANCH   7  16
ENDBRANCH   3   6
ENDBRANCH   1   2
BRANCH   1  30
ATOM     30  C   UNL A   1      34.336  29.428  27.626  1.00  0.00     0.042 C 
BRANCH  30  31
ATOM     31  C   UNL A   1      35.745  29.822  27.992  1.00  0.00     0.118 C 
BRANCH  31  32
ATOM     32  N   UNL A   1      35.942  29.886  29.449  1.00  0.00    -0.352 N 
ATOM     33  C   UNL A   1      36.904  29.225  30.195  1.00  0.00     0.251 C 
ATOM     34  H   UNL A   1      35.320  30.463  29.949  1.00  0.00     0.163 HD
ATOM     35  O   UNL A   1      36.782  29.078  31.403  1.00  0.00    -0.269 OA
BRANCH  33  36
ATOM     36  C   UNL A   1      38.103  28.776  29.469  1.00  0.00     0.039 A 
ATOM     37  C   UNL A   1      38.581  29.371  28.303  1.00  0.00     0.014 A 
ATOM     38  C   UNL A   1      38.841  27.804  30.129  1.00  0.00     0.014 A 
ATOM     39  C   UNL A   1      39.824  28.949  27.825  1.00  0.00     0.010 A 
ATOM     40  C   UNL A   1      40.174  27.755  29.885  1.00  0.00     0.010 A 
ATOM     41  C   UNL A   1      40.616  28.114  28.635  1.00  0.00    -0.014 A 
BRANCH  41  42
ATOM     42  C   UNL A   1      42.014  27.786  28.384  1.00  0.00     0.031 A 
ATOM     43  C   UNL A   1      42.103  26.519  27.623  1.00  0.00     0.074 A 
ATOM     44  C   UNL A   1      43.045  28.647  28.605  1.00  0.00     0.049 A 
ATOM     45  N   UNL A   1      42.240  25.344  28.139  1.00  0.00    -0.248 NA
ATOM     46  C   UNL A   1      41.656  26.481  26.215  1.00  0.00     0.031 C 
ATOM     47  C   UNL A   1      43.021  30.024  29.120  1.00  0.00     0.029 A 
ATOM     48  N   UNL A   1      44.382  28.467  28.377  1.00  0.00    -0.354 N 
ATOM     49  C   UNL A   1      42.298  24.480  27.058  1.00  0.00     0.074 A 
ATOM     50  C   UNL A   1      41.623  25.163  25.992  1.00  0.00     0.031 C 
ATOM     51  C   UNL A   1      44.238  30.610  28.971  1.00  0.00     0.029 A 
ATOM     52  C   UNL A   1      45.187  29.619  28.493  1.00  0.00     0.049 A 
ATOM     53  H   UNL A   1      44.759  27.588  28.144  1.00  0.00     0.167 HD
ATOM     54  C   UNL A   1      43.224  23.481  27.051  1.00  0.00     0.034 A 
ATOM     55  C   UNL A   1      46.541  29.718  28.265  1.00  0.00     0.034 A 
ATOM     56  C   UNL A   1      43.785  23.321  28.383  1.00  0.00     0.049 A 
ATOM     57  C   UNL A   1      47.066  28.331  28.408  1.00  0.00     0.074 A 
ATOM     58  C   UNL A   1      43.257  23.049  29.631  1.00  0.00     0.029 A 
ATOM     59  N   UNL A   1      45.008  23.917  28.616  1.00  0.00    -0.354 N 
ATOM     60  N   UNL A   1      47.039  27.690  29.546  1.00  0.00    -0.248 NA
ATOM     61  C   UNL A   1      47.039  27.491  27.217  1.00  0.00     0.031 C 
ATOM     62  C   UNL A   1      43.942  23.933  30.519  1.00  0.00     0.029 A 
ATOM     63  C   UNL A   1      44.954  24.589  29.812  1.00  0.00     0.049 A 
ATOM     64  H   UNL A   1      45.792  23.867  28.022  1.00  0.00     0.167 HD
ATOM     65  C   UNL A   1      46.537  26.433  29.237  1.00  0.00     0.074 A 
ATOM     66  C   UNL A   1      46.595  26.357  27.771  1.00  0.00     0.031 C 
ATOM     67  C   UNL A   1      45.811  25.716  30.148  1.00  0.00     0.034 A 
BRANCH  54  68
ATOM     68  C   UNL A   1      43.961  22.990  25.823  1.00  0.00     0.023 A 
ATOM     69  C   UNL A   1      43.985  21.596  25.627  1.00  0.00     0.031 A 
ATOM     70  C   UNL A   1      44.861  23.735  25.028  1.00  0.00     0.131 A 
ATOM     71  C   UNL A   1      44.940  20.999  24.789  1.00  0.00     0.055 A 
ATOM     72  C   UNL A   1      45.771  23.138  24.149  1.00  0.00     0.041 A 
ATOM     73  F   UNL A   1      44.982  25.063  25.102  1.00  0.00    -0.206 F 
ATOM     74  C   UNL A   1      45.838  21.762  24.049  1.00  0.00     0.022 A 
BRANCH  71  75
ATOM     75  S   UNL A   1      45.100  19.197  24.828  1.00  0.00     0.124 S 
ATOM     76  O   UNL A   1      44.000  18.827  25.711  1.00  0.00    -0.237 OA
ATOM     77  O   UNL A   1      44.940  18.853  23.419  1.00  0.00    -0.237 OA
ATOM     78  O   UNL A   1      46.440  18.991  25.372  1.00  0.00    -0.744 OA
ENDBRANCH  71  75
ENDBRANCH  54  68
BRANCH  55  79
ATOM     79  C   UNL A   1      47.303  30.791  27.519  1.00  0.00     0.023 A 
ATOM     80  C   UNL A   1      46.740  31.994  26.994  1.00  0.00     0.031 A 
ATOM     81  C   UNL A   1      48.715  30.747  27.558  1.00  0.00     0.131 A 
ATOM     82  C   UNL A   1      47.579  33.060  26.545  1.00  0.00     0.055 A 
ATOM     83  C   UNL A   1      49.530  31.805  27.137  1.00  0.00     0.041 A 
ATOM     84  F   UNL A   1      49.354  29.698  28.094  1.00  0.00    -0.206 F 
ATOM     85  C   UNL A   1      48.968  32.967  26.637  1.00  0.00     0.022 A 
BRANCH  82  86
ATOM     86  S   UNL A   1      46.905  34.630  25.862  1.00  0.00     0.124 S 
ATOM     87  O   UNL A   1      46.421  35.313  27.057  1.00  0.00    -0.237 OA
ATOM     88  O   UNL A   1      48.063  35.217  25.201  1.00  0.00    -0.237 OA
ATOM     89  O   UNL A   1      45.848  34.185  24.950  1.00  0.00    -0.744 OA
ENDBRANCH  82  86
ENDBRANCH  55  79
BRANCH  67  90
ATOM     90  C   UNL A   1      45.800  26.176  31.598  1.00  0.00     0.023 A 
ATOM     91  C   UNL A   1      44.722  26.793  32.283  1.00  0.00     0.031 A 
ATOM     92  C   UNL A   1      46.942  25.847  32.348  1.00  0.00     0.131 A 
ATOM     93  C   UNL A   1      44.832  27.058  33.670  1.00  0.00     0.055 A 
ATOM     94  C   UNL A   1      47.031  26.080  33.717  1.00  0.00     0.041 A 
ATOM     95  F   UNL A   1      47.990  25.247  31.759  1.00  0.00    -0.206 F 
ATOM     96  C   UNL A   1      45.979  26.692  34.384  1.00  0.00     0.022 A 
BRANCH  93  97
ATOM     97  S   UNL A   1      43.506  27.924  34.583  1.00  0.00     0.124 S 
ATOM     98  O   UNL A   1      44.190  28.439  35.764  1.00  0.00    -0.237 OA
ATOM     99  O   UNL A   1      43.053  28.922  33.619  1.00  0.00    -0.237 OA
ATOM    100  O   UNL A   1      42.533  26.863  34.860  1.00  0.00    -0.744 OA
ENDBRANCH  93  97
ENDBRANCH  67  90
ENDBRANCH  41  42
ENDBRANCH  33  36
ENDBRANCH  31  32
ENDBRANCH  30  31
ENDBRANCH   1  30
TORSDOF 17
ENDMDL
MODEL 3
REMARK VINA RESULT:     -13.2      1.522      1.915
REMARK SMILES COc1ccc(-n2ccnc2C[N@@H+]2CCn3nc(C(=O)NCCCNC(=O)c4ccc(-c5c6nc(c(-c7cc(S(=O)(=O)[O-])ccc7F)c7ccc([nH]7)c(-c7cc(S(=O)(=O)[O-])ccc7F)c7nc(c(-c8cc(S(=O)(=O)[O-])ccc8F)c8ccc5[nH]8)C=C7)C=C6)cc4)cc3C2)cc1
REMARK SMILES IDX 22 1 21 2 19 3 20 4 18 6 13 7 14 8 93 9 15 11 92 12 16 13
REMARK SMILES IDX 91 14 17 15 12 16 11 17 7 18 8 19 9 20 10 21 6 22 3 23 4 24
REMARK SMILES IDX 95 25 5 26 94 27 2 28 1 29 23 30 24 31 25 32 26 33 27 35
REMARK SMILES IDX 28 36 29 37 90 38 30 39 89 40 31 41 32 42 33 43 83 44 34 45
REMARK SMILES IDX 88 46 82 47 84 48 35 49 87 50 81 51 80 52 36 54 68 55 48 56
REMARK SMILES IDX 67 57 49 58 52 59 66 60 85 61 50 62 51 63 65 65 86 66 53 67
REMARK SMILES IDX 37 68 38 69 46 70 39 71 45 72 47 73 44 74 40 75 41 76 42 77
REMARK SMILES IDX 43 78 69 79 70 80 78 81 71 82 77 83 79 84 76 85 72 86 73 87
REMARK SMILES IDX 74 88 75 89 54 90 55 91 63 92 56 93 62 94 64 95 61 96 57 97
REMARK SMILES IDX 58 98 59 99 60 100
REMARK H PARENT 21 5 13 10 25 34 84 53 52 64
REMARK Flexibility Score: inf
ROOT
ATOM      1  C   UNL A   1      33.746  29.758  27.002  1.00  0.00     0.118 C 
ENDROOT
BRANCH   1   2
ATOM      2  N   UNL A   1      32.789  28.728  27.455  1.00  0.00    -0.351 N 
ATOM      3  C   UNL A   1      31.651  27.863  27.021  1.00  0.00     0.271 C 
ATOM      4  O   UNL A   1      31.238  27.819  28.253  1.00  0.00    -0.267 OA
ATOM      5  H   UNL A   1      32.970  28.541  28.405  1.00  0.00     0.163 HD
BRANCH   3   6
ATOM      6  C   UNL A   1      30.947  26.989  25.258  1.00  0.00     0.150 A 
ATOM      7  N   UNL A   1      32.041  23.627  23.368  1.00  0.00    -0.322 N 
ATOM      8  C   UNL A   1      32.828  24.685  22.667  1.00  0.00     0.286 C 
ATOM      9  C   UNL A   1      30.584  23.849  23.248  1.00  0.00     0.319 C 
ATOM     10  H   UNL A   1      32.323  22.792  22.853  1.00  0.00     0.348 HD
ATOM     11  C   UNL A   1      32.030  25.909  22.150  1.00  0.00     0.206 C 
ATOM     12  C   UNL A   1      30.345  25.227  23.727  1.00  0.00     0.094 A 
ATOM     13  N   UNL A   1      31.045  26.230  23.165  1.00  0.00    -0.257 N 
ATOM     14  C   UNL A   1      29.959  25.714  24.939  1.00  0.00     0.065 A 
ATOM     15  N   UNL A   1      31.166  27.333  23.896  1.00  0.00    -0.167 NA
BRANCH   7  16
ATOM     16  C   UNL A   1      32.403  23.297  24.782  1.00  0.00     0.339 C 
BRANCH  16  17
ATOM     17  C   UNL A   1      33.829  23.335  25.261  1.00  0.00     0.168 A 
ATOM     18  N   UNL A   1      34.720  22.267  25.370  1.00  0.00    -0.299 N 
ATOM     19  C   UNL A   1      35.849  22.768  25.981  1.00  0.00     0.113 A 
ATOM     20  C   UNL A   1      35.650  24.115  26.116  1.00  0.00     0.132 A 
ATOM     21  N   UNL A   1      34.412  24.459  25.660  1.00  0.00    -0.236 NA
BRANCH  18  22
ATOM     22  C   UNL A   1      34.505  20.883  25.238  1.00  0.00     0.047 A 
ATOM     23  C   UNL A   1      33.538  17.432  24.535  1.00  0.00     0.119 A 
ATOM     24  C   UNL A   1      35.296  17.915  24.425  1.00  0.00     0.048 A 
ATOM     25  C   UNL A   1      32.272  18.646  25.025  1.00  0.00     0.048 A 
ATOM     26  C   UNL A   1      35.786  19.678  24.739  1.00  0.00     0.030 A 
ATOM     27  C   UNL A   1      32.779  20.362  25.420  1.00  0.00     0.030 A 
BRANCH  23  28
ATOM     28  O   UNL A   1      33.256  16.119  24.282  1.00  0.00    -0.497 OA
ATOM     29  C   UNL A   1      32.926  15.374  25.449  1.00  0.00     0.278 C 
ENDBRANCH  23  28
ENDBRANCH  18  22
ENDBRANCH  16  17
ENDBRANCH   7  16
ENDBRANCH   3   6
ENDBRANCH   1   2
BRANCH   1  30
ATOM     30  C   UNL A   1      35.181  29.265  27.129  1.00  0.00     0.042 C 
BRANCH  30  31
ATOM     31  C   UNL A   1      36.051  30.300  27.795  1.00  0.00     0.118 C 
BRANCH  31  32
ATOM     32  N   UNL A   1      36.048  30.169  29.261  1.00  0.00    -0.352 N 
ATOM     33  C   UNL A   1      36.861  29.354  30.031  1.00  0.00     0.251 C 
ATOM     34  H   UNL A   1      35.394  30.721  29.747  1.00  0.00     0.163 HD
ATOM     35  O   UNL A   1      36.566  29.067  31.183  1.00  0.00    -0.269 OA
BRANCH  33  36
ATOM     36  C   UNL A   1      38.123  28.916  29.414  1.00  0.00     0.039 A 
ATOM     37  C   UNL A   1      38.810  29.636  28.438  1.00  0.00     0.014 A 
ATOM     38  C   UNL A   1      38.689  27.794  30.004  1.00  0.00     0.014 A 
ATOM     39  C   UNL A   1      40.080  29.183  28.075  1.00  0.00     0.010 A 
ATOM     40  C   UNL A   1      40.037  27.665  29.942  1.00  0.00     0.010 A 
ATOM     41  C   UNL A   1      40.685  28.168  28.840  1.00  0.00    -0.014 A 
BRANCH  41  42
ATOM     42  C   UNL A   1      42.080  27.760  28.734  1.00  0.00     0.031 A 
ATOM     43  C   UNL A   1      42.199  26.614  27.803  1.00  0.00     0.074 A 
ATOM     44  C   UNL A   1      43.121  28.486  29.227  1.00  0.00     0.049 A 
ATOM     45  N   UNL A   1      42.181  25.369  28.143  1.00  0.00    -0.248 NA
ATOM     46  C   UNL A   1      41.965  26.821  26.360  1.00  0.00     0.031 C 
ATOM     47  C   UNL A   1      43.110  29.770  29.943  1.00  0.00     0.029 A 
ATOM     48  N   UNL A   1      44.463  28.226  29.159  1.00  0.00    -0.354 N 
ATOM     49  C   UNL A   1      42.342  24.671  26.958  1.00  0.00     0.074 A 
ATOM     50  C   UNL A   1      41.879  25.558  25.930  1.00  0.00     0.031 C 
ATOM     51  C   UNL A   1      44.372  30.263  30.056  1.00  0.00     0.029 A 
ATOM     52  C   UNL A   1      45.315  29.274  29.564  1.00  0.00     0.049 A 
ATOM     53  H   UNL A   1      44.812  27.361  28.845  1.00  0.00     0.167 HD
ATOM     54  C   UNL A   1      43.192  23.606  26.921  1.00  0.00     0.034 A 
ATOM     55  C   UNL A   1      46.691  29.287  29.541  1.00  0.00     0.034 A 
ATOM     56  C   UNL A   1      43.537  23.206  28.276  1.00  0.00     0.049 A 
ATOM     57  C   UNL A   1      47.098  27.854  29.535  1.00  0.00     0.074 A 
ATOM     58  C   UNL A   1      42.813  22.802  29.382  1.00  0.00     0.029 A 
ATOM     59  N   UNL A   1      44.747  23.652  28.765  1.00  0.00    -0.354 N 
ATOM     60  N   UNL A   1      46.860  27.058  30.545  1.00  0.00    -0.248 NA
ATOM     61  C   UNL A   1      47.193  27.202  28.235  1.00  0.00     0.031 C 
ATOM     62  C   UNL A   1      43.414  23.484  30.483  1.00  0.00     0.029 A 
ATOM     63  C   UNL A   1      44.560  24.145  30.033  1.00  0.00     0.049 A 
ATOM     64  H   UNL A   1      45.606  23.621  28.284  1.00  0.00     0.167 HD
ATOM     65  C   UNL A   1      46.329  25.909  29.976  1.00  0.00     0.074 A 
ATOM     66  C   UNL A   1      46.599  26.042  28.539  1.00  0.00     0.031 C 
ATOM     67  C   UNL A   1      45.429  25.132  30.656  1.00  0.00     0.034 A 
BRANCH  54  68
ATOM     68  C   UNL A   1      44.070  23.237  25.745  1.00  0.00     0.023 A 
ATOM     69  C   UNL A   1      44.009  21.896  25.318  1.00  0.00     0.031 A 
ATOM     70  C   UNL A   1      45.142  23.996  25.224  1.00  0.00     0.131 A 
ATOM     71  C   UNL A   1      45.031  21.339  24.534  1.00  0.00     0.055 A 
ATOM     72  C   UNL A   1      46.126  23.450  24.394  1.00  0.00     0.041 A 
ATOM     73  F   UNL A   1      45.359  25.275  25.541  1.00  0.00    -0.206 F 
ATOM     74  C   UNL A   1      46.094  22.107  24.071  1.00  0.00     0.022 A 
BRANCH  71  75
ATOM     75  S   UNL A   1      45.033  19.547  24.287  1.00  0.00     0.124 S 
ATOM     76  O   UNL A   1      44.595  19.444  22.899  1.00  0.00    -0.237 OA
ATOM     77  O   UNL A   1      46.428  19.211  24.550  1.00  0.00    -0.237 OA
ATOM     78  O   UNL A   1      44.078  19.069  25.284  1.00  0.00    -0.744 OA
ENDBRANCH  71  75
ENDBRANCH  54  68
BRANCH  55  79
ATOM     79  C   UNL A   1      47.624  30.387  29.084  1.00  0.00     0.023 A 
ATOM     80  C   UNL A   1      48.645  30.991  29.879  1.00  0.00     0.031 A 
ATOM     81  C   UNL A   1      47.682  30.672  27.702  1.00  0.00     0.131 A 
ATOM     82  C   UNL A   1      49.641  31.824  29.283  1.00  0.00     0.055 A 
ATOM     83  C   UNL A   1      48.674  31.471  27.121  1.00  0.00     0.041 A 
ATOM     84  F   UNL A   1      46.818  30.105  26.847  1.00  0.00    -0.206 F 
ATOM     85  C   UNL A   1      49.661  32.044  27.905  1.00  0.00     0.022 A 
BRANCH  82  86
ATOM     86  S   UNL A   1      50.978  32.625  30.261  1.00  0.00     0.124 S 
ATOM     87  O   UNL A   1      51.944  32.994  29.233  1.00  0.00    -0.237 OA
ATOM     88  O   UNL A   1      50.281  33.720  30.922  1.00  0.00    -0.237 OA
ATOM     89  O   UNL A   1      51.429  31.562  31.163  1.00  0.00    -0.744 OA
ENDBRANCH  82  86
ENDBRANCH  55  79
BRANCH  67  90
ATOM     90  C   UNL A   1      45.233  25.375  32.144  1.00  0.00     0.023 A 
ATOM     91  C   UNL A   1      46.075  24.927  33.195  1.00  0.00     0.031 A 
ATOM     92  C   UNL A   1      44.168  26.225  32.485  1.00  0.00     0.131 A 
ATOM     93  C   UNL A   1      45.816  25.336  34.525  1.00  0.00     0.055 A 
ATOM     94  C   UNL A   1      43.937  26.650  33.790  1.00  0.00     0.041 A 
ATOM     95  F   UNL A   1      43.344  26.695  31.534  1.00  0.00    -0.206 F 
ATOM     96  C   UNL A   1      44.757  26.203  34.817  1.00  0.00     0.022 A 
BRANCH  93  97
ATOM     97  S   UNL A   1      46.820  24.723  35.925  1.00  0.00     0.124 S 
ATOM     98  O   UNL A   1      47.507  25.920  36.397  1.00  0.00    -0.237 OA
ATOM     99  O   UNL A   1      45.811  24.168  36.822  1.00  0.00    -0.237 OA
ATOM    100  O   UNL A   1      47.696  23.725  35.305  1.00  0.00    -0.744 OA
ENDBRANCH  93  97
ENDBRANCH  67  90
ENDBRANCH  41  42
ENDBRANCH  33  36
ENDBRANCH  31  32
ENDBRANCH  30  31
ENDBRANCH   1  30
TORSDOF 17
ENDMDL
