MODEL 1
REMARK VINA RESULT:     -12.9      0.000      0.000
REMARK SMILES O=C(NCCCNC(=O)[C@]12C[NH2+]C[C@H]1CN(C(=O)c1ccccc1-n1cncn1)C2)c1ccc(-c2c3nc(c(-c4cc(S(=O)(=O)[O-])ccc4F)c4ccc([nH]4)c(-c4cc(S(=O)(=O)[O-])ccc4F)c4nc(c(-c5cc(S(=O)(=O)[O-])ccc5F)c5ccc2[nH]5)C=C4)C=C3)cc1
REMARK SMILES IDX 5 1 4 2 3 3 1 4 2 5 31 7 32 8 93 9 33 10 92 11 34 12 35 13
REMARK SMILES IDX 36 14 86 15 37 16 91 17 85 18 87 19 38 20 90 21 84 22 83 23
REMARK SMILES IDX 39 25 71 26 51 27 70 28 52 29 55 30 69 31 88 32 53 33 54 34
REMARK SMILES IDX 68 36 89 37 56 38 40 39 41 40 49 41 42 42 48 43 50 44 47 45
REMARK SMILES IDX 43 46 44 47 45 48 46 49 72 50 73 51 81 52 74 53 80 54 82 55
REMARK SMILES IDX 79 56 75 57 76 58 77 59 78 60 57 61 58 62 66 63 59 64 65 65
REMARK SMILES IDX 67 66 64 67 60 68 61 69 62 70 63 71 6 72 7 73 8 74 9 76
REMARK SMILES IDX 10 77 11 78 14 79 30 80 12 81 13 82 15 83 16 84 17 87 18 88
REMARK SMILES IDX 19 89 20 90 24 91 21 92 23 93 22 94 25 95 26 96 29 97 27 98
REMARK SMILES IDX 28 99
REMARK H PARENT 3 6 87 24 55 35 7 75 12 85 12 86
REMARK Flexibility Score: inf
ROOT
ATOM      1  C   UNL A   1      36.890  19.583  24.853  1.00  0.00     0.042 C 
ENDROOT
BRANCH   1   2
ATOM      2  C   UNL A   1      38.136  20.356  25.268  1.00  0.00     0.118 C 
BRANCH   2   3
ATOM      3  N   UNL A   1      39.321  19.527  25.370  1.00  0.00    -0.352 N 
ATOM      4  O   UNL A   1      41.324  18.718  25.784  1.00  0.00    -0.269 OA
ATOM      5  C   UNL A   1      40.579  19.698  25.878  1.00  0.00     0.251 C 
ATOM      6  H   UNL A   1      39.189  18.630  24.984  1.00  0.00     0.163 HD
BRANCH   5   7
ATOM      7  C   UNL A   1      41.121  20.962  26.456  1.00  0.00     0.039 A 
ATOM      8  C   UNL A   1      41.822  21.953  25.766  1.00  0.00     0.014 A 
ATOM      9  C   UNL A   1      40.862  21.158  27.826  1.00  0.00     0.014 A 
ATOM     10  C   UNL A   1      42.308  23.076  26.448  1.00  0.00     0.010 A 
ATOM     11  C   UNL A   1      41.343  22.272  28.507  1.00  0.00     0.010 A 
ATOM     12  C   UNL A   1      42.088  23.229  27.824  1.00  0.00    -0.014 A 
BRANCH  12  13
ATOM     13  C   UNL A   1      42.329  24.538  28.457  1.00  0.00     0.031 A 
ATOM     14  C   UNL A   1      41.232  25.502  28.145  1.00  0.00     0.074 A 
ATOM     15  C   UNL A   1      43.289  24.802  29.376  1.00  0.00     0.049 A 
ATOM     16  N   UNL A   1      41.300  26.569  27.419  1.00  0.00    -0.248 NA
ATOM     17  C   UNL A   1      39.848  25.120  28.494  1.00  0.00     0.031 C 
ATOM     18  C   UNL A   1      44.265  23.862  29.929  1.00  0.00     0.029 A 
ATOM     19  N   UNL A   1      43.554  25.945  30.089  1.00  0.00    -0.354 N 
ATOM     20  C   UNL A   1      40.032  27.144  27.489  1.00  0.00     0.074 A 
ATOM     21  C   UNL A   1      39.150  26.095  27.911  1.00  0.00     0.031 C 
ATOM     22  C   UNL A   1      44.843  24.399  31.031  1.00  0.00     0.029 A 
ATOM     23  C   UNL A   1      44.367  25.761  31.219  1.00  0.00     0.049 A 
ATOM     24  H   UNL A   1      43.201  26.826  29.827  1.00  0.00     0.167 HD
ATOM     25  C   UNL A   1      39.890  28.498  27.536  1.00  0.00     0.034 A 
ATOM     26  C   UNL A   1      44.604  26.631  32.252  1.00  0.00     0.034 A 
ATOM     27  C   UNL A   1      41.083  29.152  27.032  1.00  0.00     0.049 A 
ATOM     28  C   UNL A   1      44.272  27.988  31.755  1.00  0.00     0.074 A 
ATOM     29  C   UNL A   1      41.816  29.069  25.862  1.00  0.00     0.029 A 
ATOM     30  N   UNL A   1      41.917  29.768  27.939  1.00  0.00    -0.354 N 
ATOM     31  N   UNL A   1      44.956  28.590  30.824  1.00  0.00    -0.248 NA
ATOM     32  C   UNL A   1      42.900  28.444  31.913  1.00  0.00     0.031 C 
ATOM     33  C   UNL A   1      43.179  29.154  26.275  1.00  0.00     0.029 A 
ATOM     34  C   UNL A   1      43.204  29.397  27.649  1.00  0.00     0.049 A 
ATOM     35  H   UNL A   1      41.638  30.368  28.667  1.00  0.00     0.167 HD
ATOM     36  C   UNL A   1      43.999  29.136  29.985  1.00  0.00     0.074 A 
ATOM     37  C   UNL A   1      42.752  29.084  30.750  1.00  0.00     0.031 C 
ATOM     38  C   UNL A   1      44.246  29.300  28.651  1.00  0.00     0.034 A 
BRANCH  25  39
ATOM     39  C   UNL A   1      38.919  29.212  28.470  1.00  0.00     0.023 A 
ATOM     40  C   UNL A   1      39.153  29.055  29.848  1.00  0.00     0.031 A 
ATOM     41  C   UNL A   1      37.641  29.716  28.127  1.00  0.00     0.131 A 
ATOM     42  C   UNL A   1      38.109  29.192  30.779  1.00  0.00     0.055 A 
ATOM     43  C   UNL A   1      36.626  29.921  29.068  1.00  0.00     0.041 A 
ATOM     44  F   UNL A   1      37.261  29.971  26.872  1.00  0.00    -0.206 F 
ATOM     45  C   UNL A   1      36.840  29.613  30.397  1.00  0.00     0.022 A 
BRANCH  42  46
ATOM     46  S   UNL A   1      38.393  28.585  32.459  1.00  0.00     0.124 S 
ATOM     47  O   UNL A   1      39.473  29.467  32.893  1.00  0.00    -0.237 OA
ATOM     48  O   UNL A   1      37.092  28.805  33.081  1.00  0.00    -0.237 OA
ATOM     49  O   UNL A   1      38.760  27.187  32.255  1.00  0.00    -0.744 OA
ENDBRANCH  42  46
ENDBRANCH  25  39
BRANCH  26  50
ATOM     50  C   UNL A   1      44.786  26.338  33.719  1.00  0.00     0.023 A 
ATOM     51  C   UNL A   1      43.787  26.550  34.710  1.00  0.00     0.031 A 
ATOM     52  C   UNL A   1      45.903  25.577  34.127  1.00  0.00     0.131 A 
ATOM     53  C   UNL A   1      43.939  26.011  36.020  1.00  0.00     0.055 A 
ATOM     54  C   UNL A   1      46.043  25.048  35.413  1.00  0.00     0.041 A 
ATOM     55  F   UNL A   1      46.869  25.240  33.259  1.00  0.00    -0.206 F 
ATOM     56  C   UNL A   1      45.058  25.252  36.362  1.00  0.00     0.022 A 
BRANCH  53  57
ATOM     57  S   UNL A   1      42.649  26.211  37.307  1.00  0.00     0.124 S 
ATOM     58  O   UNL A   1      41.917  24.953  37.218  1.00  0.00    -0.237 OA
ATOM     59  O   UNL A   1      43.433  26.426  38.517  1.00  0.00    -0.237 OA
ATOM     60  O   UNL A   1      41.894  27.385  36.858  1.00  0.00    -0.744 OA
ENDBRANCH  53  57
ENDBRANCH  26  50
BRANCH  38  61
ATOM     61  C   UNL A   1      45.676  29.211  28.159  1.00  0.00     0.023 A 
ATOM     62  C   UNL A   1      46.322  28.035  27.714  1.00  0.00     0.031 A 
ATOM     63  C   UNL A   1      46.388  30.420  28.066  1.00  0.00     0.131 A 
ATOM     64  C   UNL A   1      47.641  28.101  27.220  1.00  0.00     0.055 A 
ATOM     65  C   UNL A   1      47.681  30.486  27.555  1.00  0.00     0.041 A 
ATOM     66  F   UNL A   1      45.823  31.577  28.451  1.00  0.00    -0.206 F 
ATOM     67  C   UNL A   1      48.318  29.323  27.138  1.00  0.00     0.022 A 
BRANCH  64  68
ATOM     68  S   UNL A   1      48.526  26.592  26.706  1.00  0.00     0.124 S 
ATOM     69  O   UNL A   1      47.820  26.172  25.502  1.00  0.00    -0.237 OA
ATOM     70  O   UNL A   1      49.890  27.078  26.511  1.00  0.00    -0.237 OA
ATOM     71  O   UNL A   1      48.361  25.697  27.853  1.00  0.00    -0.744 OA
ENDBRANCH  64  68
ENDBRANCH  38  61
ENDBRANCH  12  13
ENDBRANCH   5   7
ENDBRANCH   2   3
ENDBRANCH   1   2
BRANCH   1  72
ATOM     72  C   UNL A   1      35.605  20.404  25.065  1.00  0.00     0.117 C 
BRANCH  72  73
ATOM     73  N   UNL A   1      35.825  21.488  26.066  1.00  0.00    -0.355 N 
ATOM     74  C   UNL A   1      35.602  22.884  26.007  1.00  0.00     0.234 C 
ATOM     75  H   UNL A   1      36.194  21.176  26.924  1.00  0.00     0.163 HD
ATOM     76  O   UNL A   1      36.479  23.591  26.510  1.00  0.00    -0.274 OA
BRANCH  74  77
ATOM     77  C   UNL A   1      34.135  23.396  25.743  1.00  0.00     0.125 C 
ATOM     78  C   UNL A   1      33.376  22.745  26.892  1.00  0.00     0.280 C 
ATOM     79  C   UNL A   1      32.937  23.344  24.715  1.00  0.00     0.087 C 
ATOM     80  C   UNL A   1      34.633  24.833  25.304  1.00  0.00     0.143 C 
ATOM     81  N   UNL A   1      32.381  21.823  26.348  1.00  0.00    -0.345 N 
ATOM     82  C   UNL A   1      31.764  22.533  25.276  1.00  0.00     0.267 C 
ATOM     83  C   UNL A   1      32.386  24.793  24.714  1.00  0.00     0.130 C 
ATOM     84  N   UNL A   1      33.547  25.608  24.758  1.00  0.00    -0.337 N 
ATOM     85  H   UNL A   1      31.692  21.579  27.058  1.00  0.00     0.346 HD
ATOM     86  H   UNL A   1      32.801  20.948  26.034  1.00  0.00     0.346 HD
BRANCH  84  87
ATOM     87  C   UNL A   1      33.523  26.907  24.277  1.00  0.00     0.256 C 
ATOM     88  O   UNL A   1      33.888  27.226  23.163  1.00  0.00    -0.269 OA
BRANCH  87  89
ATOM     89  C   UNL A   1      33.105  27.993  25.192  1.00  0.00     0.065 A 
ATOM     90  C   UNL A   1      33.925  28.219  26.305  1.00  0.00     0.016 A 
ATOM     91  C   UNL A   1      31.953  28.773  25.001  1.00  0.00     0.079 A 
ATOM     92  C   UNL A   1      33.627  29.249  27.198  1.00  0.00     0.001 A 
ATOM     93  C   UNL A   1      31.691  29.843  25.877  1.00  0.00     0.029 A 
ATOM     94  C   UNL A   1      32.521  30.067  26.978  1.00  0.00     0.002 A 
BRANCH  91  95
ATOM     95  N   UNL A   1      31.027  28.520  23.962  1.00  0.00    -0.220 N 
ATOM     96  C   UNL A   1      30.929  29.084  22.714  1.00  0.00     0.225 A 
ATOM     97  N   UNL A   1      30.049  27.589  24.103  1.00  0.00    -0.155 NA
ATOM     98  N   UNL A   1      29.831  28.682  22.115  1.00  0.00    -0.223 NA
ATOM     99  C   UNL A   1      29.303  27.811  23.018  1.00  0.00     0.246 A 
ENDBRANCH  91  95
ENDBRANCH  87  89
ENDBRANCH  84  87
ENDBRANCH  74  77
ENDBRANCH  72  73
ENDBRANCH   1  72
TORSDOF 16
ENDMDL
MODEL 2
REMARK VINA RESULT:     -12.8      2.941      8.426
REMARK SMILES O=C(NCCCNC(=O)[C@]12C[NH2+]C[C@H]1CN(C(=O)c1ccccc1-n1cncn1)C2)c1ccc(-c2c3nc(c(-c4cc(S(=O)(=O)[O-])ccc4F)c4ccc([nH]4)c(-c4cc(S(=O)(=O)[O-])ccc4F)c4nc(c(-c5cc(S(=O)(=O)[O-])ccc5F)c5ccc2[nH]5)C=C4)C=C3)cc1
REMARK SMILES IDX 5 1 4 2 3 3 1 4 2 5 31 7 32 8 93 9 33 10 92 11 34 12 35 13
REMARK SMILES IDX 36 14 86 15 37 16 91 17 85 18 87 19 38 20 90 21 84 22 83 23
REMARK SMILES IDX 39 25 71 26 51 27 70 28 52 29 55 30 69 31 88 32 53 33 54 34
REMARK SMILES IDX 68 36 89 37 56 38 40 39 41 40 49 41 42 42 48 43 50 44 47 45
REMARK SMILES IDX 43 46 44 47 45 48 46 49 72 50 73 51 81 52 74 53 80 54 82 55
REMARK SMILES IDX 79 56 75 57 76 58 77 59 78 60 57 61 58 62 66 63 59 64 65 65
REMARK SMILES IDX 67 66 64 67 60 68 61 69 62 70 63 71 6 72 7 73 8 74 9 76
REMARK SMILES IDX 10 77 11 78 14 79 30 80 12 81 13 82 15 83 16 84 17 87 18 88
REMARK SMILES IDX 19 89 20 90 24 91 21 92 23 93 22 94 25 95 26 96 29 97 27 98
REMARK SMILES IDX 28 99
REMARK H PARENT 3 6 87 24 55 35 7 75 12 85 12 86
REMARK Flexibility Score: inf
ROOT
ATOM      1  C   UNL A   1      33.393  28.882  27.128  1.00  0.00     0.042 C 
ENDROOT
BRANCH   1   2
ATOM      2  C   UNL A   1      34.851  29.302  27.265  1.00  0.00     0.118 C 
BRANCH   2   3
ATOM      3  N   UNL A   1      35.176  29.836  28.572  1.00  0.00    -0.352 N 
ATOM      4  O   UNL A   1      36.183  30.477  30.421  1.00  0.00    -0.269 OA
ATOM      5  C   UNL A   1      36.314  29.918  29.327  1.00  0.00     0.251 C 
ATOM      6  H   UNL A   1      34.396  30.234  29.023  1.00  0.00     0.163 HD
BRANCH   5   7
ATOM      7  C   UNL A   1      37.642  29.342  28.967  1.00  0.00     0.039 A 
ATOM      8  C   UNL A   1      38.386  29.631  27.821  1.00  0.00     0.014 A 
ATOM      9  C   UNL A   1      38.183  28.443  29.906  1.00  0.00     0.014 A 
ATOM     10  C   UNL A   1      39.607  28.982  27.592  1.00  0.00     0.010 A 
ATOM     11  C   UNL A   1      39.395  27.797  29.683  1.00  0.00     0.010 A 
ATOM     12  C   UNL A   1      40.105  28.048  28.512  1.00  0.00    -0.014 A 
BRANCH  12  13
ATOM     13  C   UNL A   1      41.509  27.613  28.416  1.00  0.00     0.031 A 
ATOM     14  C   UNL A   1      41.622  26.290  27.731  1.00  0.00     0.074 A 
ATOM     15  C   UNL A   1      42.591  28.376  28.703  1.00  0.00     0.049 A 
ATOM     16  N   UNL A   1      41.986  25.162  28.245  1.00  0.00    -0.248 NA
ATOM     17  C   UNL A   1      41.051  26.156  26.375  1.00  0.00     0.031 C 
ATOM     18  C   UNL A   1      42.594  29.769  29.152  1.00  0.00     0.029 A 
ATOM     19  N   UNL A   1      43.932  28.112  28.574  1.00  0.00    -0.354 N 
ATOM     20  C   UNL A   1      41.982  24.255  27.188  1.00  0.00     0.074 A 
ATOM     21  C   UNL A   1      41.156  24.842  26.173  1.00  0.00     0.031 C 
ATOM     22  C   UNL A   1      43.842  30.285  29.035  1.00  0.00     0.029 A 
ATOM     23  C   UNL A   1      44.762  29.244  28.599  1.00  0.00     0.049 A 
ATOM     24  H   UNL A   1      44.284  27.199  28.471  1.00  0.00     0.167 HD
ATOM     25  C   UNL A   1      42.934  23.284  27.107  1.00  0.00     0.034 A 
ATOM     26  C   UNL A   1      46.085  29.342  28.255  1.00  0.00     0.034 A 
ATOM     27  C   UNL A   1      43.539  23.057  28.406  1.00  0.00     0.049 A 
ATOM     28  C   UNL A   1      46.649  27.972  28.324  1.00  0.00     0.074 A 
ATOM     29  C   UNL A   1      43.054  22.757  29.666  1.00  0.00     0.029 A 
ATOM     30  N   UNL A   1      44.822  23.516  28.612  1.00  0.00    -0.354 N 
ATOM     31  N   UNL A   1      46.780  27.314  29.441  1.00  0.00    -0.248 NA
ATOM     32  C   UNL A   1      46.574  27.153  27.124  1.00  0.00     0.031 C 
ATOM     33  C   UNL A   1      43.853  23.527  30.562  1.00  0.00     0.029 A 
ATOM     34  C   UNL A   1      44.849  24.163  29.820  1.00  0.00     0.049 A 
ATOM     35  H   UNL A   1      45.584  23.400  28.000  1.00  0.00     0.167 HD
ATOM     36  C   UNL A   1      46.331  26.037  29.149  1.00  0.00     0.074 A 
ATOM     37  C   UNL A   1      46.294  25.974  27.686  1.00  0.00     0.031 C 
ATOM     38  C   UNL A   1      45.750  25.260  30.111  1.00  0.00     0.034 A 
BRANCH  25  39
ATOM     39  C   UNL A   1      43.649  22.908  25.813  1.00  0.00     0.023 A 
ATOM     40  C   UNL A   1      43.789  21.532  25.558  1.00  0.00     0.031 A 
ATOM     41  C   UNL A   1      44.471  23.755  25.032  1.00  0.00     0.131 A 
ATOM     42  C   UNL A   1      44.825  21.051  24.738  1.00  0.00     0.055 A 
ATOM     43  C   UNL A   1      45.452  23.272  24.161  1.00  0.00     0.041 A 
ATOM     44  F   UNL A   1      44.438  25.089  25.108  1.00  0.00    -0.206 F 
ATOM     45  C   UNL A   1      45.667  21.912  24.045  1.00  0.00     0.022 A 
BRANCH  42  46
ATOM     46  S   UNL A   1      45.181  19.278  24.785  1.00  0.00     0.124 S 
ATOM     47  O   UNL A   1      45.053  18.932  23.373  1.00  0.00    -0.237 OA
ATOM     48  O   UNL A   1      46.532  19.260  25.334  1.00  0.00    -0.237 OA
ATOM     49  O   UNL A   1      44.142  18.749  25.664  1.00  0.00    -0.744 OA
ENDBRANCH  42  46
ENDBRANCH  25  39
BRANCH  26  50
ATOM     50  C   UNL A   1      46.808  30.470  27.565  1.00  0.00     0.023 A 
ATOM     51  C   UNL A   1      46.164  31.587  26.962  1.00  0.00     0.031 A 
ATOM     52  C   UNL A   1      48.206  30.584  27.730  1.00  0.00     0.131 A 
ATOM     53  C   UNL A   1      46.916  32.730  26.565  1.00  0.00     0.055 A 
ATOM     54  C   UNL A   1      48.936  31.710  27.342  1.00  0.00     0.041 A 
ATOM     55  F   UNL A   1      48.910  29.632  28.362  1.00  0.00    -0.206 F 
ATOM     56  C   UNL A   1      48.295  32.793  26.768  1.00  0.00     0.022 A 
BRANCH  53  57
ATOM     57  S   UNL A   1      46.117  34.212  25.839  1.00  0.00     0.124 S 
ATOM     58  O   UNL A   1      47.166  34.745  24.976  1.00  0.00    -0.237 OA
ATOM     59  O   UNL A   1      44.947  33.653  25.173  1.00  0.00    -0.237 OA
ATOM     60  O   UNL A   1      45.810  35.044  27.006  1.00  0.00    -0.744 OA
ENDBRANCH  53  57
ENDBRANCH  26  50
BRANCH  38  61
ATOM     61  C   UNL A   1      45.913  25.657  31.564  1.00  0.00     0.023 A 
ATOM     62  C   UNL A   1      44.866  26.017  32.442  1.00  0.00     0.031 A 
ATOM     63  C   UNL A   1      47.212  25.582  32.097  1.00  0.00     0.131 A 
ATOM     64  C   UNL A   1      45.148  26.305  33.794  1.00  0.00     0.055 A 
ATOM     65  C   UNL A   1      47.484  25.843  33.437  1.00  0.00     0.041 A 
ATOM     66  F   UNL A   1      48.249  25.223  31.320  1.00  0.00    -0.206 F 
ATOM     67  C   UNL A   1      46.453  26.216  34.290  1.00  0.00     0.022 A 
BRANCH  64  68
ATOM     68  S   UNL A   1      43.829  26.841  34.932  1.00  0.00     0.124 S 
ATOM     69  O   UNL A   1      43.482  25.624  35.655  1.00  0.00    -0.237 OA
ATOM     70  O   UNL A   1      44.493  27.881  35.715  1.00  0.00    -0.237 OA
ATOM     71  O   UNL A   1      42.785  27.335  34.032  1.00  0.00    -0.744 OA
ENDBRANCH  64  68
ENDBRANCH  38  61
ENDBRANCH  12  13
ENDBRANCH   5   7
ENDBRANCH   2   3
ENDBRANCH   1   2
BRANCH   1  72
ATOM     72  C   UNL A   1      32.665  29.675  26.027  1.00  0.00     0.117 C 
BRANCH  72  73
ATOM     73  N   UNL A   1      32.940  29.092  24.682  1.00  0.00    -0.355 N 
ATOM     74  C   UNL A   1      33.350  27.798  24.282  1.00  0.00     0.234 C 
ATOM     75  H   UNL A   1      32.815  29.723  23.936  1.00  0.00     0.163 HD
ATOM     76  O   UNL A   1      34.197  27.754  23.386  1.00  0.00    -0.274 OA
BRANCH  74  77
ATOM     77  C   UNL A   1      32.424  26.576  24.647  1.00  0.00     0.125 C 
ATOM     78  C   UNL A   1      31.479  26.545  23.453  1.00  0.00     0.280 C 
ATOM     79  C   UNL A   1      31.367  26.051  25.697  1.00  0.00     0.087 C 
ATOM     80  C   UNL A   1      33.632  25.739  25.235  1.00  0.00     0.143 C 
ATOM     81  N   UNL A   1      30.115  26.790  23.916  1.00  0.00    -0.345 N 
ATOM     82  C   UNL A   1      29.966  25.981  25.080  1.00  0.00     0.267 C 
ATOM     83  C   UNL A   1      31.739  24.558  25.882  1.00  0.00     0.130 C 
ATOM     84  N   UNL A   1      33.158  24.550  25.899  1.00  0.00    -0.337 N 
ATOM     85  H   UNL A   1      29.439  26.516  23.202  1.00  0.00     0.346 HD
ATOM     86  H   UNL A   1      29.949  27.777  24.113  1.00  0.00     0.346 HD
BRANCH  84  87
ATOM     87  C   UNL A   1      33.856  23.533  26.529  1.00  0.00     0.256 C 
ATOM     88  O   UNL A   1      33.575  23.093  27.625  1.00  0.00    -0.269 OA
BRANCH  87  89
ATOM     89  C   UNL A   1      35.070  22.996  25.872  1.00  0.00     0.065 A 
ATOM     90  C   UNL A   1      36.246  23.740  26.033  1.00  0.00     0.016 A 
ATOM     91  C   UNL A   1      35.087  21.816  25.111  1.00  0.00     0.079 A 
ATOM     92  C   UNL A   1      37.444  23.287  25.480  1.00  0.00     0.001 A 
ATOM     93  C   UNL A   1      36.310  21.340  24.603  1.00  0.00     0.029 A 
ATOM     94  C   UNL A   1      37.479  22.084  24.778  1.00  0.00     0.002 A 
BRANCH  91  95
ATOM     95  N   UNL A   1      33.912  21.084  24.817  1.00  0.00    -0.220 N 
ATOM     96  C   UNL A   1      33.353  20.018  25.479  1.00  0.00     0.225 A 
ATOM     97  N   UNL A   1      33.133  21.400  23.752  1.00  0.00    -0.155 NA
ATOM     98  N   UNL A   1      32.347  19.529  24.789  1.00  0.00    -0.223 NA
ATOM     99  C   UNL A   1      32.282  20.372  23.722  1.00  0.00     0.246 A 
ENDBRANCH  91  95
ENDBRANCH  87  89
ENDBRANCH  84  87
ENDBRANCH  74  77
ENDBRANCH  72  73
ENDBRANCH   1  72
TORSDOF 16
ENDMDL
MODEL 3
REMARK VINA RESULT:     -12.5      3.858      7.663
REMARK SMILES O=C(NCCCNC(=O)[C@]12C[NH2+]C[C@H]1CN(C(=O)c1ccccc1-n1cncn1)C2)c1ccc(-c2c3nc(c(-c4cc(S(=O)(=O)[O-])ccc4F)c4ccc([nH]4)c(-c4cc(S(=O)(=O)[O-])ccc4F)c4nc(c(-c5cc(S(=O)(=O)[O-])ccc5F)c5ccc2[nH]5)C=C4)C=C3)cc1
REMARK SMILES IDX 5 1 4 2 3 3 1 4 2 5 31 7 32 8 93 9 33 10 92 11 34 12 35 13
REMARK SMILES IDX 36 14 86 15 37 16 91 17 85 18 87 19 38 20 90 21 84 22 83 23
REMARK SMILES IDX 39 25 71 26 51 27 70 28 52 29 55 30 69 31 88 32 53 33 54 34
REMARK SMILES IDX 68 36 89 37 56 38 40 39 41 40 49 41 42 42 48 43 50 44 47 45
REMARK SMILES IDX 43 46 44 47 45 48 46 49 72 50 73 51 81 52 74 53 80 54 82 55
REMARK SMILES IDX 79 56 75 57 76 58 77 59 78 60 57 61 58 62 66 63 59 64 65 65
REMARK SMILES IDX 67 66 64 67 60 68 61 69 62 70 63 71 6 72 7 73 8 74 9 76
REMARK SMILES IDX 10 77 11 78 14 79 30 80 12 81 13 82 15 83 16 84 17 87 18 88
REMARK SMILES IDX 19 89 20 90 24 91 21 92 23 93 22 94 25 95 26 96 29 97 27 98
REMARK SMILES IDX 28 99
REMARK H PARENT 3 6 87 24 55 35 7 75 12 85 12 86
REMARK Flexibility Score: inf
ROOT
ATOM      1  C   UNL A   1      36.854  22.266  25.758  1.00  0.00     0.042 C 
ENDROOT
BRANCH   1   2
ATOM      2  C   UNL A   1      38.263  22.758  25.451  1.00  0.00     0.118 C 
BRANCH   2   3
ATOM      3  N   UNL A   1      39.253  22.303  26.406  1.00  0.00    -0.352 N 
ATOM      4  O   UNL A   1      40.764  22.151  27.998  1.00  0.00    -0.269 OA
ATOM      5  C   UNL A   1      40.029  22.909  27.356  1.00  0.00     0.251 C 
ATOM      6  H   UNL A   1      39.402  21.330  26.362  1.00  0.00     0.163 HD
BRANCH   5   7
ATOM      7  C   UNL A   1      40.101  24.375  27.618  1.00  0.00     0.039 A 
ATOM      8  C   UNL A   1      39.172  25.335  27.208  1.00  0.00     0.014 A 
ATOM      9  C   UNL A   1      41.209  24.799  28.376  1.00  0.00     0.014 A 
ATOM     10  C   UNL A   1      39.387  26.690  27.492  1.00  0.00     0.010 A 
ATOM     11  C   UNL A   1      41.426  26.144  28.661  1.00  0.00     0.010 A 
ATOM     12  C   UNL A   1      40.525  27.100  28.201  1.00  0.00    -0.014 A 
BRANCH  12  13
ATOM     13  C   UNL A   1      40.583  28.465  28.754  1.00  0.00     0.031 A 
ATOM     14  C   UNL A   1      41.759  29.217  28.222  1.00  0.00     0.074 A 
ATOM     15  C   UNL A   1      39.606  29.063  29.478  1.00  0.00     0.049 A 
ATOM     16  N   UNL A   1      42.806  29.609  28.869  1.00  0.00    -0.248 NA
ATOM     17  C   UNL A   1      41.893  29.355  26.756  1.00  0.00     0.031 C 
ATOM     18  C   UNL A   1      38.310  28.494  29.850  1.00  0.00     0.029 A 
ATOM     19  N   UNL A   1      39.511  30.341  29.969  1.00  0.00    -0.354 N 
ATOM     20  C   UNL A   1      43.573  30.312  27.942  1.00  0.00     0.074 A 
ATOM     21  C   UNL A   1      43.110  29.887  26.652  1.00  0.00     0.031 C 
ATOM     22  C   UNL A   1      37.489  29.477  30.293  1.00  0.00     0.029 A 
ATOM     23  C   UNL A   1      38.216  30.738  30.339  1.00  0.00     0.049 A 
ATOM     24  H   UNL A   1      40.292  30.934  30.055  1.00  0.00     0.167 HD
ATOM     25  C   UNL A   1      44.261  31.425  28.317  1.00  0.00     0.034 A 
ATOM     26  C   UNL A   1      37.756  31.997  30.621  1.00  0.00     0.034 A 
ATOM     27  C   UNL A   1      44.459  31.440  29.754  1.00  0.00     0.049 A 
ATOM     28  C   UNL A   1      38.940  32.820  30.965  1.00  0.00     0.074 A 
ATOM     29  C   UNL A   1      44.998  30.554  30.669  1.00  0.00     0.029 A 
ATOM     30  N   UNL A   1      43.717  32.326  30.503  1.00  0.00    -0.354 N 
ATOM     31  N   UNL A   1      39.655  32.622  32.037  1.00  0.00    -0.248 NA
ATOM     32  C   UNL A   1      39.625  33.500  29.877  1.00  0.00     0.031 C 
ATOM     33  C   UNL A   1      44.148  30.641  31.812  1.00  0.00     0.029 A 
ATOM     34  C   UNL A   1      43.211  31.649  31.581  1.00  0.00     0.049 A 
ATOM     35  H   UNL A   1      43.576  33.279  30.299  1.00  0.00     0.167 HD
ATOM     36  C   UNL A   1      40.967  32.708  31.603  1.00  0.00     0.074 A 
ATOM     37  C   UNL A   1      40.888  33.332  30.280  1.00  0.00     0.031 C 
ATOM     38  C   UNL A   1      41.958  31.999  32.220  1.00  0.00     0.034 A 
BRANCH  25  39
ATOM     39  C   UNL A   1      44.312  32.705  27.489  1.00  0.00     0.023 A 
ATOM     40  C   UNL A   1      43.765  33.855  28.088  1.00  0.00     0.031 A 
ATOM     41  C   UNL A   1      44.523  32.793  26.092  1.00  0.00     0.131 A 
ATOM     42  C   UNL A   1      43.278  34.916  27.305  1.00  0.00     0.055 A 
ATOM     43  C   UNL A   1      44.104  33.885  25.326  1.00  0.00     0.041 A 
ATOM     44  F   UNL A   1      45.075  31.816  25.366  1.00  0.00    -0.206 F 
ATOM     45  C   UNL A   1      43.432  34.935  25.924  1.00  0.00     0.022 A 
BRANCH  42  46
ATOM     46  S   UNL A   1      42.240  36.155  28.117  1.00  0.00     0.124 S 
ATOM     47  O   UNL A   1      40.909  35.690  27.742  1.00  0.00    -0.237 OA
ATOM     48  O   UNL A   1      42.613  35.985  29.516  1.00  0.00    -0.237 OA
ATOM     49  O   UNL A   1      42.669  37.408  27.503  1.00  0.00    -0.744 OA
ENDBRANCH  42  46
ENDBRANCH  25  39
BRANCH  26  50
ATOM     50  C   UNL A   1      36.418  32.615  30.303  1.00  0.00     0.023 A 
ATOM     51  C   UNL A   1      35.716  33.501  31.168  1.00  0.00     0.031 A 
ATOM     52  C   UNL A   1      35.928  32.532  28.981  1.00  0.00     0.131 A 
ATOM     53  C   UNL A   1      34.595  34.241  30.695  1.00  0.00     0.055 A 
ATOM     54  C   UNL A   1      34.830  33.265  28.522  1.00  0.00     0.041 A 
ATOM     55  F   UNL A   1      36.557  31.797  28.052  1.00  0.00    -0.206 F 
ATOM     56  C   UNL A   1      34.165  34.131  29.372  1.00  0.00     0.022 A 
BRANCH  53  57
ATOM     57  S   UNL A   1      33.701  35.435  31.760  1.00  0.00     0.124 S 
ATOM     58  O   UNL A   1      32.784  34.574  32.498  1.00  0.00    -0.237 OA
ATOM     59  O   UNL A   1      34.777  36.051  32.526  1.00  0.00    -0.237 OA
ATOM     60  O   UNL A   1      33.051  36.332  30.800  1.00  0.00    -0.744 OA
ENDBRANCH  53  57
ENDBRANCH  26  50
BRANCH  38  61
ATOM     61  C   UNL A   1      41.683  31.398  33.583  1.00  0.00     0.023 A 
ATOM     62  C   UNL A   1      41.822  32.066  34.821  1.00  0.00     0.031 A 
ATOM     63  C   UNL A   1      41.169  30.090  33.604  1.00  0.00     0.131 A 
ATOM     64  C   UNL A   1      41.471  31.409  36.019  1.00  0.00     0.055 A 
ATOM     65  C   UNL A   1      40.799  29.453  34.785  1.00  0.00     0.041 A 
ATOM     66  F   UNL A   1      40.990  29.408  32.459  1.00  0.00    -0.206 F 
ATOM     67  C   UNL A   1      40.958  30.107  36.000  1.00  0.00     0.022 A 
BRANCH  64  68
ATOM     68  S   UNL A   1      41.707  32.218  37.635  1.00  0.00     0.124 S 
ATOM     69  O   UNL A   1      40.348  32.483  38.090  1.00  0.00    -0.237 OA
ATOM     70  O   UNL A   1      42.447  31.207  38.388  1.00  0.00    -0.237 OA
ATOM     71  O   UNL A   1      42.484  33.415  37.304  1.00  0.00    -0.744 OA
ENDBRANCH  64  68
ENDBRANCH  38  61
ENDBRANCH  12  13
ENDBRANCH   5   7
ENDBRANCH   2   3
ENDBRANCH   1   2
BRANCH   1  72
ATOM     72  C   UNL A   1      36.000  23.350  26.442  1.00  0.00     0.117 C 
BRANCH  72  73
ATOM     73  N   UNL A   1      34.564  22.949  26.482  1.00  0.00    -0.355 N 
ATOM     74  C   UNL A   1      33.382  23.642  26.128  1.00  0.00     0.234 C 
ATOM     75  H   UNL A   1      34.409  22.036  26.818  1.00  0.00     0.163 HD
ATOM     76  O   UNL A   1      32.424  23.500  26.893  1.00  0.00    -0.274 OA
BRANCH  74  77
ATOM     77  C   UNL A   1      33.224  24.138  24.640  1.00  0.00     0.125 C 
ATOM     78  C   UNL A   1      32.111  23.230  24.135  1.00  0.00     0.280 C 
ATOM     79  C   UNL A   1      33.972  24.255  23.254  1.00  0.00     0.087 C 
ATOM     80  C   UNL A   1      33.438  25.654  25.042  1.00  0.00     0.143 C 
ATOM     81  N   UNL A   1      32.625  22.404  23.044  1.00  0.00    -0.345 N 
ATOM     82  C   UNL A   1      33.370  23.296  22.220  1.00  0.00     0.267 C 
ATOM     83  C   UNL A   1      33.550  25.647  22.721  1.00  0.00     0.130 C 
ATOM     84  N   UNL A   1      33.571  26.482  23.869  1.00  0.00    -0.337 N 
ATOM     85  H   UNL A   1      31.857  21.987  22.517  1.00  0.00     0.346 HD
ATOM     86  H   UNL A   1      33.197  21.632  23.386  1.00  0.00     0.346 HD
BRANCH  84  87
ATOM     87  C   UNL A   1      33.749  27.850  23.751  1.00  0.00     0.256 C 
ATOM     88  O   UNL A   1      34.348  28.383  22.838  1.00  0.00    -0.269 OA
BRANCH  87  89
ATOM     89  C   UNL A   1      33.253  28.725  24.838  1.00  0.00     0.065 A 
ATOM     90  C   UNL A   1      34.164  29.030  25.857  1.00  0.00     0.016 A 
ATOM     91  C   UNL A   1      31.945  29.235  24.892  1.00  0.00     0.079 A 
ATOM     92  C   UNL A   1      33.792  29.878  26.900  1.00  0.00     0.001 A 
ATOM     93  C   UNL A   1      31.597  30.132  25.919  1.00  0.00     0.029 A 
ATOM     94  C   UNL A   1      32.516  30.438  26.925  1.00  0.00     0.002 A 
BRANCH  91  95
ATOM     95  N   UNL A   1      30.948  28.872  23.957  1.00  0.00    -0.220 N 
ATOM     96  C   UNL A   1      30.464  29.565  22.875  1.00  0.00     0.225 A 
ATOM     97  N   UNL A   1      30.313  27.675  24.033  1.00  0.00    -0.155 NA
ATOM     98  N   UNL A   1      29.429  28.942  22.358  1.00  0.00    -0.223 NA
ATOM     99  C   UNL A   1      29.345  27.822  23.127  1.00  0.00     0.246 A 
ENDBRANCH  91  95
ENDBRANCH  87  89
ENDBRANCH  84  87
ENDBRANCH  74  77
ENDBRANCH  72  73
ENDBRANCH   1  72
TORSDOF 16
ENDMDL
