MODEL 1
REMARK VINA RESULT:     -11.1      0.000      0.000
REMARK SMILES O=C(CCCCCn1cc(Cl)c(I)n1)NCCCNC(=O)c1ccc(-c2c3nc(c(-c4cc(S(=O)(=O)[O-])ccc4F)c4ccc([nH]4)c(-c4cc(S(=O)(=O)[O-])ccc4F)c4nc(c(-c5cc(S(=O)(=O)[O-])ccc5F)c5ccc2[nH]5)C=C4)C=C3)cc1
REMARK SMILES IDX 16 1 15 2 1 3 2 4 3 6 4 7 5 8 6 9 7 10 8 11 9 12 14 13 10 14
REMARK SMILES IDX 12 15 11 16 13 17 17 18 18 19 19 20 20 21 21 23 22 24 23 25
REMARK SMILES IDX 84 26 24 27 83 28 25 29 26 30 27 31 77 32 28 33 82 34 76 35
REMARK SMILES IDX 78 36 29 37 81 38 75 39 74 40 30 42 62 43 42 44 61 45 43 46
REMARK SMILES IDX 46 47 60 48 79 49 44 50 45 51 59 53 80 54 47 55 31 56 32 57
REMARK SMILES IDX 40 58 33 59 39 60 41 61 38 62 34 63 35 64 36 65 37 66 63 67
REMARK SMILES IDX 64 68 72 69 65 70 71 71 73 72 70 73 66 74 67 75 68 76 69 77
REMARK SMILES IDX 48 78 49 79 57 80 50 81 56 82 58 83 55 84 51 85 52 86 53 87
REMARK SMILES IDX 54 88
REMARK H PARENT 15 5 19 22 78 41 46 52
REMARK Flexibility Score: inf
ROOT
ATOM      1  C   UNL A   1      33.228  30.001  26.415  1.00  0.00     0.117 C 
ENDROOT
BRANCH   1   2
ATOM      2  N   UNL A   1      32.710  29.743  25.079  1.00  0.00    -0.356 N 
ATOM      3  O   UNL A   1      31.175  28.150  25.704  1.00  0.00    -0.275 OA
ATOM      4  C   UNL A   1      31.654  28.887  24.847  1.00  0.00     0.219 C 
ATOM      5  H   UNL A   1      33.129  30.197  24.312  1.00  0.00     0.163 HD
BRANCH   4   6
ATOM      6  C   UNL A   1      31.096  28.950  23.435  1.00  0.00     0.100 C 
BRANCH   6   7
ATOM      7  C   UNL A   1      30.637  27.581  22.925  1.00  0.00     0.010 C 
BRANCH   7   8
ATOM      8  C   UNL A   1      31.700  26.744  22.204  1.00  0.00     0.002 C 
BRANCH   8   9
ATOM      9  C   UNL A   1      32.074  25.416  22.880  1.00  0.00     0.024 C 
BRANCH   9  10
ATOM     10  C   UNL A   1      33.559  25.274  23.231  1.00  0.00     0.144 C 
BRANCH  10  11
ATOM     11  N   UNL A   1      33.996  23.967  23.687  1.00  0.00    -0.270 N 
ATOM     12  C   UNL A   1      35.255  23.554  24.017  1.00  0.00     0.130 A 
ATOM     13  N   UNL A   1      33.079  22.985  23.782  1.00  0.00    -0.165 NA
ATOM     14  C   UNL A   1      35.156  22.216  24.319  1.00  0.00     0.092 A 
ATOM     15  C   UNL A   1      33.780  21.936  24.221  1.00  0.00     0.141 A 
ATOM     16  Cl  UNL A   1      36.439  21.176  24.700  1.00  0.00    -0.080 Cl
ATOM     17  I   UNL A   1      32.891  20.143  24.624  1.00  0.00    -0.018 I 
ENDBRANCH  10  11
ENDBRANCH   9  10
ENDBRANCH   8   9
ENDBRANCH   7   8
ENDBRANCH   6   7
ENDBRANCH   4   6
ENDBRANCH   1   2
BRANCH   1  18
ATOM     18  C   UNL A   1      34.174  28.912  26.930  1.00  0.00     0.042 C 
BRANCH  18  19
ATOM     19  C   UNL A   1      35.505  29.450  27.429  1.00  0.00     0.118 C 
BRANCH  19  20
ATOM     20  N   UNL A   1      35.542  29.769  28.864  1.00  0.00    -0.352 N 
ATOM     21  C   UNL A   1      36.492  29.378  29.808  1.00  0.00     0.251 C 
ATOM     22  H   UNL A   1      34.805  30.328  29.199  1.00  0.00     0.163 HD
ATOM     23  O   UNL A   1      36.227  29.387  31.000  1.00  0.00    -0.269 OA
BRANCH  21  24
ATOM     24  C   UNL A   1      37.830  28.966  29.330  1.00  0.00     0.039 A 
ATOM     25  C   UNL A   1      38.471  29.508  28.209  1.00  0.00     0.014 A 
ATOM     26  C   UNL A   1      38.468  28.001  30.092  1.00  0.00     0.014 A 
ATOM     27  C   UNL A   1      39.772  29.086  27.914  1.00  0.00     0.010 A 
ATOM     28  C   UNL A   1      39.814  27.850  29.997  1.00  0.00     0.010 A 
ATOM     29  C   UNL A   1      40.431  28.248  28.824  1.00  0.00    -0.014 A 
BRANCH  29  30
ATOM     30  C   UNL A   1      41.799  27.772  28.683  1.00  0.00     0.031 A 
ATOM     31  C   UNL A   1      41.921  26.522  27.898  1.00  0.00     0.074 A 
ATOM     32  C   UNL A   1      42.848  28.593  28.937  1.00  0.00     0.049 A 
ATOM     33  N   UNL A   1      42.278  25.362  28.331  1.00  0.00    -0.248 NA
ATOM     34  C   UNL A   1      41.410  26.502  26.516  1.00  0.00     0.031 C 
ATOM     35  C   UNL A   1      42.825  29.983  29.425  1.00  0.00     0.029 A 
ATOM     36  N   UNL A   1      44.168  28.409  28.676  1.00  0.00    -0.354 N 
ATOM     37  C   UNL A   1      42.293  24.530  27.219  1.00  0.00     0.074 A 
ATOM     38  C   UNL A   1      41.508  25.203  26.222  1.00  0.00     0.031 C 
ATOM     39  C   UNL A   1      44.023  30.568  29.198  1.00  0.00     0.029 A 
ATOM     40  C   UNL A   1      44.942  29.572  28.673  1.00  0.00     0.049 A 
ATOM     41  H   UNL A   1      44.553  27.520  28.501  1.00  0.00     0.167 HD
ATOM     42  C   UNL A   1      43.173  23.494  27.130  1.00  0.00     0.034 A 
ATOM     43  C   UNL A   1      46.228  29.709  28.238  1.00  0.00     0.034 A 
ATOM     44  C   UNL A   1      43.822  23.272  28.407  1.00  0.00     0.049 A 
ATOM     45  C   UNL A   1      46.818  28.343  28.265  1.00  0.00     0.074 A 
ATOM     46  C   UNL A   1      43.367  22.979  29.678  1.00  0.00     0.029 A 
ATOM     47  N   UNL A   1      45.095  23.779  28.575  1.00  0.00    -0.354 N 
ATOM     48  N   UNL A   1      46.986  27.670  29.374  1.00  0.00    -0.248 NA
ATOM     49  C   UNL A   1      46.700  27.523  27.065  1.00  0.00     0.031 C 
ATOM     50  C   UNL A   1      44.152  23.800  30.541  1.00  0.00     0.029 A 
ATOM     51  C   UNL A   1      45.120  24.453  29.773  1.00  0.00     0.049 A 
ATOM     52  H   UNL A   1      45.850  23.676  27.951  1.00  0.00     0.167 HD
ATOM     53  C   UNL A   1      46.543  26.387  29.088  1.00  0.00     0.074 A 
ATOM     54  C   UNL A   1      46.472  26.329  27.627  1.00  0.00     0.031 C 
ATOM     55  C   UNL A   1      45.970  25.600  30.051  1.00  0.00     0.034 A 
BRANCH  42  56
ATOM     56  C   UNL A   1      43.733  22.910  25.851  1.00  0.00     0.023 A 
ATOM     57  C   UNL A   1      43.753  21.505  25.752  1.00  0.00     0.031 A 
ATOM     58  C   UNL A   1      44.472  23.601  24.867  1.00  0.00     0.131 A 
ATOM     59  C   UNL A   1      44.560  20.855  24.805  1.00  0.00     0.055 A 
ATOM     60  C   UNL A   1      45.219  22.950  23.879  1.00  0.00     0.041 A 
ATOM     61  F   UNL A   1      44.599  24.932  24.848  1.00  0.00    -0.206 F 
ATOM     62  C   UNL A   1      45.295  21.569  23.865  1.00  0.00     0.022 A 
BRANCH  59  63
ATOM     63  S   UNL A   1      44.775  19.064  24.951  1.00  0.00     0.124 S 
ATOM     64  O   UNL A   1      44.718  18.647  23.554  1.00  0.00    -0.237 OA
ATOM     65  O   UNL A   1      46.079  18.972  25.600  1.00  0.00    -0.237 OA
ATOM     66  O   UNL A   1      43.639  18.653  25.771  1.00  0.00    -0.744 OA
ENDBRANCH  59  63
ENDBRANCH  42  56
BRANCH  43  67
ATOM     67  C   UNL A   1      46.833  30.880  27.522  1.00  0.00     0.023 A 
ATOM     68  C   UNL A   1      46.086  31.937  26.948  1.00  0.00     0.031 A 
ATOM     69  C   UNL A   1      48.232  31.082  27.598  1.00  0.00     0.131 A 
ATOM     70  C   UNL A   1      46.741  33.106  26.470  1.00  0.00     0.055 A 
ATOM     71  C   UNL A   1      48.872  32.225  27.111  1.00  0.00     0.041 A 
ATOM     72  F   UNL A   1      49.024  30.208  28.240  1.00  0.00    -0.206 F 
ATOM     73  C   UNL A   1      48.128  33.247  26.551  1.00  0.00     0.022 A 
BRANCH  70  74
ATOM     74  S   UNL A   1      45.791  34.531  25.828  1.00  0.00     0.124 S 
ATOM     75  O   UNL A   1      45.029  34.955  26.996  1.00  0.00    -0.237 OA
ATOM     76  O   UNL A   1      46.844  35.434  25.376  1.00  0.00    -0.237 OA
ATOM     77  O   UNL A   1      44.988  33.949  24.749  1.00  0.00    -0.744 OA
ENDBRANCH  70  74
ENDBRANCH  43  67
BRANCH  55  78
ATOM     78  C   UNL A   1      46.033  26.059  31.501  1.00  0.00     0.023 A 
ATOM     79  C   UNL A   1      44.952  26.619  32.223  1.00  0.00     0.031 A 
ATOM     80  C   UNL A   1      47.206  25.765  32.220  1.00  0.00     0.131 A 
ATOM     81  C   UNL A   1      45.077  26.871  33.605  1.00  0.00     0.055 A 
ATOM     82  C   UNL A   1      47.315  25.989  33.592  1.00  0.00     0.041 A 
ATOM     83  F   UNL A   1      48.259  25.204  31.602  1.00  0.00    -0.206 F 
ATOM     84  C   UNL A   1      46.253  26.549  34.290  1.00  0.00     0.022 A 
BRANCH  81  85
ATOM     85  S   UNL A   1      43.710  27.639  34.538  1.00  0.00     0.124 S 
ATOM     86  O   UNL A   1      44.373  28.198  35.710  1.00  0.00    -0.237 OA
ATOM     87  O   UNL A   1      43.178  28.607  33.583  1.00  0.00    -0.237 OA
ATOM     88  O   UNL A   1      42.819  26.512  34.822  1.00  0.00    -0.744 OA
ENDBRANCH  81  85
ENDBRANCH  55  78
ENDBRANCH  29  30
ENDBRANCH  21  24
ENDBRANCH  19  20
ENDBRANCH  18  19
ENDBRANCH   1  18
TORSDOF 18
ENDMDL
MODEL 2
REMARK VINA RESULT:     -11.0      2.869      7.520
REMARK SMILES O=C(CCCCCn1cc(Cl)c(I)n1)NCCCNC(=O)c1ccc(-c2c3nc(c(-c4cc(S(=O)(=O)[O-])ccc4F)c4ccc([nH]4)c(-c4cc(S(=O)(=O)[O-])ccc4F)c4nc(c(-c5cc(S(=O)(=O)[O-])ccc5F)c5ccc2[nH]5)C=C4)C=C3)cc1
REMARK SMILES IDX 16 1 15 2 1 3 2 4 3 6 4 7 5 8 6 9 7 10 8 11 9 12 14 13 10 14
REMARK SMILES IDX 12 15 11 16 13 17 17 18 18 19 19 20 20 21 21 23 22 24 23 25
REMARK SMILES IDX 84 26 24 27 83 28 25 29 26 30 27 31 77 32 28 33 82 34 76 35
REMARK SMILES IDX 78 36 29 37 81 38 75 39 74 40 30 42 62 43 42 44 61 45 43 46
REMARK SMILES IDX 46 47 60 48 79 49 44 50 45 51 59 53 80 54 47 55 31 56 32 57
REMARK SMILES IDX 40 58 33 59 39 60 41 61 38 62 34 63 35 64 36 65 37 66 63 67
REMARK SMILES IDX 64 68 72 69 65 70 71 71 73 72 70 73 66 74 67 75 68 76 69 77
REMARK SMILES IDX 48 78 49 79 57 80 50 81 56 82 58 83 55 84 51 85 52 86 53 87
REMARK SMILES IDX 54 88
REMARK H PARENT 15 5 19 22 78 41 46 52
REMARK Flexibility Score: inf
ROOT
ATOM      1  C   UNL A   1      32.997  28.017  26.020  1.00  0.00     0.117 C 
ENDROOT
BRANCH   1   2
ATOM      2  N   UNL A   1      33.735  26.764  26.073  1.00  0.00    -0.356 N 
ATOM      3  O   UNL A   1      31.897  25.388  26.171  1.00  0.00    -0.275 OA
ATOM      4  C   UNL A   1      33.110  25.535  26.060  1.00  0.00     0.219 C 
ATOM      5  H   UNL A   1      34.718  26.794  26.119  1.00  0.00     0.163 HD
BRANCH   4   6
ATOM      6  C   UNL A   1      34.049  24.356  25.857  1.00  0.00     0.100 C 
BRANCH   6   7
ATOM      7  C   UNL A   1      33.299  23.052  25.573  1.00  0.00     0.010 C 
BRANCH   7   8
ATOM      8  C   UNL A   1      33.846  22.201  24.422  1.00  0.00     0.002 C 
BRANCH   8   9
ATOM      9  C   UNL A   1      33.919  22.898  23.054  1.00  0.00     0.024 C 
BRANCH   9  10
ATOM     10  C   UNL A   1      32.609  23.550  22.598  1.00  0.00     0.144 C 
BRANCH  10  11
ATOM     11  N   UNL A   1      32.588  25.001  22.548  1.00  0.00    -0.270 N 
ATOM     12  C   UNL A   1      33.625  25.863  22.340  1.00  0.00     0.130 A 
ATOM     13  N   UNL A   1      31.416  25.628  22.764  1.00  0.00    -0.165 NA
ATOM     14  C   UNL A   1      33.102  27.130  22.454  1.00  0.00     0.092 A 
ATOM     15  C   UNL A   1      31.724  26.924  22.650  1.00  0.00     0.141 A 
ATOM     16  Cl  UNL A   1      33.971  28.584  22.384  1.00  0.00    -0.080 Cl
ATOM     17  I   UNL A   1      30.305  28.383  22.815  1.00  0.00    -0.018 I 
ENDBRANCH  10  11
ENDBRANCH   9  10
ENDBRANCH   8   9
ENDBRANCH   7   8
ENDBRANCH   6   7
ENDBRANCH   4   6
ENDBRANCH   1   2
BRANCH   1  18
ATOM     18  C   UNL A   1      33.892  29.257  25.935  1.00  0.00     0.042 C 
BRANCH  18  19
ATOM     19  C   UNL A   1      34.255  29.839  27.292  1.00  0.00     0.118 C 
BRANCH  19  20
ATOM     20  N   UNL A   1      34.647  31.256  27.269  1.00  0.00    -0.352 N 
ATOM     21  C   UNL A   1      35.758  31.852  27.868  1.00  0.00     0.251 C 
ATOM     22  H   UNL A   1      34.051  31.860  26.769  1.00  0.00     0.163 HD
ATOM     23  O   UNL A   1      35.777  33.051  28.092  1.00  0.00    -0.269 OA
BRANCH  21  24
ATOM     24  C   UNL A   1      36.914  30.995  28.211  1.00  0.00     0.039 A 
ATOM     25  C   UNL A   1      37.144  29.723  27.671  1.00  0.00     0.014 A 
ATOM     26  C   UNL A   1      37.820  31.541  29.104  1.00  0.00     0.014 A 
ATOM     27  C   UNL A   1      38.322  29.052  28.020  1.00  0.00     0.010 A 
ATOM     28  C   UNL A   1      39.082  31.043  29.173  1.00  0.00     0.010 A 
ATOM     29  C   UNL A   1      39.284  29.732  28.780  1.00  0.00    -0.014 A 
BRANCH  29  30
ATOM     30  C   UNL A   1      40.576  29.188  29.173  1.00  0.00     0.031 A 
ATOM     31  C   UNL A   1      40.716  28.970  30.631  1.00  0.00     0.074 A 
ATOM     32  C   UNL A   1      41.394  28.615  28.255  1.00  0.00     0.049 A 
ATOM     33  N   UNL A   1      41.495  29.602  31.440  1.00  0.00    -0.248 NA
ATOM     34  C   UNL A   1      39.754  28.085  31.310  1.00  0.00     0.031 C 
ATOM     35  C   UNL A   1      41.195  28.494  26.801  1.00  0.00     0.029 A 
ATOM     36  N   UNL A   1      42.523  27.884  28.446  1.00  0.00    -0.354 N 
ATOM     37  C   UNL A   1      41.311  29.009  32.683  1.00  0.00     0.074 A 
ATOM     38  C   UNL A   1      40.068  28.295  32.590  1.00  0.00     0.031 C 
ATOM     39  C   UNL A   1      42.030  27.554  26.301  1.00  0.00     0.029 A 
ATOM     40  C   UNL A   1      42.913  27.097  27.361  1.00  0.00     0.049 A 
ATOM     41  H   UNL A   1      43.031  27.908  29.289  1.00  0.00     0.167 HD
ATOM     42  C   UNL A   1      42.331  28.937  33.584  1.00  0.00     0.034 A 
ATOM     43  C   UNL A   1      43.864  26.118  27.347  1.00  0.00     0.034 A 
ATOM     44  C   UNL A   1      43.440  29.767  33.157  1.00  0.00     0.049 A 
ATOM     45  C   UNL A   1      44.753  26.395  28.508  1.00  0.00     0.074 A 
ATOM     46  C   UNL A   1      43.579  31.112  32.873  1.00  0.00     0.029 A 
ATOM     47  N   UNL A   1      44.507  29.144  32.543  1.00  0.00    -0.354 N 
ATOM     48  N   UNL A   1      45.487  27.474  28.592  1.00  0.00    -0.248 NA
ATOM     49  C   UNL A   1      44.415  25.785  29.789  1.00  0.00     0.031 C 
ATOM     50  C   UNL A   1      44.387  31.151  31.698  1.00  0.00     0.029 A 
ATOM     51  C   UNL A   1      44.799  29.849  31.399  1.00  0.00     0.049 A 
ATOM     52  H   UNL A   1      44.976  28.340  32.865  1.00  0.00     0.167 HD
ATOM     53  C   UNL A   1      45.316  27.927  29.893  1.00  0.00     0.074 A 
ATOM     54  C   UNL A   1      44.728  26.795  30.611  1.00  0.00     0.031 C 
ATOM     55  C   UNL A   1      45.365  29.261  30.195  1.00  0.00     0.034 A 
BRANCH  42  56
ATOM     56  C   UNL A   1      42.508  27.871  34.644  1.00  0.00     0.023 A 
ATOM     57  C   UNL A   1      43.263  26.738  34.282  1.00  0.00     0.031 A 
ATOM     58  C   UNL A   1      41.787  27.763  35.852  1.00  0.00     0.131 A 
ATOM     59  C   UNL A   1      43.193  25.551  35.026  1.00  0.00     0.055 A 
ATOM     60  C   UNL A   1      41.776  26.600  36.630  1.00  0.00     0.041 A 
ATOM     61  F   UNL A   1      40.981  28.725  36.312  1.00  0.00    -0.206 F 
ATOM     62  C   UNL A   1      42.452  25.472  36.200  1.00  0.00     0.022 A 
BRANCH  59  63
ATOM     63  S   UNL A   1      43.935  24.057  34.324  1.00  0.00     0.124 S 
ATOM     64  O   UNL A   1      45.042  23.819  35.243  1.00  0.00    -0.237 OA
ATOM     65  O   UNL A   1      42.825  23.112  34.391  1.00  0.00    -0.237 OA
ATOM     66  O   UNL A   1      44.321  24.472  32.978  1.00  0.00    -0.744 OA
ENDBRANCH  59  63
ENDBRANCH  42  56
BRANCH  43  67
ATOM     67  C   UNL A   1      43.837  24.824  26.589  1.00  0.00     0.023 A 
ATOM     68  C   UNL A   1      43.018  23.720  26.926  1.00  0.00     0.031 A 
ATOM     69  C   UNL A   1      44.490  24.750  25.336  1.00  0.00     0.131 A 
ATOM     70  C   UNL A   1      42.902  22.611  26.041  1.00  0.00     0.055 A 
ATOM     71  C   UNL A   1      44.385  23.651  24.478  1.00  0.00     0.041 A 
ATOM     72  F   UNL A   1      45.185  25.793  24.853  1.00  0.00    -0.206 F 
ATOM     73  C   UNL A   1      43.584  22.579  24.823  1.00  0.00     0.022 A 
BRANCH  70  74
ATOM     74  S   UNL A   1      41.765  21.225  26.401  1.00  0.00     0.124 S 
ATOM     75  O   UNL A   1      42.277  20.165  25.541  1.00  0.00    -0.237 OA
ATOM     76  O   UNL A   1      41.941  21.038  27.837  1.00  0.00    -0.237 OA
ATOM     77  O   UNL A   1      40.452  21.748  26.015  1.00  0.00    -0.744 OA
ENDBRANCH  70  74
ENDBRANCH  43  67
BRANCH  55  78
ATOM     78  C   UNL A   1      45.839  30.235  29.126  1.00  0.00     0.023 A 
ATOM     79  C   UNL A   1      44.991  31.002  28.292  1.00  0.00     0.031 A 
ATOM     80  C   UNL A   1      47.218  30.505  29.066  1.00  0.00     0.131 A 
ATOM     81  C   UNL A   1      45.534  31.984  27.439  1.00  0.00     0.055 A 
ATOM     82  C   UNL A   1      47.749  31.496  28.241  1.00  0.00     0.041 A 
ATOM     83  F   UNL A   1      48.076  29.834  29.852  1.00  0.00    -0.206 F 
ATOM     84  C   UNL A   1      46.909  32.237  27.419  1.00  0.00     0.022 A 
BRANCH  81  85
ATOM     85  S   UNL A   1      44.458  32.946  26.323  1.00  0.00     0.124 S 
ATOM     86  O   UNL A   1      43.652  31.924  25.666  1.00  0.00    -0.237 OA
ATOM     87  O   UNL A   1      43.746  33.825  27.247  1.00  0.00    -0.237 OA
ATOM     88  O   UNL A   1      45.409  33.632  25.443  1.00  0.00    -0.744 OA
ENDBRANCH  81  85
ENDBRANCH  55  78
ENDBRANCH  29  30
ENDBRANCH  21  24
ENDBRANCH  19  20
ENDBRANCH  18  19
ENDBRANCH   1  18
TORSDOF 18
ENDMDL
MODEL 3
REMARK VINA RESULT:     -10.9      5.217     10.188
REMARK SMILES O=C(CCCCCn1cc(Cl)c(I)n1)NCCCNC(=O)c1ccc(-c2c3nc(c(-c4cc(S(=O)(=O)[O-])ccc4F)c4ccc([nH]4)c(-c4cc(S(=O)(=O)[O-])ccc4F)c4nc(c(-c5cc(S(=O)(=O)[O-])ccc5F)c5ccc2[nH]5)C=C4)C=C3)cc1
REMARK SMILES IDX 16 1 15 2 1 3 2 4 3 6 4 7 5 8 6 9 7 10 8 11 9 12 14 13 10 14
REMARK SMILES IDX 12 15 11 16 13 17 17 18 18 19 19 20 20 21 21 23 22 24 23 25
REMARK SMILES IDX 84 26 24 27 83 28 25 29 26 30 27 31 77 32 28 33 82 34 76 35
REMARK SMILES IDX 78 36 29 37 81 38 75 39 74 40 30 42 62 43 42 44 61 45 43 46
REMARK SMILES IDX 46 47 60 48 79 49 44 50 45 51 59 53 80 54 47 55 31 56 32 57
REMARK SMILES IDX 40 58 33 59 39 60 41 61 38 62 34 63 35 64 36 65 37 66 63 67
REMARK SMILES IDX 64 68 72 69 65 70 71 71 73 72 70 73 66 74 67 75 68 76 69 77
REMARK SMILES IDX 48 78 49 79 57 80 50 81 56 82 58 83 55 84 51 85 52 86 53 87
REMARK SMILES IDX 54 88
REMARK H PARENT 15 5 19 22 78 41 46 52
REMARK Flexibility Score: inf
ROOT
ATOM      1  C   UNL A   1      35.453  33.090  33.337  1.00  0.00     0.117 C 
ENDROOT
BRANCH   1   2
ATOM      2  N   UNL A   1      36.702  32.345  33.262  1.00  0.00    -0.356 N 
ATOM      3  O   UNL A   1      38.085  34.177  33.145  1.00  0.00    -0.275 OA
ATOM      4  C   UNL A   1      37.934  32.964  33.256  1.00  0.00     0.219 C 
ATOM      5  H   UNL A   1      36.665  31.362  33.214  1.00  0.00     0.163 HD
BRANCH   4   6
ATOM      6  C   UNL A   1      39.110  32.019  33.437  1.00  0.00     0.100 C 
BRANCH   6   7
ATOM      7  C   UNL A   1      39.306  31.599  34.896  1.00  0.00     0.010 C 
BRANCH   7   8
ATOM      8  C   UNL A   1      40.746  31.645  35.420  1.00  0.00     0.002 C 
BRANCH   8   9
ATOM      9  C   UNL A   1      40.908  32.079  36.885  1.00  0.00     0.024 C 
BRANCH   9  10
ATOM     10  C   UNL A   1      39.983  33.221  37.319  1.00  0.00     0.144 C 
BRANCH  10  11
ATOM     11  N   UNL A   1      38.918  32.878  38.244  1.00  0.00    -0.270 N 
ATOM     12  C   UNL A   1      37.570  32.857  38.025  1.00  0.00     0.130 A 
ATOM     13  N   UNL A   1      39.250  32.565  39.511  1.00  0.00    -0.165 NA
ATOM     14  C   UNL A   1      36.989  32.536  39.229  1.00  0.00     0.092 A 
ATOM     15  C   UNL A   1      38.076  32.303  40.093  1.00  0.00     0.141 A 
ATOM     16  Cl  UNL A   1      35.326  32.468  39.554  1.00  0.00    -0.080 Cl
ATOM     17  I   UNL A   1      37.953  31.695  42.038  1.00  0.00    -0.018 I 
ENDBRANCH  10  11
ENDBRANCH   9  10
ENDBRANCH   8   9
ENDBRANCH   7   8
ENDBRANCH   6   7
ENDBRANCH   4   6
ENDBRANCH   1   2
BRANCH   1  18
ATOM     18  C   UNL A   1      34.852  33.425  31.968  1.00  0.00     0.042 C 
BRANCH  18  19
ATOM     19  C   UNL A   1      34.825  32.243  31.011  1.00  0.00     0.118 C 
BRANCH  19  20
ATOM     20  N   UNL A   1      34.865  32.602  29.586  1.00  0.00    -0.352 N 
ATOM     21  C   UNL A   1      35.920  32.442  28.687  1.00  0.00     0.251 C 
ATOM     22  H   UNL A   1      34.045  33.007  29.221  1.00  0.00     0.163 HD
ATOM     23  O   UNL A   1      35.969  33.099  27.660  1.00  0.00    -0.269 OA
BRANCH  21  24
ATOM     24  C   UNL A   1      36.968  31.447  29.005  1.00  0.00     0.039 A 
ATOM     25  C   UNL A   1      36.897  30.089  28.668  1.00  0.00     0.014 A 
ATOM     26  C   UNL A   1      38.089  31.942  29.649  1.00  0.00     0.014 A 
ATOM     27  C   UNL A   1      37.996  29.271  28.955  1.00  0.00     0.010 A 
ATOM     28  C   UNL A   1      39.248  31.236  29.621  1.00  0.00     0.010 A 
ATOM     29  C   UNL A   1      39.170  29.866  29.438  1.00  0.00    -0.014 A 
BRANCH  29  30
ATOM     30  C   UNL A   1      40.407  29.157  29.730  1.00  0.00     0.031 A 
ATOM     31  C   UNL A   1      40.634  28.917  31.174  1.00  0.00     0.074 A 
ATOM     32  C   UNL A   1      41.068  28.487  28.754  1.00  0.00     0.049 A 
ATOM     33  N   UNL A   1      41.551  29.439  31.914  1.00  0.00    -0.248 NA
ATOM     34  C   UNL A   1      39.623  28.162  31.933  1.00  0.00     0.031 C 
ATOM     35  C   UNL A   1      40.740  28.399  27.321  1.00  0.00     0.029 A 
ATOM     36  N   UNL A   1      42.104  27.615  28.859  1.00  0.00    -0.354 N 
ATOM     37  C   UNL A   1      41.391  28.870  33.171  1.00  0.00     0.074 A 
ATOM     38  C   UNL A   1      40.063  28.324  33.183  1.00  0.00     0.031 C 
ATOM     39  C   UNL A   1      41.403  27.360  26.762  1.00  0.00     0.029 A 
ATOM     40  C   UNL A   1      42.300  26.788  27.751  1.00  0.00     0.049 A 
ATOM     41  H   UNL A   1      42.677  27.569  29.658  1.00  0.00     0.167 HD
ATOM     42  C   UNL A   1      42.462  28.662  33.989  1.00  0.00     0.034 A 
ATOM     43  C   UNL A   1      43.112  25.694  27.667  1.00  0.00     0.034 A 
ATOM     44  C   UNL A   1      43.632  29.343  33.470  1.00  0.00     0.049 A 
ATOM     45  C   UNL A   1      44.120  25.848  28.752  1.00  0.00     0.074 A 
ATOM     46  C   UNL A   1      43.922  30.659  33.167  1.00  0.00     0.029 A 
ATOM     47  N   UNL A   1      44.557  28.589  32.776  1.00  0.00    -0.354 N 
ATOM     48  N   UNL A   1      44.992  26.823  28.770  1.00  0.00    -0.248 NA
ATOM     49  C   UNL A   1      43.810  25.282  30.059  1.00  0.00     0.031 C 
ATOM     50  C   UNL A   1      44.631  30.598  31.931  1.00  0.00     0.029 A 
ATOM     51  C   UNL A   1      44.845  29.255  31.608  1.00  0.00     0.049 A 
ATOM     52  H   UNL A   1      44.942  27.730  33.064  1.00  0.00     0.167 HD
ATOM     53  C   UNL A   1      44.987  27.288  30.077  1.00  0.00     0.074 A 
ATOM     54  C   UNL A   1      44.315  26.239  30.847  1.00  0.00     0.031 C 
ATOM     55  C   UNL A   1      45.232  28.604  30.366  1.00  0.00     0.034 A 
BRANCH  42  56
ATOM     56  C   UNL A   1      42.583  27.578  35.038  1.00  0.00     0.023 A 
ATOM     57  C   UNL A   1      43.358  26.452  34.697  1.00  0.00     0.031 A 
ATOM     58  C   UNL A   1      41.800  27.449  36.204  1.00  0.00     0.131 A 
ATOM     59  C   UNL A   1      43.249  25.251  35.415  1.00  0.00     0.055 A 
ATOM     60  C   UNL A   1      41.748  26.272  36.960  1.00  0.00     0.041 A 
ATOM     61  F   UNL A   1      40.970  28.403  36.637  1.00  0.00    -0.206 F 
ATOM     62  C   UNL A   1      42.447  25.152  36.547  1.00  0.00     0.022 A 
BRANCH  59  63
ATOM     63  S   UNL A   1      44.029  23.769  34.728  1.00  0.00     0.124 S 
ATOM     64  O   UNL A   1      45.034  24.349  33.845  1.00  0.00    -0.237 OA
ATOM     65  O   UNL A   1      44.528  23.110  35.930  1.00  0.00    -0.237 OA
ATOM     66  O   UNL A   1      42.926  23.089  34.055  1.00  0.00    -0.744 OA
ENDBRANCH  59  63
ENDBRANCH  42  56
BRANCH  43  67
ATOM     67  C   UNL A   1      42.857  24.418  26.922  1.00  0.00     0.023 A 
ATOM     68  C   UNL A   1      43.790  23.802  26.053  1.00  0.00     0.031 A 
ATOM     69  C   UNL A   1      41.718  23.646  27.254  1.00  0.00     0.131 A 
ATOM     70  C   UNL A   1      43.550  22.493  25.548  1.00  0.00     0.055 A 
ATOM     71  C   UNL A   1      41.480  22.368  26.742  1.00  0.00     0.041 A 
ATOM     72  F   UNL A   1      40.835  24.073  28.171  1.00  0.00    -0.206 F 
ATOM     73  C   UNL A   1      42.399  21.781  25.891  1.00  0.00     0.022 A 
BRANCH  70  74
ATOM     74  S   UNL A   1      44.789  21.633  24.515  1.00  0.00     0.124 S 
ATOM     75  O   UNL A   1      44.631  22.287  23.222  1.00  0.00    -0.237 OA
ATOM     76  O   UNL A   1      46.033  21.897  25.229  1.00  0.00    -0.237 OA
ATOM     77  O   UNL A   1      44.355  20.234  24.552  1.00  0.00    -0.744 OA
ENDBRANCH  70  74
ENDBRANCH  43  67
BRANCH  55  78
ATOM     78  C   UNL A   1      45.741  29.512  29.257  1.00  0.00     0.023 A 
ATOM     79  C   UNL A   1      44.923  30.295  28.408  1.00  0.00     0.031 A 
ATOM     80  C   UNL A   1      47.132  29.703  29.168  1.00  0.00     0.131 A 
ATOM     81  C   UNL A   1      45.506  31.216  27.513  1.00  0.00     0.055 A 
ATOM     82  C   UNL A   1      47.703  30.634  28.301  1.00  0.00     0.041 A 
ATOM     83  F   UNL A   1      47.965  29.013  29.965  1.00  0.00    -0.206 F 
ATOM     84  C   UNL A   1      46.892  31.391  27.465  1.00  0.00     0.022 A 
BRANCH  81  85
ATOM     85  S   UNL A   1      44.466  32.196  26.378  1.00  0.00     0.124 S 
ATOM     86  O   UNL A   1      45.405  32.636  25.354  1.00  0.00    -0.237 OA
ATOM     87  O   UNL A   1      43.461  31.227  25.951  1.00  0.00    -0.237 OA
ATOM     88  O   UNL A   1      43.950  33.268  27.233  1.00  0.00    -0.744 OA
ENDBRANCH  81  85
ENDBRANCH  55  78
ENDBRANCH  29  30
ENDBRANCH  21  24
ENDBRANCH  19  20
ENDBRANCH  18  19
ENDBRANCH   1  18
TORSDOF 18
ENDMDL
