MODEL 1
REMARK VINA RESULT:     -12.6      0.000      0.000
REMARK SMILES COc1ccc2c(CC(=O)NCCCNC(=O)c3ccc(-c4c5nc(c(-c6cc(S(=O)(=O)[O-])ccc6F)c6ccc([nH]6)c(-c6cc(S(=O)(=O)[O-])ccc6F)c6nc(c(-c7cc(S(=O)(=O)[O-])ccc7F)c7ccc4[nH]7)C=C6)C=C5)cc3)c(C(=O)c3cc(C)ccn3)[nH]c2c1
REMARK SMILES IDX 13 1 12 2 11 3 9 4 10 5 8 7 7 8 3 9 4 10 93 11 5 12 92 13
REMARK SMILES IDX 6 14 91 15 81 16 2 18 1 19 82 20 83 21 84 22 85 23 90 24
REMARK SMILES IDX 86 25 89 26 87 27 88 28 14 29 15 30 16 31 17 33 18 34 19 35
REMARK SMILES IDX 80 36 20 37 79 38 21 39 22 40 23 41 73 42 24 43 78 44 72 45
REMARK SMILES IDX 74 46 25 47 77 48 71 49 70 50 26 52 58 53 38 54 57 55 39 56
REMARK SMILES IDX 42 57 56 58 75 59 40 60 41 61 55 63 76 64 43 65 27 66 28 67
REMARK SMILES IDX 36 68 29 69 35 70 37 71 34 72 30 73 31 74 32 75 33 76 59 77
REMARK SMILES IDX 60 78 68 79 61 80 67 81 69 82 66 83 62 84 63 85 64 86 65 87
REMARK SMILES IDX 44 88 45 89 53 90 46 91 52 92 54 93 51 94 47 95 48 96 49 97
REMARK SMILES IDX 50 98
REMARK H PARENT 11 6 91 17 15 32 74 51 42 62
REMARK Flexibility Score: inf
ROOT
ATOM      1  C   UNL A   1      31.252  32.085  26.416  1.00  0.00     0.042 C 
ENDROOT
BRANCH   1   2
ATOM      2  C   UNL A   1      31.420  30.795  25.620  1.00  0.00     0.117 C 
BRANCH   2   3
ATOM      3  N   UNL A   1      32.610  30.051  25.980  1.00  0.00    -0.356 N 
ATOM      4  C   UNL A   1      32.775  28.711  26.190  1.00  0.00     0.224 C 
ATOM      5  O   UNL A   1      33.935  28.297  26.258  1.00  0.00    -0.275 OA
ATOM      6  H   UNL A   1      33.424  30.594  26.092  1.00  0.00     0.163 HD
BRANCH   4   7
ATOM      7  C   UNL A   1      31.588  27.755  26.196  1.00  0.00     0.138 C 
BRANCH   7   8
ATOM      8  C   UNL A   1      31.649  26.649  25.176  1.00  0.00    -0.002 A 
ATOM      9  C   UNL A   1      31.493  22.436  25.368  1.00  0.00     0.120 A 
ATOM     10  C   UNL A   1      31.334  23.095  26.585  1.00  0.00     0.047 A 
ATOM     11  C   UNL A   1      31.723  23.161  24.193  1.00  0.00     0.073 A 
ATOM     12  C   UNL A   1      31.362  24.494  26.646  1.00  0.00     0.014 A 
ATOM     13  C   UNL A   1      31.728  24.558  24.272  1.00  0.00     0.050 A 
ATOM     14  C   UNL A   1      31.555  25.246  25.467  1.00  0.00     0.004 A 
ATOM     15  N   UNL A   1      31.902  25.500  23.287  1.00  0.00    -0.351 N 
ATOM     16  C   UNL A   1      31.736  26.775  23.787  1.00  0.00     0.093 A 
ATOM     17  H   UNL A   1      32.117  25.291  22.349  1.00  0.00     0.167 HD
BRANCH   9  18
ATOM     18  O   UNL A   1      31.484  21.075  25.218  1.00  0.00    -0.497 OA
ATOM     19  C   UNL A   1      32.412  20.568  24.264  1.00  0.00     0.278 C 
ENDBRANCH   9  18
BRANCH  16  20
ATOM     20  C   UNL A   1      31.684  27.993  22.982  1.00  0.00     0.227 C 
ATOM     21  O   UNL A   1      32.689  28.590  22.599  1.00  0.00    -0.285 OA
BRANCH  20  22
ATOM     22  C   UNL A   1      30.365  28.604  22.676  1.00  0.00     0.113 A 
ATOM     23  C   UNL A   1      29.211  28.083  23.256  1.00  0.00     0.036 A 
ATOM     24  N   UNL A   1      30.379  29.677  21.848  1.00  0.00    -0.253 NA
ATOM     25  C   UNL A   1      27.990  28.696  22.967  1.00  0.00    -0.047 A 
ATOM     26  C   UNL A   1      29.190  30.265  21.604  1.00  0.00     0.112 A 
ATOM     27  C   UNL A   1      26.706  28.191  23.554  1.00  0.00     0.044 C 
ATOM     28  C   UNL A   1      27.987  29.816  22.130  1.00  0.00     0.023 A 
ENDBRANCH  20  22
ENDBRANCH  16  20
ENDBRANCH   7   8
ENDBRANCH   4   7
ENDBRANCH   2   3
ENDBRANCH   1   2
BRANCH   1  29
ATOM     29  C   UNL A   1      32.453  32.456  27.284  1.00  0.00     0.118 C 
BRANCH  29  30
ATOM     30  N   UNL A   1      32.465  33.863  27.660  1.00  0.00    -0.352 N 
ATOM     31  C   UNL A   1      33.228  34.538  28.579  1.00  0.00     0.251 C 
ATOM     32  H   UNL A   1      31.818  34.422  27.173  1.00  0.00     0.163 HD
ATOM     33  O   UNL A   1      32.930  35.698  28.855  1.00  0.00    -0.269 OA
BRANCH  31  34
ATOM     34  C   UNL A   1      34.382  33.893  29.250  1.00  0.00     0.039 A 
ATOM     35  C   UNL A   1      35.674  34.281  28.879  1.00  0.00     0.014 A 
ATOM     36  C   UNL A   1      34.211  32.875  30.192  1.00  0.00     0.014 A 
ATOM     37  C   UNL A   1      36.786  33.695  29.490  1.00  0.00     0.010 A 
ATOM     38  C   UNL A   1      35.319  32.335  30.847  1.00  0.00     0.010 A 
ATOM     39  C   UNL A   1      36.619  32.738  30.503  1.00  0.00    -0.014 A 
BRANCH  39  40
ATOM     40  C   UNL A   1      37.789  32.142  31.204  1.00  0.00     0.031 A 
ATOM     41  C   UNL A   1      38.537  30.994  30.580  1.00  0.00     0.074 A 
ATOM     42  C   UNL A   1      38.142  32.594  32.423  1.00  0.00     0.049 A 
ATOM     43  N   UNL A   1      39.502  30.265  31.078  1.00  0.00    -0.248 NA
ATOM     44  C   UNL A   1      38.126  30.602  29.223  1.00  0.00     0.031 C 
ATOM     45  C   UNL A   1      37.483  33.686  33.144  1.00  0.00     0.029 A 
ATOM     46  N   UNL A   1      39.133  32.184  33.281  1.00  0.00    -0.354 N 
ATOM     47  C   UNL A   1      39.812  29.324  30.102  1.00  0.00     0.074 A 
ATOM     48  C   UNL A   1      38.892  29.543  29.005  1.00  0.00     0.031 C 
ATOM     49  C   UNL A   1      38.091  33.863  34.328  1.00  0.00     0.029 A 
ATOM     50  C   UNL A   1      39.154  32.872  34.473  1.00  0.00     0.049 A 
ATOM     51  H   UNL A   1      39.771  31.466  33.063  1.00  0.00     0.167 HD
ATOM     52  C   UNL A   1      40.784  28.378  30.110  1.00  0.00     0.034 A 
ATOM     53  C   UNL A   1      39.926  32.710  35.567  1.00  0.00     0.034 A 
ATOM     54  C   UNL A   1      41.700  28.172  31.205  1.00  0.00     0.049 A 
ATOM     55  C   UNL A   1      40.987  31.638  35.559  1.00  0.00     0.074 A 
ATOM     56  C   UNL A   1      42.725  27.246  31.313  1.00  0.00     0.029 A 
ATOM     57  N   UNL A   1      41.707  28.907  32.383  1.00  0.00    -0.354 N 
ATOM     58  N   UNL A   1      41.271  30.764  34.621  1.00  0.00    -0.248 NA
ATOM     59  C   UNL A   1      41.841  31.539  36.750  1.00  0.00     0.031 C 
ATOM     60  C   UNL A   1      43.321  27.393  32.571  1.00  0.00     0.029 A 
ATOM     61  C   UNL A   1      42.709  28.451  33.224  1.00  0.00     0.049 A 
ATOM     62  H   UNL A   1      41.090  29.646  32.590  1.00  0.00     0.167 HD
ATOM     63  C   UNL A   1      42.358  30.036  35.098  1.00  0.00     0.074 A 
ATOM     64  C   UNL A   1      42.686  30.583  36.398  1.00  0.00     0.031 C 
ATOM     65  C   UNL A   1      43.026  29.010  34.515  1.00  0.00     0.034 A 
BRANCH  52  66
ATOM     66  C   UNL A   1      40.891  27.485  28.898  1.00  0.00     0.023 A 
ATOM     67  C   UNL A   1      41.850  27.719  27.898  1.00  0.00     0.031 A 
ATOM     68  C   UNL A   1      40.016  26.396  28.732  1.00  0.00     0.131 A 
ATOM     69  C   UNL A   1      41.873  26.917  26.747  1.00  0.00     0.055 A 
ATOM     70  C   UNL A   1      40.092  25.556  27.619  1.00  0.00     0.041 A 
ATOM     71  F   UNL A   1      39.069  26.135  29.645  1.00  0.00    -0.206 F 
ATOM     72  C   UNL A   1      41.017  25.822  26.612  1.00  0.00     0.022 A 
BRANCH  69  73
ATOM     73  S   UNL A   1      42.960  27.396  25.378  1.00  0.00     0.124 S 
ATOM     74  O   UNL A   1      44.135  27.887  26.095  1.00  0.00    -0.237 OA
ATOM     75  O   UNL A   1      43.130  26.142  24.654  1.00  0.00    -0.237 OA
ATOM     76  O   UNL A   1      42.193  28.423  24.675  1.00  0.00    -0.744 OA
ENDBRANCH  69  73
ENDBRANCH  52  66
BRANCH  53  77
ATOM     77  C   UNL A   1      39.720  33.560  36.775  1.00  0.00     0.023 A 
ATOM     78  C   UNL A   1      39.091  33.048  37.920  1.00  0.00     0.031 A 
ATOM     79  C   UNL A   1      40.088  34.917  36.776  1.00  0.00     0.131 A 
ATOM     80  C   UNL A   1      38.791  33.901  38.994  1.00  0.00     0.055 A 
ATOM     81  C   UNL A   1      39.839  35.748  37.871  1.00  0.00     0.041 A 
ATOM     82  F   UNL A   1      40.697  35.458  35.709  1.00  0.00    -0.206 F 
ATOM     83  C   UNL A   1      39.171  35.244  38.982  1.00  0.00     0.022 A 
BRANCH  80  84
ATOM     84  S   UNL A   1      37.789  33.253  40.361  1.00  0.00     0.124 S 
ATOM     85  O   UNL A   1      37.706  34.410  41.245  1.00  0.00    -0.237 OA
ATOM     86  O   UNL A   1      36.556  32.877  39.678  1.00  0.00    -0.237 OA
ATOM     87  O   UNL A   1      38.586  32.137  40.867  1.00  0.00    -0.744 OA
ENDBRANCH  80  84
ENDBRANCH  53  77
BRANCH  65  88
ATOM     88  C   UNL A   1      44.216  28.459  35.261  1.00  0.00     0.023 A 
ATOM     89  C   UNL A   1      44.077  27.468  36.247  1.00  0.00     0.031 A 
ATOM     90  C   UNL A   1      45.505  28.948  34.988  1.00  0.00     0.131 A 
ATOM     91  C   UNL A   1      45.202  27.037  36.966  1.00  0.00     0.055 A 
ATOM     92  C   UNL A   1      46.628  28.478  35.669  1.00  0.00     0.041 A 
ATOM     93  F   UNL A   1      45.692  29.895  34.054  1.00  0.00    -0.206 F 
ATOM     94  C   UNL A   1      46.478  27.526  36.674  1.00  0.00     0.022 A 
BRANCH  91  95
ATOM     95  S   UNL A   1      44.965  25.884  38.347  1.00  0.00     0.124 S 
ATOM     96  O   UNL A   1      46.310  25.800  38.907  1.00  0.00    -0.237 OA
ATOM     97  O   UNL A   1      43.976  26.578  39.165  1.00  0.00    -0.237 OA
ATOM     98  O   UNL A   1      44.484  24.665  37.698  1.00  0.00    -0.744 OA
ENDBRANCH  91  95
ENDBRANCH  65  88
ENDBRANCH  39  40
ENDBRANCH  31  34
ENDBRANCH  29  30
ENDBRANCH   1  29
TORSDOF 17
ENDMDL
MODEL 2
REMARK VINA RESULT:     -12.6      2.144      2.929
REMARK SMILES COc1ccc2c(CC(=O)NCCCNC(=O)c3ccc(-c4c5nc(c(-c6cc(S(=O)(=O)[O-])ccc6F)c6ccc([nH]6)c(-c6cc(S(=O)(=O)[O-])ccc6F)c6nc(c(-c7cc(S(=O)(=O)[O-])ccc7F)c7ccc4[nH]7)C=C6)C=C5)cc3)c(C(=O)c3cc(C)ccn3)[nH]c2c1
REMARK SMILES IDX 13 1 12 2 11 3 9 4 10 5 8 7 7 8 3 9 4 10 93 11 5 12 92 13
REMARK SMILES IDX 6 14 91 15 81 16 2 18 1 19 82 20 83 21 84 22 85 23 90 24
REMARK SMILES IDX 86 25 89 26 87 27 88 28 14 29 15 30 16 31 17 33 18 34 19 35
REMARK SMILES IDX 80 36 20 37 79 38 21 39 22 40 23 41 73 42 24 43 78 44 72 45
REMARK SMILES IDX 74 46 25 47 77 48 71 49 70 50 26 52 58 53 38 54 57 55 39 56
REMARK SMILES IDX 42 57 56 58 75 59 40 60 41 61 55 63 76 64 43 65 27 66 28 67
REMARK SMILES IDX 36 68 29 69 35 70 37 71 34 72 30 73 31 74 32 75 33 76 59 77
REMARK SMILES IDX 60 78 68 79 61 80 67 81 69 82 66 83 62 84 63 85 64 86 65 87
REMARK SMILES IDX 44 88 45 89 53 90 46 91 52 92 54 93 51 94 47 95 48 96 49 97
REMARK SMILES IDX 50 98
REMARK H PARENT 11 6 91 17 15 32 74 51 42 62
REMARK Flexibility Score: inf
ROOT
ATOM      1  C   UNL A   1      33.255  29.172  24.594  1.00  0.00     0.042 C 
ENDROOT
BRANCH   1   2
ATOM      2  C   UNL A   1      33.952  27.819  24.503  1.00  0.00     0.117 C 
BRANCH   2   3
ATOM      3  N   UNL A   1      33.445  26.849  25.453  1.00  0.00    -0.356 N 
ATOM      4  C   UNL A   1      33.640  25.498  25.514  1.00  0.00     0.224 C 
ATOM      5  O   UNL A   1      33.291  24.932  26.553  1.00  0.00    -0.275 OA
ATOM      6  H   UNL A   1      32.871  27.219  26.162  1.00  0.00     0.163 HD
BRANCH   4   7
ATOM      7  C   UNL A   1      34.385  24.752  24.413  1.00  0.00     0.138 C 
BRANCH   7   8
ATOM      8  C   UNL A   1      33.556  23.769  23.630  1.00  0.00    -0.002 A 
ATOM      9  C   UNL A   1      32.691  19.657  24.018  1.00  0.00     0.120 A 
ATOM     10  C   UNL A   1      33.481  20.198  25.030  1.00  0.00     0.047 A 
ATOM     11  C   UNL A   1      32.267  20.451  22.946  1.00  0.00     0.073 A 
ATOM     12  C   UNL A   1      33.829  21.555  25.011  1.00  0.00     0.014 A 
ATOM     13  C   UNL A   1      32.610  21.808  22.956  1.00  0.00     0.050 A 
ATOM     14  C   UNL A   1      33.381  22.382  23.960  1.00  0.00     0.004 A 
ATOM     15  N   UNL A   1      32.310  22.803  22.059  1.00  0.00    -0.351 N 
ATOM     16  C   UNL A   1      32.766  24.027  22.506  1.00  0.00     0.093 A 
ATOM     17  H   UNL A   1      31.832  22.662  21.209  1.00  0.00     0.167 HD
BRANCH   9  18
ATOM     18  O   UNL A   1      32.308  18.343  23.954  1.00  0.00    -0.497 OA
ATOM     19  C   UNL A   1      32.590  17.576  25.119  1.00  0.00     0.278 C 
ENDBRANCH   9  18
BRANCH  16  20
ATOM     20  C   UNL A   1      32.468  25.314  21.882  1.00  0.00     0.227 C 
ATOM     21  O   UNL A   1      33.117  25.773  20.943  1.00  0.00    -0.285 OA
BRANCH  20  22
ATOM     22  C   UNL A   1      31.391  26.164  22.452  1.00  0.00     0.113 A 
ATOM     23  C   UNL A   1      31.243  27.477  22.012  1.00  0.00     0.036 A 
ATOM     24  N   UNL A   1      30.585  25.577  23.370  1.00  0.00    -0.253 NA
ATOM     25  C   UNL A   1      30.206  28.243  22.549  1.00  0.00    -0.047 A 
ATOM     26  C   UNL A   1      29.577  26.330  23.855  1.00  0.00     0.112 A 
ATOM     27  C   UNL A   1      29.985  29.663  22.125  1.00  0.00     0.044 C 
ATOM     28  C   UNL A   1      29.352  27.647  23.483  1.00  0.00     0.023 A 
ENDBRANCH  20  22
ENDBRANCH  16  20
ENDBRANCH   7   8
ENDBRANCH   4   7
ENDBRANCH   2   3
ENDBRANCH   1   2
BRANCH   1  29
ATOM     29  C   UNL A   1      32.429  29.377  25.862  1.00  0.00     0.118 C 
BRANCH  29  30
ATOM     30  N   UNL A   1      32.134  30.778  26.125  1.00  0.00    -0.352 N 
ATOM     31  C   UNL A   1      32.734  31.677  26.971  1.00  0.00     0.251 C 
ATOM     32  H   UNL A   1      31.378  31.141  25.609  1.00  0.00     0.163 HD
ATOM     33  O   UNL A   1      32.189  32.763  27.160  1.00  0.00    -0.269 OA
BRANCH  31  34
ATOM     34  C   UNL A   1      34.002  31.357  27.666  1.00  0.00     0.039 A 
ATOM     35  C   UNL A   1      34.893  32.399  27.947  1.00  0.00     0.014 A 
ATOM     36  C   UNL A   1      34.354  30.044  27.991  1.00  0.00     0.014 A 
ATOM     37  C   UNL A   1      36.099  32.137  28.602  1.00  0.00     0.010 A 
ATOM     38  C   UNL A   1      35.530  29.789  28.699  1.00  0.00     0.010 A 
ATOM     39  C   UNL A   1      36.415  30.832  29.013  1.00  0.00    -0.014 A 
BRANCH  39  40
ATOM     40  C   UNL A   1      37.669  30.539  29.759  1.00  0.00     0.031 A 
ATOM     41  C   UNL A   1      38.728  29.664  29.140  1.00  0.00     0.074 A 
ATOM     42  C   UNL A   1      37.832  31.013  31.009  1.00  0.00     0.049 A 
ATOM     43  N   UNL A   1      39.830  29.197  29.668  1.00  0.00    -0.248 NA
ATOM     44  C   UNL A   1      38.499  29.239  27.750  1.00  0.00     0.031 C 
ATOM     45  C   UNL A   1      36.871  31.853  31.727  1.00  0.00     0.029 A 
ATOM     46  N   UNL A   1      38.857  30.844  31.908  1.00  0.00    -0.354 N 
ATOM     47  C   UNL A   1      40.425  28.420  28.681  1.00  0.00     0.074 A 
ATOM     48  C   UNL A   1      39.531  28.435  27.541  1.00  0.00     0.031 C 
ATOM     49  C   UNL A   1      37.355  32.132  32.948  1.00  0.00     0.029 A 
ATOM     50  C   UNL A   1      38.637  31.456  33.121  1.00  0.00     0.049 A 
ATOM     51  H   UNL A   1      39.674  30.333  31.703  1.00  0.00     0.167 HD
ATOM     52  C   UNL A   1      41.616  27.769  28.713  1.00  0.00     0.034 A 
ATOM     53  C   UNL A   1      39.374  31.457  34.250  1.00  0.00     0.034 A 
ATOM     54  C   UNL A   1      42.502  27.766  29.850  1.00  0.00     0.049 A 
ATOM     55  C   UNL A   1      40.684  30.709  34.267  1.00  0.00     0.074 A 
ATOM     56  C   UNL A   1      43.734  27.144  29.985  1.00  0.00     0.029 A 
ATOM     57  N   UNL A   1      42.258  28.421  31.050  1.00  0.00    -0.354 N 
ATOM     58  N   UNL A   1      41.235  29.987  33.319  1.00  0.00    -0.248 NA
ATOM     59  C   UNL A   1      41.478  30.787  35.500  1.00  0.00     0.031 C 
ATOM     60  C   UNL A   1      44.210  27.387  31.278  1.00  0.00     0.029 A 
ATOM     61  C   UNL A   1      43.307  28.211  31.931  1.00  0.00     0.049 A 
ATOM     62  H   UNL A   1      41.455  28.957  31.246  1.00  0.00     0.167 HD
ATOM     63  C   UNL A   1      42.456  29.556  33.832  1.00  0.00     0.074 A 
ATOM     64  C   UNL A   1      42.565  30.110  35.165  1.00  0.00     0.031 C 
ATOM     65  C   UNL A   1      43.402  28.774  33.254  1.00  0.00     0.034 A 
BRANCH  52  66
ATOM     66  C   UNL A   1      42.014  26.995  27.480  1.00  0.00     0.023 A 
ATOM     67  C   UNL A   1      41.834  25.604  27.399  1.00  0.00     0.031 A 
ATOM     68  C   UNL A   1      42.591  27.651  26.378  1.00  0.00     0.131 A 
ATOM     69  C   UNL A   1      42.284  24.903  26.271  1.00  0.00     0.055 A 
ATOM     70  C   UNL A   1      42.970  26.957  25.226  1.00  0.00     0.041 A 
ATOM     71  F   UNL A   1      42.804  28.975  26.405  1.00  0.00    -0.206 F 
ATOM     72  C   UNL A   1      42.828  25.573  25.173  1.00  0.00     0.022 A 
BRANCH  69  73
ATOM     73  S   UNL A   1      42.253  23.091  26.306  1.00  0.00     0.124 S 
ATOM     74  O   UNL A   1      40.866  22.829  26.682  1.00  0.00    -0.237 OA
ATOM     75  O   UNL A   1      42.623  22.740  24.940  1.00  0.00    -0.237 OA
ATOM     76  O   UNL A   1      43.244  22.751  27.326  1.00  0.00    -0.744 OA
ENDBRANCH  69  73
ENDBRANCH  52  66
BRANCH  53  77
ATOM     77  C   UNL A   1      38.892  32.163  35.471  1.00  0.00     0.023 A 
ATOM     78  C   UNL A   1      38.362  31.450  36.558  1.00  0.00     0.031 A 
ATOM     79  C   UNL A   1      38.890  33.568  35.541  1.00  0.00     0.131 A 
ATOM     80  C   UNL A   1      37.796  32.141  37.640  1.00  0.00     0.055 A 
ATOM     81  C   UNL A   1      38.378  34.250  36.647  1.00  0.00     0.041 A 
ATOM     82  F   UNL A   1      39.389  34.299  34.533  1.00  0.00    -0.206 F 
ATOM     83  C   UNL A   1      37.810  33.536  37.697  1.00  0.00     0.022 A 
BRANCH  80  84
ATOM     84  S   UNL A   1      36.931  31.190  38.920  1.00  0.00     0.124 S 
ATOM     85  O   UNL A   1      37.871  31.264  40.033  1.00  0.00    -0.237 OA
ATOM     86  O   UNL A   1      35.693  31.947  39.073  1.00  0.00    -0.237 OA
ATOM     87  O   UNL A   1      36.781  29.867  38.317  1.00  0.00    -0.744 OA
ENDBRANCH  80  84
ENDBRANCH  53  77
BRANCH  65  88
ATOM     88  C   UNL A   1      44.661  28.528  34.048  1.00  0.00     0.023 A 
ATOM     89  C   UNL A   1      44.785  27.433  34.920  1.00  0.00     0.031 A 
ATOM     90  C   UNL A   1      45.746  29.415  33.938  1.00  0.00     0.131 A 
ATOM     91  C   UNL A   1      45.946  27.284  35.691  1.00  0.00     0.055 A 
ATOM     92  C   UNL A   1      46.920  29.233  34.669  1.00  0.00     0.041 A 
ATOM     93  F   UNL A   1      45.679  30.477  33.119  1.00  0.00    -0.206 F 
ATOM     94  C   UNL A   1      47.020  28.168  35.562  1.00  0.00     0.022 A 
BRANCH  91  95
ATOM     95  S   UNL A   1      46.005  25.959  36.930  1.00  0.00     0.124 S 
ATOM     96  O   UNL A   1      45.184  24.925  36.310  1.00  0.00    -0.237 OA
ATOM     97  O   UNL A   1      47.434  25.674  37.012  1.00  0.00    -0.237 OA
ATOM     98  O   UNL A   1      45.429  26.578  38.123  1.00  0.00    -0.744 OA
ENDBRANCH  91  95
ENDBRANCH  65  88
ENDBRANCH  39  40
ENDBRANCH  31  34
ENDBRANCH  29  30
ENDBRANCH   1  29
TORSDOF 17
ENDMDL
MODEL 3
REMARK VINA RESULT:     -12.4      1.360      1.746
REMARK SMILES COc1ccc2c(CC(=O)NCCCNC(=O)c3ccc(-c4c5nc(c(-c6cc(S(=O)(=O)[O-])ccc6F)c6ccc([nH]6)c(-c6cc(S(=O)(=O)[O-])ccc6F)c6nc(c(-c7cc(S(=O)(=O)[O-])ccc7F)c7ccc4[nH]7)C=C6)C=C5)cc3)c(C(=O)c3cc(C)ccn3)[nH]c2c1
REMARK SMILES IDX 13 1 12 2 11 3 9 4 10 5 8 7 7 8 3 9 4 10 93 11 5 12 92 13
REMARK SMILES IDX 6 14 91 15 81 16 2 18 1 19 82 20 83 21 84 22 85 23 90 24
REMARK SMILES IDX 86 25 89 26 87 27 88 28 14 29 15 30 16 31 17 33 18 34 19 35
REMARK SMILES IDX 80 36 20 37 79 38 21 39 22 40 23 41 73 42 24 43 78 44 72 45
REMARK SMILES IDX 74 46 25 47 77 48 71 49 70 50 26 52 58 53 38 54 57 55 39 56
REMARK SMILES IDX 42 57 56 58 75 59 40 60 41 61 55 63 76 64 43 65 27 66 28 67
REMARK SMILES IDX 36 68 29 69 35 70 37 71 34 72 30 73 31 74 32 75 33 76 59 77
REMARK SMILES IDX 60 78 68 79 61 80 67 81 69 82 66 83 62 84 63 85 64 86 65 87
REMARK SMILES IDX 44 88 45 89 53 90 46 91 52 92 54 93 51 94 47 95 48 96 49 97
REMARK SMILES IDX 50 98
REMARK H PARENT 11 6 91 17 15 32 74 51 42 62
REMARK Flexibility Score: inf
ROOT
ATOM      1  C   UNL A   1      31.400  31.878  26.576  1.00  0.00     0.042 C 
ENDROOT
BRANCH   1   2
ATOM      2  C   UNL A   1      31.620  30.615  25.749  1.00  0.00     0.117 C 
BRANCH   2   3
ATOM      3  N   UNL A   1      32.761  29.836  26.187  1.00  0.00    -0.356 N 
ATOM      4  C   UNL A   1      32.859  28.500  26.450  1.00  0.00     0.224 C 
ATOM      5  O   UNL A   1      33.997  28.041  26.583  1.00  0.00    -0.275 OA
ATOM      6  H   UNL A   1      33.591  30.349  26.315  1.00  0.00     0.163 HD
BRANCH   4   7
ATOM      7  C   UNL A   1      31.633  27.594  26.436  1.00  0.00     0.138 C 
BRANCH   7   8
ATOM      8  C   UNL A   1      31.636  26.525  25.377  1.00  0.00    -0.002 A 
ATOM      9  C   UNL A   1      31.575  22.305  25.431  1.00  0.00     0.120 A 
ATOM     10  C   UNL A   1      31.499  22.919  26.679  1.00  0.00     0.047 A 
ATOM     11  C   UNL A   1      31.699  23.074  24.268  1.00  0.00     0.073 A 
ATOM     12  C   UNL A   1      31.506  24.316  26.787  1.00  0.00     0.014 A 
ATOM     13  C   UNL A   1      31.684  24.468  24.396  1.00  0.00     0.050 A 
ATOM     14  C   UNL A   1      31.592  25.111  25.624  1.00  0.00     0.004 A 
ATOM     15  N   UNL A   1      31.763  25.446  23.435  1.00  0.00    -0.351 N 
ATOM     16  C   UNL A   1      31.612  26.700  23.990  1.00  0.00     0.093 A 
ATOM     17  H   UNL A   1      31.908  25.274  22.475  1.00  0.00     0.167 HD
BRANCH   9  18
ATOM     18  O   UNL A   1      31.580  20.950  25.234  1.00  0.00    -0.497 OA
ATOM     19  C   UNL A   1      32.741  20.440  24.586  1.00  0.00     0.278 C 
ENDBRANCH   9  18
BRANCH  16  20
ATOM     20  C   UNL A   1      31.474  27.943  23.235  1.00  0.00     0.227 C 
ATOM     21  O   UNL A   1      32.436  28.596  22.833  1.00  0.00    -0.285 OA
BRANCH  20  22
ATOM     22  C   UNL A   1      30.119  28.507  23.009  1.00  0.00     0.113 A 
ATOM     23  C   UNL A   1      29.984  29.772  22.440  1.00  0.00     0.036 A 
ATOM     24  N   UNL A   1      29.074  27.718  23.358  1.00  0.00    -0.253 NA
ATOM     25  C   UNL A   1      28.697  30.264  22.217  1.00  0.00    -0.047 A 
ATOM     26  C   UNL A   1      27.841  28.207  23.111  1.00  0.00     0.112 A 
ATOM     27  C   UNL A   1      28.473  31.615  21.609  1.00  0.00     0.044 C 
ATOM     28  C   UNL A   1      27.606  29.456  22.553  1.00  0.00     0.023 A 
ENDBRANCH  20  22
ENDBRANCH  16  20
ENDBRANCH   7   8
ENDBRANCH   4   7
ENDBRANCH   2   3
ENDBRANCH   1   2
BRANCH   1  29
ATOM     29  C   UNL A   1      32.660  32.431  27.238  1.00  0.00     0.118 C 
BRANCH  29  30
ATOM     30  N   UNL A   1      32.537  33.835  27.604  1.00  0.00    -0.352 N 
ATOM     31  C   UNL A   1      33.206  34.578  28.544  1.00  0.00     0.251 C 
ATOM     32  H   UNL A   1      31.861  34.334  27.091  1.00  0.00     0.163 HD
ATOM     33  O   UNL A   1      32.798  35.709  28.802  1.00  0.00    -0.269 OA
BRANCH  31  34
ATOM     34  C   UNL A   1      34.387  34.039  29.260  1.00  0.00     0.039 A 
ATOM     35  C   UNL A   1      34.178  33.185  30.348  1.00  0.00     0.014 A 
ATOM     36  C   UNL A   1      35.690  34.409  28.914  1.00  0.00     0.014 A 
ATOM     37  C   UNL A   1      35.267  32.657  31.047  1.00  0.00     0.010 A 
ATOM     38  C   UNL A   1      36.778  33.834  29.572  1.00  0.00     0.010 A 
ATOM     39  C   UNL A   1      36.579  32.952  30.646  1.00  0.00    -0.014 A 
BRANCH  39  40
ATOM     40  C   UNL A   1      37.753  32.358  31.342  1.00  0.00     0.031 A 
ATOM     41  C   UNL A   1      38.519  31.230  30.702  1.00  0.00     0.074 A 
ATOM     42  C   UNL A   1      38.094  32.794  32.570  1.00  0.00     0.049 A 
ATOM     43  N   UNL A   1      39.490  30.505  31.193  1.00  0.00    -0.248 NA
ATOM     44  C   UNL A   1      38.119  30.857  29.337  1.00  0.00     0.031 C 
ATOM     45  C   UNL A   1      37.418  33.865  33.307  1.00  0.00     0.029 A 
ATOM     46  N   UNL A   1      39.086  32.382  33.426  1.00  0.00    -0.354 N 
ATOM     47  C   UNL A   1      39.816  29.585  30.202  1.00  0.00     0.074 A 
ATOM     48  C   UNL A   1      38.899  29.812  29.104  1.00  0.00     0.031 C 
ATOM     49  C   UNL A   1      38.018  34.029  34.496  1.00  0.00     0.029 A 
ATOM     50  C   UNL A   1      39.092  33.049  34.630  1.00  0.00     0.049 A 
ATOM     51  H   UNL A   1      39.734  31.675  33.199  1.00  0.00     0.167 HD
ATOM     52  C   UNL A   1      40.801  28.651  30.199  1.00  0.00     0.034 A 
ATOM     53  C   UNL A   1      39.861  32.878  35.725  1.00  0.00     0.034 A 
ATOM     54  C   UNL A   1      41.714  28.438  31.295  1.00  0.00     0.049 A 
ATOM     55  C   UNL A   1      40.935  31.819  35.704  1.00  0.00     0.074 A 
ATOM     56  C   UNL A   1      42.750  27.523  31.392  1.00  0.00     0.029 A 
ATOM     57  N   UNL A   1      41.705  29.153  32.486  1.00  0.00    -0.354 N 
ATOM     58  N   UNL A   1      41.235  30.965  34.753  1.00  0.00    -0.248 NA
ATOM     59  C   UNL A   1      41.784  31.711  36.898  1.00  0.00     0.031 C 
ATOM     60  C   UNL A   1      43.337  27.655  32.656  1.00  0.00     0.029 A 
ATOM     61  C   UNL A   1      42.709  28.694  33.324  1.00  0.00     0.049 A 
ATOM     62  H   UNL A   1      41.078  29.880  32.702  1.00  0.00     0.167 HD
ATOM     63  C   UNL A   1      42.329  30.243  35.223  1.00  0.00     0.074 A 
ATOM     64  C   UNL A   1      42.643  30.772  36.533  1.00  0.00     0.031 C 
ATOM     65  C   UNL A   1      43.013  29.235  34.626  1.00  0.00     0.034 A 
BRANCH  52  66
ATOM     66  C   UNL A   1      40.924  27.781  28.973  1.00  0.00     0.023 A 
ATOM     67  C   UNL A   1      41.939  27.992  28.024  1.00  0.00     0.031 A 
ATOM     68  C   UNL A   1      40.012  26.735  28.741  1.00  0.00     0.131 A 
ATOM     69  C   UNL A   1      41.980  27.215  26.856  1.00  0.00     0.055 A 
ATOM     70  C   UNL A   1      40.103  25.917  27.613  1.00  0.00     0.041 A 
ATOM     71  F   UNL A   1      39.012  26.498  29.603  1.00  0.00    -0.206 F 
ATOM     72  C   UNL A   1      41.084  26.163  26.656  1.00  0.00     0.022 A 
BRANCH  69  73
ATOM     73  S   UNL A   1      43.150  27.674  25.550  1.00  0.00     0.124 S 
ATOM     74  O   UNL A   1      43.713  26.374  25.191  1.00  0.00    -0.237 OA
ATOM     75  O   UNL A   1      42.286  28.295  24.554  1.00  0.00    -0.237 OA
ATOM     76  O   UNL A   1      44.076  28.583  26.224  1.00  0.00    -0.744 OA
ENDBRANCH  69  73
ENDBRANCH  52  66
BRANCH  53  77
ATOM     77  C   UNL A   1      39.639  33.704  36.946  1.00  0.00     0.023 A 
ATOM     78  C   UNL A   1      40.438  34.826  37.216  1.00  0.00     0.031 A 
ATOM     79  C   UNL A   1      38.668  33.343  37.897  1.00  0.00     0.131 A 
ATOM     80  C   UNL A   1      40.297  35.510  38.433  1.00  0.00     0.055 A 
ATOM     81  C   UNL A   1      38.492  34.062  39.081  1.00  0.00     0.041 A 
ATOM     82  F   UNL A   1      37.873  32.282  37.688  1.00  0.00    -0.206 F 
ATOM     83  C   UNL A   1      39.322  35.143  39.362  1.00  0.00     0.022 A 
BRANCH  80  84
ATOM     84  S   UNL A   1      41.488  36.818  38.837  1.00  0.00     0.124 S 
ATOM     85  O   UNL A   1      42.159  37.015  37.557  1.00  0.00    -0.237 OA
ATOM     86  O   UNL A   1      40.611  37.898  39.276  1.00  0.00    -0.237 OA
ATOM     87  O   UNL A   1      42.309  36.217  39.886  1.00  0.00    -0.744 OA
ENDBRANCH  80  84
ENDBRANCH  53  77
BRANCH  65  88
ATOM     88  C   UNL A   1      44.205  28.686  35.368  1.00  0.00     0.023 A 
ATOM     89  C   UNL A   1      44.062  27.783  36.435  1.00  0.00     0.031 A 
ATOM     90  C   UNL A   1      45.503  29.089  35.010  1.00  0.00     0.131 A 
ATOM     91  C   UNL A   1      45.194  27.355  37.143  1.00  0.00     0.055 A 
ATOM     92  C   UNL A   1      46.630  28.619  35.683  1.00  0.00     0.041 A 
ATOM     93  F   UNL A   1      45.695  29.950  33.997  1.00  0.00    -0.206 F 
ATOM     94  C   UNL A   1      46.478  27.756  36.766  1.00  0.00     0.022 A 
BRANCH  91  95
ATOM     95  S   UNL A   1      44.961  26.326  38.619  1.00  0.00     0.124 S 
ATOM     96  O   UNL A   1      45.514  25.046  38.188  1.00  0.00    -0.237 OA
ATOM     97  O   UNL A   1      45.733  27.046  39.626  1.00  0.00    -0.237 OA
ATOM     98  O   UNL A   1      43.514  26.340  38.824  1.00  0.00    -0.744 OA
ENDBRANCH  91  95
ENDBRANCH  65  88
ENDBRANCH  39  40
ENDBRANCH  31  34
ENDBRANCH  29  30
ENDBRANCH   1  29
TORSDOF 17
ENDMDL
