MODEL 1
REMARK VINA RESULT:     -10.4      0.000      0.000
REMARK SMILES CCC(CC)N(CC(C)C)C(=O)N1CC[C@@H](C(=O)NCCCNC(=O)c2ccc(-c3c4nc(c(-c5cc(S(=O)(=O)[O-])ccc5F)c5ccc([nH]5)c(-c5cc(S(=O)(=O)[O-])ccc5F)c5nc(c(-c6cc(S(=O)(=O)[O-])ccc6F)c6ccc3[nH]6)C=C5)C=C4)cc2)[C@@H]1C
REMARK SMILES IDX 20 1 19 2 17 3 18 4 16 6 13 7 14 8 89 9 15 10 90 11 11 12
REMARK SMILES IDX 12 13 6 14 3 15 2 16 1 17 4 18 5 19 7 20 8 21 9 22 10 23
REMARK SMILES IDX 21 24 22 25 23 26 24 27 25 29 26 30 27 31 88 32 28 33 87 34
REMARK SMILES IDX 29 35 30 36 31 37 81 38 32 39 86 40 80 41 82 42 33 43 85 44
REMARK SMILES IDX 79 45 78 46 34 48 66 49 46 50 65 51 47 52 50 53 64 54 83 55
REMARK SMILES IDX 48 56 49 57 63 59 84 60 51 61 35 62 36 63 44 64 37 65 43 66
REMARK SMILES IDX 45 67 42 68 38 69 39 70 40 71 41 72 67 73 68 74 76 75 69 76
REMARK SMILES IDX 75 77 77 78 74 79 70 80 71 81 72 82 73 83 52 84 53 85 61 86
REMARK SMILES IDX 54 87 60 88 62 89 59 90 55 91 56 92 57 93 58 94
REMARK H PARENT 19 5 23 28 82 47 50 58
REMARK Flexibility Score: inf
ROOT
ATOM      1  C   UNL A   1      31.622  28.374  26.856  1.00  0.00     0.117 C 
ENDROOT
BRANCH   1   2
ATOM      2  N   UNL A   1      31.021  27.051  26.962  1.00  0.00    -0.356 N 
ATOM      3  C   UNL A   1      30.885  26.026  26.084  1.00  0.00     0.225 C 
ATOM      4  O   UNL A   1      30.292  25.024  26.499  1.00  0.00    -0.275 OA
ATOM      5  H   UNL A   1      30.635  26.864  27.849  1.00  0.00     0.163 HD
BRANCH   3   6
ATOM      6  C   UNL A   1      31.387  26.044  24.645  1.00  0.00     0.102 C 
ATOM      7  N   UNL A   1      32.835  24.407  23.697  1.00  0.00    -0.321 N 
ATOM      8  C   UNL A   1      31.644  24.427  22.867  1.00  0.00     0.122 C 
ATOM      9  C   UNL A   1      32.865  25.631  24.507  1.00  0.00     0.096 C 
ATOM     10  C   UNL A   1      30.595  25.190  23.656  1.00  0.00     0.037 C 
ATOM     11  C   UNL A   1      33.660  26.728  23.787  1.00  0.00     0.032 C 
BRANCH   7  12
ATOM     12  C   UNL A   1      33.874  23.588  23.293  1.00  0.00     0.320 C 
ATOM     13  O   UNL A   1      34.095  23.506  22.080  1.00  0.00    -0.248 OA
BRANCH  12  14
ATOM     14  N   UNL A   1      34.570  22.811  24.217  1.00  0.00    -0.321 N 
BRANCH  14  15
ATOM     15  C   UNL A   1      36.008  23.120  24.497  1.00  0.00     0.086 C 
BRANCH  15  16
ATOM     16  C   UNL A   1      36.283  23.443  25.988  1.00  0.00     0.022 C 
ATOM     17  C   UNL A   1      37.663  24.029  26.255  1.00  0.00     0.006 C 
ENDBRANCH  15  16
BRANCH  15  18
ATOM     18  C   UNL A   1      36.998  22.141  23.837  1.00  0.00     0.022 C 
ATOM     19  C   UNL A   1      37.381  20.911  24.640  1.00  0.00     0.006 C 
ENDBRANCH  15  18
ENDBRANCH  14  15
BRANCH  14  20
ATOM     20  C   UNL A   1      34.141  21.492  24.674  1.00  0.00     0.124 C 
BRANCH  20  21
ATOM     21  C   UNL A   1      32.720  21.035  24.281  1.00  0.00     0.002 C 
ATOM     22  C   UNL A   1      32.559  19.526  24.106  1.00  0.00     0.009 C 
ATOM     23  C   UNL A   1      31.722  21.512  25.345  1.00  0.00     0.009 C 
ENDBRANCH  20  21
ENDBRANCH  14  20
ENDBRANCH  12  14
ENDBRANCH   7  12
ENDBRANCH   3   6
ENDBRANCH   1   2
BRANCH   1  24
ATOM     24  C   UNL A   1      33.125  28.339  27.110  1.00  0.00     0.042 C 
BRANCH  24  25
ATOM     25  C   UNL A   1      33.948  29.379  26.365  1.00  0.00     0.118 C 
BRANCH  25  26
ATOM     26  N   UNL A   1      33.877  30.691  26.975  1.00  0.00    -0.352 N 
ATOM     27  C   UNL A   1      34.617  31.278  27.974  1.00  0.00     0.251 C 
ATOM     28  H   UNL A   1      33.171  31.269  26.606  1.00  0.00     0.163 HD
ATOM     29  O   UNL A   1      34.202  32.340  28.439  1.00  0.00    -0.269 OA
BRANCH  27  30
ATOM     30  C   UNL A   1      35.862  30.676  28.526  1.00  0.00     0.039 A 
ATOM     31  C   UNL A   1      37.085  31.055  27.953  1.00  0.00     0.014 A 
ATOM     32  C   UNL A   1      35.866  29.689  29.513  1.00  0.00     0.014 A 
ATOM     33  C   UNL A   1      38.286  30.485  28.392  1.00  0.00     0.010 A 
ATOM     34  C   UNL A   1      37.073  29.189  30.018  1.00  0.00     0.010 A 
ATOM     35  C   UNL A   1      38.299  29.565  29.452  1.00  0.00    -0.014 A 
BRANCH  35  36
ATOM     36  C   UNL A   1      39.575  28.968  29.944  1.00  0.00     0.031 A 
ATOM     37  C   UNL A   1      40.252  29.515  31.177  1.00  0.00     0.074 A 
ATOM     38  C   UNL A   1      40.151  27.954  29.266  1.00  0.00     0.049 A 
ATOM     39  N   UNL A   1      41.394  29.172  31.720  1.00  0.00    -0.248 NA
ATOM     40  C   UNL A   1      39.566  30.612  31.876  1.00  0.00     0.031 C 
ATOM     41  C   UNL A   1      39.618  27.347  28.043  1.00  0.00     0.029 A 
ATOM     42  N   UNL A   1      41.312  27.258  29.499  1.00  0.00    -0.354 N 
ATOM     43  C   UNL A   1      41.571  30.020  32.810  1.00  0.00     0.074 A 
ATOM     44  C   UNL A   1      40.446  30.931  32.813  1.00  0.00     0.031 C 
ATOM     45  C   UNL A   1      40.435  26.356  27.652  1.00  0.00     0.029 A 
ATOM     46  C   UNL A   1      41.576  26.287  28.559  1.00  0.00     0.049 A 
ATOM     47  H   UNL A   1      41.901  27.435  30.268  1.00  0.00     0.167 HD
ATOM     48  C   UNL A   1      42.564  30.026  33.736  1.00  0.00     0.034 A 
ATOM     49  C   UNL A   1      42.623  25.445  28.430  1.00  0.00     0.034 A 
ATOM     50  C   UNL A   1      43.671  29.099  33.736  1.00  0.00     0.049 A 
ATOM     51  C   UNL A   1      43.729  25.488  29.455  1.00  0.00     0.074 A 
ATOM     52  C   UNL A   1      44.694  28.979  34.661  1.00  0.00     0.029 A 
ATOM     53  N   UNL A   1      43.907  28.137  32.762  1.00  0.00    -0.354 N 
ATOM     54  N   UNL A   1      43.853  26.267  30.505  1.00  0.00    -0.248 NA
ATOM     55  C   UNL A   1      44.831  24.533  29.280  1.00  0.00     0.031 C 
ATOM     56  C   UNL A   1      45.586  28.000  34.209  1.00  0.00     0.029 A 
ATOM     57  C   UNL A   1      45.078  27.448  33.045  1.00  0.00     0.049 A 
ATOM     58  H   UNL A   1      43.327  27.968  31.984  1.00  0.00     0.167 HD
ATOM     59  C   UNL A   1      45.033  25.871  31.132  1.00  0.00     0.074 A 
ATOM     60  C   UNL A   1      45.572  24.777  30.351  1.00  0.00     0.031 C 
ATOM     61  C   UNL A   1      45.616  26.367  32.253  1.00  0.00     0.034 A 
BRANCH  48  62
ATOM     62  C   UNL A   1      42.511  31.087  34.812  1.00  0.00     0.023 A 
ATOM     63  C   UNL A   1      43.145  32.333  34.656  1.00  0.00     0.031 A 
ATOM     64  C   UNL A   1      41.829  30.846  36.017  1.00  0.00     0.131 A 
ATOM     65  C   UNL A   1      43.150  33.255  35.714  1.00  0.00     0.055 A 
ATOM     66  C   UNL A   1      41.765  31.802  37.034  1.00  0.00     0.041 A 
ATOM     67  F   UNL A   1      41.220  29.670  36.235  1.00  0.00    -0.206 F 
ATOM     68  C   UNL A   1      42.442  33.009  36.892  1.00  0.00     0.022 A 
BRANCH  65  69
ATOM     69  S   UNL A   1      44.216  34.717  35.583  1.00  0.00     0.124 S 
ATOM     70  O   UNL A   1      45.505  34.181  36.015  1.00  0.00    -0.237 OA
ATOM     71  O   UNL A   1      44.108  35.061  34.171  1.00  0.00    -0.237 OA
ATOM     72  O   UNL A   1      43.606  35.670  36.509  1.00  0.00    -0.744 OA
ENDBRANCH  65  69
ENDBRANCH  48  62
BRANCH  49  73
ATOM     73  C   UNL A   1      42.693  24.501  27.276  1.00  0.00     0.023 A 
ATOM     74  C   UNL A   1      42.128  23.219  27.353  1.00  0.00     0.031 A 
ATOM     75  C   UNL A   1      43.371  24.853  26.096  1.00  0.00     0.131 A 
ATOM     76  C   UNL A   1      42.291  22.317  26.289  1.00  0.00     0.055 A 
ATOM     77  C   UNL A   1      43.481  23.974  25.017  1.00  0.00     0.041 A 
ATOM     78  F   UNL A   1      43.927  26.068  25.968  1.00  0.00    -0.206 F 
ATOM     79  C   UNL A   1      42.950  22.690  25.116  1.00  0.00     0.022 A 
BRANCH  76  80
ATOM     80  S   UNL A   1      41.703  20.614  26.496  1.00  0.00     0.124 S 
ATOM     81  O   UNL A   1      42.154  20.307  27.849  1.00  0.00    -0.237 OA
ATOM     82  O   UNL A   1      40.264  20.766  26.318  1.00  0.00    -0.237 OA
ATOM     83  O   UNL A   1      42.388  19.887  25.429  1.00  0.00    -0.744 OA
ENDBRANCH  76  80
ENDBRANCH  49  73
BRANCH  61  84
ATOM     84  C   UNL A   1      46.884  25.695  32.724  1.00  0.00     0.023 A 
ATOM     85  C   UNL A   1      48.134  25.982  32.146  1.00  0.00     0.031 A 
ATOM     86  C   UNL A   1      46.839  24.743  33.758  1.00  0.00     0.131 A 
ATOM     87  C   UNL A   1      49.276  25.283  32.567  1.00  0.00     0.055 A 
ATOM     88  C   UNL A   1      47.987  24.097  34.215  1.00  0.00     0.041 A 
ATOM     89  F   UNL A   1      45.672  24.426  34.345  1.00  0.00    -0.206 F 
ATOM     90  C   UNL A   1      49.214  24.356  33.610  1.00  0.00     0.022 A 
BRANCH  87  91
ATOM     91  S   UNL A   1      50.832  25.534  31.668  1.00  0.00     0.124 S 
ATOM     92  O   UNL A   1      51.787  24.824  32.512  1.00  0.00    -0.237 OA
ATOM     93  O   UNL A   1      50.546  24.922  30.374  1.00  0.00    -0.237 OA
ATOM     94  O   UNL A   1      50.984  26.988  31.645  1.00  0.00    -0.744 OA
ENDBRANCH  87  91
ENDBRANCH  61  84
ENDBRANCH  35  36
ENDBRANCH  27  30
ENDBRANCH  25  26
ENDBRANCH  24  25
ENDBRANCH   1  24
TORSDOF 20
ENDMDL
MODEL 2
REMARK VINA RESULT:     -10.0      3.845      8.619
REMARK SMILES CCC(CC)N(CC(C)C)C(=O)N1CC[C@@H](C(=O)NCCCNC(=O)c2ccc(-c3c4nc(c(-c5cc(S(=O)(=O)[O-])ccc5F)c5ccc([nH]5)c(-c5cc(S(=O)(=O)[O-])ccc5F)c5nc(c(-c6cc(S(=O)(=O)[O-])ccc6F)c6ccc3[nH]6)C=C5)C=C4)cc2)[C@@H]1C
REMARK SMILES IDX 20 1 19 2 17 3 18 4 16 6 13 7 14 8 89 9 15 10 90 11 11 12
REMARK SMILES IDX 12 13 6 14 3 15 2 16 1 17 4 18 5 19 7 20 8 21 9 22 10 23
REMARK SMILES IDX 21 24 22 25 23 26 24 27 25 29 26 30 27 31 88 32 28 33 87 34
REMARK SMILES IDX 29 35 30 36 31 37 81 38 32 39 86 40 80 41 82 42 33 43 85 44
REMARK SMILES IDX 79 45 78 46 34 48 66 49 46 50 65 51 47 52 50 53 64 54 83 55
REMARK SMILES IDX 48 56 49 57 63 59 84 60 51 61 35 62 36 63 44 64 37 65 43 66
REMARK SMILES IDX 45 67 42 68 38 69 39 70 40 71 41 72 67 73 68 74 76 75 69 76
REMARK SMILES IDX 75 77 77 78 74 79 70 80 71 81 72 82 73 83 52 84 53 85 61 86
REMARK SMILES IDX 54 87 60 88 62 89 59 90 55 91 56 92 57 93 58 94
REMARK H PARENT 19 5 23 28 82 47 50 58
REMARK Flexibility Score: inf
ROOT
ATOM      1  C   UNL A   1      31.213  30.732  26.387  1.00  0.00     0.117 C 
ENDROOT
BRANCH   1   2
ATOM      2  N   UNL A   1      31.363  30.272  25.013  1.00  0.00    -0.356 N 
ATOM      3  C   UNL A   1      31.713  29.078  24.473  1.00  0.00     0.225 C 
ATOM      4  O   UNL A   1      31.764  29.029  23.238  1.00  0.00    -0.275 OA
ATOM      5  H   UNL A   1      31.174  30.968  24.342  1.00  0.00     0.163 HD
BRANCH   3   6
ATOM      6  C   UNL A   1      32.059  27.830  25.276  1.00  0.00     0.102 C 
ATOM      7  N   UNL A   1      32.811  25.777  24.331  1.00  0.00    -0.321 N 
ATOM      8  C   UNL A   1      33.835  26.190  25.273  1.00  0.00     0.122 C 
ATOM      9  C   UNL A   1      31.580  26.524  24.616  1.00  0.00     0.096 C 
ATOM     10  C   UNL A   1      33.540  27.643  25.603  1.00  0.00     0.037 C 
ATOM     11  C   UNL A   1      30.689  25.733  25.584  1.00  0.00     0.032 C 
BRANCH   7  12
ATOM     12  C   UNL A   1      32.979  24.552  23.711  1.00  0.00     0.320 C 
ATOM     13  O   UNL A   1      32.741  24.490  22.501  1.00  0.00    -0.248 OA
BRANCH  12  14
ATOM     14  N   UNL A   1      33.304  23.417  24.451  1.00  0.00    -0.321 N 
BRANCH  14  15
ATOM     15  C   UNL A   1      32.548  23.123  25.710  1.00  0.00     0.086 C 
BRANCH  15  16
ATOM     16  C   UNL A   1      31.635  21.875  25.597  1.00  0.00     0.022 C 
ATOM     17  C   UNL A   1      32.121  20.836  24.595  1.00  0.00     0.006 C 
ENDBRANCH  15  16
BRANCH  15  18
ATOM     18  C   UNL A   1      33.405  23.204  26.988  1.00  0.00     0.022 C 
ATOM     19  C   UNL A   1      33.276  22.055  27.971  1.00  0.00     0.006 C 
ENDBRANCH  15  18
ENDBRANCH  14  15
BRANCH  14  20
ATOM     20  C   UNL A   1      34.553  22.674  24.317  1.00  0.00     0.124 C 
BRANCH  20  21
ATOM     21  C   UNL A   1      35.852  23.496  24.171  1.00  0.00     0.002 C 
ATOM     22  C   UNL A   1      36.682  23.614  25.448  1.00  0.00     0.009 C 
ATOM     23  C   UNL A   1      36.726  22.870  23.076  1.00  0.00     0.009 C 
ENDBRANCH  20  21
ENDBRANCH  14  20
ENDBRANCH  12  14
ENDBRANCH   7  12
ENDBRANCH   3   6
ENDBRANCH   1   2
BRANCH   1  24
ATOM     24  C   UNL A   1      31.406  32.240  26.508  1.00  0.00     0.042 C 
BRANCH  24  25
ATOM     25  C   UNL A   1      32.717  32.693  27.131  1.00  0.00     0.118 C 
BRANCH  25  26
ATOM     26  N   UNL A   1      32.652  34.042  27.654  1.00  0.00    -0.352 N 
ATOM     27  C   UNL A   1      33.291  34.647  28.710  1.00  0.00     0.251 C 
ATOM     28  H   UNL A   1      32.038  34.635  27.163  1.00  0.00     0.163 HD
ATOM     29  O   UNL A   1      32.888  35.758  29.058  1.00  0.00    -0.269 OA
BRANCH  27  30
ATOM     30  C   UNL A   1      34.413  34.012  29.456  1.00  0.00     0.039 A 
ATOM     31  C   UNL A   1      35.721  34.378  29.111  1.00  0.00     0.014 A 
ATOM     32  C   UNL A   1      34.230  33.006  30.407  1.00  0.00     0.014 A 
ATOM     33  C   UNL A   1      36.820  33.778  29.739  1.00  0.00     0.010 A 
ATOM     34  C   UNL A   1      35.323  32.474  31.102  1.00  0.00     0.010 A 
ATOM     35  C   UNL A   1      36.635  32.838  30.765  1.00  0.00    -0.014 A 
BRANCH  35  36
ATOM     36  C   UNL A   1      37.797  32.208  31.457  1.00  0.00     0.031 A 
ATOM     37  C   UNL A   1      38.568  31.091  30.796  1.00  0.00     0.074 A 
ATOM     38  C   UNL A   1      38.145  32.612  32.696  1.00  0.00     0.049 A 
ATOM     39  N   UNL A   1      39.563  30.377  31.264  1.00  0.00    -0.248 NA
ATOM     40  C   UNL A   1      38.145  30.707  29.441  1.00  0.00     0.031 C 
ATOM     41  C   UNL A   1      37.469  33.662  33.461  1.00  0.00     0.029 A 
ATOM     42  N   UNL A   1      39.145  32.185  33.535  1.00  0.00    -0.354 N 
ATOM     43  C   UNL A   1      39.872  29.453  30.270  1.00  0.00     0.074 A 
ATOM     44  C   UNL A   1      38.919  29.659  29.201  1.00  0.00     0.031 C 
ATOM     45  C   UNL A   1      38.089  33.815  34.642  1.00  0.00     0.029 A 
ATOM     46  C   UNL A   1      39.172  32.842  34.745  1.00  0.00     0.049 A 
ATOM     47  H   UNL A   1      39.785  31.477  33.294  1.00  0.00     0.167 HD
ATOM     48  C   UNL A   1      40.871  28.533  30.239  1.00  0.00     0.034 A 
ATOM     49  C   UNL A   1      39.966  32.674  35.823  1.00  0.00     0.034 A 
ATOM     50  C   UNL A   1      41.829  28.349  31.304  1.00  0.00     0.049 A 
ATOM     51  C   UNL A   1      41.051  31.626  35.778  1.00  0.00     0.074 A 
ATOM     52  C   UNL A   1      42.915  27.490  31.346  1.00  0.00     0.029 A 
ATOM     53  N   UNL A   1      41.817  29.027  32.516  1.00  0.00    -0.354 N 
ATOM     54  N   UNL A   1      41.356  30.793  34.810  1.00  0.00    -0.248 NA
ATOM     55  C   UNL A   1      41.903  31.503  36.969  1.00  0.00     0.031 C 
ATOM     56  C   UNL A   1      43.511  27.594  32.607  1.00  0.00     0.029 A 
ATOM     57  C   UNL A   1      42.851  28.578  33.325  1.00  0.00     0.049 A 
ATOM     58  H   UNL A   1      41.168  29.725  32.765  1.00  0.00     0.167 HD
ATOM     59  C   UNL A   1      42.456  30.070  35.266  1.00  0.00     0.074 A 
ATOM     60  C   UNL A   1      42.768  30.575  36.587  1.00  0.00     0.031 C 
ATOM     61  C   UNL A   1      43.147  29.078  34.647  1.00  0.00     0.034 A 
BRANCH  48  62
ATOM     62  C   UNL A   1      40.958  27.635  29.026  1.00  0.00     0.023 A 
ATOM     63  C   UNL A   1      41.943  27.813  28.040  1.00  0.00     0.031 A 
ATOM     64  C   UNL A   1      40.032  26.591  28.846  1.00  0.00     0.131 A 
ATOM     65  C   UNL A   1      41.933  27.017  26.884  1.00  0.00     0.055 A 
ATOM     66  C   UNL A   1      40.080  25.746  27.734  1.00  0.00     0.041 A 
ATOM     67  F   UNL A   1      39.056  26.380  29.742  1.00  0.00    -0.206 F 
ATOM     68  C   UNL A   1      41.024  25.967  26.737  1.00  0.00     0.022 A 
BRANCH  65  69
ATOM     69  S   UNL A   1      43.031  27.467  25.513  1.00  0.00     0.124 S 
ATOM     70  O   UNL A   1      43.341  26.158  24.942  1.00  0.00    -0.237 OA
ATOM     71  O   UNL A   1      42.185  28.334  24.702  1.00  0.00    -0.237 OA
ATOM     72  O   UNL A   1      44.153  28.131  26.176  1.00  0.00    -0.744 OA
ENDBRANCH  65  69
ENDBRANCH  48  62
BRANCH  49  73
ATOM     73  C   UNL A   1      39.758  33.499  37.050  1.00  0.00     0.023 A 
ATOM     74  C   UNL A   1      39.127  32.966  38.183  1.00  0.00     0.031 A 
ATOM     75  C   UNL A   1      40.147  34.850  37.085  1.00  0.00     0.131 A 
ATOM     76  C   UNL A   1      38.860  33.790  39.289  1.00  0.00     0.055 A 
ATOM     77  C   UNL A   1      39.931  35.651  38.208  1.00  0.00     0.041 A 
ATOM     78  F   UNL A   1      40.758  35.410  36.028  1.00  0.00    -0.206 F 
ATOM     79  C   UNL A   1      39.269  35.124  39.314  1.00  0.00     0.022 A 
BRANCH  76  80
ATOM     80  S   UNL A   1      37.885  33.114  40.661  1.00  0.00     0.124 S 
ATOM     81  O   UNL A   1      38.064  34.140  41.684  1.00  0.00    -0.237 OA
ATOM     82  O   UNL A   1      36.555  33.022  40.070  1.00  0.00    -0.237 OA
ATOM     83  O   UNL A   1      38.532  31.834  40.939  1.00  0.00    -0.744 OA
ENDBRANCH  76  80
ENDBRANCH  49  73
BRANCH  61  84
ATOM     84  C   UNL A   1      44.338  28.508  35.381  1.00  0.00     0.023 A 
ATOM     85  C   UNL A   1      44.200  27.484  36.335  1.00  0.00     0.031 A 
ATOM     86  C   UNL A   1      45.628  29.005  35.129  1.00  0.00     0.131 A 
ATOM     87  C   UNL A   1      45.324  27.032  37.042  1.00  0.00     0.055 A 
ATOM     88  C   UNL A   1      46.751  28.508  35.791  1.00  0.00     0.041 A 
ATOM     89  F   UNL A   1      45.820  29.985  34.230  1.00  0.00    -0.206 F 
ATOM     90  C   UNL A   1      46.601  27.524  36.764  1.00  0.00     0.022 A 
BRANCH  87  91
ATOM     91  S   UNL A   1      45.083  25.855  38.402  1.00  0.00     0.124 S 
ATOM     92  O   UNL A   1      44.297  26.641  39.348  1.00  0.00    -0.237 OA
ATOM     93  O   UNL A   1      44.378  24.759  37.745  1.00  0.00    -0.237 OA
ATOM     94  O   UNL A   1      46.445  25.545  38.833  1.00  0.00    -0.744 OA
ENDBRANCH  87  91
ENDBRANCH  61  84
ENDBRANCH  35  36
ENDBRANCH  27  30
ENDBRANCH  25  26
ENDBRANCH  24  25
ENDBRANCH   1  24
TORSDOF 20
ENDMDL
MODEL 3
REMARK VINA RESULT:      -9.9      3.510      8.422
REMARK SMILES CCC(CC)N(CC(C)C)C(=O)N1CC[C@@H](C(=O)NCCCNC(=O)c2ccc(-c3c4nc(c(-c5cc(S(=O)(=O)[O-])ccc5F)c5ccc([nH]5)c(-c5cc(S(=O)(=O)[O-])ccc5F)c5nc(c(-c6cc(S(=O)(=O)[O-])ccc6F)c6ccc3[nH]6)C=C5)C=C4)cc2)[C@@H]1C
REMARK SMILES IDX 20 1 19 2 17 3 18 4 16 6 13 7 14 8 89 9 15 10 90 11 11 12
REMARK SMILES IDX 12 13 6 14 3 15 2 16 1 17 4 18 5 19 7 20 8 21 9 22 10 23
REMARK SMILES IDX 21 24 22 25 23 26 24 27 25 29 26 30 27 31 88 32 28 33 87 34
REMARK SMILES IDX 29 35 30 36 31 37 81 38 32 39 86 40 80 41 82 42 33 43 85 44
REMARK SMILES IDX 79 45 78 46 34 48 66 49 46 50 65 51 47 52 50 53 64 54 83 55
REMARK SMILES IDX 48 56 49 57 63 59 84 60 51 61 35 62 36 63 44 64 37 65 43 66
REMARK SMILES IDX 45 67 42 68 38 69 39 70 40 71 41 72 67 73 68 74 76 75 69 76
REMARK SMILES IDX 75 77 77 78 74 79 70 80 71 81 72 82 73 83 52 84 53 85 61 86
REMARK SMILES IDX 54 87 60 88 62 89 59 90 55 91 56 92 57 93 58 94
REMARK H PARENT 19 5 23 28 82 47 50 58
REMARK Flexibility Score: inf
ROOT
ATOM      1  C   UNL A   1      31.191  30.013  24.879  1.00  0.00     0.117 C 
ENDROOT
BRANCH   1   2
ATOM      2  N   UNL A   1      30.523  30.187  23.597  1.00  0.00    -0.356 N 
ATOM      3  C   UNL A   1      30.085  29.312  22.657  1.00  0.00     0.225 C 
ATOM      4  O   UNL A   1      29.564  29.805  21.650  1.00  0.00    -0.275 OA
ATOM      5  H   UNL A   1      30.356  31.130  23.365  1.00  0.00     0.163 HD
BRANCH   3   6
ATOM      6  C   UNL A   1      30.213  27.796  22.757  1.00  0.00     0.102 C 
ATOM      7  N   UNL A   1      31.979  26.659  23.880  1.00  0.00    -0.321 N 
ATOM      8  C   UNL A   1      30.745  26.200  24.493  1.00  0.00     0.122 C 
ATOM      9  C   UNL A   1      31.660  27.293  22.595  1.00  0.00     0.096 C 
ATOM     10  C   UNL A   1      29.666  27.168  24.037  1.00  0.00     0.037 C 
ATOM     11  C   UNL A   1      31.743  26.265  21.458  1.00  0.00     0.032 C 
BRANCH   7  12
ATOM     12  C   UNL A   1      33.154  26.068  24.308  1.00  0.00     0.320 C 
ATOM     13  O   UNL A   1      34.164  26.777  24.350  1.00  0.00    -0.248 OA
BRANCH  12  14
ATOM     14  N   UNL A   1      33.209  24.702  24.578  1.00  0.00    -0.321 N 
BRANCH  14  15
ATOM     15  C   UNL A   1      33.660  24.240  25.929  1.00  0.00     0.086 C 
BRANCH  15  16
ATOM     16  C   UNL A   1      32.512  24.186  26.970  1.00  0.00     0.022 C 
ATOM     17  C   UNL A   1      31.721  22.884  26.957  1.00  0.00     0.006 C 
ENDBRANCH  15  16
BRANCH  15  18
ATOM     18  C   UNL A   1      34.583  23.007  25.893  1.00  0.00     0.022 C 
ATOM     19  C   UNL A   1      36.069  23.260  26.071  1.00  0.00     0.006 C 
ENDBRANCH  15  18
ENDBRANCH  14  15
BRANCH  14  20
ATOM     20  C   UNL A   1      33.218  23.659  23.556  1.00  0.00     0.124 C 
BRANCH  20  21
ATOM     21  C   UNL A   1      32.042  22.658  23.558  1.00  0.00     0.002 C 
ATOM     22  C   UNL A   1      30.668  23.284  23.328  1.00  0.00     0.009 C 
ATOM     23  C   UNL A   1      32.281  21.594  22.478  1.00  0.00     0.009 C 
ENDBRANCH  20  21
ENDBRANCH  14  20
ENDBRANCH  12  14
ENDBRANCH   7  12
ENDBRANCH   3   6
ENDBRANCH   1   2
BRANCH   1  24
ATOM     24  C   UNL A   1      30.989  31.214  25.796  1.00  0.00     0.042 C 
BRANCH  24  25
ATOM     25  C   UNL A   1      32.175  31.587  26.671  1.00  0.00     0.118 C 
BRANCH  25  26
ATOM     26  N   UNL A   1      32.209  32.998  26.997  1.00  0.00    -0.352 N 
ATOM     27  C   UNL A   1      33.014  33.725  27.841  1.00  0.00     0.251 C 
ATOM     28  H   UNL A   1      31.532  33.536  26.526  1.00  0.00     0.163 HD
ATOM     29  O   UNL A   1      32.683  34.887  28.082  1.00  0.00    -0.269 OA
BRANCH  27  30
ATOM     30  C   UNL A   1      34.232  33.164  28.489  1.00  0.00     0.039 A 
ATOM     31  C   UNL A   1      34.081  32.030  29.300  1.00  0.00     0.014 A 
ATOM     32  C   UNL A   1      35.491  33.762  28.406  1.00  0.00     0.014 A 
ATOM     33  C   UNL A   1      35.179  31.486  29.978  1.00  0.00     0.010 A 
ATOM     34  C   UNL A   1      36.606  33.165  29.006  1.00  0.00     0.010 A 
ATOM     35  C   UNL A   1      36.463  32.029  29.817  1.00  0.00    -0.014 A 
BRANCH  35  36
ATOM     36  C   UNL A   1      37.645  31.445  30.517  1.00  0.00     0.031 A 
ATOM     37  C   UNL A   1      38.519  30.429  29.824  1.00  0.00     0.074 A 
ATOM     38  C   UNL A   1      37.917  31.798  31.790  1.00  0.00     0.049 A 
ATOM     39  N   UNL A   1      39.548  29.763  30.289  1.00  0.00    -0.248 NA
ATOM     40  C   UNL A   1      38.174  30.097  28.434  1.00  0.00     0.031 C 
ATOM     41  C   UNL A   1      37.139  32.749  32.587  1.00  0.00     0.029 A 
ATOM     42  N   UNL A   1      38.917  31.397  32.642  1.00  0.00    -0.354 N 
ATOM     43  C   UNL A   1      39.961  28.924  29.257  1.00  0.00     0.074 A 
ATOM     44  C   UNL A   1      39.032  29.124  28.165  1.00  0.00     0.031 C 
ATOM     45  C   UNL A   1      37.704  32.876  33.797  1.00  0.00     0.029 A 
ATOM     46  C   UNL A   1      38.853  31.980  33.888  1.00  0.00     0.049 A 
ATOM     47  H   UNL A   1      39.617  30.753  32.386  1.00  0.00     0.167 HD
ATOM     48  C   UNL A   1      41.026  28.083  29.213  1.00  0.00     0.034 A 
ATOM     49  C   UNL A   1      39.619  31.806  34.984  1.00  0.00     0.034 A 
ATOM     50  C   UNL A   1      41.958  27.906  30.302  1.00  0.00     0.049 A 
ATOM     51  C   UNL A   1      40.780  30.845  34.922  1.00  0.00     0.074 A 
ATOM     52  C   UNL A   1      43.103  27.128  30.338  1.00  0.00     0.029 A 
ATOM     53  N   UNL A   1      41.852  28.508  31.549  1.00  0.00    -0.354 N 
ATOM     54  N   UNL A   1      41.181  30.096  33.921  1.00  0.00    -0.248 NA
ATOM     55  C   UNL A   1      41.597  30.713  36.137  1.00  0.00     0.031 C 
ATOM     56  C   UNL A   1      43.645  27.200  31.625  1.00  0.00     0.029 A 
ATOM     57  C   UNL A   1      42.889  28.089  32.371  1.00  0.00     0.049 A 
ATOM     58  H   UNL A   1      41.145  29.141  31.812  1.00  0.00     0.167 HD
ATOM     59  C   UNL A   1      42.315  29.428  34.378  1.00  0.00     0.074 A 
ATOM     60  C   UNL A   1      42.542  29.876  35.737  1.00  0.00     0.031 C 
ATOM     61  C   UNL A   1      43.100  28.529  33.730  1.00  0.00     0.034 A 
BRANCH  48  62
ATOM     62  C   UNL A   1      41.222  27.268  27.955  1.00  0.00     0.023 A 
ATOM     63  C   UNL A   1      40.873  25.908  27.890  1.00  0.00     0.031 A 
ATOM     64  C   UNL A   1      41.780  27.856  26.806  1.00  0.00     0.131 A 
ATOM     65  C   UNL A   1      41.156  25.164  26.735  1.00  0.00     0.055 A 
ATOM     66  C   UNL A   1      41.980  27.131  25.629  1.00  0.00     0.041 A 
ATOM     67  F   UNL A   1      42.152  29.146  26.809  1.00  0.00    -0.206 F 
ATOM     68  C   UNL A   1      41.683  25.772  25.594  1.00  0.00     0.022 A 
BRANCH  65  69
ATOM     69  S   UNL A   1      40.960  23.362  26.795  1.00  0.00     0.124 S 
ATOM     70  O   UNL A   1      41.364  23.067  28.168  1.00  0.00    -0.237 OA
ATOM     71  O   UNL A   1      39.545  23.188  26.494  1.00  0.00    -0.237 OA
ATOM     72  O   UNL A   1      41.883  22.882  25.766  1.00  0.00    -0.744 OA
ENDBRANCH  65  69
ENDBRANCH  48  62
BRANCH  49  73
ATOM     73  C   UNL A   1      39.307  32.539  36.247  1.00  0.00     0.023 A 
ATOM     74  C   UNL A   1      38.434  31.998  37.202  1.00  0.00     0.031 A 
ATOM     75  C   UNL A   1      39.843  33.816  36.491  1.00  0.00     0.131 A 
ATOM     76  C   UNL A   1      38.084  32.749  38.336  1.00  0.00     0.055 A 
ATOM     77  C   UNL A   1      39.537  34.535  37.648  1.00  0.00     0.041 A 
ATOM     78  F   UNL A   1      40.686  34.380  35.611  1.00  0.00    -0.206 F 
ATOM     79  C   UNL A   1      38.641  34.007  38.572  1.00  0.00     0.022 A 
BRANCH  76  80
ATOM     80  S   UNL A   1      36.818  32.092  39.457  1.00  0.00     0.124 S 
ATOM     81  O   UNL A   1      36.968  30.654  39.263  1.00  0.00    -0.237 OA
ATOM     82  O   UNL A   1      37.256  32.615  40.747  1.00  0.00    -0.237 OA
ATOM     83  O   UNL A   1      35.578  32.667  38.942  1.00  0.00    -0.744 OA
ENDBRANCH  76  80
ENDBRANCH  49  73
BRANCH  61  84
ATOM     84  C   UNL A   1      44.303  28.004  34.477  1.00  0.00     0.023 A 
ATOM     85  C   UNL A   1      44.217  26.892  35.334  1.00  0.00     0.031 A 
ATOM     86  C   UNL A   1      45.552  28.633  34.336  1.00  0.00     0.131 A 
ATOM     87  C   UNL A   1      45.346  26.481  36.060  1.00  0.00     0.055 A 
ATOM     88  C   UNL A   1      46.686  28.181  35.013  1.00  0.00     0.041 A 
ATOM     89  F   UNL A   1      45.693  29.701  33.533  1.00  0.00    -0.206 F 
ATOM     90  C   UNL A   1      46.583  27.107  35.892  1.00  0.00     0.022 A 
BRANCH  87  91
ATOM     91  S   UNL A   1      45.153  25.173  37.303  1.00  0.00     0.124 S 
ATOM     92  O   UNL A   1      43.715  25.199  37.551  1.00  0.00    -0.237 OA
ATOM     93  O   UNL A   1      45.657  23.997  36.600  1.00  0.00    -0.237 OA
ATOM     94  O   UNL A   1      45.983  25.631  38.416  1.00  0.00    -0.744 OA
ENDBRANCH  87  91
ENDBRANCH  61  84
ENDBRANCH  35  36
ENDBRANCH  27  30
ENDBRANCH  25  26
ENDBRANCH  24  25
ENDBRANCH   1  24
TORSDOF 20
ENDMDL
