MODEL 1
REMARK VINA RESULT:     -12.8      0.000      0.000
REMARK SMILES Cc1cc2c(c(C)c1Cl)C=C(C(=O)NCCCNC(=O)c1ccc(-c3c4nc(c(-c5cc(S(=O)(=O)[O-])ccc5F)c5ccc([nH]5)c(-c5cc(S(=O)(=O)[O-])ccc5F)c5nc(c(-c6cc(S(=O)(=O)[O-])ccc6F)c6ccc3[nH]6)C=C5)C=C4)cc1)[C@@H](C(F)(F)F)O2
REMARK SMILES IDX 17 1 16 2 15 3 14 4 12 5 13 6 11 8 1 9 2 10 3 11 8 12 4 13
REMARK SMILES IDX 6 14 9 15 5 16 89 17 7 18 10 19 84 20 85 21 86 22 87 23
REMARK SMILES IDX 88 24 18 25 19 26 20 28 21 29 22 30 83 31 23 32 82 33 24 34
REMARK SMILES IDX 25 35 26 36 76 37 27 38 81 39 75 40 77 41 28 42 80 43 74 44
REMARK SMILES IDX 73 45 29 47 61 48 41 49 60 50 42 51 45 52 59 53 78 54 43 55
REMARK SMILES IDX 44 56 58 58 79 59 46 60 30 61 31 62 39 63 32 64 38 65 40 66
REMARK SMILES IDX 37 67 33 68 34 69 35 70 36 71 62 72 63 73 71 74 64 75 70 76
REMARK SMILES IDX 72 77 69 78 65 79 66 80 67 81 68 82 47 83 48 84 56 85 49 86
REMARK SMILES IDX 55 87 57 88 54 89 50 90 51 91 52 92 53 93
REMARK H PARENT 14 7 18 27 77 46 45 57
REMARK Flexibility Score: inf
ROOT
ATOM      1  C   UNL A   1      32.771  32.180  27.214  1.00  0.00     0.118 C 
ENDROOT
BRANCH   1   2
ATOM      2  C   UNL A   1      31.471  31.600  26.672  1.00  0.00     0.042 C 
BRANCH   2   3
ATOM      3  C   UNL A   1      31.713  30.438  25.719  1.00  0.00     0.118 C 
BRANCH   3   4
ATOM      4  N   UNL A   1      30.780  30.446  24.602  1.00  0.00    -0.352 N 
ATOM      5  C   UNL A   1      30.384  29.592  23.631  1.00  0.00     0.251 C 
ATOM      6  O   UNL A   1      29.517  30.028  22.867  1.00  0.00    -0.270 OA
ATOM      7  H   UNL A   1      30.309  31.307  24.536  1.00  0.00     0.163 HD
BRANCH   5   8
ATOM      8  C   UNL A   1      30.905  28.206  23.442  1.00  0.00     0.067 C 
ATOM      9  C   UNL A   1      32.298  21.854  23.477  1.00  0.00     0.046 C 
ATOM     10  C   UNL A   1      31.800  23.242  23.779  1.00  0.00    -0.028 A 
ATOM     11  C   UNL A   1      32.098  24.249  22.856  1.00  0.00     0.052 A 
ATOM     12  C   UNL A   1      31.000  23.559  24.894  1.00  0.00     0.047 A 
ATOM     13  C   UNL A   1      31.646  25.547  23.056  1.00  0.00     0.128 A 
ATOM     14  C   UNL A   1      30.535  24.881  25.112  1.00  0.00    -0.021 A 
ATOM     15  Cl  UNL A   1      30.569  22.283  25.995  1.00  0.00    -0.084 Cl
ATOM     16  C   UNL A   1      30.866  25.882  24.166  1.00  0.00     0.022 A 
ATOM     17  O   UNL A   1      31.980  26.435  22.075  1.00  0.00    -0.475 OA
ATOM     18  C   UNL A   1      29.690  25.245  26.311  1.00  0.00     0.047 C 
ATOM     19  C   UNL A   1      30.391  27.267  24.260  1.00  0.00     0.026 C 
ATOM     20  C   UNL A   1      31.955  27.837  22.440  1.00  0.00     0.314 C 
BRANCH  20  21
ATOM     21  C   UNL A   1      33.367  28.277  22.871  1.00  0.00     0.429 C 
ATOM     22  F   UNL A   1      34.290  27.867  21.966  1.00  0.00    -0.167 F 
ATOM     23  F   UNL A   1      33.491  29.623  22.961  1.00  0.00    -0.167 F 
ATOM     24  F   UNL A   1      33.728  27.772  24.072  1.00  0.00    -0.167 F 
ENDBRANCH  20  21
ENDBRANCH   5   8
ENDBRANCH   3   4
ENDBRANCH   2   3
ENDBRANCH   1   2
BRANCH   1  25
ATOM     25  N   UNL A   1      32.659  33.614  27.463  1.00  0.00    -0.352 N 
ATOM     26  C   UNL A   1      33.212  34.384  28.456  1.00  0.00     0.251 C 
ATOM     27  H   UNL A   1      32.101  34.107  26.819  1.00  0.00     0.163 HD
ATOM     28  O   UNL A   1      32.760  35.506  28.674  1.00  0.00    -0.269 OA
BRANCH  26  29
ATOM     29  C   UNL A   1      34.336  33.859  29.255  1.00  0.00     0.039 A 
ATOM     30  C   UNL A   1      34.082  32.979  30.309  1.00  0.00     0.014 A 
ATOM     31  C   UNL A   1      35.645  34.255  28.970  1.00  0.00     0.014 A 
ATOM     32  C   UNL A   1      35.150  32.445  31.031  1.00  0.00     0.010 A 
ATOM     33  C   UNL A   1      36.709  33.648  29.620  1.00  0.00     0.010 A 
ATOM     34  C   UNL A   1      36.474  32.746  30.666  1.00  0.00    -0.014 A 
BRANCH  34  35
ATOM     35  C   UNL A   1      37.628  32.158  31.386  1.00  0.00     0.031 A 
ATOM     36  C   UNL A   1      38.411  31.041  30.750  1.00  0.00     0.074 A 
ATOM     37  C   UNL A   1      37.938  32.595  32.622  1.00  0.00     0.049 A 
ATOM     38  N   UNL A   1      39.399  30.342  31.244  1.00  0.00    -0.248 NA
ATOM     39  C   UNL A   1      38.009  30.636  29.393  1.00  0.00     0.031 C 
ATOM     40  C   UNL A   1      37.227  33.652  33.347  1.00  0.00     0.029 A 
ATOM     41  N   UNL A   1      38.930  32.212  33.487  1.00  0.00    -0.354 N 
ATOM     42  C   UNL A   1      39.731  29.415  30.262  1.00  0.00     0.074 A 
ATOM     43  C   UNL A   1      38.795  29.592  29.176  1.00  0.00     0.031 C 
ATOM     44  C   UNL A   1      37.838  33.864  34.524  1.00  0.00     0.029 A 
ATOM     45  C   UNL A   1      38.949  32.929  34.660  1.00  0.00     0.049 A 
ATOM     46  H   UNL A   1      39.569  31.491  33.286  1.00  0.00     0.167 HD
ATOM     47  C   UNL A   1      40.749  28.522  30.254  1.00  0.00     0.034 A 
ATOM     48  C   UNL A   1      39.770  32.841  35.725  1.00  0.00     0.034 A 
ATOM     49  C   UNL A   1      41.692  28.377  31.332  1.00  0.00     0.049 A 
ATOM     50  C   UNL A   1      40.871  31.815  35.708  1.00  0.00     0.074 A 
ATOM     51  C   UNL A   1      42.783  27.531  31.410  1.00  0.00     0.029 A 
ATOM     52  N   UNL A   1      41.659  29.102  32.515  1.00  0.00    -0.354 N 
ATOM     53  N   UNL A   1      41.177  30.951  34.768  1.00  0.00    -0.248 NA
ATOM     54  C   UNL A   1      41.737  31.748  36.893  1.00  0.00     0.031 C 
ATOM     55  C   UNL A   1      43.377  27.703  32.664  1.00  0.00     0.029 A 
ATOM     56  C   UNL A   1      42.697  28.703  33.340  1.00  0.00     0.049 A 
ATOM     57  H   UNL A   1      40.997  29.796  32.736  1.00  0.00     0.167 HD
ATOM     58  C   UNL A   1      42.284  30.253  35.239  1.00  0.00     0.074 A 
ATOM     59  C   UNL A   1      42.596  30.800  36.544  1.00  0.00     0.031 C 
ATOM     60  C   UNL A   1      42.983  29.255  34.643  1.00  0.00     0.034 A 
BRANCH  47  61
ATOM     61  C   UNL A   1      40.892  27.638  29.044  1.00  0.00     0.023 A 
ATOM     62  C   UNL A   1      41.882  27.878  28.076  1.00  0.00     0.031 A 
ATOM     63  C   UNL A   1      40.039  26.536  28.858  1.00  0.00     0.131 A 
ATOM     64  C   UNL A   1      41.965  27.059  26.941  1.00  0.00     0.055 A 
ATOM     65  C   UNL A   1      40.170  25.684  27.760  1.00  0.00     0.041 A 
ATOM     66  F   UNL A   1      39.063  26.273  29.741  1.00  0.00    -0.206 F 
ATOM     67  C   UNL A   1      41.133  25.948  26.790  1.00  0.00     0.022 A 
BRANCH  64  68
ATOM     68  S   UNL A   1      43.121  27.518  25.622  1.00  0.00     0.124 S 
ATOM     69  O   UNL A   1      44.097  28.320  26.355  1.00  0.00    -0.237 OA
ATOM     70  O   UNL A   1      43.589  26.221  25.145  1.00  0.00    -0.237 OA
ATOM     71  O   UNL A   1      42.288  28.265  24.682  1.00  0.00    -0.744 OA
ENDBRANCH  64  68
ENDBRANCH  47  61
BRANCH  48  72
ATOM     72  C   UNL A   1      39.587  33.754  36.886  1.00  0.00     0.023 A 
ATOM     73  C   UNL A   1      38.967  33.305  38.063  1.00  0.00     0.031 A 
ATOM     74  C   UNL A   1      40.036  35.086  36.842  1.00  0.00     0.131 A 
ATOM     75  C   UNL A   1      38.792  34.185  39.141  1.00  0.00     0.055 A 
ATOM     76  C   UNL A   1      39.894  35.948  37.932  1.00  0.00     0.041 A 
ATOM     77  F   UNL A   1      40.644  35.560  35.744  1.00  0.00    -0.206 F 
ATOM     78  C   UNL A   1      39.264  35.500  39.088  1.00  0.00     0.022 A 
BRANCH  75  79
ATOM     79  S   UNL A   1      37.912  33.596  40.613  1.00  0.00     0.124 S 
ATOM     80  O   UNL A   1      37.745  34.830  41.372  1.00  0.00    -0.237 OA
ATOM     81  O   UNL A   1      36.699  33.027  40.035  1.00  0.00    -0.237 OA
ATOM     82  O   UNL A   1      38.836  32.624  41.195  1.00  0.00    -0.744 OA
ENDBRANCH  75  79
ENDBRANCH  48  72
BRANCH  60  83
ATOM     83  C   UNL A   1      44.168  28.699  35.383  1.00  0.00     0.023 A 
ATOM     84  C   UNL A   1      44.024  27.671  36.327  1.00  0.00     0.031 A 
ATOM     85  C   UNL A   1      45.463  29.165  35.093  1.00  0.00     0.131 A 
ATOM     86  C   UNL A   1      45.159  27.153  36.968  1.00  0.00     0.055 A 
ATOM     87  C   UNL A   1      46.591  28.613  35.699  1.00  0.00     0.041 A 
ATOM     88  F   UNL A   1      45.651  30.145  34.194  1.00  0.00    -0.206 F 
ATOM     89  C   UNL A   1      46.442  27.604  36.646  1.00  0.00     0.022 A 
BRANCH  86  90
ATOM     90  S   UNL A   1      44.934  25.893  38.253  1.00  0.00     0.124 S 
ATOM     91  O   UNL A   1      44.130  26.609  39.238  1.00  0.00    -0.237 OA
ATOM     92  O   UNL A   1      44.252  24.823  37.531  1.00  0.00    -0.237 OA
ATOM     93  O   UNL A   1      46.299  25.584  38.673  1.00  0.00    -0.744 OA
ENDBRANCH  86  90
ENDBRANCH  60  83
ENDBRANCH  34  35
ENDBRANCH  26  29
ENDBRANCH   1  25
TORSDOF 14
ENDMDL
MODEL 2
REMARK VINA RESULT:     -12.7      6.033     11.697
REMARK SMILES Cc1cc2c(c(C)c1Cl)C=C(C(=O)NCCCNC(=O)c1ccc(-c3c4nc(c(-c5cc(S(=O)(=O)[O-])ccc5F)c5ccc([nH]5)c(-c5cc(S(=O)(=O)[O-])ccc5F)c5nc(c(-c6cc(S(=O)(=O)[O-])ccc6F)c6ccc3[nH]6)C=C5)C=C4)cc1)[C@@H](C(F)(F)F)O2
REMARK SMILES IDX 17 1 16 2 15 3 14 4 12 5 13 6 11 8 1 9 2 10 3 11 8 12 4 13
REMARK SMILES IDX 6 14 9 15 5 16 89 17 7 18 10 19 84 20 85 21 86 22 87 23
REMARK SMILES IDX 88 24 18 25 19 26 20 28 21 29 22 30 83 31 23 32 82 33 24 34
REMARK SMILES IDX 25 35 26 36 76 37 27 38 81 39 75 40 77 41 28 42 80 43 74 44
REMARK SMILES IDX 73 45 29 47 61 48 41 49 60 50 42 51 45 52 59 53 78 54 43 55
REMARK SMILES IDX 44 56 58 58 79 59 46 60 30 61 31 62 39 63 32 64 38 65 40 66
REMARK SMILES IDX 37 67 33 68 34 69 35 70 36 71 62 72 63 73 71 74 64 75 70 76
REMARK SMILES IDX 72 77 69 78 65 79 66 80 67 81 68 82 47 83 48 84 56 85 49 86
REMARK SMILES IDX 55 87 57 88 54 89 50 90 51 91 52 92 53 93
REMARK H PARENT 14 7 18 27 77 46 45 57
REMARK Flexibility Score: inf
ROOT
ATOM      1  C   UNL A   1      38.999  20.458  25.751  1.00  0.00     0.118 C 
ENDROOT
BRANCH   1   2
ATOM      2  C   UNL A   1      37.883  19.947  24.849  1.00  0.00     0.042 C 
BRANCH   2   3
ATOM      3  C   UNL A   1      36.545  20.600  25.165  1.00  0.00     0.118 C 
BRANCH   3   4
ATOM      4  N   UNL A   1      35.432  19.679  24.976  1.00  0.00    -0.352 N 
ATOM      5  C   UNL A   1      34.085  19.756  24.882  1.00  0.00     0.251 C 
ATOM      6  O   UNL A   1      33.509  18.678  24.701  1.00  0.00    -0.270 OA
ATOM      7  H   UNL A   1      35.746  18.751  24.894  1.00  0.00     0.163 HD
BRANCH   5   8
ATOM      8  C   UNL A   1      33.288  21.013  24.972  1.00  0.00     0.067 C 
ATOM      9  C   UNL A   1      29.989  26.551  24.111  1.00  0.00     0.046 C 
ATOM     10  C   UNL A   1      30.879  25.345  23.976  1.00  0.00    -0.028 A 
ATOM     11  C   UNL A   1      30.883  24.426  25.028  1.00  0.00     0.052 A 
ATOM     12  C   UNL A   1      31.645  25.065  22.827  1.00  0.00     0.047 A 
ATOM     13  C   UNL A   1      31.658  23.275  24.959  1.00  0.00     0.128 A 
ATOM     14  C   UNL A   1      32.445  23.896  22.745  1.00  0.00    -0.021 A 
ATOM     15  Cl  UNL A   1      31.573  26.177  21.491  1.00  0.00    -0.084 Cl
ATOM     16  C   UNL A   1      32.438  22.991  23.834  1.00  0.00     0.022 A 
ATOM     17  O   UNL A   1      31.559  22.443  26.036  1.00  0.00    -0.475 OA
ATOM     18  C   UNL A   1      33.287  23.586  21.529  1.00  0.00     0.047 C 
ATOM     19  C   UNL A   1      33.179  21.724  23.834  1.00  0.00     0.026 C 
ATOM     20  C   UNL A   1      32.652  21.512  26.233  1.00  0.00     0.314 C 
BRANCH  20  21
ATOM     21  C   UNL A   1      33.674  22.126  27.210  1.00  0.00     0.429 C 
ATOM     22  F   UNL A   1      33.039  22.767  28.222  1.00  0.00    -0.167 F 
ATOM     23  F   UNL A   1      34.471  21.195  27.786  1.00  0.00    -0.167 F 
ATOM     24  F   UNL A   1      34.492  23.023  26.614  1.00  0.00    -0.167 F 
ENDBRANCH  20  21
ENDBRANCH   5   8
ENDBRANCH   3   4
ENDBRANCH   2   3
ENDBRANCH   1   2
BRANCH   1  25
ATOM     25  N   UNL A   1      39.997  19.425  26.013  1.00  0.00    -0.352 N 
ATOM     26  C   UNL A   1      41.358  19.527  26.154  1.00  0.00     0.251 C 
ATOM     27  H   UNL A   1      39.638  18.512  26.103  1.00  0.00     0.163 HD
ATOM     28  O   UNL A   1      42.053  18.516  26.068  1.00  0.00    -0.269 OA
BRANCH  26  29
ATOM     29  C   UNL A   1      41.977  20.844  26.402  1.00  0.00     0.039 A 
ATOM     30  C   UNL A   1      42.288  21.673  25.323  1.00  0.00     0.014 A 
ATOM     31  C   UNL A   1      42.265  21.249  27.707  1.00  0.00     0.014 A 
ATOM     32  C   UNL A   1      42.825  22.939  25.562  1.00  0.00     0.010 A 
ATOM     33  C   UNL A   1      42.704  22.542  27.949  1.00  0.00     0.010 A 
ATOM     34  C   UNL A   1      43.002  23.397  26.879  1.00  0.00    -0.014 A 
BRANCH  34  35
ATOM     35  C   UNL A   1      43.529  24.753  27.163  1.00  0.00     0.031 A 
ATOM     36  C   UNL A   1      42.603  25.815  27.691  1.00  0.00     0.074 A 
ATOM     37  C   UNL A   1      44.820  25.036  26.902  1.00  0.00     0.049 A 
ATOM     38  N   UNL A   1      42.847  27.078  27.927  1.00  0.00    -0.248 NA
ATOM     39  C   UNL A   1      41.212  25.413  27.956  1.00  0.00     0.031 C 
ATOM     40  C   UNL A   1      45.800  24.090  26.360  1.00  0.00     0.029 A 
ATOM     41  N   UNL A   1      45.534  26.195  27.061  1.00  0.00    -0.354 N 
ATOM     42  C   UNL A   1      41.642  27.618  28.364  1.00  0.00     0.074 A 
ATOM     43  C   UNL A   1      40.653  26.567  28.290  1.00  0.00     0.031 C 
ATOM     44  C   UNL A   1      46.996  24.695  26.279  1.00  0.00     0.029 A 
ATOM     45  C   UNL A   1      46.860  26.081  26.713  1.00  0.00     0.049 A 
ATOM     46  H   UNL A   1      45.134  27.032  27.391  1.00  0.00     0.167 HD
ATOM     47  C   UNL A   1      41.394  28.869  28.819  1.00  0.00     0.034 A 
ATOM     48  C   UNL A   1      47.852  26.992  26.742  1.00  0.00     0.034 A 
ATOM     49  C   UNL A   1      42.396  29.897  28.913  1.00  0.00     0.049 A 
ATOM     50  C   UNL A   1      47.543  28.386  27.217  1.00  0.00     0.074 A 
ATOM     51  C   UNL A   1      42.261  31.187  29.395  1.00  0.00     0.029 A 
ATOM     52  N   UNL A   1      43.721  29.750  28.525  1.00  0.00    -0.354 N 
ATOM     53  N   UNL A   1      46.400  28.879  27.635  1.00  0.00    -0.248 NA
ATOM     54  C   UNL A   1      48.652  29.349  27.225  1.00  0.00     0.031 C 
ATOM     55  C   UNL A   1      43.489  31.837  29.245  1.00  0.00     0.029 A 
ATOM     56  C   UNL A   1      44.407  30.934  28.733  1.00  0.00     0.049 A 
ATOM     57  H   UNL A   1      44.114  28.927  28.155  1.00  0.00     0.167 HD
ATOM     58  C   UNL A   1      46.658  30.203  27.975  1.00  0.00     0.074 A 
ATOM     59  C   UNL A   1      48.066  30.431  27.719  1.00  0.00     0.031 C 
ATOM     60  C   UNL A   1      45.809  31.142  28.460  1.00  0.00     0.034 A 
BRANCH  47  61
ATOM     61  C   UNL A   1      39.987  29.188  29.248  1.00  0.00     0.023 A 
ATOM     62  C   UNL A   1      39.623  29.208  30.606  1.00  0.00     0.031 A 
ATOM     63  C   UNL A   1      38.999  29.488  28.294  1.00  0.00     0.131 A 
ATOM     64  C   UNL A   1      38.295  29.472  30.970  1.00  0.00     0.055 A 
ATOM     65  C   UNL A   1      37.694  29.816  28.667  1.00  0.00     0.041 A 
ATOM     66  F   UNL A   1      39.286  29.463  26.984  1.00  0.00    -0.206 F 
ATOM     67  C   UNL A   1      37.335  29.802  30.012  1.00  0.00     0.022 A 
BRANCH  64  68
ATOM     68  S   UNL A   1      37.822  29.294  32.712  1.00  0.00     0.124 S 
ATOM     69  O   UNL A   1      37.695  27.844  32.833  1.00  0.00    -0.237 OA
ATOM     70  O   UNL A   1      38.951  29.897  33.411  1.00  0.00    -0.237 OA
ATOM     71  O   UNL A   1      36.565  30.033  32.801  1.00  0.00    -0.744 OA
ENDBRANCH  64  68
ENDBRANCH  47  61
BRANCH  48  72
ATOM     72  C   UNL A   1      49.227  26.610  26.319  1.00  0.00     0.023 A 
ATOM     73  C   UNL A   1      49.748  27.047  25.091  1.00  0.00     0.031 A 
ATOM     74  C   UNL A   1      50.045  25.813  27.138  1.00  0.00     0.131 A 
ATOM     75  C   UNL A   1      51.042  26.665  24.705  1.00  0.00     0.055 A 
ATOM     76  C   UNL A   1      51.346  25.467  26.767  1.00  0.00     0.041 A 
ATOM     77  F   UNL A   1      49.597  25.379  28.327  1.00  0.00    -0.206 F 
ATOM     78  C   UNL A   1      51.849  25.890  25.541  1.00  0.00     0.022 A 
BRANCH  75  79
ATOM     79  S   UNL A   1      51.651  27.176  23.075  1.00  0.00     0.124 S 
ATOM     80  O   UNL A   1      50.513  26.857  22.220  1.00  0.00    -0.237 OA
ATOM     81  O   UNL A   1      51.922  28.595  23.282  1.00  0.00    -0.237 OA
ATOM     82  O   UNL A   1      52.835  26.342  22.878  1.00  0.00    -0.744 OA
ENDBRANCH  75  79
ENDBRANCH  48  72
BRANCH  60  83
ATOM     83  C   UNL A   1      46.379  32.500  28.769  1.00  0.00     0.023 A 
ATOM     84  C   UNL A   1      46.297  33.554  27.846  1.00  0.00     0.031 A 
ATOM     85  C   UNL A   1      46.954  32.754  30.027  1.00  0.00     0.131 A 
ATOM     86  C   UNL A   1      46.805  34.815  28.187  1.00  0.00     0.055 A 
ATOM     87  C   UNL A   1      47.415  34.023  30.377  1.00  0.00     0.041 A 
ATOM     88  F   UNL A   1      47.051  31.778  30.944  1.00  0.00    -0.206 F 
ATOM     89  C   UNL A   1      47.346  35.061  29.453  1.00  0.00     0.022 A 
BRANCH  86  90
ATOM     90  S   UNL A   1      46.774  36.132  26.941  1.00  0.00     0.124 S 
ATOM     91  O   UNL A   1      48.032  36.825  27.203  1.00  0.00    -0.237 OA
ATOM     92  O   UNL A   1      46.709  35.382  25.690  1.00  0.00    -0.237 OA
ATOM     93  O   UNL A   1      45.569  36.889  27.271  1.00  0.00    -0.744 OA
ENDBRANCH  86  90
ENDBRANCH  60  83
ENDBRANCH  34  35
ENDBRANCH  26  29
ENDBRANCH   1  25
TORSDOF 14
ENDMDL
MODEL 3
REMARK VINA RESULT:     -12.7      2.657      3.628
REMARK SMILES Cc1cc2c(c(C)c1Cl)C=C(C(=O)NCCCNC(=O)c1ccc(-c3c4nc(c(-c5cc(S(=O)(=O)[O-])ccc5F)c5ccc([nH]5)c(-c5cc(S(=O)(=O)[O-])ccc5F)c5nc(c(-c6cc(S(=O)(=O)[O-])ccc6F)c6ccc3[nH]6)C=C5)C=C4)cc1)[C@@H](C(F)(F)F)O2
REMARK SMILES IDX 17 1 16 2 15 3 14 4 12 5 13 6 11 8 1 9 2 10 3 11 8 12 4 13
REMARK SMILES IDX 6 14 9 15 5 16 89 17 7 18 10 19 84 20 85 21 86 22 87 23
REMARK SMILES IDX 88 24 18 25 19 26 20 28 21 29 22 30 83 31 23 32 82 33 24 34
REMARK SMILES IDX 25 35 26 36 76 37 27 38 81 39 75 40 77 41 28 42 80 43 74 44
REMARK SMILES IDX 73 45 29 47 61 48 41 49 60 50 42 51 45 52 59 53 78 54 43 55
REMARK SMILES IDX 44 56 58 58 79 59 46 60 30 61 31 62 39 63 32 64 38 65 40 66
REMARK SMILES IDX 37 67 33 68 34 69 35 70 36 71 62 72 63 73 71 74 64 75 70 76
REMARK SMILES IDX 72 77 69 78 65 79 66 80 67 81 68 82 47 83 48 84 56 85 49 86
REMARK SMILES IDX 55 87 57 88 54 89 50 90 51 91 52 92 53 93
REMARK H PARENT 14 7 18 27 77 46 45 57
REMARK Flexibility Score: inf
ROOT
ATOM      1  C   UNL A   1      33.626  29.000  24.852  1.00  0.00     0.118 C 
ENDROOT
BRANCH   1   2
ATOM      2  C   UNL A   1      33.096  28.558  23.494  1.00  0.00     0.042 C 
BRANCH   2   3
ATOM      3  C   UNL A   1      32.126  27.391  23.608  1.00  0.00     0.118 C 
BRANCH   3   4
ATOM      4  N   UNL A   1      31.700  27.169  24.982  1.00  0.00    -0.352 N 
ATOM      5  C   UNL A   1      31.609  26.126  25.838  1.00  0.00     0.251 C 
ATOM      6  O   UNL A   1      31.187  26.405  26.965  1.00  0.00    -0.270 OA
ATOM      7  H   UNL A   1      31.397  28.006  25.402  1.00  0.00     0.163 HD
BRANCH   5   8
ATOM      8  C   UNL A   1      31.981  24.717  25.517  1.00  0.00     0.067 C 
ATOM      9  C   UNL A   1      34.720  18.887  24.626  1.00  0.00     0.046 C 
ATOM     10  C   UNL A   1      34.432  20.341  24.883  1.00  0.00    -0.028 A 
ATOM     11  C   UNL A   1      33.093  20.742  24.890  1.00  0.00     0.052 A 
ATOM     12  C   UNL A   1      35.427  21.293  25.182  1.00  0.00     0.047 A 
ATOM     13  C   UNL A   1      32.753  22.064  25.149  1.00  0.00     0.128 A 
ATOM     14  C   UNL A   1      35.093  22.647  25.444  1.00  0.00    -0.021 A 
ATOM     15  Cl  UNL A   1      37.084  20.768  25.247  1.00  0.00    -0.084 Cl
ATOM     16  C   UNL A   1      33.728  23.025  25.430  1.00  0.00     0.022 A 
ATOM     17  O   UNL A   1      31.414  22.328  25.154  1.00  0.00    -0.475 OA
ATOM     18  C   UNL A   1      36.147  23.686  25.749  1.00  0.00     0.047 C 
ATOM     19  C   UNL A   1      33.265  24.381  25.744  1.00  0.00     0.026 C 
ATOM     20  C   UNL A   1      31.029  23.710  24.949  1.00  0.00     0.314 C 
BRANCH  20  21
ATOM     21  C   UNL A   1      30.742  23.943  23.453  1.00  0.00     0.429 C 
ATOM     22  F   UNL A   1      29.813  24.918  23.293  1.00  0.00    -0.167 F 
ATOM     23  F   UNL A   1      31.838  24.342  22.766  1.00  0.00    -0.167 F 
ATOM     24  F   UNL A   1      30.276  22.836  22.833  1.00  0.00    -0.167 F 
ENDBRANCH  20  21
ENDBRANCH   5   8
ENDBRANCH   3   4
ENDBRANCH   2   3
ENDBRANCH   1   2
BRANCH   1  25
ATOM     25  N   UNL A   1      32.941  30.196  25.336  1.00  0.00    -0.352 N 
ATOM     26  C   UNL A   1      33.047  30.848  26.539  1.00  0.00     0.251 C 
ATOM     27  H   UNL A   1      32.304  30.596  24.702  1.00  0.00     0.163 HD
ATOM     28  O   UNL A   1      32.175  31.648  26.872  1.00  0.00    -0.269 OA
BRANCH  26  29
ATOM     29  C   UNL A   1      34.199  30.582  27.422  1.00  0.00     0.039 A 
ATOM     30  C   UNL A   1      34.333  29.328  28.021  1.00  0.00     0.014 A 
ATOM     31  C   UNL A   1      35.138  31.586  27.672  1.00  0.00     0.014 A 
ATOM     32  C   UNL A   1      35.450  29.063  28.815  1.00  0.00     0.010 A 
ATOM     33  C   UNL A   1      36.296  31.290  28.377  1.00  0.00     0.010 A 
ATOM     34  C   UNL A   1      36.458  30.030  28.968  1.00  0.00    -0.014 A 
BRANCH  34  35
ATOM     35  C   UNL A   1      37.676  29.761  29.768  1.00  0.00     0.031 A 
ATOM     36  C   UNL A   1      38.751  28.869  29.210  1.00  0.00     0.074 A 
ATOM     37  C   UNL A   1      37.789  30.277  31.007  1.00  0.00     0.049 A 
ATOM     38  N   UNL A   1      39.850  28.447  29.779  1.00  0.00    -0.248 NA
ATOM     39  C   UNL A   1      38.549  28.358  27.844  1.00  0.00     0.031 C 
ATOM     40  C   UNL A   1      36.792  31.131  31.661  1.00  0.00     0.029 A 
ATOM     41  N   UNL A   1      38.789  30.167  31.937  1.00  0.00    -0.354 N 
ATOM     42  C   UNL A   1      40.464  27.621  28.844  1.00  0.00     0.074 A 
ATOM     43  C   UNL A   1      39.583  27.542  27.701  1.00  0.00     0.031 C 
ATOM     44  C   UNL A   1      37.257  31.505  32.864  1.00  0.00     0.029 A 
ATOM     45  C   UNL A   1      38.555  30.881  33.090  1.00  0.00     0.049 A 
ATOM     46  H   UNL A   1      39.600  29.627  31.794  1.00  0.00     0.167 HD
ATOM     47  C   UNL A   1      41.672  27.012  28.919  1.00  0.00     0.034 A 
ATOM     48  C   UNL A   1      39.304  31.015  34.202  1.00  0.00     0.034 A 
ATOM     49  C   UNL A   1      42.551  27.123  30.052  1.00  0.00     0.049 A 
ATOM     50  C   UNL A   1      40.626  30.299  34.277  1.00  0.00     0.074 A 
ATOM     51  C   UNL A   1      43.813  26.579  30.217  1.00  0.00     0.029 A 
ATOM     52  N   UNL A   1      42.265  27.831  31.211  1.00  0.00    -0.354 N 
ATOM     53  N   UNL A   1      41.196  29.528  33.380  1.00  0.00    -0.248 NA
ATOM     54  C   UNL A   1      41.406  30.468  35.510  1.00  0.00     0.031 C 
ATOM     55  C   UNL A   1      44.265  26.911  31.497  1.00  0.00     0.029 A 
ATOM     56  C   UNL A   1      43.316  27.717  32.105  1.00  0.00     0.049 A 
ATOM     57  H   UNL A   1      41.438  28.339  31.374  1.00  0.00     0.167 HD
ATOM     58  C   UNL A   1      42.411  29.137  33.933  1.00  0.00     0.074 A 
ATOM     59  C   UNL A   1      42.495  29.761  35.238  1.00  0.00     0.031 C 
ATOM     60  C   UNL A   1      43.373  28.339  33.406  1.00  0.00     0.034 A 
BRANCH  47  61
ATOM     61  C   UNL A   1      42.107  26.177  27.744  1.00  0.00     0.023 A 
ATOM     62  C   UNL A   1      41.734  24.827  27.629  1.00  0.00     0.031 A 
ATOM     63  C   UNL A   1      42.892  26.737  26.721  1.00  0.00     0.131 A 
ATOM     64  C   UNL A   1      42.187  24.066  26.542  1.00  0.00     0.055 A 
ATOM     65  C   UNL A   1      43.283  25.992  25.606  1.00  0.00     0.041 A 
ATOM     66  F   UNL A   1      43.293  28.015  26.790  1.00  0.00    -0.206 F 
ATOM     67  C   UNL A   1      42.936  24.647  25.516  1.00  0.00     0.022 A 
BRANCH  64  68
ATOM     68  S   UNL A   1      41.853  22.284  26.530  1.00  0.00     0.124 S 
ATOM     69  O   UNL A   1      42.630  21.849  25.371  1.00  0.00    -0.237 OA
ATOM     70  O   UNL A   1      42.355  21.859  27.831  1.00  0.00    -0.237 OA
ATOM     71  O   UNL A   1      40.403  22.210  26.365  1.00  0.00    -0.744 OA
ENDBRANCH  64  68
ENDBRANCH  47  61
BRANCH  48  72
ATOM     72  C   UNL A   1      38.826  31.868  35.325  1.00  0.00     0.023 A 
ATOM     73  C   UNL A   1      38.233  31.295  36.460  1.00  0.00     0.031 A 
ATOM     74  C   UNL A   1      38.963  33.267  35.284  1.00  0.00     0.131 A 
ATOM     75  C   UNL A   1      37.778  32.117  37.502  1.00  0.00     0.055 A 
ATOM     76  C   UNL A   1      38.542  34.079  36.340  1.00  0.00     0.041 A 
ATOM     77  F   UNL A   1      39.533  33.863  34.226  1.00  0.00    -0.206 F 
ATOM     78  C   UNL A   1      37.941  33.504  37.455  1.00  0.00     0.022 A 
BRANCH  75  79
ATOM     79  S   UNL A   1      36.940  31.349  38.915  1.00  0.00     0.124 S 
ATOM     80  O   UNL A   1      37.899  31.579  39.989  1.00  0.00    -0.237 OA
ATOM     81  O   UNL A   1      35.699  32.114  38.986  1.00  0.00    -0.237 OA
ATOM     82  O   UNL A   1      36.786  29.956  38.502  1.00  0.00    -0.744 OA
ENDBRANCH  75  79
ENDBRANCH  48  72
BRANCH  60  83
ATOM     83  C   UNL A   1      44.611  28.109  34.228  1.00  0.00     0.023 A 
ATOM     84  C   UNL A   1      44.718  27.013  35.098  1.00  0.00     0.031 A 
ATOM     85  C   UNL A   1      45.719  28.964  34.090  1.00  0.00     0.131 A 
ATOM     86  C   UNL A   1      45.904  26.811  35.818  1.00  0.00     0.055 A 
ATOM     87  C   UNL A   1      46.912  28.732  34.773  1.00  0.00     0.041 A 
ATOM     88  F   UNL A   1      45.665  30.024  33.267  1.00  0.00    -0.206 F 
ATOM     89  C   UNL A   1      47.008  27.652  35.647  1.00  0.00     0.022 A 
BRANCH  86  90
ATOM     90  S   UNL A   1      45.979  25.444  37.007  1.00  0.00     0.124 S 
ATOM     91  O   UNL A   1      44.785  24.679  36.661  1.00  0.00    -0.237 OA
ATOM     92  O   UNL A   1      47.255  24.814  36.684  1.00  0.00    -0.237 OA
ATOM     93  O   UNL A   1      45.930  26.114  38.305  1.00  0.00    -0.744 OA
ENDBRANCH  86  90
ENDBRANCH  60  83
ENDBRANCH  34  35
ENDBRANCH  26  29
ENDBRANCH   1  25
TORSDOF 14
ENDMDL
