MODEL 1
REMARK VINA RESULT:     -13.1      0.000      0.000
REMARK SMILES O=C(NCCCNC(=O)c1ccc(-c2c3nc(c(-c4cc(S(=O)(=O)[O-])ccc4F)c4ccc([nH]4)c(-c4cc(S(=O)(=O)[O-])ccc4F)c4nc(c(-c5cc(S(=O)(=O)[O-])ccc5F)c5ccc2[nH]5)C=C4)C=C3)cc1)C1=Cc2cc(S(F)(F)(F)(F)F)ccc2O[C@H]1C(F)(F)F
REMARK SMILES IDX 6 1 5 2 4 3 3 4 1 5 2 6 73 8 74 9 88 10 75 11 87 12 76 13
REMARK SMILES IDX 86 14 77 15 85 16 84 17 89 18 90 19 91 20 92 21 78 22 79 23
REMARK SMILES IDX 80 24 81 25 82 26 83 27 7 28 8 29 9 31 10 32 11 33 72 34
REMARK SMILES IDX 12 35 71 36 13 37 14 38 15 39 65 40 16 41 70 42 64 43 66 44
REMARK SMILES IDX 17 45 69 46 63 47 62 48 18 50 50 51 30 52 49 53 31 54 34 55
REMARK SMILES IDX 48 56 67 57 32 58 33 59 47 61 68 62 35 63 19 64 20 65 28 66
REMARK SMILES IDX 21 67 27 68 29 69 26 70 22 71 23 72 24 73 25 74 51 75 52 76
REMARK SMILES IDX 60 77 53 78 59 79 61 80 58 81 54 82 55 83 56 84 57 85 36 86
REMARK SMILES IDX 37 87 45 88 38 89 44 90 46 91 43 92 39 93 40 94 41 95 42 96
REMARK H PARENT 3 7 7 30 66 49 34 60
REMARK Flexibility Score: inf
ROOT
ATOM      1  C   UNL A   1      33.643  29.068  24.972  1.00  0.00     0.118 C 
ENDROOT
BRANCH   1   2
ATOM      2  C   UNL A   1      32.869  27.911  24.358  1.00  0.00     0.042 C 
BRANCH   2   3
ATOM      3  C   UNL A   1      33.098  26.655  25.183  1.00  0.00     0.118 C 
BRANCH   3   4
ATOM      4  N   UNL A   1      32.019  26.514  26.172  1.00  0.00    -0.352 N 
ATOM      5  O   UNL A   1      29.926  25.539  26.731  1.00  0.00    -0.270 OA
ATOM      6  C   UNL A   1      30.859  25.660  25.877  1.00  0.00     0.251 C 
ATOM      7  H   UNL A   1      32.073  26.992  27.030  1.00  0.00     0.163 HD
BRANCH   6   8
ATOM      8  C   UNL A   1      30.776  24.923  24.550  1.00  0.00     0.067 C 
ATOM      9  C   UNL A   1      31.521  23.802  24.347  1.00  0.00     0.025 C 
ATOM     10  C   UNL A   1      29.861  25.437  23.451  1.00  0.00     0.314 C 
ATOM     11  C   UNL A   1      32.436  23.288  25.446  1.00  0.00     0.019 A 
ATOM     12  O   UNL A   1      30.761  23.626  27.099  1.00  0.00    -0.475 OA
ATOM     13  C   UNL A   1      33.740  23.026  25.063  1.00  0.00     0.036 A 
ATOM     14  C   UNL A   1      32.059  23.197  26.717  1.00  0.00     0.128 A 
ATOM     15  C   UNL A   1      34.514  22.389  26.061  1.00  0.00     0.107 A 
ATOM     16  C   UNL A   1      32.915  22.690  27.665  1.00  0.00     0.048 A 
ATOM     17  C   UNL A   1      34.201  22.355  27.343  1.00  0.00     0.028 A 
BRANCH  10  18
ATOM     18  C   UNL A   1      29.148  26.691  23.930  1.00  0.00     0.429 C 
ATOM     19  F   UNL A   1      30.016  27.483  24.556  1.00  0.00    -0.167 F 
ATOM     20  F   UNL A   1      28.634  27.335  22.887  1.00  0.00    -0.167 F 
ATOM     21  F   UNL A   1      28.172  26.354  24.769  1.00  0.00    -0.167 F 
ENDBRANCH  10  18
BRANCH  15  22
ATOM     22  S   UNL A   1      36.040  21.562  25.544  1.00  0.00     0.310 S 
ATOM     23  F   UNL A   1      35.869  22.076  24.054  1.00  0.00    -0.094 F 
ATOM     24  F   UNL A   1      35.199  20.295  25.130  1.00  0.00    -0.094 F 
ATOM     25  F   UNL A   1      37.356  20.872  25.091  1.00  0.00    -0.094 F 
ATOM     26  F   UNL A   1      36.845  22.890  25.833  1.00  0.00    -0.094 F 
ATOM     27  F   UNL A   1      34.697  22.317  25.902  1.00  0.00    -0.094 F 
ENDBRANCH  15  22
ENDBRANCH   6   8
ENDBRANCH   3   4
ENDBRANCH   2   3
ENDBRANCH   1   2
BRANCH   1  28
ATOM     28  N   UNL A   1      32.700  30.080  25.468  1.00  0.00    -0.352 N 
ATOM     29  C   UNL A   1      33.034  30.873  26.660  1.00  0.00     0.251 C 
ATOM     30  H   UNL A   1      31.846  30.227  25.002  1.00  0.00     0.163 HD
ATOM     31  O   UNL A   1      32.219  31.748  27.090  1.00  0.00    -0.269 OA
BRANCH  29  32
ATOM     32  C   UNL A   1      34.353  30.646  27.379  1.00  0.00     0.039 A 
ATOM     33  C   UNL A   1      34.607  29.390  27.907  1.00  0.00     0.014 A 
ATOM     34  C   UNL A   1      35.188  31.659  27.579  1.00  0.00     0.014 A 
ATOM     35  C   UNL A   1      35.633  29.375  28.882  1.00  0.00     0.010 A 
ATOM     36  C   UNL A   1      36.250  31.531  28.442  1.00  0.00     0.010 A 
ATOM     37  C   UNL A   1      36.525  30.335  29.045  1.00  0.00    -0.014 A 
BRANCH  37  38
ATOM     38  C   UNL A   1      37.791  30.122  29.859  1.00  0.00     0.031 A 
ATOM     39  C   UNL A   1      37.960  30.754  31.093  1.00  0.00     0.074 A 
ATOM     40  C   UNL A   1      38.692  29.218  29.323  1.00  0.00     0.049 A 
ATOM     41  N   UNL A   1      38.958  30.589  31.961  1.00  0.00    -0.248 NA
ATOM     42  C   UNL A   1      37.021  31.741  31.649  1.00  0.00     0.031 C 
ATOM     43  C   UNL A   1      38.524  28.569  28.085  1.00  0.00     0.029 A 
ATOM     44  N   UNL A   1      39.882  28.788  29.867  1.00  0.00    -0.354 N 
ATOM     45  C   UNL A   1      38.763  31.353  33.039  1.00  0.00     0.074 A 
ATOM     46  C   UNL A   1      37.517  32.109  32.849  1.00  0.00     0.031 C 
ATOM     47  C   UNL A   1      39.604  27.769  27.879  1.00  0.00     0.029 A 
ATOM     48  C   UNL A   1      40.463  27.904  28.985  1.00  0.00     0.049 A 
ATOM     49  H   UNL A   1      40.254  29.066  30.734  1.00  0.00     0.167 HD
ATOM     50  C   UNL A   1      39.574  31.447  34.171  1.00  0.00     0.034 A 
ATOM     51  C   UNL A   1      41.674  27.243  29.119  1.00  0.00     0.034 A 
ATOM     52  C   UNL A   1      40.764  30.753  34.324  1.00  0.00     0.049 A 
ATOM     53  C   UNL A   1      42.514  27.382  30.227  1.00  0.00     0.074 A 
ATOM     54  C   UNL A   1      41.588  30.831  35.463  1.00  0.00     0.029 A 
ATOM     55  N   UNL A   1      41.356  29.888  33.432  1.00  0.00    -0.354 N 
ATOM     56  N   UNL A   1      42.299  28.115  31.320  1.00  0.00    -0.248 NA
ATOM     57  C   UNL A   1      43.814  26.712  30.365  1.00  0.00     0.031 C 
ATOM     58  C   UNL A   1      42.668  30.030  35.257  1.00  0.00     0.029 A 
ATOM     59  C   UNL A   1      42.535  29.441  33.985  1.00  0.00     0.049 A 
ATOM     60  H   UNL A   1      40.998  29.632  32.551  1.00  0.00     0.167 HD
ATOM     61  C   UNL A   1      43.318  27.981  32.171  1.00  0.00     0.074 A 
ATOM     62  C   UNL A   1      44.311  27.083  31.566  1.00  0.00     0.031 C 
ATOM     63  C   UNL A   1      43.459  28.569  33.430  1.00  0.00     0.034 A 
BRANCH  50  64
ATOM     64  C   UNL A   1      39.126  32.361  35.300  1.00  0.00     0.023 A 
ATOM     65  C   UNL A   1      39.468  33.704  35.304  1.00  0.00     0.031 A 
ATOM     66  C   UNL A   1      38.360  31.843  36.252  1.00  0.00     0.131 A 
ATOM     67  C   UNL A   1      39.186  34.364  36.523  1.00  0.00     0.055 A 
ATOM     68  C   UNL A   1      38.010  32.590  37.352  1.00  0.00     0.041 A 
ATOM     69  F   UNL A   1      37.927  30.590  36.142  1.00  0.00    -0.206 F 
ATOM     70  C   UNL A   1      38.364  33.907  37.449  1.00  0.00     0.022 A 
BRANCH  67  71
ATOM     71  S   UNL A   1      40.009  35.945  36.833  1.00  0.00     0.124 S 
ATOM     72  O   UNL A   1      39.324  36.657  38.002  1.00  0.00    -0.237 OA
ATOM     73  O   UNL A   1      41.479  35.697  37.178  1.00  0.00    -0.237 OA
ATOM     74  O   UNL A   1      39.910  36.924  35.434  1.00  0.00    -0.744 OA
ENDBRANCH  67  71
ENDBRANCH  50  64
BRANCH  51  75
ATOM     75  C   UNL A   1      42.113  26.315  27.999  1.00  0.00     0.023 A 
ATOM     76  C   UNL A   1      41.542  25.062  27.855  1.00  0.00     0.031 A 
ATOM     77  C   UNL A   1      43.091  26.723  27.197  1.00  0.00     0.131 A 
ATOM     78  C   UNL A   1      42.273  24.192  27.011  1.00  0.00     0.055 A 
ATOM     79  C   UNL A   1      43.668  25.856  26.301  1.00  0.00     0.041 A 
ATOM     80  F   UNL A   1      43.513  27.982  27.261  1.00  0.00    -0.206 F 
ATOM     81  C   UNL A   1      43.192  24.583  26.148  1.00  0.00     0.022 A 
BRANCH  78  82
ATOM     82  S   UNL A   1      41.924  22.419  27.124  1.00  0.00     0.124 S 
ATOM     83  O   UNL A   1      42.792  21.797  28.221  1.00  0.00    -0.237 OA
ATOM     84  O   UNL A   1      40.446  22.211  27.465  1.00  0.00    -0.237 OA
ATOM     85  O   UNL A   1      42.275  21.672  25.628  1.00  0.00    -0.744 OA
ENDBRANCH  78  82
ENDBRANCH  51  75
BRANCH  63  86
ATOM     86  C   UNL A   1      44.700  28.232  34.239  1.00  0.00     0.023 A 
ATOM     87  C   UNL A   1      44.625  27.182  35.140  1.00  0.00     0.031 A 
ATOM     88  C   UNL A   1      45.806  28.958  34.119  1.00  0.00     0.131 A 
ATOM     89  C   UNL A   1      45.681  27.157  36.082  1.00  0.00     0.055 A 
ATOM     90  C   UNL A   1      46.853  28.787  34.991  1.00  0.00     0.041 A 
ATOM     91  F   UNL A   1      45.899  29.858  33.145  1.00  0.00    -0.206 F 
ATOM     92  C   UNL A   1      46.822  27.808  35.944  1.00  0.00     0.022 A 
BRANCH  89  93
ATOM     93  S   UNL A   1      45.450  26.168  37.579  1.00  0.00     0.124 S 
ATOM     94  O   UNL A   1      44.950  24.773  37.197  1.00  0.00    -0.237 OA
ATOM     95  O   UNL A   1      46.783  26.047  38.321  1.00  0.00    -0.237 OA
ATOM     96  O   UNL A   1      44.302  26.927  38.593  1.00  0.00    -0.744 OA
ENDBRANCH  89  93
ENDBRANCH  63  86
ENDBRANCH  37  38
ENDBRANCH  29  32
ENDBRANCH   1  28
TORSDOF 15
ENDMDL
MODEL 2
REMARK VINA RESULT:     -13.1      2.847      8.086
REMARK SMILES O=C(NCCCNC(=O)c1ccc(-c2c3nc(c(-c4cc(S(=O)(=O)[O-])ccc4F)c4ccc([nH]4)c(-c4cc(S(=O)(=O)[O-])ccc4F)c4nc(c(-c5cc(S(=O)(=O)[O-])ccc5F)c5ccc2[nH]5)C=C4)C=C3)cc1)C1=Cc2cc(S(F)(F)(F)(F)F)ccc2O[C@H]1C(F)(F)F
REMARK SMILES IDX 6 1 5 2 4 3 3 4 1 5 2 6 73 8 74 9 88 10 75 11 87 12 76 13
REMARK SMILES IDX 86 14 77 15 85 16 84 17 89 18 90 19 91 20 92 21 78 22 79 23
REMARK SMILES IDX 80 24 81 25 82 26 83 27 7 28 8 29 9 31 10 32 11 33 72 34
REMARK SMILES IDX 12 35 71 36 13 37 14 38 15 39 65 40 16 41 70 42 64 43 66 44
REMARK SMILES IDX 17 45 69 46 63 47 62 48 18 50 50 51 30 52 49 53 31 54 34 55
REMARK SMILES IDX 48 56 67 57 32 58 33 59 47 61 68 62 35 63 19 64 20 65 28 66
REMARK SMILES IDX 21 67 27 68 29 69 26 70 22 71 23 72 24 73 25 74 51 75 52 76
REMARK SMILES IDX 60 77 53 78 59 79 61 80 58 81 54 82 55 83 56 84 57 85 36 86
REMARK SMILES IDX 37 87 45 88 38 89 44 90 46 91 43 92 39 93 40 94 41 95 42 96
REMARK H PARENT 3 7 7 30 66 49 34 60
REMARK Flexibility Score: inf
ROOT
ATOM      1  C   UNL A   1      34.034  28.440  26.737  1.00  0.00     0.118 C 
ENDROOT
BRANCH   1   2
ATOM      2  C   UNL A   1      33.574  27.967  25.367  1.00  0.00     0.042 C 
BRANCH   2   3
ATOM      3  C   UNL A   1      33.326  26.467  25.407  1.00  0.00     0.118 C 
BRANCH   3   4
ATOM      4  N   UNL A   1      32.274  26.170  26.389  1.00  0.00    -0.352 N 
ATOM      5  O   UNL A   1      30.250  25.025  26.877  1.00  0.00    -0.270 OA
ATOM      6  C   UNL A   1      31.159  25.282  26.027  1.00  0.00     0.251 C 
ATOM      7  H   UNL A   1      32.315  26.566  27.289  1.00  0.00     0.163 HD
BRANCH   6   8
ATOM      8  C   UNL A   1      31.096  24.670  24.637  1.00  0.00     0.067 C 
ATOM      9  C   UNL A   1      31.845  23.574  24.341  1.00  0.00     0.025 C 
ATOM     10  C   UNL A   1      30.195  25.284  23.578  1.00  0.00     0.314 C 
ATOM     11  C   UNL A   1      32.746  22.960  25.400  1.00  0.00     0.019 A 
ATOM     12  O   UNL A   1      31.048  23.143  27.053  1.00  0.00    -0.475 OA
ATOM     13  C   UNL A   1      34.056  22.735  25.012  1.00  0.00     0.036 A 
ATOM     14  C   UNL A   1      32.352  22.751  26.652  1.00  0.00     0.128 A 
ATOM     15  C   UNL A   1      34.817  22.008  25.958  1.00  0.00     0.107 A 
ATOM     16  C   UNL A   1      33.195  22.159  27.560  1.00  0.00     0.048 A 
ATOM     17  C   UNL A   1      34.486  21.855  27.227  1.00  0.00     0.028 A 
BRANCH  10  18
ATOM     18  C   UNL A   1      29.475  26.488  24.161  1.00  0.00     0.429 C 
ATOM     19  F   UNL A   1      30.369  27.363  24.616  1.00  0.00    -0.167 F 
ATOM     20  F   UNL A   1      28.734  27.063  23.217  1.00  0.00    -0.167 F 
ATOM     21  F   UNL A   1      28.691  26.095  25.161  1.00  0.00    -0.167 F 
ENDBRANCH  10  18
BRANCH  15  22
ATOM     22  S   UNL A   1      36.350  21.233  25.388  1.00  0.00     0.310 S 
ATOM     23  F   UNL A   1      36.167  21.831  23.931  1.00  0.00    -0.094 F 
ATOM     24  F   UNL A   1      35.524  19.982  24.904  1.00  0.00    -0.094 F 
ATOM     25  F   UNL A   1      37.674  20.588  24.890  1.00  0.00    -0.094 F 
ATOM     26  F   UNL A   1      37.140  22.553  25.751  1.00  0.00    -0.094 F 
ATOM     27  F   UNL A   1      35.000  21.948  25.794  1.00  0.00    -0.094 F 
ENDBRANCH  15  22
ENDBRANCH   6   8
ENDBRANCH   3   4
ENDBRANCH   2   3
ENDBRANCH   1   2
BRANCH   1  28
ATOM     28  N   UNL A   1      33.591  29.826  26.950  1.00  0.00    -0.352 N 
ATOM     29  C   UNL A   1      34.460  30.773  27.665  1.00  0.00     0.251 C 
ATOM     30  H   UNL A   1      32.714  30.119  26.615  1.00  0.00     0.163 HD
ATOM     31  O   UNL A   1      34.078  31.970  27.850  1.00  0.00    -0.269 OA
BRANCH  29  32
ATOM     32  C   UNL A   1      35.815  30.318  28.183  1.00  0.00     0.039 A 
ATOM     33  C   UNL A   1      36.919  30.471  27.360  1.00  0.00     0.014 A 
ATOM     34  C   UNL A   1      35.909  29.700  29.354  1.00  0.00     0.014 A 
ATOM     35  C   UNL A   1      38.028  29.675  27.736  1.00  0.00     0.010 A 
ATOM     36  C   UNL A   1      37.070  29.059  29.716  1.00  0.00     0.010 A 
ATOM     37  C   UNL A   1      38.181  29.118  28.923  1.00  0.00    -0.014 A 
BRANCH  37  38
ATOM     38  C   UNL A   1      39.523  28.571  29.383  1.00  0.00     0.031 A 
ATOM     39  C   UNL A   1      40.070  27.433  28.787  1.00  0.00     0.074 A 
ATOM     40  C   UNL A   1      40.163  29.320  30.356  1.00  0.00     0.049 A 
ATOM     41  N   UNL A   1      41.271  26.897  29.009  1.00  0.00    -0.248 NA
ATOM     42  C   UNL A   1      39.378  26.616  27.779  1.00  0.00     0.031 C 
ATOM     43  C   UNL A   1      39.622  30.474  30.954  1.00  0.00     0.029 A 
ATOM     44  N   UNL A   1      41.404  29.099  30.911  1.00  0.00    -0.354 N 
ATOM     45  C   UNL A   1      41.445  25.821  28.238  1.00  0.00     0.074 A 
ATOM     46  C   UNL A   1      40.227  25.622  27.440  1.00  0.00     0.031 C 
ATOM     47  C   UNL A   1      40.518  30.935  31.866  1.00  0.00     0.029 A 
ATOM     48  C   UNL A   1      41.634  30.078  31.853  1.00  0.00     0.049 A 
ATOM     49  H   UNL A   1      42.019  28.367  30.678  1.00  0.00     0.167 HD
ATOM     50  C   UNL A   1      42.573  25.001  28.167  1.00  0.00     0.034 A 
ATOM     51  C   UNL A   1      42.747  30.230  32.664  1.00  0.00     0.034 A 
ATOM     52  C   UNL A   1      43.703  25.179  28.948  1.00  0.00     0.049 A 
ATOM     53  C   UNL A   1      43.851  29.374  32.634  1.00  0.00     0.074 A 
ATOM     54  C   UNL A   1      44.851  24.365  28.882  1.00  0.00     0.029 A 
ATOM     55  N   UNL A   1      43.923  26.143  29.905  1.00  0.00    -0.354 N 
ATOM     56  N   UNL A   1      44.041  28.324  31.835  1.00  0.00    -0.248 NA
ATOM     57  C   UNL A   1      45.022  29.508  33.512  1.00  0.00     0.031 C 
ATOM     58  C   UNL A   1      45.747  24.827  29.795  1.00  0.00     0.029 A 
ATOM     59  C   UNL A   1      45.173  25.936  30.445  1.00  0.00     0.049 A 
ATOM     60  H   UNL A   1      43.295  26.858  30.161  1.00  0.00     0.167 HD
ATOM     61  C   UNL A   1      45.226  27.763  32.086  1.00  0.00     0.074 A 
ATOM     62  C   UNL A   1      45.871  28.512  33.174  1.00  0.00     0.031 C 
ATOM     63  C   UNL A   1      45.797  26.660  31.450  1.00  0.00     0.034 A 
BRANCH  50  64
ATOM     64  C   UNL A   1      42.559  23.847  27.177  1.00  0.00     0.023 A 
ATOM     65  C   UNL A   1      41.805  22.711  27.422  1.00  0.00     0.031 A 
ATOM     66  C   UNL A   1      43.252  23.985  26.054  1.00  0.00     0.131 A 
ATOM     67  C   UNL A   1      42.078  21.640  26.538  1.00  0.00     0.055 A 
ATOM     68  C   UNL A   1      43.365  22.939  25.168  1.00  0.00     0.041 A 
ATOM     69  F   UNL A   1      43.843  25.144  25.781  1.00  0.00    -0.206 F 
ATOM     70  C   UNL A   1      42.693  21.766  25.377  1.00  0.00     0.022 A 
BRANCH  67  71
ATOM     71  S   UNL A   1      41.545  19.983  27.034  1.00  0.00     0.124 S 
ATOM     72  O   UNL A   1      42.771  19.085  27.211  1.00  0.00    -0.237 OA
ATOM     73  O   UNL A   1      40.779  20.067  28.356  1.00  0.00    -0.237 OA
ATOM     74  O   UNL A   1      40.526  19.327  25.827  1.00  0.00    -0.744 OA
ENDBRANCH  67  71
ENDBRANCH  50  64
BRANCH  51  75
ATOM     75  C   UNL A   1      42.768  31.394  33.641  1.00  0.00     0.023 A 
ATOM     76  C   UNL A   1      42.362  31.221  34.953  1.00  0.00     0.031 A 
ATOM     77  C   UNL A   1      43.138  32.586  33.186  1.00  0.00     0.131 A 
ATOM     78  C   UNL A   1      42.104  32.433  35.638  1.00  0.00     0.055 A 
ATOM     79  C   UNL A   1      42.982  33.710  33.961  1.00  0.00     0.041 A 
ATOM     80  F   UNL A   1      43.665  32.692  31.970  1.00  0.00    -0.206 F 
ATOM     81  C   UNL A   1      42.530  33.619  35.248  1.00  0.00     0.022 A 
BRANCH  78  82
ATOM     82  S   UNL A   1      41.118  32.349  37.155  1.00  0.00     0.124 S 
ATOM     83  O   UNL A   1      41.894  31.578  38.226  1.00  0.00    -0.237 OA
ATOM     84  O   UNL A   1      40.832  33.767  37.656  1.00  0.00    -0.237 OA
ATOM     85  O   UNL A   1      39.643  31.550  36.833  1.00  0.00    -0.744 OA
ENDBRANCH  78  82
ENDBRANCH  51  75
BRANCH  63  86
ATOM     86  C   UNL A   1      47.186  26.225  31.886  1.00  0.00     0.023 A 
ATOM     87  C   UNL A   1      48.271  26.687  31.157  1.00  0.00     0.031 A 
ATOM     88  C   UNL A   1      47.348  25.389  32.904  1.00  0.00     0.131 A 
ATOM     89  C   UNL A   1      49.470  25.977  31.401  1.00  0.00     0.055 A 
ATOM     90  C   UNL A   1      48.577  24.837  33.168  1.00  0.00     0.041 A 
ATOM     91  F   UNL A   1      46.308  25.083  33.675  1.00  0.00    -0.206 F 
ATOM     92  C   UNL A   1      49.681  25.203  32.450  1.00  0.00     0.022 A 
BRANCH  89  93
ATOM     93  S   UNL A   1      50.806  26.141  30.192  1.00  0.00     0.124 S 
ATOM     94  O   UNL A   1      50.542  25.206  29.010  1.00  0.00    -0.237 OA
ATOM     95  O   UNL A   1      50.869  27.587  29.695  1.00  0.00    -0.237 OA
ATOM     96  O   UNL A   1      52.293  25.725  30.926  1.00  0.00    -0.744 OA
ENDBRANCH  89  93
ENDBRANCH  63  86
ENDBRANCH  37  38
ENDBRANCH  29  32
ENDBRANCH   1  28
TORSDOF 15
ENDMDL
MODEL 3
REMARK VINA RESULT:     -13.1      5.089      7.571
REMARK SMILES O=C(NCCCNC(=O)c1ccc(-c2c3nc(c(-c4cc(S(=O)(=O)[O-])ccc4F)c4ccc([nH]4)c(-c4cc(S(=O)(=O)[O-])ccc4F)c4nc(c(-c5cc(S(=O)(=O)[O-])ccc5F)c5ccc2[nH]5)C=C4)C=C3)cc1)C1=Cc2cc(S(F)(F)(F)(F)F)ccc2O[C@H]1C(F)(F)F
REMARK SMILES IDX 6 1 5 2 4 3 3 4 1 5 2 6 73 8 74 9 88 10 75 11 87 12 76 13
REMARK SMILES IDX 86 14 77 15 85 16 84 17 89 18 90 19 91 20 92 21 78 22 79 23
REMARK SMILES IDX 80 24 81 25 82 26 83 27 7 28 8 29 9 31 10 32 11 33 72 34
REMARK SMILES IDX 12 35 71 36 13 37 14 38 15 39 65 40 16 41 70 42 64 43 66 44
REMARK SMILES IDX 17 45 69 46 63 47 62 48 18 50 50 51 30 52 49 53 31 54 34 55
REMARK SMILES IDX 48 56 67 57 32 58 33 59 47 61 68 62 35 63 19 64 20 65 28 66
REMARK SMILES IDX 21 67 27 68 29 69 26 70 22 71 23 72 24 73 25 74 51 75 52 76
REMARK SMILES IDX 60 77 53 78 59 79 61 80 58 81 54 82 55 83 56 84 57 85 36 86
REMARK SMILES IDX 37 87 45 88 38 89 44 90 46 91 43 92 39 93 40 94 41 95 42 96
REMARK H PARENT 3 7 7 30 66 49 34 60
REMARK Flexibility Score: inf
ROOT
ATOM      1  C   UNL A   1      36.901  23.313  26.062  1.00  0.00     0.118 C 
ENDROOT
BRANCH   1   2
ATOM      2  C   UNL A   1      36.415  23.475  24.630  1.00  0.00     0.042 C 
BRANCH   2   3
ATOM      3  C   UNL A   1      35.184  24.368  24.612  1.00  0.00     0.118 C 
BRANCH   3   4
ATOM      4  N   UNL A   1      34.565  24.322  23.279  1.00  0.00    -0.352 N 
ATOM      5  O   UNL A   1      32.584  24.050  21.995  1.00  0.00    -0.270 OA
ATOM      6  C   UNL A   1      33.119  24.090  23.148  1.00  0.00     0.251 C 
ATOM      7  H   UNL A   1      35.119  24.446  22.475  1.00  0.00     0.163 HD
BRANCH   6   8
ATOM      8  C   UNL A   1      32.264  23.898  24.389  1.00  0.00     0.067 C 
ATOM      9  C   UNL A   1      31.930  24.970  25.158  1.00  0.00     0.025 C 
ATOM     10  C   UNL A   1      31.783  22.509  24.773  1.00  0.00     0.314 C 
ATOM     11  C   UNL A   1      32.411  26.360  24.774  1.00  0.00     0.019 A 
ATOM     12  O   UNL A   1      31.866  25.997  22.489  1.00  0.00    -0.475 OA
ATOM     13  C   UNL A   1      33.025  27.079  25.786  1.00  0.00     0.036 A 
ATOM     14  C   UNL A   1      32.357  26.826  23.531  1.00  0.00     0.128 A 
ATOM     15  C   UNL A   1      33.303  28.424  25.445  1.00  0.00     0.107 A 
ATOM     16  C   UNL A   1      32.773  28.105  23.246  1.00  0.00     0.048 A 
ATOM     17  C   UNL A   1      33.335  28.893  24.211  1.00  0.00     0.028 A 
BRANCH  10  18
ATOM     18  C   UNL A   1      32.292  21.498  23.759  1.00  0.00     0.429 C 
ATOM     19  F   UNL A   1      33.614  21.606  23.649  1.00  0.00    -0.167 F 
ATOM     20  F   UNL A   1      31.979  20.270  24.160  1.00  0.00    -0.167 F 
ATOM     21  F   UNL A   1      31.729  21.734  22.576  1.00  0.00    -0.167 F 
ENDBRANCH  10  18
BRANCH  15  22
ATOM     22  S   UNL A   1      33.638  29.583  26.795  1.00  0.00     0.310 S 
ATOM     23  F   UNL A   1      33.453  28.443  27.882  1.00  0.00    -0.094 F 
ATOM     24  F   UNL A   1      32.092  29.861  26.924  1.00  0.00    -0.094 F 
ATOM     25  F   UNL A   1      33.941  30.563  27.963  1.00  0.00    -0.094 F 
ATOM     26  F   UNL A   1      35.166  29.185  26.744  1.00  0.00    -0.094 F 
ATOM     27  F   UNL A   1      33.335  28.499  25.684  1.00  0.00    -0.094 F 
ENDBRANCH  15  22
ENDBRANCH   6   8
ENDBRANCH   3   4
ENDBRANCH   2   3
ENDBRANCH   1   2
BRANCH   1  28
ATOM     28  N   UNL A   1      37.819  22.168  26.141  1.00  0.00    -0.352 N 
ATOM     29  C   UNL A   1      39.204  22.367  26.595  1.00  0.00     0.251 C 
ATOM     30  H   UNL A   1      37.508  21.269  25.890  1.00  0.00     0.163 HD
ATOM     31  O   UNL A   1      39.998  21.377  26.663  1.00  0.00    -0.269 OA
BRANCH  29  32
ATOM     32  C   UNL A   1      39.684  23.755  26.982  1.00  0.00     0.039 A 
ATOM     33  C   UNL A   1      39.644  24.117  28.320  1.00  0.00     0.014 A 
ATOM     34  C   UNL A   1      40.035  24.627  26.044  1.00  0.00     0.014 A 
ATOM     35  C   UNL A   1      39.714  25.513  28.538  1.00  0.00     0.010 A 
ATOM     36  C   UNL A   1      40.220  25.953  26.354  1.00  0.00     0.010 A 
ATOM     37  C   UNL A   1      40.138  26.390  27.646  1.00  0.00    -0.014 A 
BRANCH  37  38
ATOM     38  C   UNL A   1      40.512  27.811  28.036  1.00  0.00     0.031 A 
ATOM     39  C   UNL A   1      39.544  28.698  28.511  1.00  0.00     0.074 A 
ATOM     40  C   UNL A   1      41.861  28.110  27.952  1.00  0.00     0.049 A 
ATOM     41  N   UNL A   1      39.733  29.931  28.984  1.00  0.00    -0.248 NA
ATOM     42  C   UNL A   1      38.106  28.396  28.569  1.00  0.00     0.031 C 
ATOM     43  C   UNL A   1      42.844  27.217  27.483  1.00  0.00     0.029 A 
ATOM     44  N   UNL A   1      42.489  29.286  28.295  1.00  0.00    -0.354 N 
ATOM     45  C   UNL A   1      38.569  30.463  29.362  1.00  0.00     0.074 A 
ATOM     46  C   UNL A   1      37.505  29.486  29.094  1.00  0.00     0.031 C 
ATOM     47  C   UNL A   1      44.046  27.851  27.531  1.00  0.00     0.029 A 
ATOM     48  C   UNL A   1      43.834  29.149  28.031  1.00  0.00     0.049 A 
ATOM     49  H   UNL A   1      42.052  30.087  28.664  1.00  0.00     0.167 HD
ATOM     50  C   UNL A   1      38.353  31.724  29.921  1.00  0.00     0.034 A 
ATOM     51  C   UNL A   1      44.834  30.091  28.209  1.00  0.00     0.034 A 
ATOM     52  C   UNL A   1      39.360  32.651  30.138  1.00  0.00     0.049 A 
ATOM     53  C   UNL A   1      44.610  31.375  28.714  1.00  0.00     0.074 A 
ATOM     54  C   UNL A   1      39.160  33.923  30.708  1.00  0.00     0.029 A 
ATOM     55  N   UNL A   1      40.701  32.523  29.852  1.00  0.00    -0.354 N 
ATOM     56  N   UNL A   1      43.452  31.891  29.128  1.00  0.00    -0.248 NA
ATOM     57  C   UNL A   1      45.657  32.392  28.876  1.00  0.00     0.031 C 
ATOM     58  C   UNL A   1      40.362  34.557  30.756  1.00  0.00     0.029 A 
ATOM     59  C   UNL A   1      41.332  33.691  30.216  1.00  0.00     0.049 A 
ATOM     60  H   UNL A   1      41.133  31.732  29.455  1.00  0.00     0.167 HD
ATOM     61  C   UNL A   1      43.635  33.140  29.563  1.00  0.00     0.074 A 
ATOM     62  C   UNL A   1      45.055  33.483  29.400  1.00  0.00     0.031 C 
ATOM     63  C   UNL A   1      42.677  34.006  30.092  1.00  0.00     0.034 A 
BRANCH  50  64
ATOM     64  C   UNL A   1      36.934  32.102  30.312  1.00  0.00     0.023 A 
ATOM     65  C   UNL A   1      36.055  32.625  29.378  1.00  0.00     0.031 A 
ATOM     66  C   UNL A   1      36.552  31.870  31.563  1.00  0.00     0.131 A 
ATOM     67  C   UNL A   1      34.864  33.143  29.938  1.00  0.00     0.055 A 
ATOM     68  C   UNL A   1      35.318  32.284  32.006  1.00  0.00     0.041 A 
ATOM     69  F   UNL A   1      37.370  31.231  32.394  1.00  0.00    -0.206 F 
ATOM     70  C   UNL A   1      34.422  32.862  31.150  1.00  0.00     0.022 A 
BRANCH  67  71
ATOM     71  S   UNL A   1      33.877  34.270  28.923  1.00  0.00     0.124 S 
ATOM     72  O   UNL A   1      32.812  34.942  29.792  1.00  0.00    -0.237 OA
ATOM     73  O   UNL A   1      34.787  35.339  28.314  1.00  0.00    -0.237 OA
ATOM     74  O   UNL A   1      33.116  33.390  27.669  1.00  0.00    -0.744 OA
ENDBRANCH  67  71
ENDBRANCH  50  64
BRANCH  51  75
ATOM     75  C   UNL A   1      46.256  29.707  27.834  1.00  0.00     0.023 A 
ATOM     76  C   UNL A   1      46.590  29.436  26.517  1.00  0.00     0.031 A 
ATOM     77  C   UNL A   1      47.151  29.592  28.809  1.00  0.00     0.131 A 
ATOM     78  C   UNL A   1      47.827  28.767  26.365  1.00  0.00     0.055 A 
ATOM     79  C   UNL A   1      48.390  29.053  28.560  1.00  0.00     0.041 A 
ATOM     80  F   UNL A   1      46.845  30.002  30.035  1.00  0.00    -0.206 F 
ATOM     81  C   UNL A   1      48.766  28.707  27.292  1.00  0.00     0.022 A 
BRANCH  78  82
ATOM     82  S   UNL A   1      48.145  27.932  24.790  1.00  0.00     0.124 S 
ATOM     83  O   UNL A   1      49.597  28.171  24.370  1.00  0.00    -0.237 OA
ATOM     84  O   UNL A   1      47.903  26.429  24.952  1.00  0.00    -0.237 OA
ATOM     85  O   UNL A   1      47.096  28.553  23.594  1.00  0.00    -0.744 OA
ENDBRANCH  78  82
ENDBRANCH  51  75
BRANCH  63  86
ATOM     86  C   UNL A   1      43.135  35.377  30.560  1.00  0.00     0.023 A 
ATOM     87  C   UNL A   1      43.138  36.412  29.640  1.00  0.00     0.031 A 
ATOM     88  C   UNL A   1      43.565  35.560  31.803  1.00  0.00     0.131 A 
ATOM     89  C   UNL A   1      43.889  37.540  30.047  1.00  0.00     0.055 A 
ATOM     90  C   UNL A   1      44.169  36.739  32.168  1.00  0.00     0.041 A 
ATOM     91  F   UNL A   1      43.410  34.593  32.702  1.00  0.00    -0.206 F 
ATOM     92  C   UNL A   1      44.259  37.783  31.291  1.00  0.00     0.022 A 
BRANCH  89  93
ATOM     93  S   UNL A   1      44.378  38.730  28.774  1.00  0.00     0.124 S 
ATOM     94  O   UNL A   1      43.229  39.711  28.524  1.00  0.00    -0.237 OA
ATOM     95  O   UNL A   1      45.613  39.501  29.245  1.00  0.00    -0.237 OA
ATOM     96  O   UNL A   1      44.742  37.898  27.326  1.00  0.00    -0.744 OA
ENDBRANCH  89  93
ENDBRANCH  63  86
ENDBRANCH  37  38
ENDBRANCH  29  32
ENDBRANCH   1  28
TORSDOF 15
ENDMDL
