MODEL 1
REMARK VINA RESULT:     -11.4      0.000      0.000
REMARK SMILES CC[NH2+][C@]1(C(=O)NCCCNC(=O)c2ccc(-c3c4nc(c(-c5cc(S(=O)(=O)[O-])ccc5F)c5ccc([nH]5)c(-c5cc(S(=O)(=O)[O-])ccc5F)c5nc(c(-c6cc(S(=O)(=O)[O-])ccc6F)c6ccc3[nH]6)C=C5)C=C4)cc2)CCC[C@H]1CC[N@H+]1CCC[C@@H](CC)C1
REMARK SMILES IDX 8 1 7 2 5 3 6 4 4 6 77 7 80 8 78 9 79 10 3 11 2 14 1 15
REMARK SMILES IDX 81 16 82 17 83 18 84 19 90 20 85 22 87 23 86 24 88 25 89 26
REMARK SMILES IDX 9 27 10 28 11 29 12 30 13 32 14 33 15 34 76 35 16 36 75 37
REMARK SMILES IDX 17 38 18 39 19 40 69 41 20 42 74 43 68 44 70 45 21 46 73 47
REMARK SMILES IDX 67 48 66 49 22 51 54 52 34 53 53 54 35 55 38 56 52 57 71 58
REMARK SMILES IDX 36 59 37 60 51 62 72 63 39 64 23 65 24 66 32 67 25 68 31 69
REMARK SMILES IDX 33 70 30 71 26 72 27 73 28 74 29 75 55 76 56 77 64 78 57 79
REMARK SMILES IDX 63 80 65 81 62 82 58 83 59 84 60 85 61 86 40 87 41 88 49 89
REMARK SMILES IDX 42 90 48 91 50 92 47 93 43 94 44 95 45 96 46 97
REMARK H PARENT 7 5 3 12 3 13 83 21 11 31 70 50 38 61
REMARK Flexibility Score: inf
ROOT
ATOM      1  C   UNL A   1      31.738  30.555  25.749  1.00  0.00     0.118 C 
ENDROOT
BRANCH   1   2
ATOM      2  N   UNL A   1      31.404  29.397  26.555  1.00  0.00    -0.351 N 
ATOM      3  C   UNL A   1      31.863  28.122  26.650  1.00  0.00     0.281 C 
ATOM      4  O   UNL A   1      31.287  27.485  27.544  1.00  0.00    -0.268 OA
ATOM      5  H   UNL A   1      30.669  29.578  27.185  1.00  0.00     0.163 HD
BRANCH   3   6
ATOM      6  C   UNL A   1      33.077  27.536  25.842  1.00  0.00     0.178 C 
ATOM      7  C   UNL A   1      33.459  26.072  26.143  1.00  0.00     0.079 C 
ATOM      8  C   UNL A   1      32.842  27.524  24.291  1.00  0.00     0.066 C 
ATOM      9  C   UNL A   1      34.280  25.608  24.949  1.00  0.00     0.008 C 
ATOM     10  C   UNL A   1      33.662  26.321  23.755  1.00  0.00     0.011 C 
BRANCH   6  11
ATOM     11  N   UNL A   1      34.392  28.240  26.102  1.00  0.00    -0.334 N 
ATOM     12  H   UNL A   1      35.135  27.585  25.858  1.00  0.00     0.347 HD
ATOM     13  H   UNL A   1      34.328  29.090  25.540  1.00  0.00     0.347 HD
BRANCH  11  14
ATOM     14  C   UNL A   1      34.679  28.731  27.442  1.00  0.00     0.257 C 
ATOM     15  C   UNL A   1      35.257  30.139  27.355  1.00  0.00     0.071 C 
ENDBRANCH  11  14
ENDBRANCH   6  11
BRANCH   8  16
ATOM     16  C   UNL A   1      31.399  27.434  23.737  1.00  0.00     0.072 C 
BRANCH  16  17
ATOM     17  C   UNL A   1      31.137  28.099  22.375  1.00  0.00     0.262 C 
BRANCH  17  18
ATOM     18  N   UNL A   1      29.765  28.600  22.201  1.00  0.00    -0.335 N 
ATOM     19  C   UNL A   1      28.905  28.234  23.331  1.00  0.00     0.262 C 
ATOM     20  C   UNL A   1      29.795  30.060  21.994  1.00  0.00     0.265 C 
ATOM     21  H   UNL A   1      29.360  28.158  21.374  1.00  0.00     0.348 HD
ATOM     22  C   UNL A   1      27.480  28.738  23.124  1.00  0.00     0.062 C 
ATOM     23  C   UNL A   1      28.389  30.654  21.786  1.00  0.00     0.044 C 
ATOM     24  C   UNL A   1      27.461  30.251  22.940  1.00  0.00     0.015 C 
BRANCH  23  25
ATOM     25  C   UNL A   1      28.390  32.182  21.577  1.00  0.00     0.006 C 
ATOM     26  C   UNL A   1      28.763  33.015  22.795  1.00  0.00     0.004 C 
ENDBRANCH  23  25
ENDBRANCH  17  18
ENDBRANCH  16  17
ENDBRANCH   8  16
ENDBRANCH   3   6
ENDBRANCH   1   2
BRANCH   1  27
ATOM     27  C   UNL A   1      31.507  31.850  26.513  1.00  0.00     0.042 C 
BRANCH  27  28
ATOM     28  C   UNL A   1      32.763  32.328  27.229  1.00  0.00     0.118 C 
BRANCH  28  29
ATOM     29  N   UNL A   1      32.671  33.733  27.597  1.00  0.00    -0.352 N 
ATOM     30  C   UNL A   1      33.284  34.409  28.626  1.00  0.00     0.251 C 
ATOM     31  H   UNL A   1      32.083  34.280  27.027  1.00  0.00     0.163 HD
ATOM     32  O   UNL A   1      32.852  35.504  28.970  1.00  0.00    -0.269 OA
BRANCH  30  33
ATOM     33  C   UNL A   1      34.446  33.806  29.313  1.00  0.00     0.039 A 
ATOM     34  C   UNL A   1      35.737  34.200  28.952  1.00  0.00     0.014 A 
ATOM     35  C   UNL A   1      34.261  32.831  30.295  1.00  0.00     0.014 A 
ATOM     36  C   UNL A   1      36.837  33.651  29.616  1.00  0.00     0.010 A 
ATOM     37  C   UNL A   1      35.347  32.366  31.025  1.00  0.00     0.010 A 
ATOM     38  C   UNL A   1      36.649  32.749  30.676  1.00  0.00    -0.014 A 
BRANCH  38  39
ATOM     39  C   UNL A   1      37.796  32.149  31.402  1.00  0.00     0.031 A 
ATOM     40  C   UNL A   1      38.600  31.056  30.748  1.00  0.00     0.074 A 
ATOM     41  C   UNL A   1      38.065  32.529  32.665  1.00  0.00     0.049 A 
ATOM     42  N   UNL A   1      39.572  30.331  31.237  1.00  0.00    -0.248 NA
ATOM     43  C   UNL A   1      38.225  30.703  29.369  1.00  0.00     0.031 C 
ATOM     44  C   UNL A   1      37.324  33.542  33.420  1.00  0.00     0.029 A 
ATOM     45  N   UNL A   1      39.030  32.103  33.542  1.00  0.00    -0.354 N 
ATOM     46  C   UNL A   1      39.904  29.421  30.239  1.00  0.00     0.074 A 
ATOM     47  C   UNL A   1      38.977  29.638  29.150  1.00  0.00     0.031 C 
ATOM     48  C   UNL A   1      37.882  33.682  34.634  1.00  0.00     0.029 A 
ATOM     49  C   UNL A   1      38.991  32.741  34.760  1.00  0.00     0.049 A 
ATOM     50  H   UNL A   1      39.690  31.407  33.320  1.00  0.00     0.167 HD
ATOM     51  C   UNL A   1      40.908  28.507  30.220  1.00  0.00     0.034 A 
ATOM     52  C   UNL A   1      39.759  32.578  35.855  1.00  0.00     0.034 A 
ATOM     53  C   UNL A   1      41.836  28.327  31.309  1.00  0.00     0.049 A 
ATOM     54  C   UNL A   1      40.867  31.559  35.817  1.00  0.00     0.074 A 
ATOM     55  C   UNL A   1      42.933  27.487  31.381  1.00  0.00     0.029 A 
ATOM     56  N   UNL A   1      41.772  28.999  32.525  1.00  0.00    -0.354 N 
ATOM     57  N   UNL A   1      41.206  30.741  34.847  1.00  0.00    -0.248 NA
ATOM     58  C   UNL A   1      41.702  31.450  37.019  1.00  0.00     0.031 C 
ATOM     59  C   UNL A   1      43.493  27.605  32.659  1.00  0.00     0.029 A 
ATOM     60  C   UNL A   1      42.790  28.571  33.363  1.00  0.00     0.049 A 
ATOM     61  H   UNL A   1      41.099  29.680  32.758  1.00  0.00     0.167 HD
ATOM     62  C   UNL A   1      42.313  30.039  35.313  1.00  0.00     0.074 A 
ATOM     63  C   UNL A   1      42.589  30.540  36.644  1.00  0.00     0.031 C 
ATOM     64  C   UNL A   1      43.039  29.072  34.695  1.00  0.00     0.034 A 
BRANCH  51  65
ATOM     65  C   UNL A   1      41.021  27.630  28.995  1.00  0.00     0.023 A 
ATOM     66  C   UNL A   1      42.051  27.805  28.052  1.00  0.00     0.031 A 
ATOM     67  C   UNL A   1      40.052  26.647  28.726  1.00  0.00     0.131 A 
ATOM     68  C   UNL A   1      42.029  27.090  26.845  1.00  0.00     0.055 A 
ATOM     69  C   UNL A   1      40.090  25.871  27.566  1.00  0.00     0.041 A 
ATOM     70  F   UNL A   1      39.032  26.442  29.575  1.00  0.00    -0.206 F 
ATOM     71  C   UNL A   1      41.069  26.105  26.606  1.00  0.00     0.022 A 
BRANCH  68  72
ATOM     72  S   UNL A   1      43.162  27.597  25.521  1.00  0.00     0.124 S 
ATOM     73  O   UNL A   1      44.118  28.426  26.252  1.00  0.00    -0.237 OA
ATOM     74  O   UNL A   1      43.666  26.319  25.030  1.00  0.00    -0.237 OA
ATOM     75  O   UNL A   1      42.300  28.326  24.594  1.00  0.00    -0.744 OA
ENDBRANCH  68  72
ENDBRANCH  51  65
BRANCH  52  76
ATOM     76  C   UNL A   1      39.515  33.405  37.070  1.00  0.00     0.023 A 
ATOM     77  C   UNL A   1      40.238  34.589  37.290  1.00  0.00     0.031 A 
ATOM     78  C   UNL A   1      38.565  33.021  38.032  1.00  0.00     0.131 A 
ATOM     79  C   UNL A   1      40.022  35.330  38.462  1.00  0.00     0.055 A 
ATOM     80  C   UNL A   1      38.324  33.785  39.175  1.00  0.00     0.041 A 
ATOM     81  F   UNL A   1      37.840  31.903  37.861  1.00  0.00    -0.206 F 
ATOM     82  C   UNL A   1      39.062  34.943  39.399  1.00  0.00     0.022 A 
BRANCH  79  83
ATOM     83  S   UNL A   1      41.057  36.788  38.769  1.00  0.00     0.124 S 
ATOM     84  O   UNL A   1      40.054  37.830  38.961  1.00  0.00    -0.237 OA
ATOM     85  O   UNL A   1      41.802  36.386  39.957  1.00  0.00    -0.237 OA
ATOM     86  O   UNL A   1      41.852  36.904  37.548  1.00  0.00    -0.744 OA
ENDBRANCH  79  83
ENDBRANCH  52  76
BRANCH  64  87
ATOM     87  C   UNL A   1      44.227  28.527  35.448  1.00  0.00     0.023 A 
ATOM     88  C   UNL A   1      44.095  27.484  36.382  1.00  0.00     0.031 A 
ATOM     89  C   UNL A   1      45.506  29.070  35.237  1.00  0.00     0.131 A 
ATOM     90  C   UNL A   1      45.215  27.054  37.109  1.00  0.00     0.055 A 
ATOM     91  C   UNL A   1      46.627  28.598  35.920  1.00  0.00     0.041 A 
ATOM     92  F   UNL A   1      45.687  30.069  34.358  1.00  0.00    -0.206 F 
ATOM     93  C   UNL A   1      46.482  27.593  36.873  1.00  0.00     0.022 A 
BRANCH  90  94
ATOM     94  S   UNL A   1      44.977  25.842  38.437  1.00  0.00     0.124 S 
ATOM     95  O   UNL A   1      46.293  25.818  39.066  1.00  0.00    -0.237 OA
ATOM     96  O   UNL A   1      43.906  26.446  39.223  1.00  0.00    -0.237 OA
ATOM     97  O   UNL A   1      44.607  24.620  37.725  1.00  0.00    -0.744 OA
ENDBRANCH  90  94
ENDBRANCH  64  87
ENDBRANCH  38  39
ENDBRANCH  30  33
ENDBRANCH  28  29
ENDBRANCH  27  28
ENDBRANCH   1  27
TORSDOF 19
ENDMDL
MODEL 2
REMARK VINA RESULT:     -11.4      6.560     12.168
REMARK SMILES CC[NH2+][C@]1(C(=O)NCCCNC(=O)c2ccc(-c3c4nc(c(-c5cc(S(=O)(=O)[O-])ccc5F)c5ccc([nH]5)c(-c5cc(S(=O)(=O)[O-])ccc5F)c5nc(c(-c6cc(S(=O)(=O)[O-])ccc6F)c6ccc3[nH]6)C=C5)C=C4)cc2)CCC[C@H]1CC[N@H+]1CCC[C@@H](CC)C1
REMARK SMILES IDX 8 1 7 2 5 3 6 4 4 6 77 7 80 8 78 9 79 10 3 11 2 14 1 15
REMARK SMILES IDX 81 16 82 17 83 18 84 19 90 20 85 22 87 23 86 24 88 25 89 26
REMARK SMILES IDX 9 27 10 28 11 29 12 30 13 32 14 33 15 34 76 35 16 36 75 37
REMARK SMILES IDX 17 38 18 39 19 40 69 41 20 42 74 43 68 44 70 45 21 46 73 47
REMARK SMILES IDX 67 48 66 49 22 51 54 52 34 53 53 54 35 55 38 56 52 57 71 58
REMARK SMILES IDX 36 59 37 60 51 62 72 63 39 64 23 65 24 66 32 67 25 68 31 69
REMARK SMILES IDX 33 70 30 71 26 72 27 73 28 74 29 75 55 76 56 77 64 78 57 79
REMARK SMILES IDX 63 80 65 81 62 82 58 83 59 84 60 85 61 86 40 87 41 88 49 89
REMARK SMILES IDX 42 90 48 91 50 92 47 93 43 94 44 95 45 96 46 97
REMARK H PARENT 7 5 3 12 3 13 83 21 11 31 70 50 38 61
REMARK Flexibility Score: inf
ROOT
ATOM      1  C   UNL A   1      37.005  20.426  25.117  1.00  0.00     0.118 C 
ENDROOT
BRANCH   1   2
ATOM      2  N   UNL A   1      36.738  21.352  24.034  1.00  0.00    -0.351 N 
ATOM      3  C   UNL A   1      36.092  22.541  23.917  1.00  0.00     0.281 C 
ATOM      4  O   UNL A   1      36.166  23.001  22.768  1.00  0.00    -0.268 OA
ATOM      5  H   UNL A   1      37.116  21.046  23.177  1.00  0.00     0.163 HD
BRANCH   3   6
ATOM      6  C   UNL A   1      35.446  23.338  25.107  1.00  0.00     0.178 C 
ATOM      7  C   UNL A   1      34.976  24.775  24.796  1.00  0.00     0.079 C 
ATOM      8  C   UNL A   1      34.148  22.662  25.675  1.00  0.00     0.066 C 
ATOM      9  C   UNL A   1      33.988  25.132  25.897  1.00  0.00     0.008 C 
ATOM     10  C   UNL A   1      33.274  23.826  26.213  1.00  0.00     0.011 C 
BRANCH   6  11
ATOM     11  N   UNL A   1      36.382  23.583  26.271  1.00  0.00    -0.334 N 
ATOM     12  H   UNL A   1      35.894  24.197  26.923  1.00  0.00     0.347 HD
ATOM     13  H   UNL A   1      36.606  22.645  26.605  1.00  0.00     0.347 HD
BRANCH  11  14
ATOM     14  C   UNL A   1      37.685  24.181  26.017  1.00  0.00     0.257 C 
ATOM     15  C   UNL A   1      38.745  23.463  26.844  1.00  0.00     0.071 C 
ENDBRANCH  11  14
ENDBRANCH   6  11
BRANCH   8  16
ATOM     16  C   UNL A   1      33.283  21.772  24.750  1.00  0.00     0.072 C 
BRANCH  16  17
ATOM     17  C   UNL A   1      32.343  20.766  25.438  1.00  0.00     0.262 C 
BRANCH  17  18
ATOM     18  N   UNL A   1      32.205  19.485  24.727  1.00  0.00    -0.335 N 
ATOM     19  C   UNL A   1      32.590  19.601  23.316  1.00  0.00     0.262 C 
ATOM     20  C   UNL A   1      32.993  18.449  25.420  1.00  0.00     0.265 C 
ATOM     21  H   UNL A   1      31.221  19.213  24.737  1.00  0.00     0.348 HD
ATOM     22  C   UNL A   1      32.417  18.272  22.589  1.00  0.00     0.062 C 
ATOM     23  C   UNL A   1      32.881  17.071  24.740  1.00  0.00     0.044 C 
ATOM     24  C   UNL A   1      33.243  17.177  23.253  1.00  0.00     0.015 C 
BRANCH  23  25
ATOM     25  C   UNL A   1      33.704  15.970  25.439  1.00  0.00     0.006 C 
ATOM     26  C   UNL A   1      35.203  15.995  25.172  1.00  0.00     0.004 C 
ENDBRANCH  23  25
ENDBRANCH  17  18
ENDBRANCH  16  17
ENDBRANCH   8  16
ENDBRANCH   3   6
ENDBRANCH   1   2
BRANCH   1  27
ATOM     27  C   UNL A   1      38.338  19.716  24.927  1.00  0.00     0.042 C 
BRANCH  27  28
ATOM     28  C   UNL A   1      39.368  20.143  25.964  1.00  0.00     0.118 C 
BRANCH  28  29
ATOM     29  N   UNL A   1      40.468  19.192  26.050  1.00  0.00    -0.352 N 
ATOM     30  C   UNL A   1      41.823  19.425  26.072  1.00  0.00     0.251 C 
ATOM     31  H   UNL A   1      40.204  18.245  26.098  1.00  0.00     0.163 HD
ATOM     32  O   UNL A   1      42.597  18.503  25.834  1.00  0.00    -0.269 OA
BRANCH  30  33
ATOM     33  C   UNL A   1      42.333  20.780  26.369  1.00  0.00     0.039 A 
ATOM     34  C   UNL A   1      42.511  21.170  27.699  1.00  0.00     0.014 A 
ATOM     35  C   UNL A   1      42.609  21.677  25.334  1.00  0.00     0.014 A 
ATOM     36  C   UNL A   1      43.016  22.441  27.984  1.00  0.00     0.010 A 
ATOM     37  C   UNL A   1      43.209  22.897  25.615  1.00  0.00     0.010 A 
ATOM     38  C   UNL A   1      43.394  23.305  26.943  1.00  0.00    -0.014 A 
BRANCH  38  39
ATOM     39  C   UNL A   1      43.934  24.662  27.212  1.00  0.00     0.031 A 
ATOM     40  C   UNL A   1      43.018  25.733  27.742  1.00  0.00     0.074 A 
ATOM     41  C   UNL A   1      45.215  24.947  26.911  1.00  0.00     0.049 A 
ATOM     42  N   UNL A   1      43.257  27.003  27.951  1.00  0.00    -0.248 NA
ATOM     43  C   UNL A   1      41.634  25.329  28.032  1.00  0.00     0.031 C 
ATOM     44  C   UNL A   1      46.182  24.003  26.347  1.00  0.00     0.029 A 
ATOM     45  N   UNL A   1      45.923  26.115  27.031  1.00  0.00    -0.354 N 
ATOM     46  C   UNL A   1      42.048  27.550  28.368  1.00  0.00     0.074 A 
ATOM     47  C   UNL A   1      41.066  26.491  28.308  1.00  0.00     0.031 C 
ATOM     48  C   UNL A   1      47.365  24.620  26.200  1.00  0.00     0.029 A 
ATOM     49  C   UNL A   1      47.231  26.012  26.617  1.00  0.00     0.049 A 
ATOM     50  H   UNL A   1      45.533  26.948  27.381  1.00  0.00     0.167 HD
ATOM     51  C   UNL A   1      41.788  28.813  28.792  1.00  0.00     0.034 A 
ATOM     52  C   UNL A   1      48.208  26.939  26.575  1.00  0.00     0.034 A 
ATOM     53  C   UNL A   1      42.791  29.846  28.869  1.00  0.00     0.049 A 
ATOM     54  C   UNL A   1      47.901  28.336  27.047  1.00  0.00     0.074 A 
ATOM     55  C   UNL A   1      42.667  31.139  29.345  1.00  0.00     0.029 A 
ATOM     56  N   UNL A   1      44.110  29.703  28.451  1.00  0.00    -0.354 N 
ATOM     57  N   UNL A   1      46.767  28.828  27.492  1.00  0.00    -0.248 NA
ATOM     58  C   UNL A   1      49.009  29.298  27.022  1.00  0.00     0.031 C 
ATOM     59  C   UNL A   1      43.890  31.796  29.157  1.00  0.00     0.029 A 
ATOM     60  C   UNL A   1      44.801  30.892  28.630  1.00  0.00     0.049 A 
ATOM     61  H   UNL A   1      44.497  28.877  28.080  1.00  0.00     0.167 HD
ATOM     62  C   UNL A   1      47.034  30.153  27.825  1.00  0.00     0.074 A 
ATOM     63  C   UNL A   1      48.438  30.375  27.542  1.00  0.00     0.031 C 
ATOM     64  C   UNL A   1      46.197  31.098  28.325  1.00  0.00     0.034 A 
BRANCH  51  65
ATOM     65  C   UNL A   1      40.361  29.134  29.173  1.00  0.00     0.023 A 
ATOM     66  C   UNL A   1      39.935  29.134  30.514  1.00  0.00     0.031 A 
ATOM     67  C   UNL A   1      39.394  29.379  28.182  1.00  0.00     0.131 A 
ATOM     68  C   UNL A   1      38.572  29.267  30.820  1.00  0.00     0.055 A 
ATOM     69  C   UNL A   1      38.053  29.607  28.500  1.00  0.00     0.041 A 
ATOM     70  F   UNL A   1      39.730  29.374  26.882  1.00  0.00    -0.206 F 
ATOM     71  C   UNL A   1      37.630  29.529  29.824  1.00  0.00     0.022 A 
BRANCH  68  72
ATOM     72  S   UNL A   1      38.028  28.909  32.514  1.00  0.00     0.124 S 
ATOM     73  O   UNL A   1      36.628  29.325  32.468  1.00  0.00    -0.237 OA
ATOM     74  O   UNL A   1      38.267  27.474  32.625  1.00  0.00    -0.237 OA
ATOM     75  O   UNL A   1      38.893  29.752  33.337  1.00  0.00    -0.744 OA
ENDBRANCH  68  72
ENDBRANCH  51  65
BRANCH  52  76
ATOM     76  C   UNL A   1      49.565  26.575  26.081  1.00  0.00     0.023 A 
ATOM     77  C   UNL A   1      50.008  27.002  24.818  1.00  0.00     0.031 A 
ATOM     78  C   UNL A   1      50.434  25.789  26.857  1.00  0.00     0.131 A 
ATOM     79  C   UNL A   1      51.274  26.612  24.355  1.00  0.00     0.055 A 
ATOM     80  C   UNL A   1      51.710  25.441  26.409  1.00  0.00     0.041 A 
ATOM     81  F   UNL A   1      50.061  25.367  28.076  1.00  0.00    -0.206 F 
ATOM     82  C   UNL A   1      52.133  25.846  25.146  1.00  0.00     0.022 A 
BRANCH  79  83
ATOM     83  S   UNL A   1      51.765  27.083  22.674  1.00  0.00     0.124 S 
ATOM     84  O   UNL A   1      52.822  26.118  22.390  1.00  0.00    -0.237 OA
ATOM     85  O   UNL A   1      50.520  26.906  21.934  1.00  0.00    -0.237 OA
ATOM     86  O   UNL A   1      52.207  28.468  22.823  1.00  0.00    -0.744 OA
ENDBRANCH  79  83
ENDBRANCH  52  76
BRANCH  64  87
ATOM     87  C   UNL A   1      46.800  32.446  28.632  1.00  0.00     0.023 A 
ATOM     88  C   UNL A   1      46.907  33.449  27.653  1.00  0.00     0.031 A 
ATOM     89  C   UNL A   1      47.286  32.724  29.922  1.00  0.00     0.131 A 
ATOM     90  C   UNL A   1      47.536  34.664  27.964  1.00  0.00     0.055 A 
ATOM     91  C   UNL A   1      47.857  33.956  30.242  1.00  0.00     0.041 A 
ATOM     92  F   UNL A   1      47.210  31.802  30.894  1.00  0.00    -0.206 F 
ATOM     93  C   UNL A   1      47.996  34.930  29.256  1.00  0.00     0.022 A 
BRANCH  90  94
ATOM     94  S   UNL A   1      47.828  35.859  26.632  1.00  0.00     0.124 S 
ATOM     95  O   UNL A   1      46.817  36.875  26.909  1.00  0.00    -0.237 OA
ATOM     96  O   UNL A   1      49.212  36.257  26.867  1.00  0.00    -0.237 OA
ATOM     97  O   UNL A   1      47.606  35.079  25.416  1.00  0.00    -0.744 OA
ENDBRANCH  90  94
ENDBRANCH  64  87
ENDBRANCH  38  39
ENDBRANCH  30  33
ENDBRANCH  28  29
ENDBRANCH  27  28
ENDBRANCH   1  27
TORSDOF 19
ENDMDL
MODEL 3
REMARK VINA RESULT:     -11.4      1.855      2.217
REMARK SMILES CC[NH2+][C@]1(C(=O)NCCCNC(=O)c2ccc(-c3c4nc(c(-c5cc(S(=O)(=O)[O-])ccc5F)c5ccc([nH]5)c(-c5cc(S(=O)(=O)[O-])ccc5F)c5nc(c(-c6cc(S(=O)(=O)[O-])ccc6F)c6ccc3[nH]6)C=C5)C=C4)cc2)CCC[C@H]1CC[N@H+]1CCC[C@@H](CC)C1
REMARK SMILES IDX 8 1 7 2 5 3 6 4 4 6 77 7 80 8 78 9 79 10 3 11 2 14 1 15
REMARK SMILES IDX 81 16 82 17 83 18 84 19 90 20 85 22 87 23 86 24 88 25 89 26
REMARK SMILES IDX 9 27 10 28 11 29 12 30 13 32 14 33 15 34 76 35 16 36 75 37
REMARK SMILES IDX 17 38 18 39 19 40 69 41 20 42 74 43 68 44 70 45 21 46 73 47
REMARK SMILES IDX 67 48 66 49 22 51 54 52 34 53 53 54 35 55 38 56 52 57 71 58
REMARK SMILES IDX 36 59 37 60 51 62 72 63 39 64 23 65 24 66 32 67 25 68 31 69
REMARK SMILES IDX 33 70 30 71 26 72 27 73 28 74 29 75 55 76 56 77 64 78 57 79
REMARK SMILES IDX 63 80 65 81 62 82 58 83 59 84 60 85 61 86 40 87 41 88 49 89
REMARK SMILES IDX 42 90 48 91 50 92 47 93 43 94 44 95 45 96 46 97
REMARK H PARENT 7 5 3 12 3 13 83 21 11 31 70 50 38 61
REMARK Flexibility Score: inf
ROOT
ATOM      1  C   UNL A   1      31.646  30.876  25.937  1.00  0.00     0.118 C 
ENDROOT
BRANCH   1   2
ATOM      2  N   UNL A   1      31.414  29.702  26.756  1.00  0.00    -0.351 N 
ATOM      3  C   UNL A   1      31.917  28.441  26.801  1.00  0.00     0.281 C 
ATOM      4  O   UNL A   1      31.435  27.781  27.733  1.00  0.00    -0.268 OA
ATOM      5  H   UNL A   1      30.726  29.856  27.444  1.00  0.00     0.163 HD
BRANCH   3   6
ATOM      6  C   UNL A   1      33.080  27.899  25.893  1.00  0.00     0.178 C 
ATOM      7  C   UNL A   1      33.596  26.481  26.214  1.00  0.00     0.079 C 
ATOM      8  C   UNL A   1      32.685  27.793  24.378  1.00  0.00     0.066 C 
ATOM      9  C   UNL A   1      34.319  26.014  24.959  1.00  0.00     0.008 C 
ATOM     10  C   UNL A   1      33.530  26.622  23.810  1.00  0.00     0.011 C 
BRANCH   6  11
ATOM     11  N   UNL A   1      34.360  28.702  25.979  1.00  0.00    -0.334 N 
ATOM     12  H   UNL A   1      35.065  28.200  25.439  1.00  0.00     0.347 HD
ATOM     13  H   UNL A   1      34.091  29.625  25.637  1.00  0.00     0.347 HD
BRANCH  11  14
ATOM     14  C   UNL A   1      34.939  28.972  27.287  1.00  0.00     0.257 C 
ATOM     15  C   UNL A   1      35.067  30.478  27.486  1.00  0.00     0.071 C 
ENDBRANCH  11  14
ENDBRANCH   6  11
BRANCH   8  16
ATOM     16  C   UNL A   1      31.203  27.578  23.988  1.00  0.00     0.072 C 
BRANCH  16  17
ATOM     17  C   UNL A   1      30.839  27.783  22.507  1.00  0.00     0.262 C 
BRANCH  17  18
ATOM     18  N   UNL A   1      29.567  28.489  22.289  1.00  0.00    -0.335 N 
ATOM     19  C   UNL A   1      28.603  28.218  23.361  1.00  0.00     0.262 C 
ATOM     20  C   UNL A   1      29.824  29.934  22.146  1.00  0.00     0.265 C 
ATOM     21  H   UNL A   1      29.147  28.142  21.427  1.00  0.00     0.348 HD
ATOM     22  C   UNL A   1      27.283  28.937  23.107  1.00  0.00     0.062 C 
ATOM     23  C   UNL A   1      28.535  30.739  21.895  1.00  0.00     0.044 C 
ATOM     24  C   UNL A   1      27.497  30.441  22.986  1.00  0.00     0.015 C 
BRANCH  23  25
ATOM     25  C   UNL A   1      28.773  32.257  21.751  1.00  0.00     0.006 C 
ATOM     26  C   UNL A   1      28.771  33.052  23.049  1.00  0.00     0.004 C 
ENDBRANCH  23  25
ENDBRANCH  17  18
ENDBRANCH  16  17
ENDBRANCH   8  16
ENDBRANCH   3   6
ENDBRANCH   1   2
BRANCH   1  27
ATOM     27  C   UNL A   1      31.420  32.158  26.723  1.00  0.00     0.042 C 
BRANCH  27  28
ATOM     28  C   UNL A   1      32.718  32.733  27.273  1.00  0.00     0.118 C 
BRANCH  28  29
ATOM     29  N   UNL A   1      32.579  34.141  27.617  1.00  0.00    -0.352 N 
ATOM     30  C   UNL A   1      33.133  34.843  28.661  1.00  0.00     0.251 C 
ATOM     31  H   UNL A   1      32.005  34.666  27.015  1.00  0.00     0.163 HD
ATOM     32  O   UNL A   1      32.663  35.933  28.971  1.00  0.00    -0.269 OA
BRANCH  30  33
ATOM     33  C   UNL A   1      34.277  34.275  29.405  1.00  0.00     0.039 A 
ATOM     34  C   UNL A   1      34.043  33.548  30.575  1.00  0.00     0.014 A 
ATOM     35  C   UNL A   1      35.585  34.486  28.962  1.00  0.00     0.014 A 
ATOM     36  C   UNL A   1      35.120  32.989  31.268  1.00  0.00     0.010 A 
ATOM     37  C   UNL A   1      36.643  33.843  29.592  1.00  0.00     0.010 A 
ATOM     38  C   UNL A   1      36.426  33.110  30.766  1.00  0.00    -0.014 A 
BRANCH  38  39
ATOM     39  C   UNL A   1      37.592  32.528  31.479  1.00  0.00     0.031 A 
ATOM     40  C   UNL A   1      38.354  31.391  30.852  1.00  0.00     0.074 A 
ATOM     41  C   UNL A   1      37.914  32.968  32.710  1.00  0.00     0.049 A 
ATOM     42  N   UNL A   1      39.333  30.675  31.341  1.00  0.00    -0.248 NA
ATOM     43  C   UNL A   1      37.922  30.974  29.508  1.00  0.00     0.031 C 
ATOM     44  C   UNL A   1      37.217  34.030  33.439  1.00  0.00     0.029 A 
ATOM     45  N   UNL A   1      38.905  32.571  33.570  1.00  0.00    -0.354 N 
ATOM     46  C   UNL A   1      39.613  29.710  30.380  1.00  0.00     0.074 A 
ATOM     47  C   UNL A   1      38.649  29.887  29.316  1.00  0.00     0.031 C 
ATOM     48  C   UNL A   1      37.823  34.222  34.622  1.00  0.00     0.029 A 
ATOM     49  C   UNL A   1      38.921  33.270  34.755  1.00  0.00     0.049 A 
ATOM     50  H   UNL A   1      39.546  31.854  33.360  1.00  0.00     0.167 HD
ATOM     51  C   UNL A   1      40.603  28.781  30.371  1.00  0.00     0.034 A 
ATOM     52  C   UNL A   1      39.728  33.151  35.827  1.00  0.00     0.034 A 
ATOM     53  C   UNL A   1      41.569  28.641  31.432  1.00  0.00     0.049 A 
ATOM     54  C   UNL A   1      40.819  32.113  35.801  1.00  0.00     0.074 A 
ATOM     55  C   UNL A   1      42.655  27.788  31.506  1.00  0.00     0.029 A 
ATOM     56  N   UNL A   1      41.560  29.375  32.613  1.00  0.00    -0.354 N 
ATOM     57  N   UNL A   1      41.108  31.242  34.862  1.00  0.00    -0.248 NA
ATOM     58  C   UNL A   1      41.698  32.052  36.974  1.00  0.00     0.031 C 
ATOM     59  C   UNL A   1      43.265  27.961  32.755  1.00  0.00     0.029 A 
ATOM     60  C   UNL A   1      42.604  28.973  33.434  1.00  0.00     0.049 A 
ATOM     61  H   UNL A   1      40.907  30.077  32.835  1.00  0.00     0.167 HD
ATOM     62  C   UNL A   1      42.222  30.546  35.322  1.00  0.00     0.074 A 
ATOM     63  C   UNL A   1      42.556  31.109  36.614  1.00  0.00     0.031 C 
ATOM     64  C   UNL A   1      42.910  29.537  34.728  1.00  0.00     0.034 A 
BRANCH  51  65
ATOM     65  C   UNL A   1      40.657  27.840  29.188  1.00  0.00     0.023 A 
ATOM     66  C   UNL A   1      41.600  28.002  28.156  1.00  0.00     0.031 A 
ATOM     67  C   UNL A   1      39.713  26.807  29.052  1.00  0.00     0.131 A 
ATOM     68  C   UNL A   1      41.514  27.219  26.995  1.00  0.00     0.055 A 
ATOM     69  C   UNL A   1      39.692  25.969  27.936  1.00  0.00     0.041 A 
ATOM     70  F   UNL A   1      38.773  26.611  29.991  1.00  0.00    -0.206 F 
ATOM     71  C   UNL A   1      40.582  26.186  26.888  1.00  0.00     0.022 A 
BRANCH  68  72
ATOM     72  S   UNL A   1      42.515  27.694  25.558  1.00  0.00     0.124 S 
ATOM     73  O   UNL A   1      42.411  26.502  24.719  1.00  0.00    -0.237 OA
ATOM     74  O   UNL A   1      41.822  28.882  25.071  1.00  0.00    -0.237 OA
ATOM     75  O   UNL A   1      43.840  27.932  26.127  1.00  0.00    -0.744 OA
ENDBRANCH  68  72
ENDBRANCH  51  65
BRANCH  52  76
ATOM     76  C   UNL A   1      39.542  34.043  37.007  1.00  0.00     0.023 A 
ATOM     77  C   UNL A   1      38.949  33.562  38.185  1.00  0.00     0.031 A 
ATOM     78  C   UNL A   1      39.947  35.388  36.970  1.00  0.00     0.131 A 
ATOM     79  C   UNL A   1      38.746  34.430  39.268  1.00  0.00     0.055 A 
ATOM     80  C   UNL A   1      39.782  36.236  38.067  1.00  0.00     0.041 A 
ATOM     81  F   UNL A   1      40.530  35.892  35.871  1.00  0.00    -0.206 F 
ATOM     82  C   UNL A   1      39.169  35.760  39.222  1.00  0.00     0.022 A 
BRANCH  79  83
ATOM     83  S   UNL A   1      37.870  33.805  40.728  1.00  0.00     0.124 S 
ATOM     84  O   UNL A   1      37.444  35.042  41.373  1.00  0.00    -0.237 OA
ATOM     85  O   UNL A   1      36.813  32.999  40.126  1.00  0.00    -0.237 OA
ATOM     86  O   UNL A   1      38.896  33.048  41.443  1.00  0.00    -0.744 OA
ENDBRANCH  79  83
ENDBRANCH  52  76
BRANCH  64  87
ATOM     87  C   UNL A   1      44.118  29.011  35.463  1.00  0.00     0.023 A 
ATOM     88  C   UNL A   1      45.403  29.534  35.242  1.00  0.00     0.031 A 
ATOM     89  C   UNL A   1      43.978  27.963  36.389  1.00  0.00     0.131 A 
ATOM     90  C   UNL A   1      46.508  28.971  35.898  1.00  0.00     0.055 A 
ATOM     91  C   UNL A   1      45.072  27.446  37.083  1.00  0.00     0.041 A 
ATOM     92  F   UNL A   1      42.773  27.425  36.637  1.00  0.00    -0.206 F 
ATOM     93  C   UNL A   1      46.349  27.941  36.829  1.00  0.00     0.022 A 
BRANCH  90  94
ATOM     94  S   UNL A   1      48.171  29.540  35.449  1.00  0.00     0.124 S 
ATOM     95  O   UNL A   1      48.952  28.312  35.557  1.00  0.00    -0.237 OA
ATOM     96  O   UNL A   1      47.971  30.053  34.098  1.00  0.00    -0.237 OA
ATOM     97  O   UNL A   1      48.469  30.555  36.458  1.00  0.00    -0.744 OA
ENDBRANCH  90  94
ENDBRANCH  64  87
ENDBRANCH  38  39
ENDBRANCH  30  33
ENDBRANCH  28  29
ENDBRANCH  27  28
ENDBRANCH   1  27
TORSDOF 19
ENDMDL
