MODEL 1
REMARK VINA RESULT:     -13.1      0.000      0.000
REMARK SMILES Cc1cc(C)c2c(c1)C=C(C(=O)NCCCNC(=O)c1ccc(-c3c4nc(c(-c5cc(S(=O)(=O)[O-])ccc5F)c5ccc([nH]5)c(-c5cc(S(=O)(=O)[O-])ccc5F)c5nc(c(-c6cc(S(=O)(=O)[O-])ccc6F)c6ccc3[nH]6)C=C5)C=C4)cc1)[C@@H](C(F)(F)F)O2
REMARK SMILES IDX 16 1 15 2 14 3 13 4 11 5 12 6 10 8 1 9 2 10 3 11 8 12 4 13
REMARK SMILES IDX 7 14 5 15 6 16 9 17 88 18 83 19 84 20 85 21 86 22 87 23
REMARK SMILES IDX 17 24 18 25 19 27 20 28 21 29 82 30 22 31 81 32 23 33 24 34
REMARK SMILES IDX 25 35 75 36 26 37 80 38 74 39 76 40 27 41 79 42 73 43 72 44
REMARK SMILES IDX 28 46 60 47 40 48 59 49 41 50 44 51 58 52 77 53 42 54 43 55
REMARK SMILES IDX 57 57 78 58 45 59 29 60 30 61 38 62 31 63 37 64 39 65 36 66
REMARK SMILES IDX 32 67 33 68 34 69 35 70 61 71 62 72 70 73 63 74 69 75 71 76
REMARK SMILES IDX 68 77 64 78 65 79 66 80 67 81 46 82 47 83 55 84 48 85 54 86
REMARK SMILES IDX 56 87 53 88 49 89 50 90 51 91 52 92
REMARK H PARENT 13 7 17 26 76 45 44 56
REMARK Flexibility Score: inf
ROOT
ATOM      1  C   UNL A   1      33.279  29.051  24.867  1.00  0.00     0.118 C 
ENDROOT
BRANCH   1   2
ATOM      2  C   UNL A   1      33.059  28.945  23.363  1.00  0.00     0.042 C 
BRANCH   2   3
ATOM      3  C   UNL A   1      31.984  27.928  23.015  1.00  0.00     0.118 C 
BRANCH   3   4
ATOM      4  N   UNL A   1      32.401  27.037  21.941  1.00  0.00    -0.352 N 
ATOM      5  C   UNL A   1      32.902  25.785  21.829  1.00  0.00     0.251 C 
ATOM      6  O   UNL A   1      33.102  25.397  20.674  1.00  0.00    -0.270 OA
ATOM      7  H   UNL A   1      32.287  27.459  21.059  1.00  0.00     0.163 HD
BRANCH   5   8
ATOM      8  C   UNL A   1      33.209  24.883  22.975  1.00  0.00     0.067 C 
ATOM      9  C   UNL A   1      37.385  20.741  24.887  1.00  0.00     0.044 C 
ATOM     10  C   UNL A   1      36.205  21.659  24.992  1.00  0.00    -0.050 A 
ATOM     11  C   UNL A   1      35.407  21.650  26.144  1.00  0.00     0.010 A 
ATOM     12  C   UNL A   1      35.859  22.498  23.921  1.00  0.00     0.015 A 
ATOM     13  C   UNL A   1      34.292  22.490  26.251  1.00  0.00    -0.008 A 
ATOM     14  C   UNL A   1      34.746  23.336  24.012  1.00  0.00     0.018 A 
ATOM     15  C   UNL A   1      33.443  22.488  27.490  1.00  0.00     0.048 C 
ATOM     16  C   UNL A   1      33.972  23.325  25.174  1.00  0.00     0.130 A 
ATOM     17  C   UNL A   1      34.395  24.247  22.928  1.00  0.00     0.025 C 
ATOM     18  O   UNL A   1      32.900  24.156  25.337  1.00  0.00    -0.475 OA
ATOM     19  C   UNL A   1      32.274  24.641  24.123  1.00  0.00     0.314 C 
BRANCH  19  20
ATOM     20  C   UNL A   1      31.105  23.710  23.748  1.00  0.00     0.429 C 
ATOM     21  F   UNL A   1      31.504  22.791  22.834  1.00  0.00    -0.167 F 
ATOM     22  F   UNL A   1      30.631  23.012  24.809  1.00  0.00    -0.167 F 
ATOM     23  F   UNL A   1      30.052  24.375  23.221  1.00  0.00    -0.167 F 
ENDBRANCH  19  20
ENDBRANCH   5   8
ENDBRANCH   3   4
ENDBRANCH   2   3
ENDBRANCH   1   2
BRANCH   1  24
ATOM     24  N   UNL A   1      32.641  30.244  25.421  1.00  0.00    -0.352 N 
ATOM     25  C   UNL A   1      32.883  30.909  26.594  1.00  0.00     0.251 C 
ATOM     26  H   UNL A   1      31.927  30.629  24.863  1.00  0.00     0.163 HD
ATOM     27  O   UNL A   1      32.042  31.696  27.027  1.00  0.00    -0.269 OA
BRANCH  25  28
ATOM     28  C   UNL A   1      34.140  30.675  27.329  1.00  0.00     0.039 A 
ATOM     29  C   UNL A   1      34.974  31.754  27.632  1.00  0.00     0.014 A 
ATOM     30  C   UNL A   1      34.505  29.378  27.698  1.00  0.00     0.014 A 
ATOM     31  C   UNL A   1      36.142  31.535  28.362  1.00  0.00     0.010 A 
ATOM     32  C   UNL A   1      35.610  29.175  28.511  1.00  0.00     0.010 A 
ATOM     33  C   UNL A   1      36.450  30.248  28.837  1.00  0.00    -0.014 A 
BRANCH  33  34
ATOM     34  C   UNL A   1      37.666  29.990  29.641  1.00  0.00     0.031 A 
ATOM     35  C   UNL A   1      38.776  29.155  29.062  1.00  0.00     0.074 A 
ATOM     36  C   UNL A   1      37.746  30.459  30.901  1.00  0.00     0.049 A 
ATOM     37  N   UNL A   1      39.880  28.743  29.626  1.00  0.00    -0.248 NA
ATOM     38  C   UNL A   1      38.605  28.695  27.673  1.00  0.00     0.031 C 
ATOM     39  C   UNL A   1      36.717  31.256  31.573  1.00  0.00     0.029 A 
ATOM     40  N   UNL A   1      38.739  30.342  31.839  1.00  0.00    -0.354 N 
ATOM     41  C   UNL A   1      40.530  27.975  28.667  1.00  0.00     0.074 A 
ATOM     42  C   UNL A   1      39.662  27.916  27.512  1.00  0.00     0.031 C 
ATOM     43  C   UNL A   1      37.154  31.595  32.797  1.00  0.00     0.029 A 
ATOM     44  C   UNL A   1      38.468  30.999  33.015  1.00  0.00     0.049 A 
ATOM     45  H   UNL A   1      39.568  29.833  31.685  1.00  0.00     0.167 HD
ATOM     46  C   UNL A   1      41.753  27.399  28.732  1.00  0.00     0.034 A 
ATOM     47  C   UNL A   1      39.197  31.108  34.143  1.00  0.00     0.034 A 
ATOM     48  C   UNL A   1      42.616  27.491  29.881  1.00  0.00     0.049 A 
ATOM     49  C   UNL A   1      40.537  30.427  34.208  1.00  0.00     0.074 A 
ATOM     50  C   UNL A   1      43.891  26.982  30.040  1.00  0.00     0.029 A 
ATOM     51  N   UNL A   1      42.291  28.138  31.066  1.00  0.00    -0.354 N 
ATOM     52  N   UNL A   1      41.142  29.712  33.289  1.00  0.00    -0.248 NA
ATOM     53  C   UNL A   1      41.291  30.564  35.460  1.00  0.00     0.031 C 
ATOM     54  C   UNL A   1      44.315  27.267  31.342  1.00  0.00     0.029 A 
ATOM     55  C   UNL A   1      43.332  28.015  31.972  1.00  0.00     0.049 A 
ATOM     56  H   UNL A   1      41.447  28.614  31.237  1.00  0.00     0.167 HD
ATOM     57  C   UNL A   1      42.357  29.328  33.845  1.00  0.00     0.074 A 
ATOM     58  C   UNL A   1      42.404  29.898  35.177  1.00  0.00     0.031 C 
ATOM     59  C   UNL A   1      43.348  28.577  33.302  1.00  0.00     0.034 A 
BRANCH  46  60
ATOM     60  C   UNL A   1      42.223  26.624  27.529  1.00  0.00     0.023 A 
ATOM     61  C   UNL A   1      41.941  25.256  27.383  1.00  0.00     0.031 A 
ATOM     62  C   UNL A   1      42.963  27.259  26.516  1.00  0.00     0.131 A 
ATOM     63  C   UNL A   1      42.440  24.552  26.278  1.00  0.00     0.055 A 
ATOM     64  C   UNL A   1      43.397  26.568  25.383  1.00  0.00     0.041 A 
ATOM     65  F   UNL A   1      43.280  28.560  26.614  1.00  0.00    -0.206 F 
ATOM     66  C   UNL A   1      43.145  25.204  25.264  1.00  0.00     0.022 A 
BRANCH  63  67
ATOM     67  S   UNL A   1      42.239  22.750  26.233  1.00  0.00     0.124 S 
ATOM     68  O   UNL A   1      40.790  22.614  26.360  1.00  0.00    -0.237 OA
ATOM     69  O   UNL A   1      42.802  22.401  24.934  1.00  0.00    -0.237 OA
ATOM     70  O   UNL A   1      43.006  22.291  27.389  1.00  0.00    -0.744 OA
ENDBRANCH  63  67
ENDBRANCH  46  60
BRANCH  47  71
ATOM     71  C   UNL A   1      38.676  31.901  35.290  1.00  0.00     0.023 A 
ATOM     72  C   UNL A   1      38.138  31.262  36.418  1.00  0.00     0.031 A 
ATOM     73  C   UNL A   1      38.727  33.306  35.286  1.00  0.00     0.131 A 
ATOM     74  C   UNL A   1      37.657  32.028  37.492  1.00  0.00     0.055 A 
ATOM     75  C   UNL A   1      38.282  34.062  36.371  1.00  0.00     0.041 A 
ATOM     76  F   UNL A   1      39.244  33.963  34.235  1.00  0.00    -0.206 F 
ATOM     77  C   UNL A   1      37.738  33.423  37.482  1.00  0.00     0.022 A 
BRANCH  74  78
ATOM     78  S   UNL A   1      36.905  31.174  38.903  1.00  0.00     0.124 S 
ATOM     79  O   UNL A   1      36.844  29.800  38.419  1.00  0.00    -0.237 OA
ATOM     80  O   UNL A   1      37.867  31.438  39.968  1.00  0.00    -0.237 OA
ATOM     81  O   UNL A   1      35.614  31.841  39.056  1.00  0.00    -0.744 OA
ENDBRANCH  74  78
ENDBRANCH  47  71
BRANCH  59  82
ATOM     82  C   UNL A   1      44.577  28.340  34.138  1.00  0.00     0.023 A 
ATOM     83  C   UNL A   1      44.704  27.192  34.938  1.00  0.00     0.031 A 
ATOM     84  C   UNL A   1      45.652  29.243  34.090  1.00  0.00     0.131 A 
ATOM     85  C   UNL A   1      45.876  26.990  35.681  1.00  0.00     0.055 A 
ATOM     86  C   UNL A   1      46.835  29.011  34.792  1.00  0.00     0.041 A 
ATOM     87  F   UNL A   1      45.579  30.352  33.336  1.00  0.00    -0.206 F 
ATOM     88  C   UNL A   1      46.949  27.883  35.598  1.00  0.00     0.022 A 
BRANCH  85  89
ATOM     89  S   UNL A   1      45.967  25.559  36.789  1.00  0.00     0.124 S 
ATOM     90  O   UNL A   1      44.604  25.490  37.306  1.00  0.00    -0.237 OA
ATOM     91  O   UNL A   1      46.360  24.483  35.885  1.00  0.00    -0.237 OA
ATOM     92  O   UNL A   1      46.982  25.946  37.767  1.00  0.00    -0.744 OA
ENDBRANCH  85  89
ENDBRANCH  59  82
ENDBRANCH  33  34
ENDBRANCH  25  28
ENDBRANCH   1  24
TORSDOF 14
ENDMDL
MODEL 2
REMARK VINA RESULT:     -12.9      4.997     10.045
REMARK SMILES Cc1cc(C)c2c(c1)C=C(C(=O)NCCCNC(=O)c1ccc(-c3c4nc(c(-c5cc(S(=O)(=O)[O-])ccc5F)c5ccc([nH]5)c(-c5cc(S(=O)(=O)[O-])ccc5F)c5nc(c(-c6cc(S(=O)(=O)[O-])ccc6F)c6ccc3[nH]6)C=C5)C=C4)cc1)[C@@H](C(F)(F)F)O2
REMARK SMILES IDX 16 1 15 2 14 3 13 4 11 5 12 6 10 8 1 9 2 10 3 11 8 12 4 13
REMARK SMILES IDX 7 14 5 15 6 16 9 17 88 18 83 19 84 20 85 21 86 22 87 23
REMARK SMILES IDX 17 24 18 25 19 27 20 28 21 29 82 30 22 31 81 32 23 33 24 34
REMARK SMILES IDX 25 35 75 36 26 37 80 38 74 39 76 40 27 41 79 42 73 43 72 44
REMARK SMILES IDX 28 46 60 47 40 48 59 49 41 50 44 51 58 52 77 53 42 54 43 55
REMARK SMILES IDX 57 57 78 58 45 59 29 60 30 61 38 62 31 63 37 64 39 65 36 66
REMARK SMILES IDX 32 67 33 68 34 69 35 70 61 71 62 72 70 73 63 74 69 75 71 76
REMARK SMILES IDX 68 77 64 78 65 79 66 80 67 81 46 82 47 83 55 84 48 85 54 86
REMARK SMILES IDX 56 87 53 88 49 89 50 90 51 91 52 92
REMARK H PARENT 13 7 17 26 76 45 44 56
REMARK Flexibility Score: inf
ROOT
ATOM      1  C   UNL A   1      35.714  22.476  25.635  1.00  0.00     0.118 C 
ENDROOT
BRANCH   1   2
ATOM      2  C   UNL A   1      34.586  22.303  26.643  1.00  0.00     0.042 C 
BRANCH   2   3
ATOM      3  C   UNL A   1      33.349  21.680  26.014  1.00  0.00     0.118 C 
BRANCH   3   4
ATOM      4  N   UNL A   1      32.119  22.187  26.606  1.00  0.00    -0.352 N 
ATOM      5  C   UNL A   1      31.417  23.344  26.596  1.00  0.00     0.251 C 
ATOM      6  O   UNL A   1      30.370  23.332  27.251  1.00  0.00    -0.270 OA
ATOM      7  H   UNL A   1      31.680  21.504  27.163  1.00  0.00     0.163 HD
BRANCH   5   8
ATOM      8  C   UNL A   1      31.819  24.580  25.866  1.00  0.00     0.067 C 
ATOM      9  C   UNL A   1      32.077  30.723  26.531  1.00  0.00     0.044 C 
ATOM     10  C   UNL A   1      32.327  29.394  25.885  1.00  0.00    -0.050 A 
ATOM     11  C   UNL A   1      32.915  29.328  24.614  1.00  0.00     0.010 A 
ATOM     12  C   UNL A   1      31.932  28.208  26.522  1.00  0.00     0.015 A 
ATOM     13  C   UNL A   1      33.141  28.096  23.991  1.00  0.00    -0.008 A 
ATOM     14  C   UNL A   1      32.145  26.971  25.909  1.00  0.00     0.018 A 
ATOM     15  C   UNL A   1      33.781  28.025  22.634  1.00  0.00     0.048 C 
ATOM     16  C   UNL A   1      32.747  26.925  24.650  1.00  0.00     0.130 A 
ATOM     17  C   UNL A   1      31.781  25.725  26.573  1.00  0.00     0.025 C 
ATOM     18  O   UNL A   1      33.022  25.743  24.023  1.00  0.00    -0.475 OA
ATOM     19  C   UNL A   1      32.221  24.604  24.421  1.00  0.00     0.314 C 
BRANCH  19  20
ATOM     20  C   UNL A   1      31.015  24.474  23.469  1.00  0.00     0.429 C 
ATOM     21  F   UNL A   1      29.923  25.076  24.002  1.00  0.00    -0.167 F 
ATOM     22  F   UNL A   1      31.231  25.065  22.269  1.00  0.00    -0.167 F 
ATOM     23  F   UNL A   1      30.684  23.188  23.213  1.00  0.00    -0.167 F 
ENDBRANCH  19  20
ENDBRANCH   5   8
ENDBRANCH   3   4
ENDBRANCH   2   3
ENDBRANCH   1   2
BRANCH   1  24
ATOM     24  N   UNL A   1      36.621  21.331  25.640  1.00  0.00    -0.352 N 
ATOM     25  C   UNL A   1      37.990  21.291  25.698  1.00  0.00     0.251 C 
ATOM     26  H   UNL A   1      36.181  20.452  25.595  1.00  0.00     0.163 HD
ATOM     27  O   UNL A   1      38.579  20.257  25.379  1.00  0.00    -0.269 OA
BRANCH  25  28
ATOM     28  C   UNL A   1      38.745  22.479  26.137  1.00  0.00     0.039 A 
ATOM     29  C   UNL A   1      39.918  22.316  26.878  1.00  0.00     0.014 A 
ATOM     30  C   UNL A   1      38.275  23.759  25.834  1.00  0.00     0.014 A 
ATOM     31  C   UNL A   1      40.651  23.441  27.257  1.00  0.00     0.010 A 
ATOM     32  C   UNL A   1      39.056  24.868  26.120  1.00  0.00     0.010 A 
ATOM     33  C   UNL A   1      40.243  24.723  26.850  1.00  0.00    -0.014 A 
BRANCH  33  34
ATOM     34  C   UNL A   1      41.017  25.934  27.210  1.00  0.00     0.031 A 
ATOM     35  C   UNL A   1      40.388  26.986  28.082  1.00  0.00     0.074 A 
ATOM     36  C   UNL A   1      42.257  26.107  26.712  1.00  0.00     0.049 A 
ATOM     37  N   UNL A   1      40.860  28.149  28.443  1.00  0.00    -0.248 NA
ATOM     38  C   UNL A   1      39.034  26.704  28.590  1.00  0.00     0.031 C 
ATOM     39  C   UNL A   1      42.954  25.163  25.834  1.00  0.00     0.029 A 
ATOM     40  N   UNL A   1      43.154  27.130  26.877  1.00  0.00    -0.354 N 
ATOM     41  C   UNL A   1      39.862  28.738  29.212  1.00  0.00     0.074 A 
ATOM     42  C   UNL A   1      38.732  27.836  29.203  1.00  0.00     0.031 C 
ATOM     43  C   UNL A   1      44.187  25.631  25.578  1.00  0.00     0.029 A 
ATOM     44  C   UNL A   1      44.349  26.927  26.229  1.00  0.00     0.049 A 
ATOM     45  H   UNL A   1      42.960  27.936  27.410  1.00  0.00     0.167 HD
ATOM     46  C   UNL A   1      39.898  29.909  29.890  1.00  0.00     0.034 A 
ATOM     47  C   UNL A   1      45.451  27.700  26.167  1.00  0.00     0.034 A 
ATOM     48  C   UNL A   1      41.043  30.783  29.909  1.00  0.00     0.049 A 
ATOM     49  C   UNL A   1      45.455  29.016  26.896  1.00  0.00     0.074 A 
ATOM     50  C   UNL A   1      41.204  31.972  30.596  1.00  0.00     0.029 A 
ATOM     51  N   UNL A   1      42.223  30.558  29.213  1.00  0.00    -0.354 N 
ATOM     52  N   UNL A   1      44.507  29.555  27.627  1.00  0.00    -0.248 NA
ATOM     53  C   UNL A   1      46.672  29.829  26.791  1.00  0.00     0.031 C 
ATOM     54  C   UNL A   1      42.457  32.498  30.267  1.00  0.00     0.029 A 
ATOM     55  C   UNL A   1      43.107  31.602  29.430  1.00  0.00     0.049 A 
ATOM     56  H   UNL A   1      42.405  29.772  28.648  1.00  0.00     0.167 HD
ATOM     57  C   UNL A   1      45.021  30.763  28.085  1.00  0.00     0.074 A 
ATOM     58  C   UNL A   1      46.366  30.870  27.555  1.00  0.00     0.031 C 
ATOM     59  C   UNL A   1      44.436  31.697  28.877  1.00  0.00     0.034 A 
BRANCH  46  60
ATOM     60  C   UNL A   1      38.667  30.306  30.662  1.00  0.00     0.023 A 
ATOM     61  C   UNL A   1      37.631  31.039  30.060  1.00  0.00     0.031 A 
ATOM     62  C   UNL A   1      38.527  29.950  32.014  1.00  0.00     0.131 A 
ATOM     63  C   UNL A   1      36.523  31.439  30.821  1.00  0.00     0.055 A 
ATOM     64  C   UNL A   1      37.389  30.290  32.748  1.00  0.00     0.041 A 
ATOM     65  F   UNL A   1      39.496  29.268  32.646  1.00  0.00    -0.206 F 
ATOM     66  C   UNL A   1      36.383  31.048  32.155  1.00  0.00     0.022 A 
BRANCH  63  67
ATOM     67  S   UNL A   1      35.313  32.562  30.070  1.00  0.00     0.124 S 
ATOM     68  O   UNL A   1      34.393  32.788  31.182  1.00  0.00    -0.237 OA
ATOM     69  O   UNL A   1      36.137  33.701  29.682  1.00  0.00    -0.237 OA
ATOM     70  O   UNL A   1      34.764  31.783  28.962  1.00  0.00    -0.744 OA
ENDBRANCH  63  67
ENDBRANCH  46  60
BRANCH  47  71
ATOM     71  C   UNL A   1      46.638  27.239  25.396  1.00  0.00     0.023 A 
ATOM     72  C   UNL A   1      46.873  27.708  24.094  1.00  0.00     0.031 A 
ATOM     73  C   UNL A   1      47.565  26.342  25.954  1.00  0.00     0.131 A 
ATOM     74  C   UNL A   1      48.001  27.266  23.385  1.00  0.00     0.055 A 
ATOM     75  C   UNL A   1      48.704  25.934  25.260  1.00  0.00     0.041 A 
ATOM     76  F   UNL A   1      47.390  25.875  27.201  1.00  0.00    -0.206 F 
ATOM     77  C   UNL A   1      48.925  26.393  23.965  1.00  0.00     0.022 A 
BRANCH  74  78
ATOM     78  S   UNL A   1      48.238  27.836  21.680  1.00  0.00     0.124 S 
ATOM     79  O   UNL A   1      48.307  26.573  20.953  1.00  0.00    -0.237 OA
ATOM     80  O   UNL A   1      47.041  28.641  21.458  1.00  0.00    -0.237 OA
ATOM     81  O   UNL A   1      49.488  28.590  21.745  1.00  0.00    -0.744 OA
ENDBRANCH  74  78
ENDBRANCH  47  71
BRANCH  59  82
ATOM     82  C   UNL A   1      45.250  32.911  29.234  1.00  0.00     0.023 A 
ATOM     83  C   UNL A   1      45.221  34.069  28.441  1.00  0.00     0.031 A 
ATOM     84  C   UNL A   1      46.019  32.926  30.411  1.00  0.00     0.131 A 
ATOM     85  C   UNL A   1      45.970  35.191  28.822  1.00  0.00     0.055 A 
ATOM     86  C   UNL A   1      46.722  34.063  30.811  1.00  0.00     0.041 A 
ATOM     87  F   UNL A   1      46.075  31.845  31.205  1.00  0.00    -0.206 F 
ATOM     88  C   UNL A   1      46.704  35.203  30.011  1.00  0.00     0.022 A 
BRANCH  85  89
ATOM     89  S   UNL A   1      46.000  36.631  27.721  1.00  0.00     0.124 S 
ATOM     90  O   UNL A   1      44.826  37.376  28.166  1.00  0.00    -0.237 OA
ATOM     91  O   UNL A   1      47.291  37.237  28.027  1.00  0.00    -0.237 OA
ATOM     92  O   UNL A   1      45.892  36.045  26.386  1.00  0.00    -0.744 OA
ENDBRANCH  85  89
ENDBRANCH  59  82
ENDBRANCH  33  34
ENDBRANCH  25  28
ENDBRANCH   1  24
TORSDOF 14
ENDMDL
MODEL 3
REMARK VINA RESULT:     -12.9      2.479      3.408
REMARK SMILES Cc1cc(C)c2c(c1)C=C(C(=O)NCCCNC(=O)c1ccc(-c3c4nc(c(-c5cc(S(=O)(=O)[O-])ccc5F)c5ccc([nH]5)c(-c5cc(S(=O)(=O)[O-])ccc5F)c5nc(c(-c6cc(S(=O)(=O)[O-])ccc6F)c6ccc3[nH]6)C=C5)C=C4)cc1)[C@@H](C(F)(F)F)O2
REMARK SMILES IDX 16 1 15 2 14 3 13 4 11 5 12 6 10 8 1 9 2 10 3 11 8 12 4 13
REMARK SMILES IDX 7 14 5 15 6 16 9 17 88 18 83 19 84 20 85 21 86 22 87 23
REMARK SMILES IDX 17 24 18 25 19 27 20 28 21 29 82 30 22 31 81 32 23 33 24 34
REMARK SMILES IDX 25 35 75 36 26 37 80 38 74 39 76 40 27 41 79 42 73 43 72 44
REMARK SMILES IDX 28 46 60 47 40 48 59 49 41 50 44 51 58 52 77 53 42 54 43 55
REMARK SMILES IDX 57 57 78 58 45 59 29 60 30 61 38 62 31 63 37 64 39 65 36 66
REMARK SMILES IDX 32 67 33 68 34 69 35 70 61 71 62 72 70 73 63 74 69 75 71 76
REMARK SMILES IDX 68 77 64 78 65 79 66 80 67 81 46 82 47 83 55 84 48 85 54 86
REMARK SMILES IDX 56 87 53 88 49 89 50 90 51 91 52 92
REMARK H PARENT 13 7 17 26 76 45 44 56
REMARK Flexibility Score: inf
ROOT
ATOM      1  C   UNL A   1      32.833  32.706  27.206  1.00  0.00     0.118 C 
ENDROOT
BRANCH   1   2
ATOM      2  C   UNL A   1      31.537  32.078  26.709  1.00  0.00     0.042 C 
BRANCH   2   3
ATOM      3  C   UNL A   1      31.699  30.594  26.418  1.00  0.00     0.118 C 
BRANCH   3   4
ATOM      4  N   UNL A   1      31.403  30.273  25.028  1.00  0.00    -0.352 N 
ATOM      5  C   UNL A   1      31.333  29.162  24.260  1.00  0.00     0.251 C 
ATOM      6  O   UNL A   1      31.015  29.352  23.082  1.00  0.00    -0.270 OA
ATOM      7  H   UNL A   1      31.201  31.084  24.508  1.00  0.00     0.163 HD
BRANCH   5   8
ATOM      8  C   UNL A   1      31.602  27.776  24.738  1.00  0.00     0.067 C 
ATOM      9  C   UNL A   1      36.249  23.811  25.708  1.00  0.00     0.044 C 
ATOM     10  C   UNL A   1      34.844  24.330  25.764  1.00  0.00    -0.050 A 
ATOM     11  C   UNL A   1      33.811  23.514  26.246  1.00  0.00     0.010 A 
ATOM     12  C   UNL A   1      34.541  25.616  25.291  1.00  0.00     0.015 A 
ATOM     13  C   UNL A   1      32.491  23.977  26.290  1.00  0.00    -0.008 A 
ATOM     14  C   UNL A   1      33.227  26.089  25.323  1.00  0.00     0.018 A 
ATOM     15  C   UNL A   1      31.386  23.107  26.816  1.00  0.00     0.048 C 
ATOM     16  C   UNL A   1      32.214  25.267  25.822  1.00  0.00     0.130 A 
ATOM     17  C   UNL A   1      32.898  27.438  24.877  1.00  0.00     0.025 C 
ATOM     18  O   UNL A   1      30.920  25.693  25.920  1.00  0.00    -0.475 OA
ATOM     19  C   UNL A   1      30.529  26.769  25.032  1.00  0.00     0.314 C 
BRANCH  19  20
ATOM     20  C   UNL A   1      29.912  26.171  23.752  1.00  0.00     0.429 C 
ATOM     21  F   UNL A   1      28.722  26.763  23.479  1.00  0.00    -0.167 F 
ATOM     22  F   UNL A   1      30.691  26.357  22.660  1.00  0.00    -0.167 F 
ATOM     23  F   UNL A   1      29.690  24.841  23.848  1.00  0.00    -0.167 F 
ENDBRANCH  19  20
ENDBRANCH   5   8
ENDBRANCH   3   4
ENDBRANCH   2   3
ENDBRANCH   1   2
BRANCH   1  24
ATOM     24  N   UNL A   1      32.634  34.092  27.623  1.00  0.00    -0.352 N 
ATOM     25  C   UNL A   1      33.118  34.763  28.715  1.00  0.00     0.251 C 
ATOM     26  H   UNL A   1      32.064  34.627  27.025  1.00  0.00     0.163 HD
ATOM     27  O   UNL A   1      32.591  35.823  29.056  1.00  0.00    -0.269 OA
BRANCH  25  28
ATOM     28  C   UNL A   1      34.257  34.214  29.474  1.00  0.00     0.039 A 
ATOM     29  C   UNL A   1      34.021  33.443  30.614  1.00  0.00     0.014 A 
ATOM     30  C   UNL A   1      35.565  34.485  29.065  1.00  0.00     0.014 A 
ATOM     31  C   UNL A   1      35.100  32.892  31.306  1.00  0.00     0.010 A 
ATOM     32  C   UNL A   1      36.630  33.852  29.690  1.00  0.00     0.010 A 
ATOM     33  C   UNL A   1      36.410  33.064  30.827  1.00  0.00    -0.014 A 
BRANCH  33  34
ATOM     34  C   UNL A   1      37.573  32.465  31.522  1.00  0.00     0.031 A 
ATOM     35  C   UNL A   1      38.311  31.320  30.882  1.00  0.00     0.074 A 
ATOM     36  C   UNL A   1      37.928  32.915  32.741  1.00  0.00     0.049 A 
ATOM     37  N   UNL A   1      39.296  30.605  31.357  1.00  0.00    -0.248 NA
ATOM     38  C   UNL A   1      37.859  30.905  29.543  1.00  0.00     0.031 C 
ATOM     39  C   UNL A   1      37.265  34.002  33.466  1.00  0.00     0.029 A 
ATOM     40  N   UNL A   1      38.936  32.522  33.582  1.00  0.00    -0.354 N 
ATOM     41  C   UNL A   1      39.576  29.655  30.382  1.00  0.00     0.074 A 
ATOM     42  C   UNL A   1      38.609  29.838  29.322  1.00  0.00     0.031 C 
ATOM     43  C   UNL A   1      37.915  34.218  34.622  1.00  0.00     0.029 A 
ATOM     44  C   UNL A   1      39.005  33.256  34.742  1.00  0.00     0.049 A 
ATOM     45  H   UNL A   1      39.553  31.782  33.376  1.00  0.00     0.167 HD
ATOM     46  C   UNL A   1      40.570  28.737  30.357  1.00  0.00     0.034 A 
ATOM     47  C   UNL A   1      39.852  33.162  35.786  1.00  0.00     0.034 A 
ATOM     48  C   UNL A   1      41.540  28.586  31.410  1.00  0.00     0.049 A 
ATOM     49  C   UNL A   1      40.925  32.107  35.756  1.00  0.00     0.074 A 
ATOM     50  C   UNL A   1      42.614  27.717  31.471  1.00  0.00     0.029 A 
ATOM     51  N   UNL A   1      41.557  29.327  32.585  1.00  0.00    -0.354 N 
ATOM     52  N   UNL A   1      41.183  31.223  34.822  1.00  0.00    -0.248 NA
ATOM     53  C   UNL A   1      41.818  32.035  36.919  1.00  0.00     0.031 C 
ATOM     54  C   UNL A   1      43.243  27.888  32.708  1.00  0.00     0.029 A 
ATOM     55  C   UNL A   1      42.605  28.913  33.390  1.00  0.00     0.049 A 
ATOM     56  H   UNL A   1      40.918  30.040  32.812  1.00  0.00     0.167 HD
ATOM     57  C   UNL A   1      42.281  30.500  35.276  1.00  0.00     0.074 A 
ATOM     58  C   UNL A   1      42.641  31.057  36.564  1.00  0.00     0.031 C 
ATOM     59  C   UNL A   1      42.935  29.471  34.680  1.00  0.00     0.034 A 
BRANCH  46  60
ATOM     60  C   UNL A   1      40.652  27.829  29.158  1.00  0.00     0.023 A 
ATOM     61  C   UNL A   1      41.566  28.069  28.119  1.00  0.00     0.031 A 
ATOM     62  C   UNL A   1      39.806  26.712  29.050  1.00  0.00     0.131 A 
ATOM     63  C   UNL A   1      41.579  27.236  26.991  1.00  0.00     0.055 A 
ATOM     64  C   UNL A   1      39.872  25.845  27.957  1.00  0.00     0.041 A 
ATOM     65  F   UNL A   1      38.898  26.446  30.003  1.00  0.00    -0.206 F 
ATOM     66  C   UNL A   1      40.755  26.111  26.915  1.00  0.00     0.022 A 
BRANCH  63  67
ATOM     67  S   UNL A   1      42.619  27.701  25.580  1.00  0.00     0.124 S 
ATOM     68  O   UNL A   1      43.903  27.948  26.231  1.00  0.00    -0.237 OA
ATOM     69  O   UNL A   1      42.550  26.516  24.733  1.00  0.00    -0.237 OA
ATOM     70  O   UNL A   1      41.958  28.890  25.044  1.00  0.00    -0.744 OA
ENDBRANCH  63  67
ENDBRANCH  46  60
BRANCH  47  71
ATOM     71  C   UNL A   1      39.722  34.100  36.934  1.00  0.00     0.023 A 
ATOM     72  C   UNL A   1      39.114  33.689  38.131  1.00  0.00     0.031 A 
ATOM     73  C   UNL A   1      40.221  35.412  36.862  1.00  0.00     0.131 A 
ATOM     74  C   UNL A   1      39.005  34.587  39.204  1.00  0.00     0.055 A 
ATOM     75  C   UNL A   1      40.144  36.290  37.944  1.00  0.00     0.041 A 
ATOM     76  F   UNL A   1      40.821  35.849  35.742  1.00  0.00    -0.206 F 
ATOM     77  C   UNL A   1      39.529  35.881  39.123  1.00  0.00     0.022 A 
BRANCH  74  78
ATOM     78  S   UNL A   1      38.153  34.047  40.710  1.00  0.00     0.124 S 
ATOM     79  O   UNL A   1      37.050  33.266  40.162  1.00  0.00    -0.237 OA
ATOM     80  O   UNL A   1      39.196  33.293  41.398  1.00  0.00    -0.237 OA
ATOM     81  O   UNL A   1      37.771  35.302  41.353  1.00  0.00    -0.744 OA
ENDBRANCH  74  78
ENDBRANCH  47  71
BRANCH  59  82
ATOM     82  C   UNL A   1      44.119  28.890  35.403  1.00  0.00     0.023 A 
ATOM     83  C   UNL A   1      43.966  27.857  36.342  1.00  0.00     0.031 A 
ATOM     84  C   UNL A   1      45.419  29.337  35.109  1.00  0.00     0.131 A 
ATOM     85  C   UNL A   1      45.095  27.320  36.975  1.00  0.00     0.055 A 
ATOM     86  C   UNL A   1      46.542  28.764  35.705  1.00  0.00     0.041 A 
ATOM     87  F   UNL A   1      45.617  30.319  34.215  1.00  0.00    -0.206 F 
ATOM     88  C   UNL A   1      46.384  27.753  36.648  1.00  0.00     0.022 A 
BRANCH  85  89
ATOM     89  S   UNL A   1      44.857  26.066  38.262  1.00  0.00     0.124 S 
ATOM     90  O   UNL A   1      46.093  26.182  39.029  1.00  0.00    -0.237 OA
ATOM     91  O   UNL A   1      43.646  26.526  38.933  1.00  0.00    -0.237 OA
ATOM     92  O   UNL A   1      44.712  24.822  37.507  1.00  0.00    -0.744 OA
ENDBRANCH  85  89
ENDBRANCH  59  82
ENDBRANCH  33  34
ENDBRANCH  25  28
ENDBRANCH   1  24
TORSDOF 14
ENDMDL
