MODEL 1
REMARK VINA RESULT:     -11.5      0.000      0.000
REMARK SMILES CC(C)(C)C(=O)Nc1ccc(C(=O)NCCCNC(=O)c2ccc(-c3c4nc(c(-c5cc(S(=O)(=O)[O-])ccc5F)c5ccc([nH]5)c(-c5cc(S(=O)(=O)[O-])ccc5F)c5nc(c(-c6cc(S(=O)(=O)[O-])ccc6F)c6ccc3[nH]6)C=C5)C=C4)cc2)cc1Br
REMARK SMILES IDX 16 1 15 2 14 3 12 4 13 5 11 7 8 8 9 9 85 10 10 11 84 12
REMARK SMILES IDX 86 13 7 14 5 15 6 16 2 18 1 19 3 20 4 21 17 22 18 23 19 24
REMARK SMILES IDX 20 26 21 27 22 28 83 29 23 30 82 31 24 32 25 33 26 34 76 35
REMARK SMILES IDX 27 36 81 37 75 38 77 39 28 40 80 41 74 42 73 43 29 45 61 46
REMARK SMILES IDX 41 47 60 48 42 49 45 50 59 51 78 52 43 53 44 54 58 56 79 57
REMARK SMILES IDX 46 58 30 59 31 60 39 61 32 62 38 63 40 64 37 65 33 66 34 67
REMARK SMILES IDX 35 68 36 69 62 70 63 71 71 72 64 73 70 74 72 75 69 76 65 77
REMARK SMILES IDX 66 78 67 79 68 80 47 81 48 82 56 83 49 84 55 85 57 86 54 87
REMARK SMILES IDX 50 88 51 89 52 90 53 91
REMARK H PARENT 14 6 7 17 18 25 77 44 45 55
REMARK Flexibility Score: inf
ROOT
ATOM      1  C   UNL A   1      31.572  32.363  26.801  1.00  0.00     0.042 C 
ENDROOT
BRANCH   1   2
ATOM      2  C   UNL A   1      31.662  30.838  26.787  1.00  0.00     0.118 C 
BRANCH   2   3
ATOM      3  N   UNL A   1      32.887  30.356  27.413  1.00  0.00    -0.352 N 
ATOM      4  C   UNL A   1      33.592  29.196  27.226  1.00  0.00     0.251 C 
ATOM      5  O   UNL A   1      34.696  29.064  27.759  1.00  0.00    -0.269 OA
ATOM      6  H   UNL A   1      33.273  30.966  28.082  1.00  0.00     0.163 HD
BRANCH   4   7
ATOM      7  C   UNL A   1      33.093  28.124  26.335  1.00  0.00     0.041 A 
ATOM      8  C   UNL A   1      32.309  25.919  24.815  1.00  0.00     0.055 A 
ATOM      9  C   UNL A   1      31.808  26.085  26.108  1.00  0.00     0.028 A 
ATOM     10  C   UNL A   1      33.038  26.956  24.221  1.00  0.00     0.042 A 
ATOM     11  C   UNL A   1      32.211  27.179  26.872  1.00  0.00     0.016 A 
ATOM     12  C   UNL A   1      33.438  28.054  24.984  1.00  0.00     0.031 A 
ATOM     13  Br  UNL A   1      33.455  26.968  22.367  1.00  0.00    -0.049 Br
BRANCH   8  14
ATOM     14  N   UNL A   1      31.987  24.743  24.136  1.00  0.00    -0.325 N 
ATOM     15  C   UNL A   1      32.700  23.583  24.017  1.00  0.00     0.229 C 
ATOM     16  O   UNL A   1      32.209  22.728  23.269  1.00  0.00    -0.274 OA
ATOM     17  H   UNL A   1      31.117  24.750  23.675  1.00  0.00     0.169 HD
BRANCH  15  18
ATOM     18  C   UNL A   1      33.994  23.279  24.830  1.00  0.00     0.041 C 
ATOM     19  C   UNL A   1      34.483  21.865  24.421  1.00  0.00     0.021 C 
ATOM     20  C   UNL A   1      33.700  23.236  26.337  1.00  0.00     0.021 C 
ATOM     21  C   UNL A   1      35.156  24.237  24.551  1.00  0.00     0.021 C 
ENDBRANCH  15  18
ENDBRANCH   8  14
ENDBRANCH   4   7
ENDBRANCH   2   3
ENDBRANCH   1   2
BRANCH   1  22
ATOM     22  C   UNL A   1      32.861  33.059  27.230  1.00  0.00     0.118 C 
BRANCH  22  23
ATOM     23  N   UNL A   1      32.618  34.380  27.787  1.00  0.00    -0.352 N 
ATOM     24  C   UNL A   1      33.170  34.993  28.885  1.00  0.00     0.251 C 
ATOM     25  H   UNL A   1      31.953  34.919  27.301  1.00  0.00     0.163 HD
ATOM     26  O   UNL A   1      32.659  36.036  29.295  1.00  0.00    -0.269 OA
BRANCH  24  27
ATOM     27  C   UNL A   1      34.340  34.414  29.587  1.00  0.00     0.039 A 
ATOM     28  C   UNL A   1      34.124  33.670  30.751  1.00  0.00     0.014 A 
ATOM     29  C   UNL A   1      35.648  34.637  29.145  1.00  0.00     0.014 A 
ATOM     30  C   UNL A   1      35.205  33.105  31.435  1.00  0.00     0.010 A 
ATOM     31  C   UNL A   1      36.720  34.013  29.787  1.00  0.00     0.010 A 
ATOM     32  C   UNL A   1      36.511  33.244  30.942  1.00  0.00    -0.014 A 
BRANCH  32  33
ATOM     33  C   UNL A   1      37.668  32.603  31.628  1.00  0.00     0.031 A 
ATOM     34  C   UNL A   1      38.390  31.450  30.980  1.00  0.00     0.074 A 
ATOM     35  C   UNL A   1      38.037  33.027  32.853  1.00  0.00     0.049 A 
ATOM     36  N   UNL A   1      39.362  30.712  31.451  1.00  0.00    -0.248 NA
ATOM     37  C   UNL A   1      37.939  31.061  29.635  1.00  0.00     0.031 C 
ATOM     38  C   UNL A   1      37.399  34.116  33.598  1.00  0.00     0.029 A 
ATOM     39  N   UNL A   1      39.031  32.592  33.693  1.00  0.00    -0.354 N 
ATOM     40  C   UNL A   1      39.636  29.768  30.466  1.00  0.00     0.074 A 
ATOM     41  C   UNL A   1      38.685  29.992  29.397  1.00  0.00     0.031 C 
ATOM     42  C   UNL A   1      38.031  34.276  34.772  1.00  0.00     0.029 A 
ATOM     43  C   UNL A   1      39.087  33.275  34.888  1.00  0.00     0.049 A 
ATOM     44  H   UNL A   1      39.647  31.859  33.464  1.00  0.00     0.167 HD
ATOM     45  C   UNL A   1      40.603  28.817  30.445  1.00  0.00     0.034 A 
ATOM     46  C   UNL A   1      39.888  33.107  35.959  1.00  0.00     0.034 A 
ATOM     47  C   UNL A   1      41.555  28.611  31.510  1.00  0.00     0.049 A 
ATOM     48  C   UNL A   1      40.939  32.024  35.920  1.00  0.00     0.074 A 
ATOM     49  C   UNL A   1      42.595  27.700  31.575  1.00  0.00     0.029 A 
ATOM     50  N   UNL A   1      41.582  29.326  32.701  1.00  0.00    -0.354 N 
ATOM     51  N   UNL A   1      41.203  31.163  34.964  1.00  0.00    -0.248 NA
ATOM     52  C   UNL A   1      41.806  31.900  37.098  1.00  0.00     0.031 C 
ATOM     53  C   UNL A   1      43.215  27.825  32.823  1.00  0.00     0.029 A 
ATOM     54  C   UNL A   1      42.607  28.862  33.512  1.00  0.00     0.049 A 
ATOM     55  H   UNL A   1      40.965  30.056  32.934  1.00  0.00     0.167 HD
ATOM     56  C   UNL A   1      42.291  30.419  35.415  1.00  0.00     0.074 A 
ATOM     57  C   UNL A   1      42.642  30.946  36.718  1.00  0.00     0.031 C 
ATOM     58  C   UNL A   1      42.944  29.396  34.810  1.00  0.00     0.034 A 
BRANCH  45  59
ATOM     59  C   UNL A   1      40.666  27.915  29.235  1.00  0.00     0.023 A 
ATOM     60  C   UNL A   1      41.614  28.115  28.216  1.00  0.00     0.031 A 
ATOM     61  C   UNL A   1      39.764  26.845  29.093  1.00  0.00     0.131 A 
ATOM     62  C   UNL A   1      41.596  27.302  27.072  1.00  0.00     0.055 A 
ATOM     63  C   UNL A   1      39.801  25.992  27.988  1.00  0.00     0.041 A 
ATOM     64  F   UNL A   1      38.825  26.615  30.024  1.00  0.00    -0.206 F 
ATOM     65  C   UNL A   1      40.713  26.226  26.962  1.00  0.00     0.022 A 
BRANCH  62  66
ATOM     66  S   UNL A   1      42.662  27.748  25.675  1.00  0.00     0.124 S 
ATOM     67  O   UNL A   1      41.979  28.930  25.150  1.00  0.00    -0.237 OA
ATOM     68  O   UNL A   1      43.947  27.988  26.321  1.00  0.00    -0.237 OA
ATOM     69  O   UNL A   1      42.607  26.571  24.811  1.00  0.00    -0.744 OA
ENDBRANCH  62  66
ENDBRANCH  45  59
BRANCH  46  70
ATOM     70  C   UNL A   1      39.734  33.965  37.169  1.00  0.00     0.023 A 
ATOM     71  C   UNL A   1      39.119  33.469  38.330  1.00  0.00     0.031 A 
ATOM     72  C   UNL A   1      40.135  35.312  37.161  1.00  0.00     0.131 A 
ATOM     73  C   UNL A   1      38.867  34.329  39.411  1.00  0.00     0.055 A 
ATOM     74  C   UNL A   1      39.937  36.148  38.261  1.00  0.00     0.041 A 
ATOM     75  F   UNL A   1      40.731  35.837  36.078  1.00  0.00    -0.206 F 
ATOM     76  C   UNL A   1      39.283  35.662  39.389  1.00  0.00     0.022 A 
BRANCH  73  77
ATOM     77  S   UNL A   1      37.886  33.705  40.803  1.00  0.00     0.124 S 
ATOM     78  O   UNL A   1      38.905  33.048  41.614  1.00  0.00    -0.237 OA
ATOM     79  O   UNL A   1      37.324  34.936  41.351  1.00  0.00    -0.237 OA
ATOM     80  O   UNL A   1      36.922  32.811  40.166  1.00  0.00    -0.744 OA
ENDBRANCH  73  77
ENDBRANCH  46  70
BRANCH  58  81
ATOM     81  C   UNL A   1      44.136  28.821  35.534  1.00  0.00     0.023 A 
ATOM     82  C   UNL A   1      44.015  27.721  36.401  1.00  0.00     0.031 A 
ATOM     83  C   UNL A   1      45.407  29.398  35.369  1.00  0.00     0.131 A 
ATOM     84  C   UNL A   1      45.134  27.271  37.119  1.00  0.00     0.055 A 
ATOM     85  C   UNL A   1      46.529  28.909  36.040  1.00  0.00     0.041 A 
ATOM     86  F   UNL A   1      45.580  30.451  34.553  1.00  0.00    -0.206 F 
ATOM     87  C   UNL A   1      46.393  27.849  36.932  1.00  0.00     0.022 A 
BRANCH  84  88
ATOM     88  S   UNL A   1      44.904  25.981  38.372  1.00  0.00     0.124 S 
ATOM     89  O   UNL A   1      43.714  26.450  39.077  1.00  0.00    -0.237 OA
ATOM     90  O   UNL A   1      44.730  24.783  37.558  1.00  0.00    -0.237 OA
ATOM     91  O   UNL A   1      46.143  26.029  39.146  1.00  0.00    -0.744 OA
ENDBRANCH  84  88
ENDBRANCH  58  81
ENDBRANCH  32  33
ENDBRANCH  24  27
ENDBRANCH  22  23
ENDBRANCH   1  22
TORSDOF 15
ENDMDL
MODEL 2
REMARK VINA RESULT:     -11.5      3.348      8.749
REMARK SMILES CC(C)(C)C(=O)Nc1ccc(C(=O)NCCCNC(=O)c2ccc(-c3c4nc(c(-c5cc(S(=O)(=O)[O-])ccc5F)c5ccc([nH]5)c(-c5cc(S(=O)(=O)[O-])ccc5F)c5nc(c(-c6cc(S(=O)(=O)[O-])ccc6F)c6ccc3[nH]6)C=C5)C=C4)cc2)cc1Br
REMARK SMILES IDX 16 1 15 2 14 3 12 4 13 5 11 7 8 8 9 9 85 10 10 11 84 12
REMARK SMILES IDX 86 13 7 14 5 15 6 16 2 18 1 19 3 20 4 21 17 22 18 23 19 24
REMARK SMILES IDX 20 26 21 27 22 28 83 29 23 30 82 31 24 32 25 33 26 34 76 35
REMARK SMILES IDX 27 36 81 37 75 38 77 39 28 40 80 41 74 42 73 43 29 45 61 46
REMARK SMILES IDX 41 47 60 48 42 49 45 50 59 51 78 52 43 53 44 54 58 56 79 57
REMARK SMILES IDX 46 58 30 59 31 60 39 61 32 62 38 63 40 64 37 65 33 66 34 67
REMARK SMILES IDX 35 68 36 69 62 70 63 71 71 72 64 73 70 74 72 75 69 76 65 77
REMARK SMILES IDX 66 78 67 79 68 80 47 81 48 82 56 83 49 84 55 85 57 86 54 87
REMARK SMILES IDX 50 88 51 89 52 90 53 91
REMARK H PARENT 14 6 7 17 18 25 77 44 45 55
REMARK Flexibility Score: inf
ROOT
ATOM      1  C   UNL A   1      32.946  29.466  25.009  1.00  0.00     0.042 C 
ENDROOT
BRANCH   1   2
ATOM      2  C   UNL A   1      31.431  29.657  24.994  1.00  0.00     0.118 C 
BRANCH   2   3
ATOM      3  N   UNL A   1      30.920  29.875  23.646  1.00  0.00    -0.352 N 
ATOM      4  C   UNL A   1      30.457  28.988  22.710  1.00  0.00     0.251 C 
ATOM      5  O   UNL A   1      29.925  29.413  21.683  1.00  0.00    -0.269 OA
ATOM      6  H   UNL A   1      30.905  30.817  23.361  1.00  0.00     0.163 HD
BRANCH   4   7
ATOM      7  C   UNL A   1      30.509  27.526  22.938  1.00  0.00     0.041 A 
ATOM      8  C   UNL A   1      30.653  24.831  23.646  1.00  0.00     0.055 A 
ATOM      9  C   UNL A   1      29.539  25.587  24.016  1.00  0.00     0.028 A 
ATOM     10  C   UNL A   1      31.589  25.373  22.756  1.00  0.00     0.042 A 
ATOM     11  C   UNL A   1      29.474  26.938  23.674  1.00  0.00     0.016 A 
ATOM     12  C   UNL A   1      31.522  26.723  22.411  1.00  0.00     0.031 A 
ATOM     13  Br  UNL A   1      32.932  24.313  21.930  1.00  0.00    -0.049 Br
BRANCH   8  14
ATOM     14  N   UNL A   1      30.740  23.522  24.123  1.00  0.00    -0.325 N 
ATOM     15  C   UNL A   1      31.517  23.010  25.125  1.00  0.00     0.229 C 
ATOM     16  O   UNL A   1      31.460  21.782  25.272  1.00  0.00    -0.274 OA
ATOM     17  H   UNL A   1      30.156  22.871  23.670  1.00  0.00     0.169 HD
BRANCH  15  18
ATOM     18  C   UNL A   1      32.353  23.889  26.103  1.00  0.00     0.041 C 
ATOM     19  C   UNL A   1      32.691  23.021  27.341  1.00  0.00     0.021 C 
ATOM     20  C   UNL A   1      31.533  25.088  26.602  1.00  0.00     0.021 C 
ATOM     21  C   UNL A   1      33.691  24.372  25.533  1.00  0.00     0.021 C 
ENDBRANCH  15  18
ENDBRANCH   8  14
ENDBRANCH   4   7
ENDBRANCH   2   3
ENDBRANCH   1   2
BRANCH   1  22
ATOM     22  C   UNL A   1      33.569  29.541  26.401  1.00  0.00     0.118 C 
BRANCH  22  23
ATOM     23  N   UNL A   1      33.503  30.879  26.966  1.00  0.00    -0.352 N 
ATOM     24  C   UNL A   1      34.287  31.476  27.922  1.00  0.00     0.251 C 
ATOM     25  H   UNL A   1      32.783  31.447  26.606  1.00  0.00     0.163 HD
ATOM     26  O   UNL A   1      33.917  32.550  28.401  1.00  0.00    -0.269 OA
BRANCH  24  27
ATOM     27  C   UNL A   1      35.543  30.846  28.396  1.00  0.00     0.039 A 
ATOM     28  C   UNL A   1      36.754  31.256  27.829  1.00  0.00     0.014 A 
ATOM     29  C   UNL A   1      35.540  29.825  29.351  1.00  0.00     0.014 A 
ATOM     30  C   UNL A   1      37.958  30.688  28.258  1.00  0.00     0.010 A 
ATOM     31  C   UNL A   1      36.746  29.309  29.828  1.00  0.00     0.010 A 
ATOM     32  C   UNL A   1      37.969  29.731  29.285  1.00  0.00    -0.014 A 
BRANCH  32  33
ATOM     33  C   UNL A   1      39.246  29.156  29.790  1.00  0.00     0.031 A 
ATOM     34  C   UNL A   1      39.944  29.779  30.972  1.00  0.00     0.074 A 
ATOM     35  C   UNL A   1      39.802  28.104  29.156  1.00  0.00     0.049 A 
ATOM     36  N   UNL A   1      41.098  29.474  31.507  1.00  0.00    -0.248 NA
ATOM     37  C   UNL A   1      39.263  30.910  31.619  1.00  0.00     0.031 C 
ATOM     38  C   UNL A   1      39.238  27.429  27.984  1.00  0.00     0.029 A 
ATOM     39  N   UNL A   1      40.966  27.419  29.401  1.00  0.00    -0.354 N 
ATOM     40  C   UNL A   1      41.287  30.378  32.548  1.00  0.00     0.074 A 
ATOM     41  C   UNL A   1      40.153  31.278  32.528  1.00  0.00     0.031 C 
ATOM     42  C   UNL A   1      40.046  26.417  27.627  1.00  0.00     0.029 A 
ATOM     43  C   UNL A   1      41.207  26.396  28.511  1.00  0.00     0.049 A 
ATOM     44  H   UNL A   1      41.574  27.639  30.144  1.00  0.00     0.167 HD
ATOM     45  C   UNL A   1      42.299  30.438  33.449  1.00  0.00     0.034 A 
ATOM     46  C   UNL A   1      42.249  25.547  28.410  1.00  0.00     0.034 A 
ATOM     47  C   UNL A   1      43.417  29.527  33.467  1.00  0.00     0.049 A 
ATOM     48  C   UNL A   1      43.375  25.653  29.409  1.00  0.00     0.074 A 
ATOM     49  C   UNL A   1      44.478  29.479  34.356  1.00  0.00     0.029 A 
ATOM     50  N   UNL A   1      43.622  28.501  32.553  1.00  0.00    -0.354 N 
ATOM     51  N   UNL A   1      43.518  26.495  30.407  1.00  0.00    -0.248 NA
ATOM     52  C   UNL A   1      44.473  24.687  29.276  1.00  0.00     0.031 C 
ATOM     53  C   UNL A   1      45.350  28.464  33.948  1.00  0.00     0.029 A 
ATOM     54  C   UNL A   1      44.801  27.831  32.844  1.00  0.00     0.049 A 
ATOM     55  H   UNL A   1      43.019  28.283  31.807  1.00  0.00     0.167 HD
ATOM     56  C   UNL A   1      44.705  26.133  31.040  1.00  0.00     0.074 A 
ATOM     57  C   UNL A   1      45.226  24.989  30.322  1.00  0.00     0.031 C 
ATOM     58  C   UNL A   1      45.310  26.693  32.117  1.00  0.00     0.034 A 
BRANCH  45  59
ATOM     59  C   UNL A   1      42.248  31.542  34.479  1.00  0.00     0.023 A 
ATOM     60  C   UNL A   1      41.313  31.527  35.528  1.00  0.00     0.031 A 
ATOM     61  C   UNL A   1      43.141  32.626  34.410  1.00  0.00     0.131 A 
ATOM     62  C   UNL A   1      41.246  32.605  36.424  1.00  0.00     0.055 A 
ATOM     63  C   UNL A   1      43.122  33.658  35.351  1.00  0.00     0.041 A 
ATOM     64  F   UNL A   1      44.045  32.704  33.421  1.00  0.00    -0.206 F 
ATOM     65  C   UNL A   1      42.161  33.658  36.358  1.00  0.00     0.022 A 
BRANCH  62  66
ATOM     66  S   UNL A   1      39.869  32.671  37.602  1.00  0.00     0.124 S 
ATOM     67  O   UNL A   1      40.563  32.488  38.875  1.00  0.00    -0.237 OA
ATOM     68  O   UNL A   1      39.312  33.997  37.363  1.00  0.00    -0.237 OA
ATOM     69  O   UNL A   1      39.019  31.554  37.198  1.00  0.00    -0.744 OA
ENDBRANCH  62  66
ENDBRANCH  45  59
BRANCH  46  70
ATOM     70  C   UNL A   1      42.299  24.527  27.322  1.00  0.00     0.023 A 
ATOM     71  C   UNL A   1      41.535  23.352  27.400  1.00  0.00     0.031 A 
ATOM     72  C   UNL A   1      43.161  24.680  26.223  1.00  0.00     0.131 A 
ATOM     73  C   UNL A   1      41.693  22.348  26.432  1.00  0.00     0.055 A 
ATOM     74  C   UNL A   1      43.272  23.704  25.230  1.00  0.00     0.041 A 
ATOM     75  F   UNL A   1      43.913  25.785  26.096  1.00  0.00    -0.206 F 
ATOM     76  C   UNL A   1      42.548  22.521  25.341  1.00  0.00     0.022 A 
BRANCH  73  77
ATOM     77  S   UNL A   1      40.848  20.762  26.682  1.00  0.00     0.124 S 
ATOM     78  O   UNL A   1      39.545  21.022  26.081  1.00  0.00    -0.237 OA
ATOM     79  O   UNL A   1      41.718  19.841  25.958  1.00  0.00    -0.237 OA
ATOM     80  O   UNL A   1      40.845  20.604  28.135  1.00  0.00    -0.744 OA
ENDBRANCH  73  77
ENDBRANCH  46  70
BRANCH  58  81
ATOM     81  C   UNL A   1      46.575  26.035  32.610  1.00  0.00     0.023 A 
ATOM     82  C   UNL A   1      46.550  25.003  33.564  1.00  0.00     0.031 A 
ATOM     83  C   UNL A   1      47.826  26.465  32.132  1.00  0.00     0.131 A 
ATOM     84  C   UNL A   1      47.753  24.477  34.056  1.00  0.00     0.055 A 
ATOM     85  C   UNL A   1      49.019  25.897  32.581  1.00  0.00     0.041 A 
ATOM     86  F   UNL A   1      47.908  27.449  31.221  1.00  0.00    -0.206 F 
ATOM     87  C   UNL A   1      48.987  24.907  33.559  1.00  0.00     0.022 A 
BRANCH  84  88
ATOM     88  S   UNL A   1      47.690  23.287  35.423  1.00  0.00     0.124 S 
ATOM     89  O   UNL A   1      48.867  22.464  35.165  1.00  0.00    -0.237 OA
ATOM     90  O   UNL A   1      47.764  24.154  36.595  1.00  0.00    -0.237 OA
ATOM     91  O   UNL A   1      46.407  22.613  35.232  1.00  0.00    -0.744 OA
ENDBRANCH  84  88
ENDBRANCH  58  81
ENDBRANCH  32  33
ENDBRANCH  24  27
ENDBRANCH  22  23
ENDBRANCH   1  22
TORSDOF 15
ENDMDL
MODEL 3
REMARK VINA RESULT:     -11.4      2.394      3.214
REMARK SMILES CC(C)(C)C(=O)Nc1ccc(C(=O)NCCCNC(=O)c2ccc(-c3c4nc(c(-c5cc(S(=O)(=O)[O-])ccc5F)c5ccc([nH]5)c(-c5cc(S(=O)(=O)[O-])ccc5F)c5nc(c(-c6cc(S(=O)(=O)[O-])ccc6F)c6ccc3[nH]6)C=C5)C=C4)cc2)cc1Br
REMARK SMILES IDX 16 1 15 2 14 3 12 4 13 5 11 7 8 8 9 9 85 10 10 11 84 12
REMARK SMILES IDX 86 13 7 14 5 15 6 16 2 18 1 19 3 20 4 21 17 22 18 23 19 24
REMARK SMILES IDX 20 26 21 27 22 28 83 29 23 30 82 31 24 32 25 33 26 34 76 35
REMARK SMILES IDX 27 36 81 37 75 38 77 39 28 40 80 41 74 42 73 43 29 45 61 46
REMARK SMILES IDX 41 47 60 48 42 49 45 50 59 51 78 52 43 53 44 54 58 56 79 57
REMARK SMILES IDX 46 58 30 59 31 60 39 61 32 62 38 63 40 64 37 65 33 66 34 67
REMARK SMILES IDX 35 68 36 69 62 70 63 71 71 72 64 73 70 74 72 75 69 76 65 77
REMARK SMILES IDX 66 78 67 79 68 80 47 81 48 82 56 83 49 84 55 85 57 86 54 87
REMARK SMILES IDX 50 88 51 89 52 90 53 91
REMARK H PARENT 14 6 7 17 18 25 77 44 45 55
REMARK Flexibility Score: inf
ROOT
ATOM      1  C   UNL A   1      31.621  29.018  25.475  1.00  0.00     0.042 C 
ENDROOT
BRANCH   1   2
ATOM      2  C   UNL A   1      31.366  28.684  24.007  1.00  0.00     0.118 C 
BRANCH   2   3
ATOM      3  N   UNL A   1      32.577  28.792  23.202  1.00  0.00    -0.352 N 
ATOM      4  C   UNL A   1      33.538  27.863  22.902  1.00  0.00     0.251 C 
ATOM      5  O   UNL A   1      34.405  28.135  22.068  1.00  0.00    -0.269 OA
ATOM      6  H   UNL A   1      32.729  29.681  22.809  1.00  0.00     0.163 HD
BRANCH   4   7
ATOM      7  C   UNL A   1      33.516  26.508  23.498  1.00  0.00     0.041 A 
ATOM      8  C   UNL A   1      33.764  23.972  24.634  1.00  0.00     0.055 A 
ATOM      9  C   UNL A   1      34.005  25.107  25.411  1.00  0.00     0.028 A 
ATOM     10  C   UNL A   1      33.209  24.116  23.357  1.00  0.00     0.042 A 
ATOM     11  C   UNL A   1      33.895  26.374  24.839  1.00  0.00     0.016 A 
ATOM     12  C   UNL A   1      33.094  25.385  22.786  1.00  0.00     0.031 A 
ATOM     13  Br  UNL A   1      32.528  22.639  22.376  1.00  0.00    -0.049 Br
BRANCH   8  14
ATOM     14  N   UNL A   1      34.016  22.724  25.207  1.00  0.00    -0.325 N 
ATOM     15  C   UNL A   1      35.158  21.972  25.188  1.00  0.00     0.229 C 
ATOM     16  O   UNL A   1      35.067  20.850  25.703  1.00  0.00    -0.274 OA
ATOM     17  H   UNL A   1      33.260  22.328  25.698  1.00  0.00     0.169 HD
BRANCH  15  18
ATOM     18  C   UNL A   1      36.525  22.493  24.654  1.00  0.00     0.041 C 
ATOM     19  C   UNL A   1      36.312  22.952  23.189  1.00  0.00     0.021 C 
ATOM     20  C   UNL A   1      37.570  21.367  24.626  1.00  0.00     0.021 C 
ATOM     21  C   UNL A   1      37.081  23.703  25.411  1.00  0.00     0.021 C 
ENDBRANCH  15  18
ENDBRANCH   8  14
ENDBRANCH   4   7
ENDBRANCH   2   3
ENDBRANCH   1   2
BRANCH   1  22
ATOM     22  C   UNL A   1      32.880  29.847  25.716  1.00  0.00     0.118 C 
BRANCH  22  23
ATOM     23  N   UNL A   1      32.577  31.200  26.154  1.00  0.00    -0.352 N 
ATOM     24  C   UNL A   1      33.132  31.950  27.161  1.00  0.00     0.251 C 
ATOM     25  H   UNL A   1      31.861  31.649  25.648  1.00  0.00     0.163 HD
ATOM     26  O   UNL A   1      32.575  32.997  27.491  1.00  0.00    -0.269 OA
BRANCH  24  27
ATOM     27  C   UNL A   1      34.364  31.513  27.861  1.00  0.00     0.039 A 
ATOM     28  C   UNL A   1      35.416  32.424  27.999  1.00  0.00     0.014 A 
ATOM     29  C   UNL A   1      34.516  30.207  28.338  1.00  0.00     0.014 A 
ATOM     30  C   UNL A   1      36.590  32.047  28.660  1.00  0.00     0.010 A 
ATOM     31  C   UNL A   1      35.659  29.854  29.059  1.00  0.00     0.010 A 
ATOM     32  C   UNL A   1      36.710  30.768  29.225  1.00  0.00    -0.014 A 
BRANCH  32  33
ATOM     33  C   UNL A   1      37.931  30.369  29.979  1.00  0.00     0.031 A 
ATOM     34  C   UNL A   1      38.915  29.402  29.373  1.00  0.00     0.074 A 
ATOM     35  C   UNL A   1      38.130  30.840  31.226  1.00  0.00     0.049 A 
ATOM     36  N   UNL A   1      39.990  28.874  29.900  1.00  0.00    -0.248 NA
ATOM     37  C   UNL A   1      38.636  28.950  28.001  1.00  0.00     0.031 C 
ATOM     38  C   UNL A   1      37.236  31.761  31.934  1.00  0.00     0.029 A 
ATOM     39  N   UNL A   1      39.141  30.607  32.125  1.00  0.00    -0.354 N 
ATOM     40  C   UNL A   1      40.512  28.024  28.931  1.00  0.00     0.074 A 
ATOM     41  C   UNL A   1      39.601  28.064  27.806  1.00  0.00     0.031 C 
ATOM     42  C   UNL A   1      37.750  32.029  33.146  1.00  0.00     0.029 A 
ATOM     43  C   UNL A   1      38.982  31.267  33.323  1.00  0.00     0.049 A 
ATOM     44  H   UNL A   1      39.909  30.022  31.932  1.00  0.00     0.167 HD
ATOM     45  C   UNL A   1      41.655  27.294  28.966  1.00  0.00     0.034 A 
ATOM     46  C   UNL A   1      39.735  31.251  34.441  1.00  0.00     0.034 A 
ATOM     47  C   UNL A   1      42.563  27.272  30.088  1.00  0.00     0.049 A 
ATOM     48  C   UNL A   1      40.988  30.410  34.464  1.00  0.00     0.074 A 
ATOM     49  C   UNL A   1      43.765  26.596  30.213  1.00  0.00     0.029 A 
ATOM     50  N   UNL A   1      42.370  27.958  31.281  1.00  0.00    -0.354 N 
ATOM     51  N   UNL A   1      41.483  29.638  33.523  1.00  0.00    -0.248 NA
ATOM     52  C   UNL A   1      41.790  30.449  35.693  1.00  0.00     0.031 C 
ATOM     53  C   UNL A   1      44.269  26.826  31.498  1.00  0.00     0.029 A 
ATOM     54  C   UNL A   1      43.418  27.703  32.152  1.00  0.00     0.049 A 
ATOM     55  H   UNL A   1      41.602  28.540  31.478  1.00  0.00     0.167 HD
ATOM     56  C   UNL A   1      42.672  29.129  34.038  1.00  0.00     0.074 A 
ATOM     57  C   UNL A   1      42.827  29.696  35.362  1.00  0.00     0.031 C 
ATOM     58  C   UNL A   1      43.558  28.273  33.470  1.00  0.00     0.034 A 
BRANCH  45  59
ATOM     59  C   UNL A   1      41.977  26.445  27.759  1.00  0.00     0.023 A 
ATOM     60  C   UNL A   1      41.596  25.094  27.686  1.00  0.00     0.031 A 
ATOM     61  C   UNL A   1      42.679  26.990  26.669  1.00  0.00     0.131 A 
ATOM     62  C   UNL A   1      41.975  24.316  26.581  1.00  0.00     0.055 A 
ATOM     63  C   UNL A   1      42.986  26.231  25.537  1.00  0.00     0.041 A 
ATOM     64  F   UNL A   1      43.085  28.269  26.688  1.00  0.00    -0.206 F 
ATOM     65  C   UNL A   1      42.645  24.882  25.495  1.00  0.00     0.022 A 
BRANCH  62  66
ATOM     66  S   UNL A   1      41.687  22.527  26.640  1.00  0.00     0.124 S 
ATOM     67  O   UNL A   1      42.276  22.093  25.375  1.00  0.00    -0.237 OA
ATOM     68  O   UNL A   1      42.402  22.131  27.847  1.00  0.00    -0.237 OA
ATOM     69  O   UNL A   1      40.232  22.416  26.712  1.00  0.00    -0.744 OA
ENDBRANCH  62  66
ENDBRANCH  45  59
BRANCH  46  70
ATOM     70  C   UNL A   1      39.333  32.038  35.643  1.00  0.00     0.023 A 
ATOM     71  C   UNL A   1      38.611  31.440  36.688  1.00  0.00     0.031 A 
ATOM     72  C   UNL A   1      39.604  33.414  35.734  1.00  0.00     0.131 A 
ATOM     73  C   UNL A   1      38.131  32.225  37.748  1.00  0.00     0.055 A 
ATOM     74  C   UNL A   1      39.176  34.181  36.820  1.00  0.00     0.041 A 
ATOM     75  F   UNL A   1      40.294  34.037  34.765  1.00  0.00    -0.206 F 
ATOM     76  C   UNL A   1      38.419  33.590  37.827  1.00  0.00     0.022 A 
BRANCH  73  77
ATOM     77  S   UNL A   1      37.027  31.457  38.965  1.00  0.00     0.124 S 
ATOM     78  O   UNL A   1      37.810  31.573  40.190  1.00  0.00    -0.237 OA
ATOM     79  O   UNL A   1      35.844  32.307  38.876  1.00  0.00    -0.237 OA
ATOM     80  O   UNL A   1      36.856  30.097  38.459  1.00  0.00    -0.744 OA
ENDBRANCH  73  77
ENDBRANCH  46  70
BRANCH  58  81
ATOM     81  C   UNL A   1      44.799  27.946  34.265  1.00  0.00     0.023 A 
ATOM     82  C   UNL A   1      44.852  26.839  35.130  1.00  0.00     0.031 A 
ATOM     83  C   UNL A   1      45.935  28.769  34.170  1.00  0.00     0.131 A 
ATOM     84  C   UNL A   1      45.996  26.620  35.913  1.00  0.00     0.055 A 
ATOM     85  C   UNL A   1      47.092  28.512  34.907  1.00  0.00     0.041 A 
ATOM     86  F   UNL A   1      45.937  29.841  33.360  1.00  0.00    -0.206 F 
ATOM     87  C   UNL A   1      47.121  27.440  35.795  1.00  0.00     0.022 A 
BRANCH  84  88
ATOM     88  S   UNL A   1      45.959  25.301  37.157  1.00  0.00     0.124 S 
ATOM     89  O   UNL A   1      46.503  24.168  36.416  1.00  0.00    -0.237 OA
ATOM     90  O   UNL A   1      46.813  25.842  38.210  1.00  0.00    -0.237 OA
ATOM     91  O   UNL A   1      44.543  25.194  37.503  1.00  0.00    -0.744 OA
ENDBRANCH  84  88
ENDBRANCH  58  81
ENDBRANCH  32  33
ENDBRANCH  24  27
ENDBRANCH  22  23
ENDBRANCH   1  22
TORSDOF 15
ENDMDL
