MODEL 1
REMARK VINA RESULT:     -13.4      0.000      0.000
REMARK SMILES COc1ccccc1[C@@H]1C[N@@H+](Cc2cc3c(cc2C)OCO3)C[C@H]1C(=O)NCCCNC(=O)c1ccc(-c2c3nc(c(-c4cc(S(=O)(=O)[O-])ccc4F)c4ccc([nH]4)c(-c4cc(S(=O)(=O)[O-])ccc4F)c4nc(c(-c5cc(S(=O)(=O)[O-])ccc5F)c5ccc2[nH]5)C=C4)C=C3)cc1
REMARK SMILES IDX 29 1 28 2 27 3 25 4 26 5 24 7 9 8 10 9 11 10 23 11 8 13 3 14
REMARK SMILES IDX 4 15 5 16 7 17 6 18 2 19 1 20 12 21 13 22 14 23 18 24 15 25
REMARK SMILES IDX 17 26 19 27 16 28 22 29 20 30 21 31 30 32 31 33 32 34 33 36
REMARK SMILES IDX 34 37 35 38 96 39 36 40 95 41 37 42 38 43 39 44 89 45 40 46
REMARK SMILES IDX 94 47 88 48 90 49 41 50 93 51 87 52 86 53 42 55 74 56 54 57
REMARK SMILES IDX 73 58 55 59 58 60 72 61 91 62 56 63 57 64 71 66 92 67 59 68
REMARK SMILES IDX 43 69 44 70 52 71 45 72 51 73 53 74 50 75 46 76 47 77 48 78
REMARK SMILES IDX 49 79 75 80 76 81 84 82 77 83 83 84 85 85 82 86 78 87 79 88
REMARK SMILES IDX 80 89 81 90 60 91 61 92 69 93 62 94 68 95 70 96 67 97 63 98
REMARK SMILES IDX 64 99 65 100 66 101
REMARK H PARENT 27 6 11 12 31 35 90 54 58 65
REMARK Flexibility Score: inf
ROOT
ATOM      1  C   UNL A   1      32.347  28.707  25.658  1.00  0.00     0.042 C 
ENDROOT
BRANCH   1   2
ATOM      2  C   UNL A   1      33.774  28.043  25.490  1.00  0.00     0.117 C 
BRANCH   2   3
ATOM      3  N   UNL A   1      34.145  26.624  25.863  1.00  0.00    -0.356 N 
ATOM      4  C   UNL A   1      33.924  25.293  25.658  1.00  0.00     0.229 C 
ATOM      5  O   UNL A   1      35.037  24.710  25.732  1.00  0.00    -0.275 OA
ATOM      6  H   UNL A   1      34.848  26.689  26.549  1.00  0.00     0.163 HD
BRANCH   4   7
ATOM      7  C   UNL A   1      32.720  24.257  25.443  1.00  0.00     0.146 C 
ATOM      8  C   UNL A   1      32.055  24.313  24.025  1.00  0.00     0.096 C 
ATOM      9  C   UNL A   1      31.334  22.967  23.820  1.00  0.00     0.272 C 
ATOM     10  N   UNL A   1      32.038  21.983  24.642  1.00  0.00    -0.330 N 
ATOM     11  C   UNL A   1      32.576  22.758  25.794  1.00  0.00     0.276 C 
ATOM     12  H   UNL A   1      31.472  21.251  25.070  1.00  0.00     0.348 HD
BRANCH   8  13
ATOM     13  C   UNL A   1      31.159  25.433  23.494  1.00  0.00     0.004 A 
ATOM     14  C   UNL A   1      31.419  26.344  22.448  1.00  0.00     0.122 A 
ATOM     15  C   UNL A   1      30.597  27.480  22.277  1.00  0.00     0.047 A 
ATOM     16  C   UNL A   1      29.550  27.765  23.149  1.00  0.00     0.004 A 
ATOM     17  C   UNL A   1      30.071  25.751  24.351  1.00  0.00     0.008 A 
ATOM     18  C   UNL A   1      29.297  26.904  24.200  1.00  0.00     0.001 A 
BRANCH  14  19
ATOM     19  O   UNL A   1      32.548  26.439  21.677  1.00  0.00    -0.496 OA
ATOM     20  C   UNL A   1      33.570  27.313  22.109  1.00  0.00     0.278 C 
ENDBRANCH  14  19
ENDBRANCH   8  13
BRANCH  10  21
ATOM     21  C   UNL A   1      32.885  21.076  23.823  1.00  0.00     0.299 C 
BRANCH  21  22
ATOM     22  C   UNL A   1      33.256  19.762  24.485  1.00  0.00     0.013 A 
ATOM     23  C   UNL A   1      32.321  18.737  24.765  1.00  0.00     0.060 A 
ATOM     24  C   UNL A   1      34.615  19.493  24.641  1.00  0.00    -0.038 A 
ATOM     25  C   UNL A   1      32.788  17.447  24.947  1.00  0.00     0.166 A 
ATOM     26  C   UNL A   1      35.005  18.155  24.533  1.00  0.00     0.054 A 
ATOM     27  C   UNL A   1      35.559  20.629  24.932  1.00  0.00     0.045 C 
ATOM     28  C   UNL A   1      34.096  17.157  24.720  1.00  0.00     0.166 A 
ATOM     29  O   UNL A   1      32.095  16.323  25.271  1.00  0.00    -0.454 OA
ATOM     30  O   UNL A   1      34.393  15.836  24.766  1.00  0.00    -0.454 OA
ATOM     31  C   UNL A   1      33.173  15.350  25.352  1.00  0.00     0.468 C 
ENDBRANCH  21  22
ENDBRANCH  10  21
ENDBRANCH   4   7
ENDBRANCH   2   3
ENDBRANCH   1   2
BRANCH   1  32
ATOM     32  C   UNL A   1      31.842  29.398  26.950  1.00  0.00     0.118 C 
BRANCH  32  33
ATOM     33  N   UNL A   1      32.133  30.841  26.836  1.00  0.00    -0.352 N 
ATOM     34  C   UNL A   1      33.088  31.689  27.347  1.00  0.00     0.251 C 
ATOM     35  H   UNL A   1      31.491  31.308  26.254  1.00  0.00     0.163 HD
ATOM     36  O   UNL A   1      32.762  32.875  27.453  1.00  0.00    -0.269 OA
BRANCH  34  37
ATOM     37  C   UNL A   1      34.485  31.303  27.695  1.00  0.00     0.039 A 
ATOM     38  C   UNL A   1      34.734  29.955  28.021  1.00  0.00     0.014 A 
ATOM     39  C   UNL A   1      35.503  32.231  27.910  1.00  0.00     0.014 A 
ATOM     40  C   UNL A   1      35.951  29.559  28.598  1.00  0.00     0.010 A 
ATOM     41  C   UNL A   1      36.746  31.821  28.423  1.00  0.00     0.010 A 
ATOM     42  C   UNL A   1      36.969  30.493  28.827  1.00  0.00    -0.014 A 
BRANCH  42  43
ATOM     43  C   UNL A   1      38.197  30.104  29.593  1.00  0.00     0.031 A 
ATOM     44  C   UNL A   1      38.396  30.590  31.012  1.00  0.00     0.074 A 
ATOM     45  C   UNL A   1      39.133  29.308  29.037  1.00  0.00     0.049 A 
ATOM     46  N   UNL A   1      39.377  30.349  31.850  1.00  0.00    -0.248 NA
ATOM     47  C   UNL A   1      37.375  31.502  31.544  1.00  0.00     0.031 C 
ATOM     48  C   UNL A   1      39.100  28.803  27.663  1.00  0.00     0.029 A 
ATOM     49  N   UNL A   1      40.290  28.777  29.556  1.00  0.00    -0.354 N 
ATOM     50  C   UNL A   1      39.094  31.091  32.996  1.00  0.00     0.074 A 
ATOM     51  C   UNL A   1      37.903  31.859  32.705  1.00  0.00     0.031 C 
ATOM     52  C   UNL A   1      40.168  28.014  27.459  1.00  0.00     0.029 A 
ATOM     53  C   UNL A   1      40.978  27.975  28.675  1.00  0.00     0.049 A 
ATOM     54  H   UNL A   1      40.598  28.955  30.475  1.00  0.00     0.167 HD
ATOM     55  C   UNL A   1      39.736  31.107  34.193  1.00  0.00     0.034 A 
ATOM     56  C   UNL A   1      42.127  27.282  28.823  1.00  0.00     0.034 A 
ATOM     57  C   UNL A   1      40.914  30.323  34.481  1.00  0.00     0.049 A 
ATOM     58  C   UNL A   1      42.824  27.294  30.161  1.00  0.00     0.074 A 
ATOM     59  C   UNL A   1      41.617  30.219  35.669  1.00  0.00     0.029 A 
ATOM     60  N   UNL A   1      41.568  29.508  33.564  1.00  0.00    -0.354 N 
ATOM     61  N   UNL A   1      42.504  27.949  31.254  1.00  0.00    -0.248 NA
ATOM     62  C   UNL A   1      44.020  26.452  30.292  1.00  0.00     0.031 C 
ATOM     63  C   UNL A   1      42.732  29.400  35.452  1.00  0.00     0.029 A 
ATOM     64  C   UNL A   1      42.681  28.923  34.153  1.00  0.00     0.049 A 
ATOM     65  H   UNL A   1      41.284  29.367  32.632  1.00  0.00     0.167 HD
ATOM     66  C   UNL A   1      43.448  27.580  32.210  1.00  0.00     0.074 A 
ATOM     67  C   UNL A   1      44.332  26.627  31.568  1.00  0.00     0.031 C 
ATOM     68  C   UNL A   1      43.571  27.987  33.500  1.00  0.00     0.034 A 
BRANCH  55  69
ATOM     69  C   UNL A   1      39.178  32.022  35.266  1.00  0.00     0.023 A 
ATOM     70  C   UNL A   1      39.560  33.374  35.355  1.00  0.00     0.031 A 
ATOM     71  C   UNL A   1      38.308  31.527  36.255  1.00  0.00     0.131 A 
ATOM     72  C   UNL A   1      39.176  34.143  36.463  1.00  0.00     0.055 A 
ATOM     73  C   UNL A   1      37.844  32.331  37.299  1.00  0.00     0.041 A 
ATOM     74  F   UNL A   1      37.914  30.243  36.240  1.00  0.00    -0.206 F 
ATOM     75  C   UNL A   1      38.298  33.640  37.423  1.00  0.00     0.022 A 
BRANCH  72  76
ATOM     76  S   UNL A   1      40.005  35.736  36.732  1.00  0.00     0.124 S 
ATOM     77  O   UNL A   1      39.653  36.462  35.515  1.00  0.00    -0.237 OA
ATOM     78  O   UNL A   1      39.390  36.210  37.963  1.00  0.00    -0.237 OA
ATOM     79  O   UNL A   1      41.420  35.371  36.840  1.00  0.00    -0.744 OA
ENDBRANCH  72  76
ENDBRANCH  55  69
BRANCH  56  80
ATOM     80  C   UNL A   1      42.689  26.514  27.673  1.00  0.00     0.023 A 
ATOM     81  C   UNL A   1      42.308  25.187  27.416  1.00  0.00     0.031 A 
ATOM     82  C   UNL A   1      43.636  27.104  26.815  1.00  0.00     0.131 A 
ATOM     83  C   UNL A   1      42.893  24.484  26.350  1.00  0.00     0.055 A 
ATOM     84  C   UNL A   1      44.177  26.418  25.727  1.00  0.00     0.041 A 
ATOM     85  F   UNL A   1      44.032  28.372  27.013  1.00  0.00    -0.206 F 
ATOM     86  C   UNL A   1      43.814  25.095  25.495  1.00  0.00     0.022 A 
BRANCH  83  87
ATOM     87  S   UNL A   1      42.478  22.731  26.125  1.00  0.00     0.124 S 
ATOM     88  O   UNL A   1      41.020  22.760  26.186  1.00  0.00    -0.237 OA
ATOM     89  O   UNL A   1      43.061  22.446  24.819  1.00  0.00    -0.237 OA
ATOM     90  O   UNL A   1      43.137  22.077  27.254  1.00  0.00    -0.744 OA
ENDBRANCH  83  87
ENDBRANCH  56  80
BRANCH  68  91
ATOM     91  C   UNL A   1      44.686  27.373  34.314  1.00  0.00     0.023 A 
ATOM     92  C   UNL A   1      44.549  26.116  34.929  1.00  0.00     0.031 A 
ATOM     93  C   UNL A   1      45.899  28.064  34.489  1.00  0.00     0.131 A 
ATOM     94  C   UNL A   1      45.579  25.620  35.745  1.00  0.00     0.055 A 
ATOM     95  C   UNL A   1      46.945  27.535  35.246  1.00  0.00     0.041 A 
ATOM     96  F   UNL A   1      46.086  29.269  33.928  1.00  0.00    -0.206 F 
ATOM     97  C   UNL A   1      46.782  26.314  35.893  1.00  0.00     0.022 A 
BRANCH  94  98
ATOM     98  S   UNL A   1      45.279  24.109  36.702  1.00  0.00     0.124 S 
ATOM     99  O   UNL A   1      46.615  23.527  36.776  1.00  0.00    -0.237 OA
ATOM    100  O   UNL A   1      44.741  24.634  37.952  1.00  0.00    -0.237 OA
ATOM    101  O   UNL A   1      44.324  23.367  35.880  1.00  0.00    -0.744 OA
ENDBRANCH  94  98
ENDBRANCH  68  91
ENDBRANCH  42  43
ENDBRANCH  34  37
ENDBRANCH  32  33
ENDBRANCH   1  32
TORSDOF 17
ENDMDL
MODEL 2
REMARK VINA RESULT:     -13.4      1.650      4.717
REMARK SMILES COc1ccccc1[C@@H]1C[N@@H+](Cc2cc3c(cc2C)OCO3)C[C@H]1C(=O)NCCCNC(=O)c1ccc(-c2c3nc(c(-c4cc(S(=O)(=O)[O-])ccc4F)c4ccc([nH]4)c(-c4cc(S(=O)(=O)[O-])ccc4F)c4nc(c(-c5cc(S(=O)(=O)[O-])ccc5F)c5ccc2[nH]5)C=C4)C=C3)cc1
REMARK SMILES IDX 29 1 28 2 27 3 25 4 26 5 24 7 9 8 10 9 11 10 23 11 8 13 3 14
REMARK SMILES IDX 4 15 5 16 7 17 6 18 2 19 1 20 12 21 13 22 14 23 18 24 15 25
REMARK SMILES IDX 17 26 19 27 16 28 22 29 20 30 21 31 30 32 31 33 32 34 33 36
REMARK SMILES IDX 34 37 35 38 96 39 36 40 95 41 37 42 38 43 39 44 89 45 40 46
REMARK SMILES IDX 94 47 88 48 90 49 41 50 93 51 87 52 86 53 42 55 74 56 54 57
REMARK SMILES IDX 73 58 55 59 58 60 72 61 91 62 56 63 57 64 71 66 92 67 59 68
REMARK SMILES IDX 43 69 44 70 52 71 45 72 51 73 53 74 50 75 46 76 47 77 48 78
REMARK SMILES IDX 49 79 75 80 76 81 84 82 77 83 83 84 85 85 82 86 78 87 79 88
REMARK SMILES IDX 80 89 81 90 60 91 61 92 69 93 62 94 68 95 70 96 67 97 63 98
REMARK SMILES IDX 64 99 65 100 66 101
REMARK H PARENT 27 6 11 12 31 35 90 54 58 65
REMARK Flexibility Score: inf
ROOT
ATOM      1  C   UNL A   1      31.466  29.050  27.280  1.00  0.00     0.042 C 
ENDROOT
BRANCH   1   2
ATOM      2  C   UNL A   1      31.031  27.528  27.292  1.00  0.00     0.117 C 
BRANCH   2   3
ATOM      3  N   UNL A   1      31.878  26.356  26.845  1.00  0.00    -0.356 N 
ATOM      4  C   UNL A   1      32.875  25.912  26.025  1.00  0.00     0.229 C 
ATOM      5  O   UNL A   1      33.550  25.072  26.673  1.00  0.00    -0.275 OA
ATOM      6  H   UNL A   1      31.583  25.580  27.373  1.00  0.00     0.163 HD
BRANCH   4   7
ATOM      7  C   UNL A   1      33.389  26.056  24.513  1.00  0.00     0.146 C 
ATOM      8  C   UNL A   1      33.192  24.774  23.632  1.00  0.00     0.096 C 
ATOM      9  C   UNL A   1      33.231  25.237  22.162  1.00  0.00     0.272 C 
ATOM     10  N   UNL A   1      32.791  26.631  22.149  1.00  0.00    -0.330 N 
ATOM     11  C   UNL A   1      33.212  27.181  23.467  1.00  0.00     0.276 C 
ATOM     12  H   UNL A   1      33.232  27.246  21.465  1.00  0.00     0.348 HD
BRANCH   8  13
ATOM     13  C   UNL A   1      33.979  23.468  23.753  1.00  0.00     0.004 A 
ATOM     14  C   UNL A   1      33.499  22.181  24.077  1.00  0.00     0.122 A 
ATOM     15  C   UNL A   1      34.405  21.151  24.412  1.00  0.00     0.047 A 
ATOM     16  C   UNL A   1      35.777  21.376  24.483  1.00  0.00     0.004 A 
ATOM     17  C   UNL A   1      35.387  23.652  23.821  1.00  0.00     0.008 A 
ATOM     18  C   UNL A   1      36.268  22.637  24.202  1.00  0.00     0.001 A 
BRANCH  14  19
ATOM     19  O   UNL A   1      32.212  21.813  24.372  1.00  0.00    -0.496 OA
ATOM     20  C   UNL A   1      31.662  22.261  25.593  1.00  0.00     0.278 C 
ENDBRANCH  14  19
ENDBRANCH   8  13
BRANCH  10  21
ATOM     21  C   UNL A   1      31.406  26.774  21.629  1.00  0.00     0.299 C 
BRANCH  21  22
ATOM     22  C   UNL A   1      30.527  27.755  22.384  1.00  0.00     0.013 A 
ATOM     23  C   UNL A   1      30.558  29.154  22.173  1.00  0.00     0.060 A 
ATOM     24  C   UNL A   1      29.516  27.217  23.178  1.00  0.00    -0.038 A 
ATOM     25  C   UNL A   1      29.460  29.905  22.555  1.00  0.00     0.166 A 
ATOM     26  C   UNL A   1      28.332  27.954  23.268  1.00  0.00     0.054 A 
ATOM     27  C   UNL A   1      29.758  25.915  23.893  1.00  0.00     0.045 C 
ATOM     28  C   UNL A   1      28.330  29.288  22.989  1.00  0.00     0.166 A 
ATOM     29  O   UNL A   1      29.282  31.251  22.499  1.00  0.00    -0.454 OA
ATOM     30  O   UNL A   1      27.273  30.116  23.169  1.00  0.00    -0.454 OA
ATOM     31  C   UNL A   1      27.959  31.378  23.089  1.00  0.00     0.468 C 
ENDBRANCH  21  22
ENDBRANCH  10  21
ENDBRANCH   4   7
ENDBRANCH   2   3
ENDBRANCH   1   2
BRANCH   1  32
ATOM     32  C   UNL A   1      32.122  29.770  26.074  1.00  0.00     0.118 C 
BRANCH  32  33
ATOM     33  N   UNL A   1      32.296  31.191  26.435  1.00  0.00    -0.352 N 
ATOM     34  C   UNL A   1      33.131  31.891  27.274  1.00  0.00     0.251 C 
ATOM     35  H   UNL A   1      31.663  31.778  25.962  1.00  0.00     0.163 HD
ATOM     36  O   UNL A   1      32.698  32.964  27.703  1.00  0.00    -0.269 OA
BRANCH  34  37
ATOM     37  C   UNL A   1      34.525  31.496  27.627  1.00  0.00     0.039 A 
ATOM     38  C   UNL A   1      34.782  30.132  27.869  1.00  0.00     0.014 A 
ATOM     39  C   UNL A   1      35.528  32.418  27.925  1.00  0.00     0.014 A 
ATOM     40  C   UNL A   1      35.991  29.711  28.445  1.00  0.00     0.010 A 
ATOM     41  C   UNL A   1      36.764  31.988  28.437  1.00  0.00     0.010 A 
ATOM     42  C   UNL A   1      36.993  30.638  28.758  1.00  0.00    -0.014 A 
BRANCH  42  43
ATOM     43  C   UNL A   1      38.209  30.212  29.523  1.00  0.00     0.031 A 
ATOM     44  C   UNL A   1      38.403  30.658  30.957  1.00  0.00     0.074 A 
ATOM     45  C   UNL A   1      39.138  29.417  28.955  1.00  0.00     0.049 A 
ATOM     46  N   UNL A   1      39.372  30.381  31.796  1.00  0.00    -0.248 NA
ATOM     47  C   UNL A   1      37.389  31.570  31.504  1.00  0.00     0.031 C 
ATOM     48  C   UNL A   1      39.110  28.949  27.568  1.00  0.00     0.029 A 
ATOM     49  N   UNL A   1      40.283  28.856  29.469  1.00  0.00    -0.354 N 
ATOM     50  C   UNL A   1      39.090  31.096  32.958  1.00  0.00     0.074 A 
ATOM     51  C   UNL A   1      37.912  31.888  32.677  1.00  0.00     0.031 C 
ATOM     52  C   UNL A   1      40.168  28.150  27.352  1.00  0.00     0.029 A 
ATOM     53  C   UNL A   1      40.967  28.067  28.573  1.00  0.00     0.049 A 
ATOM     54  H   UNL A   1      40.586  29.005  30.395  1.00  0.00     0.167 HD
ATOM     55  C   UNL A   1      39.722  31.071  34.161  1.00  0.00     0.034 A 
ATOM     56  C   UNL A   1      42.104  27.354  28.712  1.00  0.00     0.034 A 
ATOM     57  C   UNL A   1      40.886  30.263  34.438  1.00  0.00     0.049 A 
ATOM     58  C   UNL A   1      42.790  27.320  30.056  1.00  0.00     0.074 A 
ATOM     59  C   UNL A   1      41.578  30.118  35.629  1.00  0.00     0.029 A 
ATOM     60  N   UNL A   1      41.537  29.463  33.505  1.00  0.00    -0.354 N 
ATOM     61  N   UNL A   1      42.469  27.952  31.163  1.00  0.00    -0.248 NA
ATOM     62  C   UNL A   1      43.972  26.459  30.175  1.00  0.00     0.031 C 
ATOM     63  C   UNL A   1      42.682  29.289  35.399  1.00  0.00     0.029 A 
ATOM     64  C   UNL A   1      42.635  28.846  34.087  1.00  0.00     0.049 A 
ATOM     65  H   UNL A   1      41.258  29.351  32.568  1.00  0.00     0.167 HD
ATOM     66  C   UNL A   1      43.400  27.544  32.116  1.00  0.00     0.074 A 
ATOM     67  C   UNL A   1      44.276  26.595  31.457  1.00  0.00     0.031 C 
ATOM     68  C   UNL A   1      43.517  27.916  33.418  1.00  0.00     0.034 A 
BRANCH  55  69
ATOM     69  C   UNL A   1      39.168  31.966  35.253  1.00  0.00     0.023 A 
ATOM     70  C   UNL A   1      39.569  33.309  35.381  1.00  0.00     0.031 A 
ATOM     71  C   UNL A   1      38.282  31.458  36.220  1.00  0.00     0.131 A 
ATOM     72  C   UNL A   1      39.187  34.055  36.506  1.00  0.00     0.055 A 
ATOM     73  C   UNL A   1      37.820  32.241  37.282  1.00  0.00     0.041 A 
ATOM     74  F   UNL A   1      37.868  30.182  36.168  1.00  0.00    -0.206 F 
ATOM     75  C   UNL A   1      38.292  33.540  37.444  1.00  0.00     0.022 A 
BRANCH  72  76
ATOM     76  S   UNL A   1      40.037  35.627  36.824  1.00  0.00     0.124 S 
ATOM     77  O   UNL A   1      39.447  36.028  38.099  1.00  0.00    -0.237 OA
ATOM     78  O   UNL A   1      41.436  35.229  36.862  1.00  0.00    -0.237 OA
ATOM     79  O   UNL A   1      39.653  36.461  35.682  1.00  0.00    -0.744 OA
ENDBRANCH  72  76
ENDBRANCH  55  69
BRANCH  56  80
ATOM     80  C   UNL A   1      42.666  26.609  27.547  1.00  0.00     0.023 A 
ATOM     81  C   UNL A   1      42.315  25.273  27.288  1.00  0.00     0.031 A 
ATOM     82  C   UNL A   1      43.579  27.229  26.675  1.00  0.00     0.131 A 
ATOM     83  C   UNL A   1      42.899  24.592  26.208  1.00  0.00     0.055 A 
ATOM     84  C   UNL A   1      44.119  26.564  25.573  1.00  0.00     0.041 A 
ATOM     85  F   UNL A   1      43.945  28.506  26.874  1.00  0.00    -0.206 F 
ATOM     86  C   UNL A   1      43.787  25.233  25.340  1.00  0.00     0.022 A 
BRANCH  83  87
ATOM     87  S   UNL A   1      42.528  22.830  25.980  1.00  0.00     0.124 S 
ATOM     88  O   UNL A   1      41.078  22.809  26.138  1.00  0.00    -0.237 OA
ATOM     89  O   UNL A   1      43.030  22.586  24.632  1.00  0.00    -0.237 OA
ATOM     90  O   UNL A   1      43.283  22.181  27.050  1.00  0.00    -0.744 OA
ENDBRANCH  83  87
ENDBRANCH  56  80
BRANCH  68  91
ATOM     91  C   UNL A   1      44.617  27.264  34.224  1.00  0.00     0.023 A 
ATOM     92  C   UNL A   1      44.374  26.145  35.040  1.00  0.00     0.031 A 
ATOM     93  C   UNL A   1      45.924  27.782  34.188  1.00  0.00     0.131 A 
ATOM     94  C   UNL A   1      45.405  25.622  35.837  1.00  0.00     0.055 A 
ATOM     95  C   UNL A   1      46.962  27.216  34.931  1.00  0.00     0.041 A 
ATOM     96  F   UNL A   1      46.215  28.851  33.430  1.00  0.00    -0.206 F 
ATOM     97  C   UNL A   1      46.701  26.140  35.774  1.00  0.00     0.022 A 
BRANCH  94  98
ATOM     98  S   UNL A   1      45.003  24.329  37.043  1.00  0.00     0.124 S 
ATOM     99  O   UNL A   1      46.185  24.333  37.898  1.00  0.00    -0.237 OA
ATOM    100  O   UNL A   1      43.776  24.837  37.647  1.00  0.00    -0.237 OA
ATOM    101  O   UNL A   1      44.838  23.132  36.219  1.00  0.00    -0.744 OA
ENDBRANCH  94  98
ENDBRANCH  68  91
ENDBRANCH  42  43
ENDBRANCH  34  37
ENDBRANCH  32  33
ENDBRANCH   1  32
TORSDOF 17
ENDMDL
MODEL 3
REMARK VINA RESULT:     -13.3      1.381      2.074
REMARK SMILES COc1ccccc1[C@@H]1C[N@@H+](Cc2cc3c(cc2C)OCO3)C[C@H]1C(=O)NCCCNC(=O)c1ccc(-c2c3nc(c(-c4cc(S(=O)(=O)[O-])ccc4F)c4ccc([nH]4)c(-c4cc(S(=O)(=O)[O-])ccc4F)c4nc(c(-c5cc(S(=O)(=O)[O-])ccc5F)c5ccc2[nH]5)C=C4)C=C3)cc1
REMARK SMILES IDX 29 1 28 2 27 3 25 4 26 5 24 7 9 8 10 9 11 10 23 11 8 13 3 14
REMARK SMILES IDX 4 15 5 16 7 17 6 18 2 19 1 20 12 21 13 22 14 23 18 24 15 25
REMARK SMILES IDX 17 26 19 27 16 28 22 29 20 30 21 31 30 32 31 33 32 34 33 36
REMARK SMILES IDX 34 37 35 38 96 39 36 40 95 41 37 42 38 43 39 44 89 45 40 46
REMARK SMILES IDX 94 47 88 48 90 49 41 50 93 51 87 52 86 53 42 55 74 56 54 57
REMARK SMILES IDX 73 58 55 59 58 60 72 61 91 62 56 63 57 64 71 66 92 67 59 68
REMARK SMILES IDX 43 69 44 70 52 71 45 72 51 73 53 74 50 75 46 76 47 77 48 78
REMARK SMILES IDX 49 79 75 80 76 81 84 82 77 83 83 84 85 85 82 86 78 87 79 88
REMARK SMILES IDX 80 89 81 90 60 91 61 92 69 93 62 94 68 95 70 96 67 97 63 98
REMARK SMILES IDX 64 99 65 100 66 101
REMARK H PARENT 27 6 11 12 31 35 90 54 58 65
REMARK Flexibility Score: inf
ROOT
ATOM      1  C   UNL A   1      32.343  29.643  25.410  1.00  0.00     0.042 C 
ENDROOT
BRANCH   1   2
ATOM      2  C   UNL A   1      33.507  28.577  25.289  1.00  0.00     0.117 C 
BRANCH   2   3
ATOM      3  N   UNL A   1      33.492  27.173  25.854  1.00  0.00    -0.356 N 
ATOM      4  C   UNL A   1      33.111  25.874  25.680  1.00  0.00     0.229 C 
ATOM      5  O   UNL A   1      34.028  25.147  26.142  1.00  0.00    -0.275 OA
ATOM      6  H   UNL A   1      33.956  27.215  26.721  1.00  0.00     0.163 HD
BRANCH   4   7
ATOM      7  C   UNL A   1      31.863  25.009  25.166  1.00  0.00     0.146 C 
ATOM      8  C   UNL A   1      31.438  25.291  23.684  1.00  0.00     0.096 C 
ATOM      9  C   UNL A   1      30.634  24.064  23.211  1.00  0.00     0.272 C 
ATOM     10  N   UNL A   1      31.104  22.925  23.999  1.00  0.00    -0.330 N 
ATOM     11  C   UNL A   1      31.524  23.506  25.304  1.00  0.00     0.276 C 
ATOM     12  H   UNL A   1      30.411  22.219  24.247  1.00  0.00     0.348 HD
BRANCH   8  13
ATOM     13  C   UNL A   1      30.747  26.555  23.170  1.00  0.00     0.004 A 
ATOM     14  C   UNL A   1      31.320  27.661  22.506  1.00  0.00     0.122 A 
ATOM     15  C   UNL A   1      30.580  28.855  22.351  1.00  0.00     0.047 A 
ATOM     16  C   UNL A   1      29.302  28.999  22.882  1.00  0.00     0.004 A 
ATOM     17  C   UNL A   1      29.433  26.738  23.682  1.00  0.00     0.008 A 
ATOM     18  C   UNL A   1      28.733  27.940  23.565  1.00  0.00     0.001 A 
BRANCH  14  19
ATOM     19  O   UNL A   1      32.637  27.858  22.183  1.00  0.00    -0.496 OA
ATOM     20  C   UNL A   1      33.465  26.719  22.073  1.00  0.00     0.278 C 
ENDBRANCH  14  19
ENDBRANCH   8  13
BRANCH  10  21
ATOM     21  C   UNL A   1      31.980  22.023  23.207  1.00  0.00     0.299 C 
BRANCH  21  22
ATOM     22  C   UNL A   1      33.399  21.877  23.725  1.00  0.00     0.013 A 
ATOM     23  C   UNL A   1      34.429  22.810  23.456  1.00  0.00     0.060 A 
ATOM     24  C   UNL A   1      33.630  20.874  24.665  1.00  0.00    -0.038 A 
ATOM     25  C   UNL A   1      35.527  22.845  24.297  1.00  0.00     0.166 A 
ATOM     26  C   UNL A   1      34.591  21.143  25.644  1.00  0.00     0.054 A 
ATOM     27  C   UNL A   1      32.866  19.581  24.562  1.00  0.00     0.045 C 
ATOM     28  C   UNL A   1      35.540  22.096  25.432  1.00  0.00     0.166 A 
ATOM     29  O   UNL A   1      36.648  23.609  24.212  1.00  0.00    -0.454 OA
ATOM     30  O   UNL A   1      36.588  22.344  26.254  1.00  0.00    -0.454 OA
ATOM     31  C   UNL A   1      37.400  23.122  25.357  1.00  0.00     0.468 C 
ENDBRANCH  21  22
ENDBRANCH  10  21
ENDBRANCH   4   7
ENDBRANCH   2   3
ENDBRANCH   1   2
BRANCH   1  32
ATOM     32  C   UNL A   1      31.769  30.171  26.748  1.00  0.00     0.118 C 
BRANCH  32  33
ATOM     33  N   UNL A   1      32.085  31.611  26.840  1.00  0.00    -0.352 N 
ATOM     34  C   UNL A   1      33.042  32.362  27.482  1.00  0.00     0.251 C 
ATOM     35  H   UNL A   1      31.463  32.166  26.316  1.00  0.00     0.163 HD
ATOM     36  O   UNL A   1      32.732  33.528  27.744  1.00  0.00    -0.269 OA
BRANCH  34  37
ATOM     37  C   UNL A   1      34.425  31.905  27.801  1.00  0.00     0.039 A 
ATOM     38  C   UNL A   1      34.610  30.547  28.129  1.00  0.00     0.014 A 
ATOM     39  C   UNL A   1      35.494  32.780  27.989  1.00  0.00     0.014 A 
ATOM     40  C   UNL A   1      35.818  30.091  28.681  1.00  0.00     0.010 A 
ATOM     41  C   UNL A   1      36.725  32.308  28.476  1.00  0.00     0.010 A 
ATOM     42  C   UNL A   1      36.888  30.972  28.882  1.00  0.00    -0.014 A 
BRANCH  42  43
ATOM     43  C   UNL A   1      38.111  30.523  29.623  1.00  0.00     0.031 A 
ATOM     44  C   UNL A   1      38.338  30.958  31.055  1.00  0.00     0.074 A 
ATOM     45  C   UNL A   1      39.017  29.718  29.033  1.00  0.00     0.049 A 
ATOM     46  N   UNL A   1      39.318  30.662  31.874  1.00  0.00    -0.248 NA
ATOM     47  C   UNL A   1      37.349  31.882  31.626  1.00  0.00     0.031 C 
ATOM     48  C   UNL A   1      38.957  29.258  27.644  1.00  0.00     0.029 A 
ATOM     49  N   UNL A   1      40.163  29.137  29.523  1.00  0.00    -0.354 N 
ATOM     50  C   UNL A   1      39.068  31.374  33.046  1.00  0.00     0.074 A 
ATOM     51  C   UNL A   1      37.898  32.186  32.791  1.00  0.00     0.031 C 
ATOM     52  C   UNL A   1      39.998  28.445  27.404  1.00  0.00     0.029 A 
ATOM     53  C   UNL A   1      40.819  28.344  28.609  1.00  0.00     0.049 A 
ATOM     54  H   UNL A   1      40.485  29.277  30.443  1.00  0.00     0.167 HD
ATOM     55  C   UNL A   1      39.722  31.333  34.236  1.00  0.00     0.034 A 
ATOM     56  C   UNL A   1      41.947  27.612  28.724  1.00  0.00     0.034 A 
ATOM     57  C   UNL A   1      40.879  30.507  34.487  1.00  0.00     0.049 A 
ATOM     58  C   UNL A   1      42.657  27.561  30.054  1.00  0.00     0.074 A 
ATOM     59  C   UNL A   1      41.590  30.344  35.664  1.00  0.00     0.029 A 
ATOM     60  N   UNL A   1      41.500  29.702  33.538  1.00  0.00    -0.354 N 
ATOM     61  N   UNL A   1      42.367  28.191  31.171  1.00  0.00    -0.248 NA
ATOM     62  C   UNL A   1      43.829  26.681  30.147  1.00  0.00     0.031 C 
ATOM     63  C   UNL A   1      42.677  29.500  35.409  1.00  0.00     0.029 A 
ATOM     64  C   UNL A   1      42.600  29.066  34.096  1.00  0.00     0.049 A 
ATOM     65  H   UNL A   1      41.203  29.599  32.605  1.00  0.00     0.167 HD
ATOM     66  C   UNL A   1      43.309  27.764  32.104  1.00  0.00     0.074 A 
ATOM     67  C   UNL A   1      44.158  26.806  31.424  1.00  0.00     0.031 C 
ATOM     68  C   UNL A   1      43.456  28.126  33.405  1.00  0.00     0.034 A 
BRANCH  55  69
ATOM     69  C   UNL A   1      39.202  32.230  35.343  1.00  0.00     0.023 A 
ATOM     70  C   UNL A   1      39.581  33.582  35.437  1.00  0.00     0.031 A 
ATOM     71  C   UNL A   1      38.373  31.716  36.357  1.00  0.00     0.131 A 
ATOM     72  C   UNL A   1      39.236  34.334  36.570  1.00  0.00     0.055 A 
ATOM     73  C   UNL A   1      37.945  32.502  37.430  1.00  0.00     0.041 A 
ATOM     74  F   UNL A   1      37.984  30.431  36.338  1.00  0.00    -0.206 F 
ATOM     75  C   UNL A   1      38.397  33.812  37.556  1.00  0.00     0.022 A 
BRANCH  72  76
ATOM     76  S   UNL A   1      40.068  35.926  36.831  1.00  0.00     0.124 S 
ATOM     77  O   UNL A   1      41.452  35.507  37.032  1.00  0.00    -0.237 OA
ATOM     78  O   UNL A   1      39.786  36.637  35.593  1.00  0.00    -0.237 OA
ATOM     79  O   UNL A   1      39.410  36.463  38.025  1.00  0.00    -0.744 OA
ENDBRANCH  72  76
ENDBRANCH  55  69
BRANCH  56  80
ATOM     80  C   UNL A   1      42.476  26.866  27.544  1.00  0.00     0.023 A 
ATOM     81  C   UNL A   1      42.200  25.502  27.352  1.00  0.00     0.031 A 
ATOM     82  C   UNL A   1      43.283  27.514  26.592  1.00  0.00     0.131 A 
ATOM     83  C   UNL A   1      42.753  24.824  26.253  1.00  0.00     0.055 A 
ATOM     84  C   UNL A   1      43.789  26.848  25.474  1.00  0.00     0.041 A 
ATOM     85  F   UNL A   1      43.574  28.818  26.726  1.00  0.00    -0.206 F 
ATOM     86  C   UNL A   1      43.533  25.491  25.305  1.00  0.00     0.022 A 
BRANCH  83  87
ATOM     87  S   UNL A   1      42.487  23.035  26.105  1.00  0.00     0.124 S 
ATOM     88  O   UNL A   1      42.935  22.779  24.740  1.00  0.00    -0.237 OA
ATOM     89  O   UNL A   1      43.338  22.512  27.168  1.00  0.00    -0.237 OA
ATOM     90  O   UNL A   1      41.050  22.883  26.329  1.00  0.00    -0.744 OA
ENDBRANCH  83  87
ENDBRANCH  56  80
BRANCH  68  91
ATOM     91  C   UNL A   1      44.560  27.454  34.188  1.00  0.00     0.023 A 
ATOM     92  C   UNL A   1      44.335  26.280  34.928  1.00  0.00     0.031 A 
ATOM     93  C   UNL A   1      45.854  28.006  34.205  1.00  0.00     0.131 A 
ATOM     94  C   UNL A   1      45.368  25.735  35.708  1.00  0.00     0.055 A 
ATOM     95  C   UNL A   1      46.895  27.422  34.929  1.00  0.00     0.041 A 
ATOM     96  F   UNL A   1      46.128  29.127  33.520  1.00  0.00    -0.206 F 
ATOM     97  C   UNL A   1      46.650  26.289  35.699  1.00  0.00     0.022 A 
BRANCH  94  98
ATOM     98  S   UNL A   1      44.982  24.359  36.824  1.00  0.00     0.124 S 
ATOM     99  O   UNL A   1      44.064  24.984  37.771  1.00  0.00    -0.237 OA
ATOM    100  O   UNL A   1      44.394  23.378  35.919  1.00  0.00    -0.237 OA
ATOM    101  O   UNL A   1      46.284  23.989  37.377  1.00  0.00    -0.744 OA
ENDBRANCH  94  98
ENDBRANCH  68  91
ENDBRANCH  42  43
ENDBRANCH  34  37
ENDBRANCH  32  33
ENDBRANCH   1  32
TORSDOF 17
ENDMDL
