MODEL 1
REMARK VINA RESULT:     -12.8      0.000      0.000
REMARK SMILES Cc1cccc(-c2cccnc2C(=O)NCCCNC(=O)c2ccc(-c3c4nc(c(-c5cc(S(=O)(=O)[O-])ccc5F)c5ccc([nH]5)c(-c5cc(S(=O)(=O)[O-])ccc5F)c5nc(c(-c6cc(S(=O)(=O)[O-])ccc6F)c6ccc3[nH]6)C=C5)C=C4)cc2)c1
REMARK SMILES IDX 18 1 17 2 16 3 15 4 13 5 14 6 12 8 7 9 8 10 9 11 11 12 10 13
REMARK SMILES IDX 6 14 1 15 2 16 3 17 85 18 4 19 5 20 19 21 20 22 21 24 22 25
REMARK SMILES IDX 23 26 84 27 24 28 83 29 25 30 26 31 27 32 77 33 28 34 82 35
REMARK SMILES IDX 76 36 78 37 29 38 81 39 75 40 74 41 30 43 62 44 42 45 61 46
REMARK SMILES IDX 43 47 46 48 60 49 79 50 44 51 45 52 59 54 80 55 47 56 31 57
REMARK SMILES IDX 32 58 40 59 33 60 39 61 41 62 38 63 34 64 35 65 36 66 37 67
REMARK SMILES IDX 63 68 64 69 72 70 65 71 71 72 73 73 70 74 66 75 67 76 68 77
REMARK SMILES IDX 69 78 48 79 49 80 57 81 50 82 56 83 58 84 55 85 51 86 52 87
REMARK SMILES IDX 53 88 54 89
REMARK H PARENT 15 7 19 23 78 42 46 53
REMARK Flexibility Score: inf
ROOT
ATOM      1  C   UNL A   1      34.656  31.469  28.785  1.00  0.00     0.118 C 
ENDROOT
BRANCH   1   2
ATOM      2  C   UNL A   1      34.462  31.061  27.329  1.00  0.00     0.042 C 
BRANCH   2   3
ATOM      3  C   UNL A   1      34.184  29.584  27.180  1.00  0.00     0.118 C 
BRANCH   3   4
ATOM      4  N   UNL A   1      32.937  29.110  27.707  1.00  0.00    -0.351 N 
ATOM      5  C   UNL A   1      31.994  28.281  27.141  1.00  0.00     0.270 C 
ATOM      6  O   UNL A   1      31.130  27.853  27.917  1.00  0.00    -0.267 OA
ATOM      7  H   UNL A   1      32.721  29.428  28.614  1.00  0.00     0.163 HD
BRANCH   5   8
ATOM      8  C   UNL A   1      31.853  27.943  25.661  1.00  0.00     0.135 A 
ATOM      9  C   UNL A   1      32.295  26.819  24.930  1.00  0.00     0.013 A 
ATOM     10  C   UNL A   1      31.926  26.772  23.563  1.00  0.00     0.013 A 
ATOM     11  C   UNL A   1      31.174  27.776  22.968  1.00  0.00     0.021 A 
ATOM     12  N   UNL A   1      31.116  28.936  25.052  1.00  0.00    -0.250 NA
ATOM     13  C   UNL A   1      30.796  28.835  23.753  1.00  0.00     0.112 A 
BRANCH   9  14
ATOM     14  C   UNL A   1      33.143  25.705  25.386  1.00  0.00    -0.016 A 
ATOM     15  C   UNL A   1      32.616  22.568  27.518  1.00  0.00     0.044 C 
ATOM     16  C   UNL A   1      33.302  23.633  26.710  1.00  0.00    -0.051 A 
ATOM     17  C   UNL A   1      34.573  23.410  26.174  1.00  0.00     0.003 A 
ATOM     18  C   UNL A   1      32.619  24.800  26.345  1.00  0.00     0.012 A 
ATOM     19  C   UNL A   1      35.130  24.318  25.269  1.00  0.00     0.001 A 
ATOM     20  C   UNL A   1      34.422  25.460  24.875  1.00  0.00     0.009 A 
ENDBRANCH   9  14
ENDBRANCH   5   8
ENDBRANCH   3   4
ENDBRANCH   2   3
ENDBRANCH   1   2
BRANCH   1  21
ATOM     21  N   UNL A   1      35.931  32.152  29.060  1.00  0.00    -0.352 N 
ATOM     22  C   UNL A   1      37.231  31.650  29.107  1.00  0.00     0.251 C 
ATOM     23  H   UNL A   1      35.854  33.116  29.239  1.00  0.00     0.163 HD
ATOM     24  O   UNL A   1      38.197  32.342  29.287  1.00  0.00    -0.269 OA
BRANCH  22  25
ATOM     25  C   UNL A   1      37.377  30.194  28.879  1.00  0.00     0.039 A 
ATOM     26  C   UNL A   1      37.419  29.389  30.021  1.00  0.00     0.014 A 
ATOM     27  C   UNL A   1      37.969  29.812  27.682  1.00  0.00     0.014 A 
ATOM     28  C   UNL A   1      38.339  28.350  30.057  1.00  0.00     0.010 A 
ATOM     29  C   UNL A   1      38.959  28.853  27.764  1.00  0.00     0.010 A 
ATOM     30  C   UNL A   1      39.220  28.205  28.987  1.00  0.00    -0.014 A 
BRANCH  30  31
ATOM     31  C   UNL A   1      40.569  27.645  29.145  1.00  0.00     0.031 A 
ATOM     32  C   UNL A   1      40.842  26.238  28.777  1.00  0.00     0.074 A 
ATOM     33  C   UNL A   1      41.606  28.446  29.503  1.00  0.00     0.049 A 
ATOM     34  N   UNL A   1      41.934  25.615  29.061  1.00  0.00    -0.248 NA
ATOM     35  C   UNL A   1      39.861  25.375  28.123  1.00  0.00     0.031 C 
ATOM     36  C   UNL A   1      43.036  28.168  29.355  1.00  0.00     0.029 A 
ATOM     37  N   UNL A   1      41.566  29.575  30.328  1.00  0.00    -0.354 N 
ATOM     38  C   UNL A   1      41.935  24.425  28.379  1.00  0.00     0.074 A 
ATOM     39  C   UNL A   1      40.582  24.271  27.918  1.00  0.00     0.031 C 
ATOM     40  C   UNL A   1      43.720  28.892  30.252  1.00  0.00     0.029 A 
ATOM     41  C   UNL A   1      42.751  29.560  31.095  1.00  0.00     0.049 A 
ATOM     42  H   UNL A   1      40.851  30.251  30.366  1.00  0.00     0.167 HD
ATOM     43  C   UNL A   1      43.123  23.789  28.185  1.00  0.00     0.034 A 
ATOM     44  C   UNL A   1      42.718  29.496  32.457  1.00  0.00     0.034 A 
ATOM     45  C   UNL A   1      44.139  24.292  29.119  1.00  0.00     0.049 A 
ATOM     46  C   UNL A   1      43.397  28.272  33.031  1.00  0.00     0.074 A 
ATOM     47  C   UNL A   1      45.294  25.044  28.994  1.00  0.00     0.029 A 
ATOM     48  N   UNL A   1      43.874  24.220  30.487  1.00  0.00    -0.354 N 
ATOM     49  N   UNL A   1      43.792  27.247  32.324  1.00  0.00    -0.248 NA
ATOM     50  C   UNL A   1      43.659  28.094  34.455  1.00  0.00     0.031 C 
ATOM     51  C   UNL A   1      45.675  25.485  30.296  1.00  0.00     0.029 A 
ATOM     52  C   UNL A   1      44.778  24.967  31.215  1.00  0.00     0.049 A 
ATOM     53  H   UNL A   1      43.136  23.702  30.883  1.00  0.00     0.167 HD
ATOM     54  C   UNL A   1      44.284  26.268  33.155  1.00  0.00     0.074 A 
ATOM     55  C   UNL A   1      44.218  26.870  34.475  1.00  0.00     0.031 C 
ATOM     56  C   UNL A   1      44.667  25.042  32.673  1.00  0.00     0.034 A 
BRANCH  43  57
ATOM     57  C   UNL A   1      43.433  22.856  27.022  1.00  0.00     0.023 A 
ATOM     58  C   UNL A   1      42.847  21.569  27.008  1.00  0.00     0.031 A 
ATOM     59  C   UNL A   1      44.372  23.083  25.988  1.00  0.00     0.131 A 
ATOM     60  C   UNL A   1      43.214  20.597  26.053  1.00  0.00     0.055 A 
ATOM     61  C   UNL A   1      44.707  22.131  25.018  1.00  0.00     0.041 A 
ATOM     62  F   UNL A   1      45.063  24.218  25.866  1.00  0.00    -0.206 F 
ATOM     63  C   UNL A   1      44.138  20.874  25.050  1.00  0.00     0.022 A 
BRANCH  60  64
ATOM     64  S   UNL A   1      42.520  18.924  26.166  1.00  0.00     0.124 S 
ATOM     65  O   UNL A   1      41.161  19.123  25.673  1.00  0.00    -0.237 OA
ATOM     66  O   UNL A   1      43.416  18.156  25.310  1.00  0.00    -0.237 OA
ATOM     67  O   UNL A   1      42.616  18.613  27.592  1.00  0.00    -0.744 OA
ENDBRANCH  60  64
ENDBRANCH  43  57
BRANCH  44  68
ATOM     68  C   UNL A   1      41.555  30.220  33.042  1.00  0.00     0.023 A 
ATOM     69  C   UNL A   1      41.626  31.630  33.051  1.00  0.00     0.031 A 
ATOM     70  C   UNL A   1      40.295  29.624  33.170  1.00  0.00     0.131 A 
ATOM     71  C   UNL A   1      40.453  32.395  33.008  1.00  0.00     0.055 A 
ATOM     72  C   UNL A   1      39.126  30.398  33.198  1.00  0.00     0.041 A 
ATOM     73  F   UNL A   1      40.162  28.290  33.126  1.00  0.00    -0.206 F 
ATOM     74  C   UNL A   1      39.200  31.787  33.071  1.00  0.00     0.022 A 
BRANCH  71  75
ATOM     75  S   UNL A   1      40.597  34.158  32.584  1.00  0.00     0.124 S 
ATOM     76  O   UNL A   1      41.934  34.480  33.071  1.00  0.00    -0.237 OA
ATOM     77  O   UNL A   1      40.430  34.147  31.132  1.00  0.00    -0.237 OA
ATOM     78  O   UNL A   1      39.495  34.778  33.314  1.00  0.00    -0.744 OA
ENDBRANCH  71  75
ENDBRANCH  44  68
BRANCH  56  79
ATOM     79  C   UNL A   1      45.012  23.809  33.503  1.00  0.00     0.023 A 
ATOM     80  C   UNL A   1      46.317  23.426  33.849  1.00  0.00     0.031 A 
ATOM     81  C   UNL A   1      43.988  22.984  34.042  1.00  0.00     0.131 A 
ATOM     82  C   UNL A   1      46.573  22.266  34.609  1.00  0.00     0.055 A 
ATOM     83  C   UNL A   1      44.239  21.874  34.857  1.00  0.00     0.041 A 
ATOM     84  F   UNL A   1      42.689  23.223  33.812  1.00  0.00    -0.206 F 
ATOM     85  C   UNL A   1      45.540  21.497  35.135  1.00  0.00     0.022 A 
BRANCH  82  86
ATOM     86  S   UNL A   1      48.297  21.754  34.847  1.00  0.00     0.124 S 
ATOM     87  O   UNL A   1      48.377  20.567  33.999  1.00  0.00    -0.237 OA
ATOM     88  O   UNL A   1      49.037  22.919  34.375  1.00  0.00    -0.237 OA
ATOM     89  O   UNL A   1      48.387  21.498  36.283  1.00  0.00    -0.744 OA
ENDBRANCH  82  86
ENDBRANCH  56  79
ENDBRANCH  30  31
ENDBRANCH  22  25
ENDBRANCH   1  21
TORSDOF 14
ENDMDL
MODEL 2
REMARK VINA RESULT:     -12.7      1.169      2.546
REMARK SMILES Cc1cccc(-c2cccnc2C(=O)NCCCNC(=O)c2ccc(-c3c4nc(c(-c5cc(S(=O)(=O)[O-])ccc5F)c5ccc([nH]5)c(-c5cc(S(=O)(=O)[O-])ccc5F)c5nc(c(-c6cc(S(=O)(=O)[O-])ccc6F)c6ccc3[nH]6)C=C5)C=C4)cc2)c1
REMARK SMILES IDX 18 1 17 2 16 3 15 4 13 5 14 6 12 8 7 9 8 10 9 11 11 12 10 13
REMARK SMILES IDX 6 14 1 15 2 16 3 17 85 18 4 19 5 20 19 21 20 22 21 24 22 25
REMARK SMILES IDX 23 26 84 27 24 28 83 29 25 30 26 31 27 32 77 33 28 34 82 35
REMARK SMILES IDX 76 36 78 37 29 38 81 39 75 40 74 41 30 43 62 44 42 45 61 46
REMARK SMILES IDX 43 47 46 48 60 49 79 50 44 51 45 52 59 54 80 55 47 56 31 57
REMARK SMILES IDX 32 58 40 59 33 60 39 61 41 62 38 63 34 64 35 65 36 66 37 67
REMARK SMILES IDX 63 68 64 69 72 70 65 71 71 72 73 73 70 74 66 75 67 76 68 77
REMARK SMILES IDX 69 78 48 79 49 80 57 81 50 82 56 83 58 84 55 85 51 86 52 87
REMARK SMILES IDX 53 88 54 89
REMARK H PARENT 15 7 19 23 78 42 46 53
REMARK Flexibility Score: inf
ROOT
ATOM      1  C   UNL A   1      34.447  31.331  28.624  1.00  0.00     0.118 C 
ENDROOT
BRANCH   1   2
ATOM      2  C   UNL A   1      34.411  30.663  27.253  1.00  0.00     0.042 C 
BRANCH   2   3
ATOM      3  C   UNL A   1      33.032  30.695  26.637  1.00  0.00     0.118 C 
BRANCH   3   4
ATOM      4  N   UNL A   1      32.107  29.694  27.085  1.00  0.00    -0.351 N 
ATOM      5  C   UNL A   1      31.832  28.448  26.568  1.00  0.00     0.270 C 
ATOM      6  O   UNL A   1      31.160  27.707  27.298  1.00  0.00    -0.267 OA
ATOM      7  H   UNL A   1      31.588  29.936  27.887  1.00  0.00     0.163 HD
BRANCH   5   8
ATOM      8  C   UNL A   1      32.172  27.949  25.168  1.00  0.00     0.135 A 
ATOM      9  C   UNL A   1      31.480  28.103  23.947  1.00  0.00     0.013 A 
ATOM     10  C   UNL A   1      32.115  27.580  22.793  1.00  0.00     0.013 A 
ATOM     11  C   UNL A   1      33.349  26.946  22.854  1.00  0.00     0.021 A 
ATOM     12  N   UNL A   1      33.390  27.308  25.213  1.00  0.00    -0.250 NA
ATOM     13  C   UNL A   1      33.943  26.834  24.086  1.00  0.00     0.112 A 
BRANCH   9  14
ATOM     14  C   UNL A   1      30.150  28.690  23.714  1.00  0.00    -0.016 A 
ATOM     15  C   UNL A   1      28.750  32.239  23.389  1.00  0.00     0.044 C 
ATOM     16  C   UNL A   1      28.803  30.741  23.491  1.00  0.00    -0.051 A 
ATOM     17  C   UNL A   1      27.718  29.962  23.081  1.00  0.00     0.003 A 
ATOM     18  C   UNL A   1      29.993  30.094  23.846  1.00  0.00     0.012 A 
ATOM     19  C   UNL A   1      27.835  28.572  22.997  1.00  0.00     0.001 A 
ATOM     20  C   UNL A   1      29.042  27.936  23.310  1.00  0.00     0.009 A 
ENDBRANCH   9  14
ENDBRANCH   5   8
ENDBRANCH   3   4
ENDBRANCH   2   3
ENDBRANCH   1   2
BRANCH   1  21
ATOM     21  N   UNL A   1      35.701  32.045  28.919  1.00  0.00    -0.352 N 
ATOM     22  C   UNL A   1      37.008  31.569  29.015  1.00  0.00     0.251 C 
ATOM     23  H   UNL A   1      35.600  33.011  29.073  1.00  0.00     0.163 HD
ATOM     24  O   UNL A   1      37.954  32.285  29.206  1.00  0.00    -0.269 OA
BRANCH  22  25
ATOM     25  C   UNL A   1      37.188  30.112  28.826  1.00  0.00     0.039 A 
ATOM     26  C   UNL A   1      37.281  29.342  29.989  1.00  0.00     0.014 A 
ATOM     27  C   UNL A   1      37.761  29.711  27.626  1.00  0.00     0.014 A 
ATOM     28  C   UNL A   1      38.230  28.330  30.033  1.00  0.00     0.010 A 
ATOM     29  C   UNL A   1      38.779  28.781  27.711  1.00  0.00     0.010 A 
ATOM     30  C   UNL A   1      39.087  28.177  28.945  1.00  0.00    -0.014 A 
BRANCH  30  31
ATOM     31  C   UNL A   1      40.455  27.659  29.085  1.00  0.00     0.031 A 
ATOM     32  C   UNL A   1      40.758  26.250  28.747  1.00  0.00     0.074 A 
ATOM     33  C   UNL A   1      41.477  28.496  29.397  1.00  0.00     0.049 A 
ATOM     34  N   UNL A   1      41.874  25.665  29.021  1.00  0.00    -0.248 NA
ATOM     35  C   UNL A   1      39.787  25.344  28.139  1.00  0.00     0.031 C 
ATOM     36  C   UNL A   1      42.911  28.254  29.222  1.00  0.00     0.029 A 
ATOM     37  N   UNL A   1      41.425  29.646  30.193  1.00  0.00    -0.354 N 
ATOM     38  C   UNL A   1      41.892  24.457  28.369  1.00  0.00     0.074 A 
ATOM     39  C   UNL A   1      40.533  24.254  27.946  1.00  0.00     0.031 C 
ATOM     40  C   UNL A   1      43.595  29.020  30.083  1.00  0.00     0.029 A 
ATOM     41  C   UNL A   1      42.628  29.683  30.932  1.00  0.00     0.049 A 
ATOM     42  H   UNL A   1      40.692  30.302  30.231  1.00  0.00     0.167 HD
ATOM     43  C   UNL A   1      43.092  23.849  28.164  1.00  0.00     0.034 A 
ATOM     44  C   UNL A   1      42.628  29.655  32.295  1.00  0.00     0.034 A 
ATOM     45  C   UNL A   1      44.115  24.404  29.060  1.00  0.00     0.049 A 
ATOM     46  C   UNL A   1      43.354  28.464  32.885  1.00  0.00     0.074 A 
ATOM     47  C   UNL A   1      45.246  25.183  28.888  1.00  0.00     0.029 A 
ATOM     48  N   UNL A   1      43.884  24.361  30.436  1.00  0.00    -0.354 N 
ATOM     49  N   UNL A   1      43.761  27.433  32.195  1.00  0.00    -0.248 NA
ATOM     50  C   UNL A   1      43.654  28.331  34.306  1.00  0.00     0.031 C 
ATOM     51  C   UNL A   1      45.644  25.669  30.168  1.00  0.00     0.029 A 
ATOM     52  C   UNL A   1      44.784  25.152  31.122  1.00  0.00     0.049 A 
ATOM     53  H   UNL A   1      43.170  23.834  30.862  1.00  0.00     0.167 HD
ATOM     54  C   UNL A   1      44.299  26.490  33.038  1.00  0.00     0.074 A 
ATOM     55  C   UNL A   1      44.247  27.125  34.344  1.00  0.00     0.031 C 
ATOM     56  C   UNL A   1      44.705  25.262  32.580  1.00  0.00     0.034 A 
BRANCH  43  57
ATOM     57  C   UNL A   1      43.401  22.894  27.018  1.00  0.00     0.023 A 
ATOM     58  C   UNL A   1      42.795  21.616  27.016  1.00  0.00     0.031 A 
ATOM     59  C   UNL A   1      44.355  23.092  25.992  1.00  0.00     0.131 A 
ATOM     60  C   UNL A   1      43.158  20.625  26.080  1.00  0.00     0.055 A 
ATOM     61  C   UNL A   1      44.686  22.120  25.040  1.00  0.00     0.041 A 
ATOM     62  F   UNL A   1      45.065  24.214  25.861  1.00  0.00    -0.206 F 
ATOM     63  C   UNL A   1      44.097  20.873  25.084  1.00  0.00     0.022 A 
BRANCH  60  64
ATOM     64  S   UNL A   1      42.437  18.965  26.208  1.00  0.00     0.124 S 
ATOM     65  O   UNL A   1      41.099  19.170  25.664  1.00  0.00    -0.237 OA
ATOM     66  O   UNL A   1      43.351  18.164  25.404  1.00  0.00    -0.237 OA
ATOM     67  O   UNL A   1      42.478  18.688  27.645  1.00  0.00    -0.744 OA
ENDBRANCH  60  64
ENDBRANCH  43  57
BRANCH  44  68
ATOM     68  C   UNL A   1      41.459  30.361  32.889  1.00  0.00     0.023 A 
ATOM     69  C   UNL A   1      41.483  31.772  32.845  1.00  0.00     0.031 A 
ATOM     70  C   UNL A   1      40.224  29.730  33.078  1.00  0.00     0.131 A 
ATOM     71  C   UNL A   1      40.284  32.497  32.810  1.00  0.00     0.055 A 
ATOM     72  C   UNL A   1      39.031  30.466  33.114  1.00  0.00     0.041 A 
ATOM     73  F   UNL A   1      40.134  28.392  33.087  1.00  0.00    -0.206 F 
ATOM     74  C   UNL A   1      39.055  31.851  32.934  1.00  0.00     0.022 A 
BRANCH  71  75
ATOM     75  S   UNL A   1      40.357  34.247  32.317  1.00  0.00     0.124 S 
ATOM     76  O   UNL A   1      40.787  34.893  33.552  1.00  0.00    -0.237 OA
ATOM     77  O   UNL A   1      41.334  34.227  31.230  1.00  0.00    -0.237 OA
ATOM     78  O   UNL A   1      38.990  34.541  31.895  1.00  0.00    -0.744 OA
ENDBRANCH  71  75
ENDBRANCH  44  68
BRANCH  56  79
ATOM     79  C   UNL A   1      45.103  24.061  33.433  1.00  0.00     0.023 A 
ATOM     80  C   UNL A   1      46.396  23.835  33.927  1.00  0.00     0.031 A 
ATOM     81  C   UNL A   1      44.135  23.104  33.839  1.00  0.00     0.131 A 
ATOM     82  C   UNL A   1      46.706  22.697  34.701  1.00  0.00     0.055 A 
ATOM     83  C   UNL A   1      44.427  22.014  34.668  1.00  0.00     0.041 A 
ATOM     84  F   UNL A   1      42.852  23.186  33.460  1.00  0.00    -0.206 F 
ATOM     85  C   UNL A   1      45.725  21.793  35.093  1.00  0.00     0.022 A 
BRANCH  82  86
ATOM     86  S   UNL A   1      48.441  22.396  35.136  1.00  0.00     0.124 S 
ATOM     87  O   UNL A   1      48.989  23.750  35.143  1.00  0.00    -0.237 OA
ATOM     88  O   UNL A   1      48.329  21.753  36.441  1.00  0.00    -0.237 OA
ATOM     89  O   UNL A   1      48.925  21.536  34.058  1.00  0.00    -0.744 OA
ENDBRANCH  82  86
ENDBRANCH  56  79
ENDBRANCH  30  31
ENDBRANCH  22  25
ENDBRANCH   1  21
TORSDOF 14
ENDMDL
MODEL 3
REMARK VINA RESULT:     -12.7      4.621     11.019
REMARK SMILES Cc1cccc(-c2cccnc2C(=O)NCCCNC(=O)c2ccc(-c3c4nc(c(-c5cc(S(=O)(=O)[O-])ccc5F)c5ccc([nH]5)c(-c5cc(S(=O)(=O)[O-])ccc5F)c5nc(c(-c6cc(S(=O)(=O)[O-])ccc6F)c6ccc3[nH]6)C=C5)C=C4)cc2)c1
REMARK SMILES IDX 18 1 17 2 16 3 15 4 13 5 14 6 12 8 7 9 8 10 9 11 11 12 10 13
REMARK SMILES IDX 6 14 1 15 2 16 3 17 85 18 4 19 5 20 19 21 20 22 21 24 22 25
REMARK SMILES IDX 23 26 84 27 24 28 83 29 25 30 26 31 27 32 77 33 28 34 82 35
REMARK SMILES IDX 76 36 78 37 29 38 81 39 75 40 74 41 30 43 62 44 42 45 61 46
REMARK SMILES IDX 43 47 46 48 60 49 79 50 44 51 45 52 59 54 80 55 47 56 31 57
REMARK SMILES IDX 32 58 40 59 33 60 39 61 41 62 38 63 34 64 35 65 36 66 37 67
REMARK SMILES IDX 63 68 64 69 72 70 65 71 71 72 73 73 70 74 66 75 67 76 68 77
REMARK SMILES IDX 69 78 48 79 49 80 57 81 50 82 56 83 58 84 55 85 51 86 52 87
REMARK SMILES IDX 53 88 54 89
REMARK H PARENT 15 7 19 23 78 42 46 53
REMARK Flexibility Score: inf
ROOT
ATOM      1  C   UNL A   1      39.293  22.563  26.862  1.00  0.00     0.118 C 
ENDROOT
BRANCH   1   2
ATOM      2  C   UNL A   1      39.281  21.513  25.757  1.00  0.00     0.042 C 
BRANCH   2   3
ATOM      3  C   UNL A   1      37.881  21.067  25.406  1.00  0.00     0.118 C 
BRANCH   3   4
ATOM      4  N   UNL A   1      37.322  21.600  24.198  1.00  0.00    -0.351 N 
ATOM      5  C   UNL A   1      36.144  22.282  23.993  1.00  0.00     0.270 C 
ATOM      6  O   UNL A   1      36.032  22.828  22.887  1.00  0.00    -0.267 OA
ATOM      7  H   UNL A   1      37.865  21.455  23.389  1.00  0.00     0.163 HD
BRANCH   5   8
ATOM      8  C   UNL A   1      34.945  22.329  24.935  1.00  0.00     0.135 A 
ATOM      9  C   UNL A   1      33.918  21.387  25.159  1.00  0.00     0.013 A 
ATOM     10  C   UNL A   1      32.984  21.705  26.176  1.00  0.00     0.013 A 
ATOM     11  C   UNL A   1      33.066  22.880  26.912  1.00  0.00     0.021 A 
ATOM     12  N   UNL A   1      35.006  23.496  25.665  1.00  0.00    -0.250 NA
ATOM     13  C   UNL A   1      34.093  23.741  26.618  1.00  0.00     0.112 A 
BRANCH   9  14
ATOM     14  C   UNL A   1      33.650  20.132  24.437  1.00  0.00    -0.016 A 
ATOM     15  C   UNL A   1      34.899  16.520  24.683  1.00  0.00     0.044 C 
ATOM     16  C   UNL A   1      34.181  17.741  24.178  1.00  0.00    -0.051 A 
ATOM     17  C   UNL A   1      33.108  17.617  23.293  1.00  0.00     0.003 A 
ATOM     18  C   UNL A   1      34.469  19.005  24.706  1.00  0.00     0.012 A 
ATOM     19  C   UNL A   1      32.322  18.727  22.972  1.00  0.00     0.001 A 
ATOM     20  C   UNL A   1      32.588  19.979  23.539  1.00  0.00     0.009 A 
ENDBRANCH   9  14
ENDBRANCH   5   8
ENDBRANCH   3   4
ENDBRANCH   2   3
ENDBRANCH   1   2
BRANCH   1  21
ATOM     21  N   UNL A   1      40.638  22.987  27.284  1.00  0.00    -0.352 N 
ATOM     22  C   UNL A   1      41.142  24.261  27.542  1.00  0.00     0.251 C 
ATOM     23  H   UNL A   1      41.284  22.254  27.404  1.00  0.00     0.163 HD
ATOM     24  O   UNL A   1      42.258  24.457  27.942  1.00  0.00    -0.269 OA
BRANCH  22  25
ATOM     25  C   UNL A   1      40.205  25.388  27.335  1.00  0.00     0.039 A 
ATOM     26  C   UNL A   1      40.650  26.419  26.503  1.00  0.00     0.014 A 
ATOM     27  C   UNL A   1      39.259  25.596  28.330  1.00  0.00     0.014 A 
ATOM     28  C   UNL A   1      40.392  27.729  26.885  1.00  0.00     0.010 A 
ATOM     29  C   UNL A   1      39.103  26.898  28.767  1.00  0.00     0.010 A 
ATOM     30  C   UNL A   1      39.766  27.952  28.111  1.00  0.00    -0.014 A 
BRANCH  30  31
ATOM     31  C   UNL A   1      40.004  29.162  28.910  1.00  0.00     0.031 A 
ATOM     32  C   UNL A   1      39.015  30.263  28.909  1.00  0.00     0.074 A 
ATOM     33  C   UNL A   1      41.062  29.226  29.758  1.00  0.00     0.049 A 
ATOM     34  N   UNL A   1      39.230  31.427  29.420  1.00  0.00    -0.248 NA
ATOM     35  C   UNL A   1      37.715  30.174  28.249  1.00  0.00     0.031 C 
ATOM     36  C   UNL A   1      41.253  30.157  30.873  1.00  0.00     0.029 A 
ATOM     37  N   UNL A   1      42.315  28.621  29.607  1.00  0.00    -0.354 N 
ATOM     38  C   UNL A   1      38.038  32.107  29.444  1.00  0.00     0.074 A 
ATOM     39  C   UNL A   1      37.166  31.340  28.597  1.00  0.00     0.031 C 
ATOM     40  C   UNL A   1      42.564  30.277  31.126  1.00  0.00     0.029 A 
ATOM     41  C   UNL A   1      43.270  29.535  30.103  1.00  0.00     0.049 A 
ATOM     42  H   UNL A   1      42.495  27.731  29.228  1.00  0.00     0.167 HD
ATOM     43  C   UNL A   1      37.914  33.167  30.289  1.00  0.00     0.034 A 
ATOM     44  C   UNL A   1      44.256  30.037  29.307  1.00  0.00     0.034 A 
ATOM     45  C   UNL A   1      39.235  33.649  30.715  1.00  0.00     0.049 A 
ATOM     46  C   UNL A   1      44.218  31.543  29.157  1.00  0.00     0.074 A 
ATOM     47  C   UNL A   1      39.937  33.648  31.908  1.00  0.00     0.029 A 
ATOM     48  N   UNL A   1      40.147  34.036  29.732  1.00  0.00    -0.354 N 
ATOM     49  N   UNL A   1      43.228  32.299  29.552  1.00  0.00    -0.248 NA
ATOM     50  C   UNL A   1      45.282  32.314  28.524  1.00  0.00     0.031 C 
ATOM     51  C   UNL A   1      41.297  33.963  31.617  1.00  0.00     0.029 A 
ATOM     52  C   UNL A   1      41.413  34.198  30.257  1.00  0.00     0.049 A 
ATOM     53  H   UNL A   1      39.917  34.174  28.785  1.00  0.00     0.167 HD
ATOM     54  C   UNL A   1      43.462  33.603  29.188  1.00  0.00     0.074 A 
ATOM     55  C   UNL A   1      44.785  33.562  28.586  1.00  0.00     0.031 C 
ATOM     56  C   UNL A   1      42.526  34.585  29.389  1.00  0.00     0.034 A 
BRANCH  43  57
ATOM     57  C   UNL A   1      36.602  33.649  30.896  1.00  0.00     0.023 A 
ATOM     58  C   UNL A   1      35.612  34.182  30.039  1.00  0.00     0.031 A 
ATOM     59  C   UNL A   1      36.301  33.751  32.275  1.00  0.00     0.131 A 
ATOM     60  C   UNL A   1      34.445  34.794  30.544  1.00  0.00     0.055 A 
ATOM     61  C   UNL A   1      35.125  34.323  32.774  1.00  0.00     0.041 A 
ATOM     62  F   UNL A   1      37.134  33.347  33.236  1.00  0.00    -0.206 F 
ATOM     63  C   UNL A   1      34.192  34.861  31.911  1.00  0.00     0.022 A 
BRANCH  60  64
ATOM     64  S   UNL A   1      33.274  35.572  29.398  1.00  0.00     0.124 S 
ATOM     65  O   UNL A   1      34.166  36.232  28.450  1.00  0.00    -0.237 OA
ATOM     66  O   UNL A   1      32.524  34.428  28.895  1.00  0.00    -0.237 OA
ATOM     67  O   UNL A   1      32.510  36.478  30.255  1.00  0.00    -0.744 OA
ENDBRANCH  60  64
ENDBRANCH  43  57
BRANCH  44  68
ATOM     68  C   UNL A   1      44.735  29.059  28.292  1.00  0.00     0.023 A 
ATOM     69  C   UNL A   1      45.593  28.036  28.753  1.00  0.00     0.031 A 
ATOM     70  C   UNL A   1      44.070  28.861  27.077  1.00  0.00     0.131 A 
ATOM     71  C   UNL A   1      45.629  26.797  28.099  1.00  0.00     0.055 A 
ATOM     72  C   UNL A   1      44.165  27.642  26.388  1.00  0.00     0.041 A 
ATOM     73  F   UNL A   1      43.212  29.779  26.609  1.00  0.00    -0.206 F 
ATOM     74  C   UNL A   1      44.910  26.589  26.923  1.00  0.00     0.022 A 
BRANCH  71  75
ATOM     75  S   UNL A   1      46.395  25.395  28.967  1.00  0.00     0.124 S 
ATOM     76  O   UNL A   1      47.744  25.395  28.413  1.00  0.00    -0.237 OA
ATOM     77  O   UNL A   1      46.279  25.791  30.370  1.00  0.00    -0.237 OA
ATOM     78  O   UNL A   1      45.559  24.259  28.589  1.00  0.00    -0.744 OA
ENDBRANCH  71  75
ENDBRANCH  44  68
BRANCH  56  79
ATOM     79  C   UNL A   1      42.569  36.007  28.835  1.00  0.00     0.023 A 
ATOM     80  C   UNL A   1      43.074  37.114  29.533  1.00  0.00     0.031 A 
ATOM     81  C   UNL A   1      42.141  36.285  27.509  1.00  0.00     0.131 A 
ATOM     82  C   UNL A   1      43.074  38.408  28.971  1.00  0.00     0.055 A 
ATOM     83  C   UNL A   1      42.209  37.555  26.925  1.00  0.00     0.041 A 
ATOM     84  F   UNL A   1      41.643  35.331  26.709  1.00  0.00    -0.206 F 
ATOM     85  C   UNL A   1      42.664  38.634  27.662  1.00  0.00     0.022 A 
BRANCH  82  86
ATOM     86  S   UNL A   1      43.573  39.803  30.018  1.00  0.00     0.124 S 
ATOM     87  O   UNL A   1      43.887  39.136  31.279  1.00  0.00    -0.237 OA
ATOM     88  O   UNL A   1      44.715  40.347  29.290  1.00  0.00    -0.237 OA
ATOM     89  O   UNL A   1      42.388  40.658  30.046  1.00  0.00    -0.744 OA
ENDBRANCH  82  86
ENDBRANCH  56  79
ENDBRANCH  30  31
ENDBRANCH  22  25
ENDBRANCH   1  21
TORSDOF 14
ENDMDL
