MODEL 1
REMARK VINA RESULT:     -11.2      0.000      0.000
REMARK SMILES CC[C@]1(C(=O)NCCCNC(=O)c2ccc(-c3c4nc(c(-c5cc(S(=O)(=O)[O-])ccc5F)c5ccc([nH]5)c(-c5cc(S(=O)(=O)[O-])ccc5F)c5nc(c(-c6cc(S(=O)(=O)[O-])ccc6F)c6ccc3[nH]6)C=C5)C=C4)cc2)CCCN(C(=O)C[C@H](C)COC)C1
REMARK SMILES IDX 7 1 6 2 4 3 5 4 3 6 76 7 88 8 77 9 79 10 78 11 2 12 1 13
REMARK SMILES IDX 80 14 81 15 82 16 83 17 84 18 85 19 86 20 87 21 8 22 9 23
REMARK SMILES IDX 10 24 11 25 12 27 13 28 14 29 75 30 15 31 74 32 16 33 17 34
REMARK SMILES IDX 18 35 68 36 19 37 73 38 67 39 69 40 20 41 72 42 66 43 65 44
REMARK SMILES IDX 21 46 53 47 33 48 52 49 34 50 37 51 51 52 70 53 35 54 36 55
REMARK SMILES IDX 50 57 71 58 38 59 22 60 23 61 31 62 24 63 30 64 32 65 29 66
REMARK SMILES IDX 25 67 26 68 27 69 28 70 54 71 55 72 63 73 56 74 62 75 64 76
REMARK SMILES IDX 61 77 57 78 58 79 59 80 60 81 39 82 40 83 48 84 41 85 47 86
REMARK SMILES IDX 49 87 46 88 42 89 43 90 44 91 45 92
REMARK H PARENT 6 5 10 26 69 45 37 56
REMARK Flexibility Score: inf
ROOT
ATOM      1  C   UNL A   1      31.796  30.510  26.074  1.00  0.00     0.117 C 
ENDROOT
BRANCH   1   2
ATOM      2  N   UNL A   1      31.103  30.301  24.811  1.00  0.00    -0.355 N 
ATOM      3  C   UNL A   1      31.012  29.222  23.982  1.00  0.00     0.228 C 
ATOM      4  O   UNL A   1      30.257  29.348  23.015  1.00  0.00    -0.274 OA
ATOM      5  H   UNL A   1      30.606  31.090  24.494  1.00  0.00     0.163 HD
BRANCH   3   6
ATOM      6  C   UNL A   1      31.765  27.909  24.278  1.00  0.00     0.066 C 
ATOM      7  C   UNL A   1      31.093  27.150  25.458  1.00  0.00     0.020 C 
ATOM      8  C   UNL A   1      31.763  27.121  22.938  1.00  0.00     0.136 C 
ATOM      9  C   UNL A   1      30.998  25.625  25.373  1.00  0.00     0.023 C 
ATOM     10  N   UNL A   1      32.043  25.702  23.120  1.00  0.00    -0.342 N 
ATOM     11  C   UNL A   1      31.080  25.012  23.976  1.00  0.00     0.119 C 
BRANCH   6  12
ATOM     12  C   UNL A   1      33.266  28.209  24.628  1.00  0.00     0.015 C 
ATOM     13  C   UNL A   1      33.816  27.681  25.953  1.00  0.00     0.005 C 
ENDBRANCH   6  12
BRANCH  10  14
ATOM     14  C   UNL A   1      33.141  25.146  22.470  1.00  0.00     0.222 C 
ATOM     15  O   UNL A   1      33.690  25.699  21.513  1.00  0.00    -0.275 OA
BRANCH  14  16
ATOM     16  C   UNL A   1      33.721  23.834  22.984  1.00  0.00     0.106 C 
BRANCH  16  17
ATOM     17  C   UNL A   1      34.988  23.945  23.874  1.00  0.00     0.021 C 
ATOM     18  C   UNL A   1      36.149  23.063  23.421  1.00  0.00     0.010 C 
BRANCH  17  19
ATOM     19  C   UNL A   1      34.688  23.715  25.367  1.00  0.00     0.163 C 
BRANCH  19  20
ATOM     20  O   UNL A   1      35.248  22.488  25.863  1.00  0.00    -0.384 OA
ATOM     21  C   UNL A   1      34.510  21.840  26.889  1.00  0.00     0.194 C 
ENDBRANCH  19  20
ENDBRANCH  17  19
ENDBRANCH  16  17
ENDBRANCH  14  16
ENDBRANCH  10  14
ENDBRANCH   3   6
ENDBRANCH   1   2
BRANCH   1  22
ATOM     22  C   UNL A   1      31.549  31.892  26.661  1.00  0.00     0.042 C 
BRANCH  22  23
ATOM     23  C   UNL A   1      32.772  32.485  27.336  1.00  0.00     0.118 C 
BRANCH  23  24
ATOM     24  N   UNL A   1      32.620  33.911  27.585  1.00  0.00    -0.352 N 
ATOM     25  C   UNL A   1      33.193  34.696  28.555  1.00  0.00     0.251 C 
ATOM     26  H   UNL A   1      32.015  34.381  26.967  1.00  0.00     0.163 HD
ATOM     27  O   UNL A   1      32.739  35.812  28.774  1.00  0.00    -0.269 OA
BRANCH  25  28
ATOM     28  C   UNL A   1      34.334  34.177  29.338  1.00  0.00     0.039 A 
ATOM     29  C   UNL A   1      34.086  33.411  30.478  1.00  0.00     0.014 A 
ATOM     30  C   UNL A   1      35.649  34.444  28.947  1.00  0.00     0.014 A 
ATOM     31  C   UNL A   1      35.157  32.860  31.184  1.00  0.00     0.010 A 
ATOM     32  C   UNL A   1      36.705  33.808  29.585  1.00  0.00     0.010 A 
ATOM     33  C   UNL A   1      36.473  33.018  30.720  1.00  0.00    -0.014 A 
BRANCH  33  34
ATOM     34  C   UNL A   1      37.622  32.385  31.416  1.00  0.00     0.031 A 
ATOM     35  C   UNL A   1      38.376  31.263  30.750  1.00  0.00     0.074 A 
ATOM     36  C   UNL A   1      37.946  32.779  32.664  1.00  0.00     0.049 A 
ATOM     37  N   UNL A   1      39.357  30.535  31.219  1.00  0.00    -0.248 NA
ATOM     38  C   UNL A   1      37.951  30.889  29.391  1.00  0.00     0.031 C 
ATOM     39  C   UNL A   1      37.262  33.831  33.423  1.00  0.00     0.029 A 
ATOM     40  N   UNL A   1      38.925  32.343  33.521  1.00  0.00    -0.354 N 
ATOM     41  C   UNL A   1      39.649  29.607  30.224  1.00  0.00     0.074 A 
ATOM     42  C   UNL A   1      38.706  29.828  29.150  1.00  0.00     0.031 C 
ATOM     43  C   UNL A   1      37.868  33.982  34.612  1.00  0.00     0.029 A 
ATOM     44  C   UNL A   1      38.941  33.001  34.730  1.00  0.00     0.049 A 
ATOM     45  H   UNL A   1      39.558  31.624  33.291  1.00  0.00     0.167 HD
ATOM     46  C   UNL A   1      40.628  28.670  30.203  1.00  0.00     0.034 A 
ATOM     47  C   UNL A   1      39.725  32.825  35.812  1.00  0.00     0.034 A 
ATOM     48  C   UNL A   1      41.579  28.486  31.271  1.00  0.00     0.049 A 
ATOM     49  C   UNL A   1      40.790  31.754  35.768  1.00  0.00     0.074 A 
ATOM     50  C   UNL A   1      42.659  27.622  31.318  1.00  0.00     0.029 A 
ATOM     51  N   UNL A   1      41.560  29.166  32.482  1.00  0.00    -0.354 N 
ATOM     52  N   UNL A   1      41.096  30.933  34.789  1.00  0.00    -0.248 NA
ATOM     53  C   UNL A   1      41.620  31.595  36.969  1.00  0.00     0.031 C 
ATOM     54  C   UNL A   1      43.239  27.716  32.586  1.00  0.00     0.029 A 
ATOM     55  C   UNL A   1      42.582  28.708  33.297  1.00  0.00     0.049 A 
ATOM     56  H   UNL A   1      40.915  29.869  32.724  1.00  0.00     0.167 HD
ATOM     57  C   UNL A   1      42.184  30.192  35.245  1.00  0.00     0.074 A 
ATOM     58  C   UNL A   1      42.488  30.675  36.576  1.00  0.00     0.031 C 
ATOM     59  C   UNL A   1      42.874  29.203  34.622  1.00  0.00     0.034 A 
BRANCH  46  60
ATOM     60  C   UNL A   1      40.706  27.754  29.006  1.00  0.00     0.023 A 
ATOM     61  C   UNL A   1      41.644  27.949  27.977  1.00  0.00     0.031 A 
ATOM     62  C   UNL A   1      39.836  26.654  28.904  1.00  0.00     0.131 A 
ATOM     63  C   UNL A   1      41.654  27.090  26.868  1.00  0.00     0.055 A 
ATOM     64  C   UNL A   1      39.903  25.758  27.837  1.00  0.00     0.041 A 
ATOM     65  F   UNL A   1      38.904  26.432  29.844  1.00  0.00    -0.206 F 
ATOM     66  C   UNL A   1      40.810  25.979  26.805  1.00  0.00     0.022 A 
BRANCH  63  67
ATOM     67  S   UNL A   1      42.707  27.510  25.453  1.00  0.00     0.124 S 
ATOM     68  O   UNL A   1      42.006  28.664  24.896  1.00  0.00    -0.237 OA
ATOM     69  O   UNL A   1      43.991  27.787  26.087  1.00  0.00    -0.237 OA
ATOM     70  O   UNL A   1      42.666  26.306  24.625  1.00  0.00    -0.744 OA
ENDBRANCH  63  67
ENDBRANCH  46  60
BRANCH  47  71
ATOM     71  C   UNL A   1      39.543  33.656  37.040  1.00  0.00     0.023 A 
ATOM     72  C   UNL A   1      40.347  34.784  37.270  1.00  0.00     0.031 A 
ATOM     73  C   UNL A   1      38.627  33.289  38.043  1.00  0.00     0.131 A 
ATOM     74  C   UNL A   1      40.278  35.456  38.500  1.00  0.00     0.055 A 
ATOM     75  C   UNL A   1      38.511  34.005  39.236  1.00  0.00     0.041 A 
ATOM     76  F   UNL A   1      37.830  32.220  37.879  1.00  0.00    -0.206 F 
ATOM     77  C   UNL A   1      39.355  35.084  39.479  1.00  0.00     0.022 A 
BRANCH  74  78
ATOM     78  S   UNL A   1      41.512  36.736  38.856  1.00  0.00     0.124 S 
ATOM     79  O   UNL A   1      42.220  36.824  37.584  1.00  0.00    -0.237 OA
ATOM     80  O   UNL A   1      40.671  37.877  39.203  1.00  0.00    -0.237 OA
ATOM     81  O   UNL A   1      42.280  36.169  39.962  1.00  0.00    -0.744 OA
ENDBRANCH  74  78
ENDBRANCH  47  71
BRANCH  59  82
ATOM     82  C   UNL A   1      44.063  28.626  35.351  1.00  0.00     0.023 A 
ATOM     83  C   UNL A   1      43.932  27.564  36.263  1.00  0.00     0.031 A 
ATOM     84  C   UNL A   1      45.348  29.155  35.132  1.00  0.00     0.131 A 
ATOM     85  C   UNL A   1      45.055  27.108  36.969  1.00  0.00     0.055 A 
ATOM     86  C   UNL A   1      46.472  28.650  35.785  1.00  0.00     0.041 A 
ATOM     87  F   UNL A   1      45.532  30.172  34.275  1.00  0.00    -0.206 F 
ATOM     88  C   UNL A   1      46.327  27.630  36.721  1.00  0.00     0.022 A 
BRANCH  85  89
ATOM     89  S   UNL A   1      44.814  25.893  38.294  1.00  0.00     0.124 S 
ATOM     90  O   UNL A   1      43.946  26.619  39.216  1.00  0.00    -0.237 OA
ATOM     91  O   UNL A   1      44.199  24.776  37.586  1.00  0.00    -0.237 OA
ATOM     92  O   UNL A   1      46.170  25.646  38.783  1.00  0.00    -0.744 OA
ENDBRANCH  85  89
ENDBRANCH  59  82
ENDBRANCH  33  34
ENDBRANCH  25  28
ENDBRANCH  23  24
ENDBRANCH  22  23
ENDBRANCH   1  22
TORSDOF 19
ENDMDL
MODEL 2
REMARK VINA RESULT:     -10.9      1.981      7.879
REMARK SMILES CC[C@]1(C(=O)NCCCNC(=O)c2ccc(-c3c4nc(c(-c5cc(S(=O)(=O)[O-])ccc5F)c5ccc([nH]5)c(-c5cc(S(=O)(=O)[O-])ccc5F)c5nc(c(-c6cc(S(=O)(=O)[O-])ccc6F)c6ccc3[nH]6)C=C5)C=C4)cc2)CCCN(C(=O)C[C@H](C)COC)C1
REMARK SMILES IDX 7 1 6 2 4 3 5 4 3 6 76 7 88 8 77 9 79 10 78 11 2 12 1 13
REMARK SMILES IDX 80 14 81 15 82 16 83 17 84 18 85 19 86 20 87 21 8 22 9 23
REMARK SMILES IDX 10 24 11 25 12 27 13 28 14 29 75 30 15 31 74 32 16 33 17 34
REMARK SMILES IDX 18 35 68 36 19 37 73 38 67 39 69 40 20 41 72 42 66 43 65 44
REMARK SMILES IDX 21 46 53 47 33 48 52 49 34 50 37 51 51 52 70 53 35 54 36 55
REMARK SMILES IDX 50 57 71 58 38 59 22 60 23 61 31 62 24 63 30 64 32 65 29 66
REMARK SMILES IDX 25 67 26 68 27 69 28 70 54 71 55 72 63 73 56 74 62 75 64 76
REMARK SMILES IDX 61 77 57 78 58 79 59 80 60 81 39 82 40 83 48 84 41 85 47 86
REMARK SMILES IDX 49 87 46 88 42 89 43 90 44 91 45 92
REMARK H PARENT 6 5 10 26 69 45 37 56
REMARK Flexibility Score: inf
ROOT
ATOM      1  C   UNL A   1      31.392  30.550  26.062  1.00  0.00     0.117 C 
ENDROOT
BRANCH   1   2
ATOM      2  N   UNL A   1      30.880  30.364  24.712  1.00  0.00    -0.355 N 
ATOM      3  C   UNL A   1      30.944  29.315  23.843  1.00  0.00     0.228 C 
ATOM      4  O   UNL A   1      30.317  29.450  22.790  1.00  0.00    -0.274 OA
ATOM      5  H   UNL A   1      30.395  31.145  24.359  1.00  0.00     0.163 HD
BRANCH   3   6
ATOM      6  C   UNL A   1      31.707  28.021  24.192  1.00  0.00     0.066 C 
ATOM      7  C   UNL A   1      31.045  27.310  25.408  1.00  0.00     0.020 C 
ATOM      8  C   UNL A   1      31.704  27.175  22.888  1.00  0.00     0.136 C 
ATOM      9  C   UNL A   1      30.960  25.782  25.390  1.00  0.00     0.023 C 
ATOM     10  N   UNL A   1      31.993  25.768  23.131  1.00  0.00    -0.342 N 
ATOM     11  C   UNL A   1      31.039  25.109  24.020  1.00  0.00     0.119 C 
BRANCH   6  12
ATOM     12  C   UNL A   1      33.208  28.346  24.522  1.00  0.00     0.015 C 
ATOM     13  C   UNL A   1      33.762  27.894  25.872  1.00  0.00     0.005 C 
ENDBRANCH   6  12
BRANCH  10  14
ATOM     14  C   UNL A   1      33.093  25.191  22.500  1.00  0.00     0.222 C 
ATOM     15  O   UNL A   1      33.662  25.728  21.547  1.00  0.00    -0.275 OA
BRANCH  14  16
ATOM     16  C   UNL A   1      33.647  23.875  23.032  1.00  0.00     0.106 C 
BRANCH  16  17
ATOM     17  C   UNL A   1      34.882  23.977  23.966  1.00  0.00     0.021 C 
ATOM     18  C   UNL A   1      36.118  23.245  23.450  1.00  0.00     0.010 C 
BRANCH  17  19
ATOM     19  C   UNL A   1      34.570  23.553  25.413  1.00  0.00     0.163 C 
BRANCH  19  20
ATOM     20  O   UNL A   1      33.298  22.896  25.537  1.00  0.00    -0.384 OA
ATOM     21  C   UNL A   1      32.792  22.768  26.858  1.00  0.00     0.194 C 
ENDBRANCH  19  20
ENDBRANCH  17  19
ENDBRANCH  16  17
ENDBRANCH  14  16
ENDBRANCH  10  14
ENDBRANCH   3   6
ENDBRANCH   1   2
BRANCH   1  22
ATOM     22  C   UNL A   1      31.368  32.005  26.508  1.00  0.00     0.042 C 
BRANCH  22  23
ATOM     23  C   UNL A   1      32.626  32.429  27.244  1.00  0.00     0.118 C 
BRANCH  23  24
ATOM     24  N   UNL A   1      32.592  33.836  27.614  1.00  0.00    -0.352 N 
ATOM     25  C   UNL A   1      33.284  34.498  28.599  1.00  0.00     0.251 C 
ATOM     26  H   UNL A   1      31.983  34.395  27.081  1.00  0.00     0.163 HD
ATOM     27  O   UNL A   1      32.926  35.619  28.937  1.00  0.00    -0.269 OA
BRANCH  25  28
ATOM     28  C   UNL A   1      34.436  33.841  29.253  1.00  0.00     0.039 A 
ATOM     29  C   UNL A   1      34.203  32.895  30.252  1.00  0.00     0.014 A 
ATOM     30  C   UNL A   1      35.745  34.158  28.879  1.00  0.00     0.014 A 
ATOM     31  C   UNL A   1      35.282  32.221  30.827  1.00  0.00     0.010 A 
ATOM     32  C   UNL A   1      36.807  33.412  29.373  1.00  0.00     0.010 A 
ATOM     33  C   UNL A   1      36.589  32.442  30.363  1.00  0.00    -0.014 A 
BRANCH  33  34
ATOM     34  C   UNL A   1      37.745  31.689  30.912  1.00  0.00     0.031 A 
ATOM     35  C   UNL A   1      38.255  32.003  32.295  1.00  0.00     0.074 A 
ATOM     36  C   UNL A   1      38.369  30.771  30.146  1.00  0.00     0.049 A 
ATOM     37  N   UNL A   1      39.292  31.512  32.924  1.00  0.00    -0.248 NA
ATOM     38  C   UNL A   1      37.523  33.026  33.059  1.00  0.00     0.031 C 
ATOM     39  C   UNL A   1      37.985  30.410  28.778  1.00  0.00     0.029 A 
ATOM     40  N   UNL A   1      39.457  29.975  30.401  1.00  0.00    -0.354 N 
ATOM     41  C   UNL A   1      39.348  32.180  34.142  1.00  0.00     0.074 A 
ATOM     42  C   UNL A   1      38.275  33.149  34.142  1.00  0.00     0.031 C 
ATOM     43  C   UNL A   1      38.801  29.440  28.332  1.00  0.00     0.029 A 
ATOM     44  C   UNL A   1      39.801  29.150  29.353  1.00  0.00     0.049 A 
ATOM     45  H   UNL A   1      39.947  29.992  31.255  1.00  0.00     0.167 HD
ATOM     46  C   UNL A   1      40.205  31.986  35.175  1.00  0.00     0.034 A 
ATOM     47  C   UNL A   1      40.815  28.271  29.228  1.00  0.00     0.034 A 
ATOM     48  C   UNL A   1      41.249  30.993  35.169  1.00  0.00     0.049 A 
ATOM     49  C   UNL A   1      41.769  28.097  30.386  1.00  0.00     0.074 A 
ATOM     50  C   UNL A   1      42.121  30.658  36.190  1.00  0.00     0.029 A 
ATOM     51  N   UNL A   1      41.572  30.181  34.089  1.00  0.00    -0.354 N 
ATOM     52  N   UNL A   1      41.763  28.689  31.559  1.00  0.00    -0.248 NA
ATOM     53  C   UNL A   1      42.860  27.131  30.207  1.00  0.00     0.031 C 
ATOM     54  C   UNL A   1      43.024  29.710  35.701  1.00  0.00     0.029 A 
ATOM     55  C   UNL A   1      42.657  29.381  34.407  1.00  0.00     0.049 A 
ATOM     56  H   UNL A   1      41.099  30.177  33.225  1.00  0.00     0.167 HD
ATOM     57  C   UNL A   1      42.822  28.131  32.270  1.00  0.00     0.074 A 
ATOM     58  C   UNL A   1      43.433  27.147  31.401  1.00  0.00     0.031 C 
ATOM     59  C   UNL A   1      43.253  28.401  33.528  1.00  0.00     0.034 A 
BRANCH  46  60
ATOM     60  C   UNL A   1      40.072  32.881  36.383  1.00  0.00     0.023 A 
ATOM     61  C   UNL A   1      39.260  32.539  37.479  1.00  0.00     0.031 A 
ATOM     62  C   UNL A   1      40.786  34.091  36.445  1.00  0.00     0.131 A 
ATOM     63  C   UNL A   1      39.143  33.420  38.564  1.00  0.00     0.055 A 
ATOM     64  C   UNL A   1      40.726  34.926  37.561  1.00  0.00     0.041 A 
ATOM     65  F   UNL A   1      41.557  34.481  35.418  1.00  0.00    -0.206 F 
ATOM     66  C   UNL A   1      39.892  34.597  38.626  1.00  0.00     0.022 A 
BRANCH  63  67
ATOM     67  S   UNL A   1      37.908  33.063  39.844  1.00  0.00     0.124 S 
ATOM     68  O   UNL A   1      38.462  31.862  40.462  1.00  0.00    -0.237 OA
ATOM     69  O   UNL A   1      37.939  34.273  40.657  1.00  0.00    -0.237 OA
ATOM     70  O   UNL A   1      36.677  32.854  39.084  1.00  0.00    -0.744 OA
ENDBRANCH  63  67
ENDBRANCH  46  60
BRANCH  47  71
ATOM     71  C   UNL A   1      41.008  27.490  27.969  1.00  0.00     0.023 A 
ATOM     72  C   UNL A   1      40.672  26.128  27.910  1.00  0.00     0.031 A 
ATOM     73  C   UNL A   1      41.610  28.067  26.836  1.00  0.00     0.131 A 
ATOM     74  C   UNL A   1      41.011  25.370  26.778  1.00  0.00     0.055 A 
ATOM     75  C   UNL A   1      41.879  27.324  25.684  1.00  0.00     0.041 A 
ATOM     76  F   UNL A   1      41.952  29.365  26.833  1.00  0.00    -0.206 F 
ATOM     77  C   UNL A   1      41.598  25.962  25.659  1.00  0.00     0.022 A 
BRANCH  74  78
ATOM     78  S   UNL A   1      40.801  23.570  26.849  1.00  0.00     0.124 S 
ATOM     79  O   UNL A   1      39.401  23.422  26.468  1.00  0.00    -0.237 OA
ATOM     80  O   UNL A   1      41.783  23.113  25.872  1.00  0.00    -0.237 OA
ATOM     81  O   UNL A   1      41.109  23.247  28.240  1.00  0.00    -0.744 OA
ENDBRANCH  74  78
ENDBRANCH  47  71
BRANCH  59  82
ATOM     82  C   UNL A   1      44.400  27.575  34.058  1.00  0.00     0.023 A 
ATOM     83  C   UNL A   1      44.204  26.294  34.601  1.00  0.00     0.031 A 
ATOM     84  C   UNL A   1      45.710  28.087  34.025  1.00  0.00     0.131 A 
ATOM     85  C   UNL A   1      45.290  25.593  35.145  1.00  0.00     0.055 A 
ATOM     86  C   UNL A   1      46.797  27.355  34.503  1.00  0.00     0.041 A 
ATOM     87  F   UNL A   1      45.956  29.307  33.521  1.00  0.00    -0.206 F 
ATOM     88  C   UNL A   1      46.588  26.107  35.082  1.00  0.00     0.022 A 
BRANCH  85  89
ATOM     89  S   UNL A   1      44.969  24.044  36.033  1.00  0.00     0.124 S 
ATOM     90  O   UNL A   1      44.979  24.486  37.424  1.00  0.00    -0.237 OA
ATOM     91  O   UNL A   1      43.672  23.643  35.501  1.00  0.00    -0.237 OA
ATOM     92  O   UNL A   1      46.089  23.188  35.646  1.00  0.00    -0.744 OA
ENDBRANCH  85  89
ENDBRANCH  59  82
ENDBRANCH  33  34
ENDBRANCH  25  28
ENDBRANCH  23  24
ENDBRANCH  22  23
ENDBRANCH   1  22
TORSDOF 19
ENDMDL
MODEL 3
REMARK VINA RESULT:     -10.7      2.917      8.410
REMARK SMILES CC[C@]1(C(=O)NCCCNC(=O)c2ccc(-c3c4nc(c(-c5cc(S(=O)(=O)[O-])ccc5F)c5ccc([nH]5)c(-c5cc(S(=O)(=O)[O-])ccc5F)c5nc(c(-c6cc(S(=O)(=O)[O-])ccc6F)c6ccc3[nH]6)C=C5)C=C4)cc2)CCCN(C(=O)C[C@H](C)COC)C1
REMARK SMILES IDX 7 1 6 2 4 3 5 4 3 6 76 7 88 8 77 9 79 10 78 11 2 12 1 13
REMARK SMILES IDX 80 14 81 15 82 16 83 17 84 18 85 19 86 20 87 21 8 22 9 23
REMARK SMILES IDX 10 24 11 25 12 27 13 28 14 29 75 30 15 31 74 32 16 33 17 34
REMARK SMILES IDX 18 35 68 36 19 37 73 38 67 39 69 40 20 41 72 42 66 43 65 44
REMARK SMILES IDX 21 46 53 47 33 48 52 49 34 50 37 51 51 52 70 53 35 54 36 55
REMARK SMILES IDX 50 57 71 58 38 59 22 60 23 61 31 62 24 63 30 64 32 65 29 66
REMARK SMILES IDX 25 67 26 68 27 69 28 70 54 71 55 72 63 73 56 74 62 75 64 76
REMARK SMILES IDX 61 77 57 78 58 79 59 80 60 81 39 82 40 83 48 84 41 85 47 86
REMARK SMILES IDX 49 87 46 88 42 89 43 90 44 91 45 92
REMARK H PARENT 6 5 10 26 69 45 37 56
REMARK Flexibility Score: inf
ROOT
ATOM      1  C   UNL A   1      31.527  27.552  26.551  1.00  0.00     0.117 C 
ENDROOT
BRANCH   1   2
ATOM      2  N   UNL A   1      30.962  27.571  25.210  1.00  0.00    -0.355 N 
ATOM      3  C   UNL A   1      31.047  26.697  24.166  1.00  0.00     0.228 C 
ATOM      4  O   UNL A   1      30.362  26.971  23.178  1.00  0.00    -0.274 OA
ATOM      5  H   UNL A   1      30.413  28.366  25.020  1.00  0.00     0.163 HD
BRANCH   3   6
ATOM      6  C   UNL A   1      31.904  25.418  24.250  1.00  0.00     0.066 C 
ATOM      7  C   UNL A   1      33.408  25.781  24.413  1.00  0.00     0.020 C 
ATOM      8  C   UNL A   1      31.318  24.606  25.439  1.00  0.00     0.136 C 
ATOM      9  C   UNL A   1      34.258  24.923  25.354  1.00  0.00     0.023 C 
ATOM     10  N   UNL A   1      32.242  23.595  25.938  1.00  0.00    -0.342 N 
ATOM     11  C   UNL A   1      33.508  24.136  26.427  1.00  0.00     0.119 C 
BRANCH   6  12
ATOM     12  C   UNL A   1      31.708  24.545  22.960  1.00  0.00     0.015 C 
ATOM     13  C   UNL A   1      32.900  24.372  22.019  1.00  0.00     0.005 C 
ENDBRANCH   6  12
BRANCH  10  14
ATOM     14  C   UNL A   1      31.844  22.260  25.930  1.00  0.00     0.222 C 
ATOM     15  O   UNL A   1      30.658  21.927  25.860  1.00  0.00    -0.275 OA
BRANCH  14  16
ATOM     16  C   UNL A   1      32.907  21.169  25.956  1.00  0.00     0.106 C 
BRANCH  16  17
ATOM     17  C   UNL A   1      33.495  20.748  24.583  1.00  0.00     0.021 C 
ATOM     18  C   UNL A   1      32.507  20.850  23.423  1.00  0.00     0.010 C 
BRANCH  17  19
ATOM     19  C   UNL A   1      34.144  19.352  24.617  1.00  0.00     0.163 C 
BRANCH  19  20
ATOM     20  O   UNL A   1      33.269  18.322  24.130  1.00  0.00    -0.384 OA
ATOM     21  C   UNL A   1      32.532  17.616  25.120  1.00  0.00     0.194 C 
ENDBRANCH  19  20
ENDBRANCH  17  19
ENDBRANCH  16  17
ENDBRANCH  14  16
ENDBRANCH  10  14
ENDBRANCH   3   6
ENDBRANCH   1   2
BRANCH   1  22
ATOM     22  C   UNL A   1      31.792  28.946  27.100  1.00  0.00     0.042 C 
BRANCH  22  23
ATOM     23  C   UNL A   1      32.849  29.708  26.321  1.00  0.00     0.118 C 
BRANCH  23  24
ATOM     24  N   UNL A   1      32.796  31.138  26.588  1.00  0.00    -0.352 N 
ATOM     25  C   UNL A   1      33.586  31.904  27.410  1.00  0.00     0.251 C 
ATOM     26  H   UNL A   1      32.089  31.627  26.109  1.00  0.00     0.163 HD
ATOM     27  O   UNL A   1      33.224  33.033  27.713  1.00  0.00    -0.269 OA
BRANCH  25  28
ATOM     28  C   UNL A   1      34.851  31.348  27.936  1.00  0.00     0.039 A 
ATOM     29  C   UNL A   1      35.972  32.175  28.030  1.00  0.00     0.014 A 
ATOM     30  C   UNL A   1      34.930  30.012  28.339  1.00  0.00     0.014 A 
ATOM     31  C   UNL A   1      37.150  31.676  28.589  1.00  0.00     0.010 A 
ATOM     32  C   UNL A   1      36.066  29.551  28.992  1.00  0.00     0.010 A 
ATOM     33  C   UNL A   1      37.194  30.374  29.114  1.00  0.00    -0.014 A 
BRANCH  33  34
ATOM     34  C   UNL A   1      38.415  29.844  29.773  1.00  0.00     0.031 A 
ATOM     35  C   UNL A   1      38.792  30.328  31.150  1.00  0.00     0.074 A 
ATOM     36  C   UNL A   1      39.210  28.980  29.111  1.00  0.00     0.049 A 
ATOM     37  N   UNL A   1      39.852  30.044  31.863  1.00  0.00    -0.248 NA
ATOM     38  C   UNL A   1      37.874  31.279  31.797  1.00  0.00     0.031 C 
ATOM     39  C   UNL A   1      38.964  28.470  27.758  1.00  0.00     0.029 A 
ATOM     40  N   UNL A   1      40.388  28.377  29.478  1.00  0.00    -0.354 N 
ATOM     41  C   UNL A   1      39.737  30.796  33.027  1.00  0.00     0.074 A 
ATOM     42  C   UNL A   1      38.535  31.589  32.902  1.00  0.00     0.031 C 
ATOM     43  C   UNL A   1      39.938  27.606  27.429  1.00  0.00     0.029 A 
ATOM     44  C   UNL A   1      40.910  27.543  28.515  1.00  0.00     0.049 A 
ATOM     45  H   UNL A   1      40.819  28.528  30.350  1.00  0.00     0.167 HD
ATOM     46  C   UNL A   1      40.552  30.807  34.111  1.00  0.00     0.034 A 
ATOM     47  C   UNL A   1      42.048  26.821  28.506  1.00  0.00     0.034 A 
ATOM     48  C   UNL A   1      41.730  29.985  34.231  1.00  0.00     0.049 A 
ATOM     49  C   UNL A   1      42.948  26.875  29.718  1.00  0.00     0.074 A 
ATOM     50  C   UNL A   1      42.581  29.859  35.315  1.00  0.00     0.029 A 
ATOM     51  N   UNL A   1      42.231  29.159  33.233  1.00  0.00    -0.354 N 
ATOM     52  N   UNL A   1      42.786  27.539  30.839  1.00  0.00    -0.248 NA
ATOM     53  C   UNL A   1      44.179  26.074  29.665  1.00  0.00     0.031 C 
ATOM     54  C   UNL A   1      43.641  29.027  34.944  1.00  0.00     0.029 A 
ATOM     55  C   UNL A   1      43.403  28.556  33.663  1.00  0.00     0.049 A 
ATOM     56  H   UNL A   1      41.815  29.022  32.352  1.00  0.00     0.167 HD
ATOM     57  C   UNL A   1      43.874  27.199  31.640  1.00  0.00     0.074 A 
ATOM     58  C   UNL A   1      44.672  26.260  30.880  1.00  0.00     0.031 C 
ATOM     59  C   UNL A   1      44.186  27.619  32.892  1.00  0.00     0.034 A 
BRANCH  46  60
ATOM     60  C   UNL A   1      40.219  31.753  35.239  1.00  0.00     0.023 A 
ATOM     61  C   UNL A   1      39.279  31.428  36.232  1.00  0.00     0.031 A 
ATOM     62  C   UNL A   1      40.870  32.997  35.329  1.00  0.00     0.131 A 
ATOM     63  C   UNL A   1      38.979  32.356  37.240  1.00  0.00     0.055 A 
ATOM     64  C   UNL A   1      40.623  33.883  36.378  1.00  0.00     0.041 A 
ATOM     65  F   UNL A   1      41.758  33.372  34.396  1.00  0.00    -0.206 F 
ATOM     66  C   UNL A   1      39.665  33.568  37.338  1.00  0.00     0.022 A 
BRANCH  63  67
ATOM     67  S   UNL A   1      37.595  32.006  38.359  1.00  0.00     0.124 S 
ATOM     68  O   UNL A   1      38.221  32.182  39.666  1.00  0.00    -0.237 OA
ATOM     69  O   UNL A   1      36.617  33.019  37.977  1.00  0.00    -0.237 OA
ATOM     70  O   UNL A   1      37.228  30.630  38.032  1.00  0.00    -0.744 OA
ENDBRANCH  63  67
ENDBRANCH  46  60
BRANCH  47  71
ATOM     71  C   UNL A   1      42.426  25.992  27.322  1.00  0.00     0.023 A 
ATOM     72  C   UNL A   1      42.009  24.656  27.218  1.00  0.00     0.031 A 
ATOM     73  C   UNL A   1      43.280  26.492  26.322  1.00  0.00     0.131 A 
ATOM     74  C   UNL A   1      42.507  23.843  26.187  1.00  0.00     0.055 A 
ATOM     75  C   UNL A   1      43.715  25.699  25.258  1.00  0.00     0.041 A 
ATOM     76  F   UNL A   1      43.711  27.763  26.368  1.00  0.00    -0.206 F 
ATOM     77  C   UNL A   1      43.345  24.360  25.198  1.00  0.00     0.022 A 
BRANCH  74  78
ATOM     78  S   UNL A   1      42.155  22.065  26.242  1.00  0.00     0.124 S 
ATOM     79  O   UNL A   1      42.584  21.720  27.592  1.00  0.00    -0.237 OA
ATOM     80  O   UNL A   1      40.716  22.035  25.998  1.00  0.00    -0.237 OA
ATOM     81  O   UNL A   1      42.979  21.523  25.165  1.00  0.00    -0.744 OA
ENDBRANCH  74  78
ENDBRANCH  47  71
BRANCH  59  82
ATOM     82  C   UNL A   1      45.410  27.015  33.538  1.00  0.00     0.023 A 
ATOM     83  C   UNL A   1      45.358  25.792  34.230  1.00  0.00     0.031 A 
ATOM     84  C   UNL A   1      46.646  27.681  33.464  1.00  0.00     0.131 A 
ATOM     85  C   UNL A   1      46.505  25.306  34.874  1.00  0.00     0.055 A 
ATOM     86  C   UNL A   1      47.800  27.157  34.046  1.00  0.00     0.041 A 
ATOM     87  F   UNL A   1      46.754  28.854  32.819  1.00  0.00    -0.206 F 
ATOM     88  C   UNL A   1      47.730  25.970  34.769  1.00  0.00     0.022 A 
BRANCH  85  89
ATOM     89  S   UNL A   1      46.351  23.846  35.939  1.00  0.00     0.124 S 
ATOM     90  O   UNL A   1      45.033  24.043  36.534  1.00  0.00    -0.237 OA
ATOM     91  O   UNL A   1      46.462  22.750  34.984  1.00  0.00    -0.237 OA
ATOM     92  O   UNL A   1      47.475  23.977  36.865  1.00  0.00    -0.744 OA
ENDBRANCH  85  89
ENDBRANCH  59  82
ENDBRANCH  33  34
ENDBRANCH  25  28
ENDBRANCH  23  24
ENDBRANCH  22  23
ENDBRANCH   1  22
TORSDOF 19
ENDMDL
