MODEL 1
REMARK VINA RESULT:     -12.2      0.000      0.000
REMARK SMILES C[C@@H](CC(=O)NCCCNC(=O)c1ccc(-c2c3nc(c(-c4cc(S(=O)(=O)[O-])ccc4F)c4ccc([nH]4)c(-c4cc(S(=O)(=O)[O-])ccc4F)c4nc(c(-c5cc(S(=O)(=O)[O-])ccc5F)c5ccc2[nH]5)C=C4)C=C3)cc1)NC(=O)c1cc(=O)[nH]c2ccccc12
REMARK SMILES IDX 8 1 7 2 6 3 4 4 5 5 3 7 2 8 1 9 76 10 77 11 78 13 79 14
REMARK SMILES IDX 80 15 89 16 81 17 84 18 88 19 82 20 83 21 85 22 87 23 86 25
REMARK SMILES IDX 9 26 10 27 11 28 12 30 13 31 14 32 75 33 15 34 74 35 16 36
REMARK SMILES IDX 17 37 18 38 68 39 19 40 73 41 67 42 69 43 20 44 72 45 66 46
REMARK SMILES IDX 65 47 21 49 53 50 33 51 52 52 34 53 37 54 51 55 70 56 35 57
REMARK SMILES IDX 36 58 50 60 71 61 38 62 22 63 23 64 31 65 24 66 30 67 32 68
REMARK SMILES IDX 29 69 25 70 26 71 27 72 28 73 54 74 55 75 63 76 56 77 62 78
REMARK SMILES IDX 64 79 61 80 57 81 58 82 59 83 60 84 39 85 40 86 48 87 41 88
REMARK SMILES IDX 47 89 49 90 46 91 42 92 43 93 44 94 45 95
REMARK H PARENT 6 6 76 12 83 24 10 29 69 48 37 59
REMARK Flexibility Score: inf
ROOT
ATOM      1  C   UNL A   1      33.343  28.971  23.347  1.00  0.00     0.042 C 
ENDROOT
BRANCH   1   2
ATOM      2  C   UNL A   1      31.869  28.827  22.965  1.00  0.00     0.117 C 
BRANCH   2   3
ATOM      3  N   UNL A   1      31.592  27.491  22.463  1.00  0.00    -0.356 N 
ATOM      4  C   UNL A   1      30.875  26.475  23.011  1.00  0.00     0.222 C 
ATOM      5  O   UNL A   1      30.940  25.363  22.479  1.00  0.00    -0.275 OA
ATOM      6  H   UNL A   1      31.988  27.290  21.584  1.00  0.00     0.163 HD
BRANCH   4   7
ATOM      7  C   UNL A   1      30.015  26.684  24.240  1.00  0.00     0.124 C 
BRANCH   7   8
ATOM      8  C   UNL A   1      30.491  25.931  25.490  1.00  0.00     0.088 C 
ATOM      9  C   UNL A   1      31.488  26.753  26.310  1.00  0.00     0.031 C 
BRANCH   8  10
ATOM     10  N   UNL A   1      31.064  24.628  25.181  1.00  0.00    -0.349 N 
ATOM     11  C   UNL A   1      31.300  23.682  26.152  1.00  0.00     0.252 C 
ATOM     12  H   UNL A   1      31.287  24.416  24.246  1.00  0.00     0.164 HD
ATOM     13  O   UNL A   1      30.755  23.696  27.251  1.00  0.00    -0.269 OA
BRANCH  11  14
ATOM     14  C   UNL A   1      32.284  22.625  25.764  1.00  0.00     0.054 A 
ATOM     15  C   UNL A   1      31.781  21.387  25.630  1.00  0.00     0.086 A 
ATOM     16  C   UNL A   1      33.707  22.867  25.455  1.00  0.00     0.011 A 
ATOM     17  C   UNL A   1      32.593  20.290  25.064  1.00  0.00     0.249 A 
ATOM     18  C   UNL A   1      34.400  21.890  24.730  1.00  0.00     0.049 A 
ATOM     19  C   UNL A   1      34.409  24.012  25.856  1.00  0.00     0.011 A 
ATOM     20  O   UNL A   1      32.153  19.146  25.001  1.00  0.00    -0.270 OA
ATOM     21  N   UNL A   1      33.816  20.630  24.553  1.00  0.00    -0.322 N 
ATOM     22  C   UNL A   1      35.689  22.130  24.252  1.00  0.00     0.027 A 
ATOM     23  C   UNL A   1      35.707  24.251  25.401  1.00  0.00     0.001 A 
ATOM     24  H   UNL A   1      34.309  19.955  24.035  1.00  0.00     0.170 HD
ATOM     25  C   UNL A   1      36.329  23.328  24.566  1.00  0.00     0.002 A 
ENDBRANCH  11  14
ENDBRANCH   8  10
ENDBRANCH   7   8
ENDBRANCH   4   7
ENDBRANCH   2   3
ENDBRANCH   1   2
BRANCH   1  26
ATOM     26  C   UNL A   1      33.577  29.069  24.850  1.00  0.00     0.118 C 
BRANCH  26  27
ATOM     27  N   UNL A   1      32.853  30.184  25.440  1.00  0.00    -0.352 N 
ATOM     28  C   UNL A   1      33.059  30.832  26.636  1.00  0.00     0.251 C 
ATOM     29  H   UNL A   1      32.102  30.527  24.903  1.00  0.00     0.163 HD
ATOM     30  O   UNL A   1      32.184  31.579  27.066  1.00  0.00    -0.269 OA
BRANCH  28  31
ATOM     31  C   UNL A   1      34.307  30.622  27.409  1.00  0.00     0.039 A 
ATOM     32  C   UNL A   1      35.162  31.706  27.626  1.00  0.00     0.014 A 
ATOM     33  C   UNL A   1      34.663  29.354  27.876  1.00  0.00     0.014 A 
ATOM     34  C   UNL A   1      36.343  31.532  28.357  1.00  0.00     0.010 A 
ATOM     35  C   UNL A   1      35.804  29.195  28.663  1.00  0.00     0.010 A 
ATOM     36  C   UNL A   1      36.662  30.280  28.904  1.00  0.00    -0.014 A 
BRANCH  36  37
ATOM     37  C   UNL A   1      37.906  30.059  29.690  1.00  0.00     0.031 A 
ATOM     38  C   UNL A   1      38.974  29.145  29.149  1.00  0.00     0.074 A 
ATOM     39  C   UNL A   1      38.048  30.615  30.909  1.00  0.00     0.049 A 
ATOM     40  N   UNL A   1      40.051  28.686  29.733  1.00  0.00    -0.248 NA
ATOM     41  C   UNL A   1      38.781  28.659  27.775  1.00  0.00     0.031 C 
ATOM     42  C   UNL A   1      37.083  31.509  31.550  1.00  0.00     0.029 A 
ATOM     43  N   UNL A   1      39.054  30.495  31.836  1.00  0.00    -0.354 N 
ATOM     44  C   UNL A   1      40.653  27.840  28.807  1.00  0.00     0.074 A 
ATOM     45  C   UNL A   1      39.788  27.809  27.646  1.00  0.00     0.031 C 
ATOM     46  C   UNL A   1      37.550  31.865  32.759  1.00  0.00     0.029 A 
ATOM     47  C   UNL A   1      38.820  31.187  33.001  1.00  0.00     0.049 A 
ATOM     48  H   UNL A   1      39.868  29.963  31.680  1.00  0.00     0.167 HD
ATOM     49  C   UNL A   1      41.827  27.167  28.907  1.00  0.00     0.034 A 
ATOM     50  C   UNL A   1      39.536  31.252  34.142  1.00  0.00     0.034 A 
ATOM     51  C   UNL A   1      42.690  27.223  30.061  1.00  0.00     0.049 A 
ATOM     52  C   UNL A   1      40.825  30.474  34.241  1.00  0.00     0.074 A 
ATOM     53  C   UNL A   1      43.910  26.600  30.261  1.00  0.00     0.029 A 
ATOM     54  N   UNL A   1      42.424  27.952  31.214  1.00  0.00    -0.354 N 
ATOM     55  N   UNL A   1      41.381  29.680  33.355  1.00  0.00    -0.248 NA
ATOM     56  C   UNL A   1      41.584  30.606  35.492  1.00  0.00     0.031 C 
ATOM     57  C   UNL A   1      44.360  26.915  31.548  1.00  0.00     0.029 A 
ATOM     58  C   UNL A   1      43.450  27.783  32.131  1.00  0.00     0.049 A 
ATOM     59  H   UNL A   1      41.624  28.507  31.358  1.00  0.00     0.167 HD
ATOM     60  C   UNL A   1      42.573  29.250  33.930  1.00  0.00     0.074 A 
ATOM     61  C   UNL A   1      42.658  29.873  35.234  1.00  0.00     0.031 C 
ATOM     62  C   UNL A   1      43.519  28.419  33.424  1.00  0.00     0.034 A 
BRANCH  49  63
ATOM     63  C   UNL A   1      42.225  26.298  27.738  1.00  0.00     0.023 A 
ATOM     64  C   UNL A   1      41.891  24.934  27.691  1.00  0.00     0.031 A 
ATOM     65  C   UNL A   1      42.980  26.828  26.678  1.00  0.00     0.131 A 
ATOM     66  C   UNL A   1      42.382  24.128  26.652  1.00  0.00     0.055 A 
ATOM     67  C   UNL A   1      43.395  26.038  25.603  1.00  0.00     0.041 A 
ATOM     68  F   UNL A   1      43.347  28.120  26.677  1.00  0.00    -0.206 F 
ATOM     69  C   UNL A   1      43.111  24.676  25.595  1.00  0.00     0.022 A 
BRANCH  66  70
ATOM     70  S   UNL A   1      42.182  22.330  26.786  1.00  0.00     0.124 S 
ATOM     71  O   UNL A   1      40.894  22.128  26.126  1.00  0.00    -0.237 OA
ATOM     72  O   UNL A   1      43.352  21.829  26.075  1.00  0.00    -0.237 OA
ATOM     73  O   UNL A   1      42.179  22.093  28.229  1.00  0.00    -0.744 OA
ENDBRANCH  66  70
ENDBRANCH  49  63
BRANCH  50  74
ATOM     74  C   UNL A   1      39.054  32.065  35.294  1.00  0.00     0.023 A 
ATOM     75  C   UNL A   1      38.468  31.450  36.411  1.00  0.00     0.031 A 
ATOM     76  C   UNL A   1      39.123  33.469  35.273  1.00  0.00     0.131 A 
ATOM     77  C   UNL A   1      37.928  32.237  37.440  1.00  0.00     0.055 A 
ATOM     78  C   UNL A   1      38.629  34.247  36.322  1.00  0.00     0.041 A 
ATOM     79  F   UNL A   1      39.679  34.106  34.229  1.00  0.00    -0.206 F 
ATOM     80  C   UNL A   1      38.014  33.632  37.407  1.00  0.00     0.022 A 
BRANCH  77  81
ATOM     81  S   UNL A   1      37.028  31.413  38.782  1.00  0.00     0.124 S 
ATOM     82  O   UNL A   1      36.892  30.057  38.259  1.00  0.00    -0.237 OA
ATOM     83  O   UNL A   1      37.945  31.578  39.905  1.00  0.00    -0.237 OA
ATOM     84  O   UNL A   1      35.785  32.174  38.876  1.00  0.00    -0.744 OA
ENDBRANCH  77  81
ENDBRANCH  50  74
BRANCH  62  85
ATOM     85  C   UNL A   1      44.753  28.195  34.259  1.00  0.00     0.023 A 
ATOM     86  C   UNL A   1      44.850  27.129  35.168  1.00  0.00     0.031 A 
ATOM     87  C   UNL A   1      45.846  29.072  34.141  1.00  0.00     0.131 A 
ATOM     88  C   UNL A   1      46.001  26.988  35.958  1.00  0.00     0.055 A 
ATOM     89  C   UNL A   1      47.007  28.900  34.894  1.00  0.00     0.041 A 
ATOM     90  F   UNL A   1      45.803  30.106  33.286  1.00  0.00    -0.206 F 
ATOM     91  C   UNL A   1      47.086  27.860  35.817  1.00  0.00     0.022 A 
BRANCH  88  92
ATOM     92  S   UNL A   1      46.042  25.686  37.219  1.00  0.00     0.124 S 
ATOM     93  O   UNL A   1      45.083  26.183  38.200  1.00  0.00    -0.237 OA
ATOM     94  O   UNL A   1      45.629  24.507  36.465  1.00  0.00    -0.237 OA
ATOM     95  O   UNL A   1      47.435  25.680  37.660  1.00  0.00    -0.744 OA
ENDBRANCH  88  92
ENDBRANCH  62  85
ENDBRANCH  36  37
ENDBRANCH  28  31
ENDBRANCH  26  27
ENDBRANCH   1  26
TORSDOF 16
ENDMDL
MODEL 2
REMARK VINA RESULT:     -12.1      1.694      2.175
REMARK SMILES C[C@@H](CC(=O)NCCCNC(=O)c1ccc(-c2c3nc(c(-c4cc(S(=O)(=O)[O-])ccc4F)c4ccc([nH]4)c(-c4cc(S(=O)(=O)[O-])ccc4F)c4nc(c(-c5cc(S(=O)(=O)[O-])ccc5F)c5ccc2[nH]5)C=C4)C=C3)cc1)NC(=O)c1cc(=O)[nH]c2ccccc12
REMARK SMILES IDX 8 1 7 2 6 3 4 4 5 5 3 7 2 8 1 9 76 10 77 11 78 13 79 14
REMARK SMILES IDX 80 15 89 16 81 17 84 18 88 19 82 20 83 21 85 22 87 23 86 25
REMARK SMILES IDX 9 26 10 27 11 28 12 30 13 31 14 32 75 33 15 34 74 35 16 36
REMARK SMILES IDX 17 37 18 38 68 39 19 40 73 41 67 42 69 43 20 44 72 45 66 46
REMARK SMILES IDX 65 47 21 49 53 50 33 51 52 52 34 53 37 54 51 55 70 56 35 57
REMARK SMILES IDX 36 58 50 60 71 61 38 62 22 63 23 64 31 65 24 66 30 67 32 68
REMARK SMILES IDX 29 69 25 70 26 71 27 72 28 73 54 74 55 75 63 76 56 77 62 78
REMARK SMILES IDX 64 79 61 80 57 81 58 82 59 83 60 84 39 85 40 86 48 87 41 88
REMARK SMILES IDX 47 89 49 90 46 91 42 92 43 93 44 94 45 95
REMARK H PARENT 6 6 76 12 83 24 10 29 69 48 37 59
REMARK Flexibility Score: inf
ROOT
ATOM      1  C   UNL A   1      34.013  28.886  24.119  1.00  0.00     0.042 C 
ENDROOT
BRANCH   1   2
ATOM      2  C   UNL A   1      33.246  28.823  22.798  1.00  0.00     0.117 C 
BRANCH   2   3
ATOM      3  N   UNL A   1      33.640  27.656  22.025  1.00  0.00    -0.356 N 
ATOM      4  C   UNL A   1      32.937  26.541  21.694  1.00  0.00     0.222 C 
ATOM      5  O   UNL A   1      33.549  25.596  21.188  1.00  0.00    -0.275 OA
ATOM      6  H   UNL A   1      34.564  27.678  21.687  1.00  0.00     0.163 HD
BRANCH   4   7
ATOM      7  C   UNL A   1      31.444  26.444  21.933  1.00  0.00     0.124 C 
BRANCH   7   8
ATOM      8  C   UNL A   1      31.049  25.676  23.203  1.00  0.00     0.088 C 
ATOM      9  C   UNL A   1      30.295  26.562  24.197  1.00  0.00     0.031 C 
BRANCH   8  10
ATOM     10  N   UNL A   1      32.187  25.051  23.863  1.00  0.00    -0.349 N 
ATOM     11  C   UNL A   1      32.324  23.684  23.950  1.00  0.00     0.252 C 
ATOM     12  H   UNL A   1      32.880  25.626  24.260  1.00  0.00     0.164 HD
ATOM     13  O   UNL A   1      31.732  22.901  23.214  1.00  0.00    -0.269 OA
BRANCH  11  14
ATOM     14  C   UNL A   1      33.258  23.220  25.022  1.00  0.00     0.054 A 
ATOM     15  C   UNL A   1      32.720  23.104  26.247  1.00  0.00     0.086 A 
ATOM     16  C   UNL A   1      34.663  22.825  24.805  1.00  0.00     0.011 A 
ATOM     17  C   UNL A   1      33.470  22.473  27.353  1.00  0.00     0.249 A 
ATOM     18  C   UNL A   1      35.287  22.045  25.786  1.00  0.00     0.049 A 
ATOM     19  C   UNL A   1      35.413  23.194  23.680  1.00  0.00     0.011 A 
ATOM     20  O   UNL A   1      33.002  22.424  28.486  1.00  0.00    -0.270 OA
ATOM     21  N   UNL A   1      34.665  21.889  27.031  1.00  0.00    -0.322 N 
ATOM     22  C   UNL A   1      36.547  21.488  25.567  1.00  0.00     0.027 A 
ATOM     23  C   UNL A   1      36.685  22.659  23.463  1.00  0.00     0.001 A 
ATOM     24  H   UNL A   1      35.110  21.332  27.709  1.00  0.00     0.170 HD
ATOM     25  C   UNL A   1      37.232  21.775  24.387  1.00  0.00     0.002 A 
ENDBRANCH  11  14
ENDBRANCH   8  10
ENDBRANCH   7   8
ENDBRANCH   4   7
ENDBRANCH   2   3
ENDBRANCH   1   2
BRANCH   1  26
ATOM     26  C   UNL A   1      33.113  28.839  25.350  1.00  0.00     0.118 C 
BRANCH  26  27
ATOM     27  N   UNL A   1      32.594  30.155  25.692  1.00  0.00    -0.352 N 
ATOM     28  C   UNL A   1      32.979  31.018  26.692  1.00  0.00     0.251 C 
ATOM     29  H   UNL A   1      31.857  30.475  25.123  1.00  0.00     0.163 HD
ATOM     30  O   UNL A   1      32.249  31.965  26.972  1.00  0.00    -0.269 OA
BRANCH  28  31
ATOM     31  C   UNL A   1      34.243  30.805  27.436  1.00  0.00     0.039 A 
ATOM     32  C   UNL A   1      34.577  29.512  27.852  1.00  0.00     0.014 A 
ATOM     33  C   UNL A   1      35.074  31.877  27.772  1.00  0.00     0.014 A 
ATOM     34  C   UNL A   1      35.768  29.287  28.552  1.00  0.00     0.010 A 
ATOM     35  C   UNL A   1      36.293  31.643  28.408  1.00  0.00     0.010 A 
ATOM     36  C   UNL A   1      36.650  30.347  28.814  1.00  0.00    -0.014 A 
BRANCH  36  37
ATOM     37  C   UNL A   1      37.926  30.143  29.552  1.00  0.00     0.031 A 
ATOM     38  C   UNL A   1      38.985  29.245  28.969  1.00  0.00     0.074 A 
ATOM     39  C   UNL A   1      38.106  30.699  30.766  1.00  0.00     0.049 A 
ATOM     40  N   UNL A   1      40.090  28.801  29.511  1.00  0.00    -0.248 NA
ATOM     41  C   UNL A   1      38.748  28.759  27.602  1.00  0.00     0.031 C 
ATOM     42  C   UNL A   1      37.153  31.579  31.445  1.00  0.00     0.029 A 
ATOM     43  N   UNL A   1      39.148  30.593  31.653  1.00  0.00    -0.354 N 
ATOM     44  C   UNL A   1      40.670  27.966  28.561  1.00  0.00     0.074 A 
ATOM     45  C   UNL A   1      39.762  27.924  27.433  1.00  0.00     0.031 C 
ATOM     46  C   UNL A   1      37.660  31.940  32.635  1.00  0.00     0.029 A 
ATOM     47  C   UNL A   1      38.948  31.280  32.828  1.00  0.00     0.049 A 
ATOM     48  H   UNL A   1      39.963  30.073  31.465  1.00  0.00     0.167 HD
ATOM     49  C   UNL A   1      41.856  27.310  28.615  1.00  0.00     0.034 A 
ATOM     50  C   UNL A   1      39.707  31.354  33.941  1.00  0.00     0.034 A 
ATOM     51  C   UNL A   1      42.761  27.377  29.736  1.00  0.00     0.049 A 
ATOM     52  C   UNL A   1      41.009  30.594  33.990  1.00  0.00     0.074 A 
ATOM     53  C   UNL A   1      43.997  26.772  29.888  1.00  0.00     0.029 A 
ATOM     54  N   UNL A   1      42.529  28.100  30.899  1.00  0.00    -0.354 N 
ATOM     55  N   UNL A   1      41.542  29.811  33.082  1.00  0.00    -0.248 NA
ATOM     56  C   UNL A   1      41.813  30.736  35.211  1.00  0.00     0.031 C 
ATOM     57  C   UNL A   1      44.491  27.092  31.158  1.00  0.00     0.029 A 
ATOM     58  C   UNL A   1      43.591  27.945  31.776  1.00  0.00     0.049 A 
ATOM     59  H   UNL A   1      41.727  28.644  31.075  1.00  0.00     0.167 HD
ATOM     60  C   UNL A   1      42.762  29.397  33.609  1.00  0.00     0.074 A 
ATOM     61  C   UNL A   1      42.887  30.019  34.911  1.00  0.00     0.031 C 
ATOM     62  C   UNL A   1      43.700  28.580  33.066  1.00  0.00     0.034 A 
BRANCH  49  63
ATOM     63  C   UNL A   1      42.222  26.449  27.430  1.00  0.00     0.023 A 
ATOM     64  C   UNL A   1      41.851  25.095  27.365  1.00  0.00     0.031 A 
ATOM     65  C   UNL A   1      42.984  26.974  26.373  1.00  0.00     0.131 A 
ATOM     66  C   UNL A   1      42.312  24.292  26.310  1.00  0.00     0.055 A 
ATOM     67  C   UNL A   1      43.369  26.190  25.283  1.00  0.00     0.041 A 
ATOM     68  F   UNL A   1      43.385  28.255  26.388  1.00  0.00    -0.206 F 
ATOM     69  C   UNL A   1      43.048  24.836  25.256  1.00  0.00     0.022 A 
BRANCH  66  70
ATOM     70  S   UNL A   1      42.064  22.498  26.419  1.00  0.00     0.124 S 
ATOM     71  O   UNL A   1      42.627  22.204  27.735  1.00  0.00    -0.237 OA
ATOM     72  O   UNL A   1      40.617  22.372  26.299  1.00  0.00    -0.237 OA
ATOM     73  O   UNL A   1      42.833  21.978  25.289  1.00  0.00    -0.744 OA
ENDBRANCH  66  70
ENDBRANCH  49  63
BRANCH  50  74
ATOM     74  C   UNL A   1      39.257  32.158  35.112  1.00  0.00     0.023 A 
ATOM     75  C   UNL A   1      39.720  33.469  35.303  1.00  0.00     0.031 A 
ATOM     76  C   UNL A   1      38.401  31.611  36.084  1.00  0.00     0.131 A 
ATOM     77  C   UNL A   1      39.366  34.174  36.464  1.00  0.00     0.055 A 
ATOM     78  C   UNL A   1      38.011  32.334  37.213  1.00  0.00     0.041 A 
ATOM     79  F   UNL A   1      37.925  30.363  35.945  1.00  0.00    -0.206 F 
ATOM     80  C   UNL A   1      38.506  33.618  37.416  1.00  0.00     0.022 A 
BRANCH  77  81
ATOM     81  S   UNL A   1      40.121  35.797  36.757  1.00  0.00     0.124 S 
ATOM     82  O   UNL A   1      39.551  36.160  38.050  1.00  0.00    -0.237 OA
ATOM     83  O   UNL A   1      41.543  35.472  36.750  1.00  0.00    -0.237 OA
ATOM     84  O   UNL A   1      39.659  36.596  35.625  1.00  0.00    -0.744 OA
ENDBRANCH  77  81
ENDBRANCH  50  74
BRANCH  62  85
ATOM     85  C   UNL A   1      44.968  28.374  33.854  1.00  0.00     0.023 A 
ATOM     86  C   UNL A   1      45.108  27.317  34.768  1.00  0.00     0.031 A 
ATOM     87  C   UNL A   1      46.049  29.256  33.683  1.00  0.00     0.131 A 
ATOM     88  C   UNL A   1      46.292  27.193  35.513  1.00  0.00     0.055 A 
ATOM     89  C   UNL A   1      47.240  29.101  34.392  1.00  0.00     0.041 A 
ATOM     90  F   UNL A   1      45.964  30.281  32.821  1.00  0.00    -0.206 F 
ATOM     91  C   UNL A   1      47.363  28.070  35.320  1.00  0.00     0.022 A 
BRANCH  88  92
ATOM     92  S   UNL A   1      46.392  25.903  36.784  1.00  0.00     0.124 S 
ATOM     93  O   UNL A   1      46.861  24.755  36.015  1.00  0.00    -0.237 OA
ATOM     94  O   UNL A   1      47.349  26.469  37.729  1.00  0.00    -0.237 OA
ATOM     95  O   UNL A   1      45.021  25.801  37.279  1.00  0.00    -0.744 OA
ENDBRANCH  88  92
ENDBRANCH  62  85
ENDBRANCH  36  37
ENDBRANCH  28  31
ENDBRANCH  26  27
ENDBRANCH   1  26
TORSDOF 16
ENDMDL
MODEL 3
REMARK VINA RESULT:     -12.1      2.414      3.496
REMARK SMILES C[C@@H](CC(=O)NCCCNC(=O)c1ccc(-c2c3nc(c(-c4cc(S(=O)(=O)[O-])ccc4F)c4ccc([nH]4)c(-c4cc(S(=O)(=O)[O-])ccc4F)c4nc(c(-c5cc(S(=O)(=O)[O-])ccc5F)c5ccc2[nH]5)C=C4)C=C3)cc1)NC(=O)c1cc(=O)[nH]c2ccccc12
REMARK SMILES IDX 8 1 7 2 6 3 4 4 5 5 3 7 2 8 1 9 76 10 77 11 78 13 79 14
REMARK SMILES IDX 80 15 89 16 81 17 84 18 88 19 82 20 83 21 85 22 87 23 86 25
REMARK SMILES IDX 9 26 10 27 11 28 12 30 13 31 14 32 75 33 15 34 74 35 16 36
REMARK SMILES IDX 17 37 18 38 68 39 19 40 73 41 67 42 69 43 20 44 72 45 66 46
REMARK SMILES IDX 65 47 21 49 53 50 33 51 52 52 34 53 37 54 51 55 70 56 35 57
REMARK SMILES IDX 36 58 50 60 71 61 38 62 22 63 23 64 31 65 24 66 30 67 32 68
REMARK SMILES IDX 29 69 25 70 26 71 27 72 28 73 54 74 55 75 63 76 56 77 62 78
REMARK SMILES IDX 64 79 61 80 57 81 58 82 59 83 60 84 39 85 40 86 48 87 41 88
REMARK SMILES IDX 47 89 49 90 46 91 42 92 43 93 44 94 45 95
REMARK H PARENT 6 6 76 12 83 24 10 29 69 48 37 59
REMARK Flexibility Score: inf
ROOT
ATOM      1  C   UNL A   1      31.416  32.027  26.669  1.00  0.00     0.042 C 
ENDROOT
BRANCH   1   2
ATOM      2  C   UNL A   1      31.595  30.668  25.991  1.00  0.00     0.117 C 
BRANCH   2   3
ATOM      3  N   UNL A   1      32.789  29.998  26.480  1.00  0.00    -0.356 N 
ATOM      4  C   UNL A   1      33.556  29.034  25.906  1.00  0.00     0.222 C 
ATOM      5  O   UNL A   1      34.416  28.484  26.599  1.00  0.00    -0.275 OA
ATOM      6  H   UNL A   1      33.091  30.289  27.371  1.00  0.00     0.163 HD
BRANCH   4   7
ATOM      7  C   UNL A   1      33.374  28.635  24.456  1.00  0.00     0.124 C 
BRANCH   7   8
ATOM      8  C   UNL A   1      32.700  27.271  24.248  1.00  0.00     0.088 C 
ATOM      9  C   UNL A   1      31.446  27.114  25.110  1.00  0.00     0.031 C 
BRANCH   8  10
ATOM     10  N   UNL A   1      33.603  26.153  24.482  1.00  0.00    -0.349 N 
ATOM     11  C   UNL A   1      33.987  25.297  23.474  1.00  0.00     0.252 C 
ATOM     12  H   UNL A   1      33.951  26.005  25.391  1.00  0.00     0.164 HD
ATOM     13  O   UNL A   1      33.906  25.582  22.284  1.00  0.00    -0.269 OA
BRANCH  11  14
ATOM     14  C   UNL A   1      34.515  23.980  23.945  1.00  0.00     0.054 A 
ATOM     15  C   UNL A   1      35.656  24.033  24.652  1.00  0.00     0.086 A 
ATOM     16  C   UNL A   1      33.840  22.681  23.752  1.00  0.00     0.011 A 
ATOM     17  C   UNL A   1      36.182  22.838  25.342  1.00  0.00     0.249 A 
ATOM     18  C   UNL A   1      34.222  21.612  24.572  1.00  0.00     0.049 A 
ATOM     19  C   UNL A   1      32.848  22.453  22.789  1.00  0.00     0.011 A 
ATOM     20  O   UNL A   1      37.257  22.872  25.934  1.00  0.00    -0.270 OA
ATOM     21  N   UNL A   1      35.382  21.728  25.347  1.00  0.00    -0.322 N 
ATOM     22  C   UNL A   1      33.508  20.413  24.567  1.00  0.00     0.027 A 
ATOM     23  C   UNL A   1      32.143  21.248  22.762  1.00  0.00     0.001 A 
ATOM     24  H   UNL A   1      35.635  20.973  25.924  1.00  0.00     0.170 HD
ATOM     25  C   UNL A   1      32.447  20.246  23.678  1.00  0.00     0.002 A 
ENDBRANCH  11  14
ENDBRANCH   8  10
ENDBRANCH   7   8
ENDBRANCH   4   7
ENDBRANCH   2   3
ENDBRANCH   1   2
BRANCH   1  26
ATOM     26  C   UNL A   1      32.713  32.607  27.223  1.00  0.00     0.118 C 
BRANCH  26  27
ATOM     27  N   UNL A   1      32.559  34.000  27.615  1.00  0.00    -0.352 N 
ATOM     28  C   UNL A   1      33.170  34.700  28.629  1.00  0.00     0.251 C 
ATOM     29  H   UNL A   1      31.923  34.520  27.072  1.00  0.00     0.163 HD
ATOM     30  O   UNL A   1      32.716  35.795  28.953  1.00  0.00    -0.269 OA
BRANCH  28  31
ATOM     31  C   UNL A   1      34.345  34.141  29.339  1.00  0.00     0.039 A 
ATOM     32  C   UNL A   1      34.141  33.360  30.481  1.00  0.00     0.014 A 
ATOM     33  C   UNL A   1      35.646  34.424  28.917  1.00  0.00     0.014 A 
ATOM     34  C   UNL A   1      35.236  32.820  31.165  1.00  0.00     0.010 A 
ATOM     35  C   UNL A   1      36.733  33.828  29.556  1.00  0.00     0.010 A 
ATOM     36  C   UNL A   1      36.542  33.027  30.693  1.00  0.00    -0.014 A 
BRANCH  36  37
ATOM     37  C   UNL A   1      37.728  32.463  31.392  1.00  0.00     0.031 A 
ATOM     38  C   UNL A   1      38.480  31.315  30.770  1.00  0.00     0.074 A 
ATOM     39  C   UNL A   1      38.087  32.926  32.605  1.00  0.00     0.049 A 
ATOM     40  N   UNL A   1      39.430  30.571  31.275  1.00  0.00    -0.248 NA
ATOM     41  C   UNL A   1      38.081  30.937  29.406  1.00  0.00     0.031 C 
ATOM     42  C   UNL A   1      37.435  34.025  33.320  1.00  0.00     0.029 A 
ATOM     43  N   UNL A   1      39.081  32.518  33.460  1.00  0.00    -0.354 N 
ATOM     44  C   UNL A   1      39.729  29.624  30.301  1.00  0.00     0.074 A 
ATOM     45  C   UNL A   1      38.817  29.856  29.200  1.00  0.00     0.031 C 
ATOM     46  C   UNL A   1      38.053  34.209  34.498  1.00  0.00     0.029 A 
ATOM     47  C   UNL A   1      39.110  33.214  34.647  1.00  0.00     0.049 A 
ATOM     48  H   UNL A   1      39.713  31.795  33.244  1.00  0.00     0.167 HD
ATOM     49  C   UNL A   1      40.686  28.662  30.315  1.00  0.00     0.034 A 
ATOM     50  C   UNL A   1      39.887  33.054  35.738  1.00  0.00     0.034 A 
ATOM     51  C   UNL A   1      41.601  28.455  31.409  1.00  0.00     0.049 A 
ATOM     52  C   UNL A   1      40.926  31.961  35.742  1.00  0.00     0.074 A 
ATOM     53  C   UNL A   1      42.623  27.527  31.520  1.00  0.00     0.029 A 
ATOM     54  N   UNL A   1      41.610  29.194  32.585  1.00  0.00    -0.354 N 
ATOM     55  N   UNL A   1      41.196  31.075  34.812  1.00  0.00    -0.248 NA
ATOM     56  C   UNL A   1      41.769  31.852  36.940  1.00  0.00     0.031 C 
ATOM     57  C   UNL A   1      43.218  27.674  32.778  1.00  0.00     0.029 A 
ATOM     58  C   UNL A   1      42.608  28.734  33.430  1.00  0.00     0.049 A 
ATOM     59  H   UNL A   1      40.996  29.937  32.789  1.00  0.00     0.167 HD
ATOM     60  C   UNL A   1      42.265  30.328  35.300  1.00  0.00     0.074 A 
ATOM     61  C   UNL A   1      42.592  30.868  36.603  1.00  0.00     0.031 C 
ATOM     62  C   UNL A   1      42.923  29.291  34.722  1.00  0.00     0.034 A 
BRANCH  49  63
ATOM     63  C   UNL A   1      40.766  27.753  29.112  1.00  0.00     0.023 A 
ATOM     64  C   UNL A   1      41.714  27.962  28.096  1.00  0.00     0.031 A 
ATOM     65  C   UNL A   1      39.859  26.690  28.957  1.00  0.00     0.131 A 
ATOM     66  C   UNL A   1      41.680  27.177  26.934  1.00  0.00     0.055 A 
ATOM     67  C   UNL A   1      39.885  25.858  27.836  1.00  0.00     0.041 A 
ATOM     68  F   UNL A   1      38.918  26.453  29.885  1.00  0.00    -0.206 F 
ATOM     69  C   UNL A   1      40.788  26.110  26.807  1.00  0.00     0.022 A 
BRANCH  66  70
ATOM     70  S   UNL A   1      42.717  27.669  25.529  1.00  0.00     0.124 S 
ATOM     71  O   UNL A   1      42.639  26.484  24.678  1.00  0.00    -0.237 OA
ATOM     72  O   UNL A   1      42.035  28.858  25.034  1.00  0.00    -0.237 OA
ATOM     73  O   UNL A   1      44.026  27.906  26.136  1.00  0.00    -0.744 OA
ENDBRANCH  66  70
ENDBRANCH  49  63
BRANCH  50  74
ATOM     74  C   UNL A   1      39.710  33.932  36.929  1.00  0.00     0.023 A 
ATOM     75  C   UNL A   1      39.111  33.441  38.100  1.00  0.00     0.031 A 
ATOM     76  C   UNL A   1      40.086  35.286  36.897  1.00  0.00     0.131 A 
ATOM     77  C   UNL A   1      38.860  34.309  39.174  1.00  0.00     0.055 A 
ATOM     78  C   UNL A   1      39.879  36.134  37.987  1.00  0.00     0.041 A 
ATOM     79  F   UNL A   1      40.667  35.803  35.802  1.00  0.00    -0.206 F 
ATOM     80  C   UNL A   1      39.249  35.650  39.129  1.00  0.00     0.022 A 
BRANCH  77  81
ATOM     81  S   UNL A   1      37.933  33.678  40.599  1.00  0.00     0.124 S 
ATOM     82  O   UNL A   1      38.902  32.773  41.208  1.00  0.00    -0.237 OA
ATOM     83  O   UNL A   1      37.647  34.904  41.338  1.00  0.00    -0.237 OA
ATOM     84  O   UNL A   1      36.772  33.033  39.992  1.00  0.00    -0.744 OA
ENDBRANCH  77  81
ENDBRANCH  50  74
BRANCH  62  85
ATOM     85  C   UNL A   1      44.102  28.726  35.470  1.00  0.00     0.023 A 
ATOM     86  C   UNL A   1      43.959  27.684  36.401  1.00  0.00     0.031 A 
ATOM     87  C   UNL A   1      45.389  29.247  35.246  1.00  0.00     0.131 A 
ATOM     88  C   UNL A   1      45.080  27.221  37.107  1.00  0.00     0.055 A 
ATOM     89  C   UNL A   1      46.507  28.753  35.917  1.00  0.00     0.041 A 
ATOM     90  F   UNL A   1      45.578  30.244  34.367  1.00  0.00    -0.206 F 
ATOM     91  C   UNL A   1      46.355  27.740  36.861  1.00  0.00     0.022 A 
BRANCH  88  92
ATOM     92  S   UNL A   1      44.844  25.972  38.399  1.00  0.00     0.124 S 
ATOM     93  O   UNL A   1      43.964  25.013  37.738  1.00  0.00    -0.237 OA
ATOM     94  O   UNL A   1      46.208  25.516  38.648  1.00  0.00    -0.237 OA
ATOM     95  O   UNL A   1      44.233  26.722  39.495  1.00  0.00    -0.744 OA
ENDBRANCH  88  92
ENDBRANCH  62  85
ENDBRANCH  36  37
ENDBRANCH  28  31
ENDBRANCH  26  27
ENDBRANCH   1  26
TORSDOF 16
ENDMDL
