MODEL 1
REMARK VINA RESULT:     -11.6      0.000      0.000
REMARK SMILES COC[C@H]1CCN(C(=O)N2CC[C@H](C(=O)NCCCNC(=O)c3ccc(-c4c5nc(c(-c6cc(S(=O)(=O)[O-])ccc6F)c6ccc([nH]6)c(-c6cc(S(=O)(=O)[O-])ccc6F)c6nc(c(-c7cc(S(=O)(=O)[O-])ccc7F)c7ccc4[nH]7)C=C6)C=C5)cc3)[C@@H]2C)C1
REMARK SMILES IDX 17 1 16 2 14 3 15 4 13 6 10 7 11 8 86 9 12 10 87 11 8 12
REMARK SMILES IDX 9 13 7 14 4 15 5 16 88 17 6 18 3 19 2 20 1 21 18 22 19 23
REMARK SMILES IDX 20 24 21 25 22 27 23 28 24 29 85 30 25 31 84 32 26 33 27 34
REMARK SMILES IDX 28 35 78 36 29 37 83 38 77 39 79 40 30 41 82 42 76 43 75 44
REMARK SMILES IDX 31 46 63 47 43 48 62 49 44 50 47 51 61 52 80 53 45 54 46 55
REMARK SMILES IDX 60 57 81 58 48 59 32 60 33 61 41 62 34 63 40 64 42 65 39 66
REMARK SMILES IDX 35 67 36 68 37 69 38 70 64 71 65 72 73 73 66 74 72 75 74 76
REMARK SMILES IDX 71 77 67 78 68 79 69 80 70 81 49 82 50 83 58 84 51 85 57 86
REMARK SMILES IDX 59 87 56 88 52 89 53 90 54 91 55 92
REMARK H PARENT 16 5 20 26 79 45 47 56
REMARK Flexibility Score: inf
ROOT
ATOM      1  C   UNL A   1      34.777  22.688  26.685  1.00  0.00     0.117 C 
ENDROOT
BRANCH   1   2
ATOM      2  N   UNL A   1      33.357  22.876  26.463  1.00  0.00    -0.356 N 
ATOM      3  C   UNL A   1      32.676  23.220  25.339  1.00  0.00     0.225 C 
ATOM      4  O   UNL A   1      31.442  23.207  25.403  1.00  0.00    -0.275 OA
ATOM      5  H   UNL A   1      32.793  22.732  27.258  1.00  0.00     0.163 HD
BRANCH   3   6
ATOM      6  C   UNL A   1      33.357  23.640  24.042  1.00  0.00     0.102 C 
ATOM      7  N   UNL A   1      32.924  25.586  22.788  1.00  0.00    -0.321 N 
ATOM      8  C   UNL A   1      32.722  24.480  21.871  1.00  0.00     0.122 C 
ATOM      9  C   UNL A   1      33.772  25.123  23.884  1.00  0.00     0.096 C 
ATOM     10  C   UNL A   1      32.520  23.295  22.794  1.00  0.00     0.037 C 
ATOM     11  C   UNL A   1      33.756  25.987  25.142  1.00  0.00     0.032 C 
BRANCH   7  12
ATOM     12  C   UNL A   1      32.803  26.899  22.415  1.00  0.00     0.320 C 
ATOM     13  O   UNL A   1      33.704  27.490  21.822  1.00  0.00    -0.248 OA
BRANCH  12  14
ATOM     14  N   UNL A   1      31.651  27.539  22.812  1.00  0.00    -0.324 N 
ATOM     15  C   UNL A   1      30.172  29.327  23.343  1.00  0.00     0.036 C 
ATOM     16  C   UNL A   1      29.412  27.997  23.259  1.00  0.00     0.029 C 
ATOM     17  C   UNL A   1      31.612  28.985  22.928  1.00  0.00     0.127 C 
ATOM     18  C   UNL A   1      30.500  26.971  23.491  1.00  0.00     0.122 C 
BRANCH  15  19
ATOM     19  C   UNL A   1      29.530  30.464  22.546  1.00  0.00     0.165 C 
BRANCH  19  20
ATOM     20  O   UNL A   1      29.049  30.104  21.253  1.00  0.00    -0.384 OA
ATOM     21  C   UNL A   1      28.024  30.940  20.743  1.00  0.00     0.194 C 
ENDBRANCH  19  20
ENDBRANCH  15  19
ENDBRANCH  12  14
ENDBRANCH   7  12
ENDBRANCH   3   6
ENDBRANCH   1   2
BRANCH   1  22
ATOM     22  C   UNL A   1      35.326  21.428  26.043  1.00  0.00     0.042 C 
BRANCH  22  23
ATOM     23  C   UNL A   1      36.610  21.660  25.263  1.00  0.00     0.118 C 
BRANCH  23  24
ATOM     24  N   UNL A   1      37.592  20.601  25.473  1.00  0.00    -0.352 N 
ATOM     25  C   UNL A   1      38.913  20.672  25.843  1.00  0.00     0.251 C 
ATOM     26  H   UNL A   1      37.252  19.689  25.325  1.00  0.00     0.163 HD
ATOM     27  O   UNL A   1      39.618  19.670  25.747  1.00  0.00    -0.269 OA
BRANCH  25  28
ATOM     28  C   UNL A   1      39.485  21.946  26.322  1.00  0.00     0.039 A 
ATOM     29  C   UNL A   1      40.587  21.920  27.182  1.00  0.00     0.014 A 
ATOM     30  C   UNL A   1      38.941  23.169  25.926  1.00  0.00     0.014 A 
ATOM     31  C   UNL A   1      41.187  23.119  27.571  1.00  0.00     0.010 A 
ATOM     32  C   UNL A   1      39.606  24.352  26.220  1.00  0.00     0.010 A 
ATOM     33  C   UNL A   1      40.732  24.343  27.054  1.00  0.00    -0.014 A 
BRANCH  33  34
ATOM     34  C   UNL A   1      41.407  25.626  27.382  1.00  0.00     0.031 A 
ATOM     35  C   UNL A   1      40.675  26.678  28.173  1.00  0.00     0.074 A 
ATOM     36  C   UNL A   1      42.646  25.869  26.909  1.00  0.00     0.049 A 
ATOM     37  N   UNL A   1      41.052  27.891  28.485  1.00  0.00    -0.248 NA
ATOM     38  C   UNL A   1      39.325  26.332  28.645  1.00  0.00     0.031 C 
ATOM     39  C   UNL A   1      43.436  24.944  26.092  1.00  0.00     0.029 A 
ATOM     40  N   UNL A   1      43.459  26.967  27.040  1.00  0.00    -0.354 N 
ATOM     41  C   UNL A   1      39.984  28.456  29.173  1.00  0.00     0.074 A 
ATOM     42  C   UNL A   1      38.917  27.478  29.167  1.00  0.00     0.031 C 
ATOM     43  C   UNL A   1      44.629  25.498  25.828  1.00  0.00     0.029 A 
ATOM     44  C   UNL A   1      44.672  26.838  26.404  1.00  0.00     0.049 A 
ATOM     45  H   UNL A   1      43.198  27.773  27.543  1.00  0.00     0.167 HD
ATOM     46  C   UNL A   1      39.909  29.666  29.780  1.00  0.00     0.034 A 
ATOM     47  C   UNL A   1      45.697  27.705  26.287  1.00  0.00     0.034 A 
ATOM     48  C   UNL A   1      40.989  30.621  29.789  1.00  0.00     0.049 A 
ATOM     49  C   UNL A   1      45.579  29.057  26.946  1.00  0.00     0.074 A 
ATOM     50  C   UNL A   1      41.044  31.853  30.417  1.00  0.00     0.029 A 
ATOM     51  N   UNL A   1      42.203  30.455  29.133  1.00  0.00    -0.354 N 
ATOM     52  N   UNL A   1      44.581  29.553  27.640  1.00  0.00    -0.248 NA
ATOM     53  C   UNL A   1      46.732  29.958  26.818  1.00  0.00     0.031 C 
ATOM     54  C   UNL A   1      42.257  32.463  30.078  1.00  0.00     0.029 A 
ATOM     55  C   UNL A   1      42.998  31.577  29.313  1.00  0.00     0.049 A 
ATOM     56  H   UNL A   1      42.461  29.659  28.616  1.00  0.00     0.167 HD
ATOM     57  C   UNL A   1      45.001  30.814  28.059  1.00  0.00     0.074 A 
ATOM     58  C   UNL A   1      46.347  30.990  27.555  1.00  0.00     0.031 C 
ATOM     59  C   UNL A   1      44.337  31.740  28.796  1.00  0.00     0.034 A 
BRANCH  46  60
ATOM     60  C   UNL A   1      38.609  30.025  30.462  1.00  0.00     0.023 A 
ATOM     61  C   UNL A   1      37.602  30.750  29.800  1.00  0.00     0.031 A 
ATOM     62  C   UNL A   1      38.381  29.660  31.801  1.00  0.00     0.131 A 
ATOM     63  C   UNL A   1      36.454  31.154  30.496  1.00  0.00     0.055 A 
ATOM     64  C   UNL A   1      37.195  29.989  32.463  1.00  0.00     0.041 A 
ATOM     65  F   UNL A   1      39.312  28.988  32.494  1.00  0.00    -0.206 F 
ATOM     66  C   UNL A   1      36.231  30.754  31.816  1.00  0.00     0.022 A 
BRANCH  63  67
ATOM     67  S   UNL A   1      35.330  32.336  29.703  1.00  0.00     0.124 S 
ATOM     68  O   UNL A   1      34.435  32.678  30.807  1.00  0.00    -0.237 OA
ATOM     69  O   UNL A   1      36.238  33.391  29.267  1.00  0.00    -0.237 OA
ATOM     70  O   UNL A   1      34.714  31.558  28.630  1.00  0.00    -0.744 OA
ENDBRANCH  63  67
ENDBRANCH  46  60
BRANCH  47  71
ATOM     71  C   UNL A   1      46.919  27.338  25.511  1.00  0.00     0.023 A 
ATOM     72  C   UNL A   1      47.093  27.776  24.188  1.00  0.00     0.031 A 
ATOM     73  C   UNL A   1      47.907  26.503  26.063  1.00  0.00     0.131 A 
ATOM     74  C   UNL A   1      48.197  27.333  23.444  1.00  0.00     0.055 A 
ATOM     75  C   UNL A   1      49.036  26.117  25.339  1.00  0.00     0.041 A 
ATOM     76  F   UNL A   1      47.794  26.059  27.325  1.00  0.00    -0.206 F 
ATOM     77  C   UNL A   1      49.178  26.519  24.014  1.00  0.00     0.022 A 
BRANCH  74  78
ATOM     78  S   UNL A   1      48.280  27.756  21.682  1.00  0.00     0.124 S 
ATOM     79  O   UNL A   1      48.577  26.461  21.081  1.00  0.00    -0.237 OA
ATOM     80  O   UNL A   1      46.944  28.288  21.435  1.00  0.00    -0.237 OA
ATOM     81  O   UNL A   1      49.360  28.738  21.619  1.00  0.00    -0.744 OA
ENDBRANCH  74  78
ENDBRANCH  47  71
BRANCH  59  82
ATOM     82  C   UNL A   1      45.084  33.006  29.143  1.00  0.00     0.023 A 
ATOM     83  C   UNL A   1      45.033  34.146  28.322  1.00  0.00     0.031 A 
ATOM     84  C   UNL A   1      45.867  33.067  30.310  1.00  0.00     0.131 A 
ATOM     85  C   UNL A   1      45.801  35.275  28.646  1.00  0.00     0.055 A 
ATOM     86  C   UNL A   1      46.573  34.217  30.663  1.00  0.00     0.041 A 
ATOM     87  F   UNL A   1      45.956  32.006  31.130  1.00  0.00    -0.206 F 
ATOM     88  C   UNL A   1      46.554  35.325  29.822  1.00  0.00     0.022 A 
BRANCH  85  89
ATOM     89  S   UNL A   1      45.885  36.641  27.455  1.00  0.00     0.124 S 
ATOM     90  O   UNL A   1      44.780  37.489  27.890  1.00  0.00    -0.237 OA
ATOM     91  O   UNL A   1      47.224  37.172  27.684  1.00  0.00    -0.237 OA
ATOM     92  O   UNL A   1      45.691  35.982  26.165  1.00  0.00    -0.744 OA
ENDBRANCH  85  89
ENDBRANCH  59  82
ENDBRANCH  33  34
ENDBRANCH  25  28
ENDBRANCH  23  24
ENDBRANCH  22  23
ENDBRANCH   1  22
TORSDOF 17
ENDMDL
MODEL 2
REMARK VINA RESULT:     -11.5      5.690     10.946
REMARK SMILES COC[C@H]1CCN(C(=O)N2CC[C@H](C(=O)NCCCNC(=O)c3ccc(-c4c5nc(c(-c6cc(S(=O)(=O)[O-])ccc6F)c6ccc([nH]6)c(-c6cc(S(=O)(=O)[O-])ccc6F)c6nc(c(-c7cc(S(=O)(=O)[O-])ccc7F)c7ccc4[nH]7)C=C6)C=C5)cc3)[C@@H]2C)C1
REMARK SMILES IDX 17 1 16 2 14 3 15 4 13 6 10 7 11 8 86 9 12 10 87 11 8 12
REMARK SMILES IDX 9 13 7 14 4 15 5 16 88 17 6 18 3 19 2 20 1 21 18 22 19 23
REMARK SMILES IDX 20 24 21 25 22 27 23 28 24 29 85 30 25 31 84 32 26 33 27 34
REMARK SMILES IDX 28 35 78 36 29 37 83 38 77 39 79 40 30 41 82 42 76 43 75 44
REMARK SMILES IDX 31 46 63 47 43 48 62 49 44 50 47 51 61 52 80 53 45 54 46 55
REMARK SMILES IDX 60 57 81 58 48 59 32 60 33 61 41 62 34 63 40 64 42 65 39 66
REMARK SMILES IDX 35 67 36 68 37 69 38 70 64 71 65 72 73 73 66 74 72 75 74 76
REMARK SMILES IDX 71 77 67 78 68 79 69 80 70 81 49 82 50 83 58 84 51 85 57 86
REMARK SMILES IDX 59 87 56 88 52 89 53 90 54 91 55 92
REMARK H PARENT 16 5 20 26 79 45 47 56
REMARK Flexibility Score: inf
ROOT
ATOM      1  C   UNL A   1      31.441  30.520  26.012  1.00  0.00     0.117 C 
ENDROOT
BRANCH   1   2
ATOM      2  N   UNL A   1      31.018  30.365  24.635  1.00  0.00    -0.356 N 
ATOM      3  C   UNL A   1      30.809  29.245  23.895  1.00  0.00     0.225 C 
ATOM      4  O   UNL A   1      30.342  29.400  22.761  1.00  0.00    -0.275 OA
ATOM      5  H   UNL A   1      30.856  31.211  24.156  1.00  0.00     0.163 HD
BRANCH   3   6
ATOM      6  C   UNL A   1      31.148  27.843  24.384  1.00  0.00     0.102 C 
ATOM      7  N   UNL A   1      32.274  26.162  23.177  1.00  0.00    -0.321 N 
ATOM      8  C   UNL A   1      31.007  25.575  23.570  1.00  0.00     0.122 C 
ATOM      9  C   UNL A   1      32.556  27.282  24.071  1.00  0.00     0.096 C 
ATOM     10  C   UNL A   1      30.145  26.782  23.884  1.00  0.00     0.037 C 
ATOM     11  C   UNL A   1      33.605  28.274  23.575  1.00  0.00     0.032 C 
BRANCH   7  12
ATOM     12  C   UNL A   1      33.235  25.473  22.484  1.00  0.00     0.320 C 
ATOM     13  O   UNL A   1      33.790  25.951  21.496  1.00  0.00    -0.248 OA
BRANCH  12  14
ATOM     14  N   UNL A   1      33.486  24.188  22.909  1.00  0.00    -0.324 N 
ATOM     15  C   UNL A   1      34.636  22.368  23.924  1.00  0.00     0.036 C 
ATOM     16  C   UNL A   1      33.188  21.983  23.596  1.00  0.00     0.029 C 
ATOM     17  C   UNL A   1      34.740  23.857  23.559  1.00  0.00     0.127 C 
ATOM     18  C   UNL A   1      32.816  22.964  22.505  1.00  0.00     0.122 C 
BRANCH  15  19
ATOM     19  C   UNL A   1      35.063  22.029  25.353  1.00  0.00     0.165 C 
BRANCH  19  20
ATOM     20  O   UNL A   1      34.024  22.080  26.327  1.00  0.00    -0.384 OA
ATOM     21  C   UNL A   1      34.049  23.219  27.170  1.00  0.00     0.194 C 
ENDBRANCH  19  20
ENDBRANCH  15  19
ENDBRANCH  12  14
ENDBRANCH   7  12
ENDBRANCH   3   6
ENDBRANCH   1   2
BRANCH   1  22
ATOM     22  C   UNL A   1      31.361  31.949  26.511  1.00  0.00     0.042 C 
BRANCH  22  23
ATOM     23  C   UNL A   1      32.697  32.499  26.983  1.00  0.00     0.118 C 
BRANCH  23  24
ATOM     24  N   UNL A   1      32.580  33.830  27.570  1.00  0.00    -0.352 N 
ATOM     25  C   UNL A   1      33.251  34.401  28.624  1.00  0.00     0.251 C 
ATOM     26  H   UNL A   1      31.911  34.412  27.142  1.00  0.00     0.163 HD
ATOM     27  O   UNL A   1      32.841  35.460  29.094  1.00  0.00    -0.269 OA
BRANCH  25  28
ATOM     28  C   UNL A   1      34.435  33.734  29.203  1.00  0.00     0.039 A 
ATOM     29  C   UNL A   1      35.711  34.200  28.874  1.00  0.00     0.014 A 
ATOM     30  C   UNL A   1      34.291  32.651  30.072  1.00  0.00     0.014 A 
ATOM     31  C   UNL A   1      36.831  33.631  29.483  1.00  0.00     0.010 A 
ATOM     32  C   UNL A   1      35.394  32.164  30.761  1.00  0.00     0.010 A 
ATOM     33  C   UNL A   1      36.679  32.642  30.469  1.00  0.00    -0.014 A 
BRANCH  33  34
ATOM     34  C   UNL A   1      37.848  32.082  31.196  1.00  0.00     0.031 A 
ATOM     35  C   UNL A   1      38.650  30.965  30.580  1.00  0.00     0.074 A 
ATOM     36  C   UNL A   1      38.142  32.528  32.434  1.00  0.00     0.049 A 
ATOM     37  N   UNL A   1      39.644  30.283  31.087  1.00  0.00    -0.248 NA
ATOM     38  C   UNL A   1      38.257  30.535  29.229  1.00  0.00     0.031 C 
ATOM     39  C   UNL A   1      37.408  33.574  33.152  1.00  0.00     0.029 A 
ATOM     40  N   UNL A   1      39.130  32.159  33.312  1.00  0.00    -0.354 N 
ATOM     41  C   UNL A   1      39.984  29.336  30.127  1.00  0.00     0.074 A 
ATOM     42  C   UNL A   1      39.041  29.485  29.040  1.00  0.00     0.031 C 
ATOM     43  C   UNL A   1      37.992  33.785  34.341  1.00  0.00     0.029 A 
ATOM     44  C   UNL A   1      39.106  32.855  34.498  1.00  0.00     0.049 A 
ATOM     45  H   UNL A   1      39.794  31.461  33.111  1.00  0.00     0.167 HD
ATOM     46  C   UNL A   1      41.006  28.446  30.137  1.00  0.00     0.034 A 
ATOM     47  C   UNL A   1      39.884  32.748  35.593  1.00  0.00     0.034 A 
ATOM     48  C   UNL A   1      41.947  28.324  31.222  1.00  0.00     0.049 A 
ATOM     49  C   UNL A   1      40.997  31.730  35.592  1.00  0.00     0.074 A 
ATOM     50  C   UNL A   1      43.051  27.496  31.317  1.00  0.00     0.029 A 
ATOM     51  N   UNL A   1      41.890  29.046  32.409  1.00  0.00    -0.354 N 
ATOM     52  N   UNL A   1      41.337  30.879  34.652  1.00  0.00    -0.248 NA
ATOM     53  C   UNL A   1      41.838  31.668  36.795  1.00  0.00     0.031 C 
ATOM     54  C   UNL A   1      43.616  27.661  32.586  1.00  0.00     0.029 A 
ATOM     55  C   UNL A   1      42.919  28.657  33.253  1.00  0.00     0.049 A 
ATOM     56  H   UNL A   1      41.217  29.733  32.620  1.00  0.00     0.167 HD
ATOM     57  C   UNL A   1      42.455  30.204  35.139  1.00  0.00     0.074 A 
ATOM     58  C   UNL A   1      42.738  30.761  36.445  1.00  0.00     0.031 C 
ATOM     59  C   UNL A   1      43.183  29.217  34.557  1.00  0.00     0.034 A 
BRANCH  46  60
ATOM     60  C   UNL A   1      41.141  27.526  28.946  1.00  0.00     0.023 A 
ATOM     61  C   UNL A   1      42.129  27.724  27.965  1.00  0.00     0.031 A 
ATOM     62  C   UNL A   1      40.254  26.447  28.774  1.00  0.00     0.131 A 
ATOM     63  C   UNL A   1      42.158  26.911  26.822  1.00  0.00     0.055 A 
ATOM     64  C   UNL A   1      40.345  25.586  27.677  1.00  0.00     0.041 A 
ATOM     65  F   UNL A   1      39.275  26.218  29.662  1.00  0.00    -0.206 F 
ATOM     66  C   UNL A   1      41.291  25.826  26.685  1.00  0.00     0.022 A 
BRANCH  63  67
ATOM     67  S   UNL A   1      43.244  27.386  25.449  1.00  0.00     0.124 S 
ATOM     68  O   UNL A   1      44.269  28.166  26.140  1.00  0.00    -0.237 OA
ATOM     69  O   UNL A   1      43.670  26.095  24.923  1.00  0.00    -0.237 OA
ATOM     70  O   UNL A   1      42.369  28.161  24.572  1.00  0.00    -0.744 OA
ENDBRANCH  63  67
ENDBRANCH  46  60
BRANCH  47  71
ATOM     71  C   UNL A   1      39.641  33.612  36.787  1.00  0.00     0.023 A 
ATOM     72  C   UNL A   1      39.012  33.100  37.933  1.00  0.00     0.031 A 
ATOM     73  C   UNL A   1      39.987  34.975  36.780  1.00  0.00     0.131 A 
ATOM     74  C   UNL A   1      38.701  33.955  39.001  1.00  0.00     0.055 A 
ATOM     75  C   UNL A   1      39.731  35.807  37.871  1.00  0.00     0.041 A 
ATOM     76  F   UNL A   1      40.594  35.517  35.712  1.00  0.00    -0.206 F 
ATOM     77  C   UNL A   1      39.069  35.301  38.985  1.00  0.00     0.022 A 
BRANCH  74  78
ATOM     78  S   UNL A   1      37.711  33.301  40.374  1.00  0.00     0.124 S 
ATOM     79  O   UNL A   1      37.528  34.489  41.199  1.00  0.00    -0.237 OA
ATOM     80  O   UNL A   1      36.524  32.808  39.683  1.00  0.00    -0.237 OA
ATOM     81  O   UNL A   1      38.569  32.266  40.948  1.00  0.00    -0.744 OA
ENDBRANCH  74  78
ENDBRANCH  47  71
BRANCH  59  82
ATOM     82  C   UNL A   1      44.389  28.716  35.316  1.00  0.00     0.023 A 
ATOM     83  C   UNL A   1      44.296  27.667  36.248  1.00  0.00     0.031 A 
ATOM     84  C   UNL A   1      45.650  29.305  35.108  1.00  0.00     0.131 A 
ATOM     85  C   UNL A   1      45.429  27.283  36.983  1.00  0.00     0.055 A 
ATOM     86  C   UNL A   1      46.786  28.871  35.792  1.00  0.00     0.041 A 
ATOM     87  F   UNL A   1      45.797  30.313  34.233  1.00  0.00    -0.206 F 
ATOM     88  C   UNL A   1      46.676  27.865  36.745  1.00  0.00     0.022 A 
BRANCH  85  89
ATOM     89  S   UNL A   1      45.226  26.084  38.329  1.00  0.00     0.124 S 
ATOM     90  O   UNL A   1      44.814  24.886  37.606  1.00  0.00    -0.237 OA
ATOM     91  O   UNL A   1      46.562  26.046  38.916  1.00  0.00    -0.237 OA
ATOM     92  O   UNL A   1      44.195  26.686  39.171  1.00  0.00    -0.744 OA
ENDBRANCH  85  89
ENDBRANCH  59  82
ENDBRANCH  33  34
ENDBRANCH  25  28
ENDBRANCH  23  24
ENDBRANCH  22  23
ENDBRANCH   1  22
TORSDOF 17
ENDMDL
MODEL 3
REMARK VINA RESULT:     -11.5      1.326      7.726
REMARK SMILES COC[C@H]1CCN(C(=O)N2CC[C@H](C(=O)NCCCNC(=O)c3ccc(-c4c5nc(c(-c6cc(S(=O)(=O)[O-])ccc6F)c6ccc([nH]6)c(-c6cc(S(=O)(=O)[O-])ccc6F)c6nc(c(-c7cc(S(=O)(=O)[O-])ccc7F)c7ccc4[nH]7)C=C6)C=C5)cc3)[C@@H]2C)C1
REMARK SMILES IDX 17 1 16 2 14 3 15 4 13 6 10 7 11 8 86 9 12 10 87 11 8 12
REMARK SMILES IDX 9 13 7 14 4 15 5 16 88 17 6 18 3 19 2 20 1 21 18 22 19 23
REMARK SMILES IDX 20 24 21 25 22 27 23 28 24 29 85 30 25 31 84 32 26 33 27 34
REMARK SMILES IDX 28 35 78 36 29 37 83 38 77 39 79 40 30 41 82 42 76 43 75 44
REMARK SMILES IDX 31 46 63 47 43 48 62 49 44 50 47 51 61 52 80 53 45 54 46 55
REMARK SMILES IDX 60 57 81 58 48 59 32 60 33 61 41 62 34 63 40 64 42 65 39 66
REMARK SMILES IDX 35 67 36 68 37 69 38 70 64 71 65 72 73 73 66 74 72 75 74 76
REMARK SMILES IDX 71 77 67 78 68 79 69 80 70 81 49 82 50 83 58 84 51 85 57 86
REMARK SMILES IDX 59 87 56 88 52 89 53 90 54 91 55 92
REMARK H PARENT 16 5 20 26 79 45 47 56
REMARK Flexibility Score: inf
ROOT
ATOM      1  C   UNL A   1      35.186  21.186  25.761  1.00  0.00     0.117 C 
ENDROOT
BRANCH   1   2
ATOM      2  N   UNL A   1      34.151  20.202  25.516  1.00  0.00    -0.356 N 
ATOM      3  C   UNL A   1      32.809  20.350  25.360  1.00  0.00     0.225 C 
ATOM      4  O   UNL A   1      32.164  19.343  25.053  1.00  0.00    -0.275 OA
ATOM      5  H   UNL A   1      34.472  19.273  25.452  1.00  0.00     0.163 HD
BRANCH   3   6
ATOM      6  C   UNL A   1      32.082  21.672  25.576  1.00  0.00     0.102 C 
ATOM      7  N   UNL A   1      32.867  23.821  25.017  1.00  0.00    -0.321 N 
ATOM      8  C   UNL A   1      32.575  23.872  26.437  1.00  0.00     0.122 C 
ATOM      9  C   UNL A   1      32.112  22.715  24.433  1.00  0.00     0.096 C 
ATOM     10  C   UNL A   1      32.560  22.411  26.843  1.00  0.00     0.037 C 
ATOM     11  C   UNL A   1      32.593  22.236  23.067  1.00  0.00     0.032 C 
BRANCH   7  12
ATOM     12  C   UNL A   1      33.314  24.905  24.306  1.00  0.00     0.320 C 
ATOM     13  O   UNL A   1      34.411  24.908  23.752  1.00  0.00    -0.248 OA
BRANCH  12  14
ATOM     14  N   UNL A   1      32.499  26.014  24.315  1.00  0.00    -0.324 N 
ATOM     15  C   UNL A   1      30.824  27.546  23.598  1.00  0.00     0.036 C 
ATOM     16  C   UNL A   1      31.260  27.848  25.038  1.00  0.00     0.029 C 
ATOM     17  C   UNL A   1      31.583  26.266  23.217  1.00  0.00     0.127 C 
ATOM     18  C   UNL A   1      32.634  27.219  25.114  1.00  0.00     0.122 C 
BRANCH  15  19
ATOM     19  C   UNL A   1      29.308  27.471  23.408  1.00  0.00     0.165 C 
BRANCH  19  20
ATOM     20  O   UNL A   1      28.689  28.679  22.971  1.00  0.00    -0.384 OA
ATOM     21  C   UNL A   1      29.525  29.541  22.219  1.00  0.00     0.194 C 
ENDBRANCH  19  20
ENDBRANCH  15  19
ENDBRANCH  12  14
ENDBRANCH   7  12
ENDBRANCH   3   6
ENDBRANCH   1   2
BRANCH   1  22
ATOM     22  C   UNL A   1      35.897  21.641  24.501  1.00  0.00     0.042 C 
BRANCH  22  23
ATOM     23  C   UNL A   1      37.316  22.125  24.751  1.00  0.00     0.118 C 
BRANCH  23  24
ATOM     24  N   UNL A   1      38.148  21.112  25.392  1.00  0.00    -0.352 N 
ATOM     25  C   UNL A   1      39.279  21.244  26.160  1.00  0.00     0.251 C 
ATOM     26  H   UNL A   1      37.851  20.184  25.251  1.00  0.00     0.163 HD
ATOM     27  O   UNL A   1      39.951  20.248  26.418  1.00  0.00    -0.269 OA
BRANCH  25  28
ATOM     28  C   UNL A   1      39.699  22.575  26.645  1.00  0.00     0.039 A 
ATOM     29  C   UNL A   1      40.724  22.665  27.592  1.00  0.00     0.014 A 
ATOM     30  C   UNL A   1      39.088  23.736  26.168  1.00  0.00     0.014 A 
ATOM     31  C   UNL A   1      41.185  23.921  27.992  1.00  0.00     0.010 A 
ATOM     32  C   UNL A   1      39.623  24.979  26.479  1.00  0.00     0.010 A 
ATOM     33  C   UNL A   1      40.672  25.088  27.402  1.00  0.00    -0.014 A 
BRANCH  33  34
ATOM     34  C   UNL A   1      41.205  26.432  27.744  1.00  0.00     0.031 A 
ATOM     35  C   UNL A   1      42.630  26.783  27.402  1.00  0.00     0.074 A 
ATOM     36  C   UNL A   1      40.433  27.306  28.421  1.00  0.00     0.049 A 
ATOM     37  N   UNL A   1      43.309  27.863  27.693  1.00  0.00    -0.248 NA
ATOM     38  C   UNL A   1      43.404  25.770  26.668  1.00  0.00     0.031 C 
ATOM     39  C   UNL A   1      39.052  27.060  28.847  1.00  0.00     0.029 A 
ATOM     40  N   UNL A   1      40.696  28.573  28.876  1.00  0.00    -0.354 N 
ATOM     41  C   UNL A   1      44.590  27.652  27.193  1.00  0.00     0.074 A 
ATOM     42  C   UNL A   1      44.611  26.312  26.647  1.00  0.00     0.031 C 
ATOM     43  C   UNL A   1      38.581  28.152  29.467  1.00  0.00     0.029 A 
ATOM     44  C   UNL A   1      39.638  29.156  29.535  1.00  0.00     0.049 A 
ATOM     45  H   UNL A   1      41.561  29.024  28.743  1.00  0.00     0.167 HD
ATOM     46  C   UNL A   1      45.641  28.507  27.164  1.00  0.00     0.034 A 
ATOM     47  C   UNL A   1      39.536  30.357  30.138  1.00  0.00     0.034 A 
ATOM     48  C   UNL A   1      45.595  29.845  27.698  1.00  0.00     0.049 A 
ATOM     49  C   UNL A   1      40.729  31.281  30.118  1.00  0.00     0.074 A 
ATOM     50  C   UNL A   1      46.581  30.816  27.675  1.00  0.00     0.029 A 
ATOM     51  N   UNL A   1      44.506  30.401  28.360  1.00  0.00    -0.354 N 
ATOM     52  N   UNL A   1      41.916  31.085  29.592  1.00  0.00    -0.248 NA
ATOM     53  C   UNL A   1      40.563  32.591  30.761  1.00  0.00     0.031 C 
ATOM     54  C   UNL A   1      46.118  31.928  28.388  1.00  0.00     0.029 A 
ATOM     55  C   UNL A   1      44.810  31.687  28.779  1.00  0.00     0.049 A 
ATOM     56  H   UNL A   1      43.646  29.947  28.509  1.00  0.00     0.167 HD
ATOM     57  C   UNL A   1      42.626  32.263  29.812  1.00  0.00     0.074 A 
ATOM     58  C   UNL A   1      41.727  33.165  30.501  1.00  0.00     0.031 C 
ATOM     59  C   UNL A   1      43.904  32.572  29.473  1.00  0.00     0.034 A 
BRANCH  46  60
ATOM     60  C   UNL A   1      46.929  28.008  26.552  1.00  0.00     0.023 A 
ATOM     61  C   UNL A   1      47.189  28.125  25.176  1.00  0.00     0.031 A 
ATOM     62  C   UNL A   1      47.904  27.383  27.352  1.00  0.00     0.131 A 
ATOM     63  C   UNL A   1      48.350  27.558  24.629  1.00  0.00     0.055 A 
ATOM     64  C   UNL A   1      49.099  26.899  26.815  1.00  0.00     0.041 A 
ATOM     65  F   UNL A   1      47.705  27.220  28.669  1.00  0.00    -0.206 F 
ATOM     66  C   UNL A   1      49.321  26.971  25.443  1.00  0.00     0.022 A 
BRANCH  63  67
ATOM     67  S   UNL A   1      48.500  27.463  22.824  1.00  0.00     0.124 S 
ATOM     68  O   UNL A   1      49.791  28.112  22.602  1.00  0.00    -0.237 OA
ATOM     69  O   UNL A   1      48.458  26.027  22.578  1.00  0.00    -0.237 OA
ATOM     70  O   UNL A   1      47.344  28.215  22.342  1.00  0.00    -0.744 OA
ENDBRANCH  63  67
ENDBRANCH  46  60
BRANCH  47  71
ATOM     71  C   UNL A   1      38.270  30.760  30.820  1.00  0.00     0.023 A 
ATOM     72  C   UNL A   1      37.260  31.442  30.123  1.00  0.00     0.031 A 
ATOM     73  C   UNL A   1      38.073  30.515  32.190  1.00  0.00     0.131 A 
ATOM     74  C   UNL A   1      36.125  31.902  30.808  1.00  0.00     0.055 A 
ATOM     75  C   UNL A   1      36.913  30.920  32.854  1.00  0.00     0.041 A 
ATOM     76  F   UNL A   1      39.004  29.863  32.905  1.00  0.00    -0.206 F 
ATOM     77  C   UNL A   1      35.937  31.633  32.165  1.00  0.00     0.022 A 
BRANCH  74  78
ATOM     78  S   UNL A   1      34.941  32.951  29.919  1.00  0.00     0.124 S 
ATOM     79  O   UNL A   1      35.823  33.935  29.302  1.00  0.00    -0.237 OA
ATOM     80  O   UNL A   1      34.312  31.995  29.013  1.00  0.00    -0.237 OA
ATOM     81  O   UNL A   1      34.077  33.462  30.980  1.00  0.00    -0.744 OA
ENDBRANCH  74  78
ENDBRANCH  47  71
BRANCH  59  82
ATOM     82  C   UNL A   1      44.382  33.967  29.800  1.00  0.00     0.023 A 
ATOM     83  C   UNL A   1      44.158  35.051  28.933  1.00  0.00     0.031 A 
ATOM     84  C   UNL A   1      45.082  34.212  30.995  1.00  0.00     0.131 A 
ATOM     85  C   UNL A   1      44.683  36.314  29.243  1.00  0.00     0.055 A 
ATOM     86  C   UNL A   1      45.542  35.485  31.331  1.00  0.00     0.041 A 
ATOM     87  F   UNL A   1      45.329  33.214  31.860  1.00  0.00    -0.206 F 
ATOM     88  C   UNL A   1      45.356  36.542  30.446  1.00  0.00     0.022 A 
BRANCH  85  89
ATOM     89  S   UNL A   1      44.567  37.633  28.003  1.00  0.00     0.124 S 
ATOM     90  O   UNL A   1      44.135  38.769  28.810  1.00  0.00    -0.237 OA
ATOM     91  O   UNL A   1      45.931  37.699  27.489  1.00  0.00    -0.237 OA
ATOM     92  O   UNL A   1      43.572  37.128  27.058  1.00  0.00    -0.744 OA
ENDBRANCH  85  89
ENDBRANCH  59  82
ENDBRANCH  33  34
ENDBRANCH  25  28
ENDBRANCH  23  24
ENDBRANCH  22  23
ENDBRANCH   1  22
TORSDOF 17
ENDMDL
