MODEL 1
REMARK VINA RESULT:     -12.8      0.000      0.000
REMARK SMILES COc1ccc2[nH]c(/C(C#N)=C/c3ccc(-c4cc(C(=O)NCCCNC(=O)c5ccc(-c6c7nc(c(-c8cc(S(=O)(=O)[O-])ccc8F)c8ccc([nH]8)c(-c8cc(S(=O)(=O)[O-])ccc8F)c8nc(c(-c9cc(S(=O)(=O)[O-])ccc9F)c9ccc6[nH]9)C=C8)C=C7)cc5)ccc4Cl)o3)nc2c1
REMARK SMILES IDX 23 1 22 2 20 3 21 4 19 6 17 7 18 8 94 9 93 10 95 11 92 12
REMARK SMILES IDX 16 13 13 14 14 15 96 16 15 17 12 18 9 19 8 20 3 21 4 22
REMARK SMILES IDX 99 23 5 24 98 25 6 26 97 27 7 28 2 30 1 31 10 32 11 33 24 34
REMARK SMILES IDX 25 35 26 36 27 37 28 39 29 40 30 41 91 42 31 43 90 44 32 45
REMARK SMILES IDX 33 46 34 47 84 48 35 49 89 50 83 51 85 52 36 53 88 54 82 55
REMARK SMILES IDX 81 56 37 58 69 59 49 60 68 61 50 62 53 63 67 64 86 65 51 66
REMARK SMILES IDX 52 67 66 69 87 70 54 71 38 72 39 73 47 74 40 75 46 76 48 77
REMARK SMILES IDX 45 78 41 79 42 80 43 81 44 82 70 83 71 84 79 85 72 86 78 87
REMARK SMILES IDX 80 88 77 89 73 90 74 91 75 92 76 93 55 94 56 95 64 96 57 97
REMARK SMILES IDX 63 98 65 99 62 100 58 101 59 102 60 103 61 104
REMARK H PARENT 22 5 7 29 26 38 85 57 53 68
REMARK Flexibility Score: inf
ROOT
ATOM      1  C   UNL A   1      31.541  30.950  26.204  1.00  0.00     0.118 C 
ENDROOT
BRANCH   1   2
ATOM      2  N   UNL A   1      32.728  30.239  26.643  1.00  0.00    -0.352 N 
ATOM      3  C   UNL A   1      33.174  28.951  26.497  1.00  0.00     0.251 C 
ATOM      4  O   UNL A   1      34.281  28.694  26.975  1.00  0.00    -0.269 OA
ATOM      5  H   UNL A   1      33.348  30.805  27.157  1.00  0.00     0.163 HD
BRANCH   3   6
ATOM      6  C   UNL A   1      32.438  27.869  25.775  1.00  0.00     0.040 A 
ATOM      7  C   UNL A   1      32.637  25.794  24.462  1.00  0.00     0.037 A 
ATOM      8  C   UNL A   1      33.218  26.837  25.208  1.00  0.00     0.027 A 
ATOM      9  C   UNL A   1      31.245  25.792  24.289  1.00  0.00     0.052 A 
ATOM     10  C   UNL A   1      30.460  26.784  24.875  1.00  0.00     0.022 A 
ATOM     11  Cl  UNL A   1      30.416  24.571  23.381  1.00  0.00    -0.084 Cl
ATOM     12  C   UNL A   1      31.051  27.798  25.635  1.00  0.00     0.015 A 
BRANCH   7  13
ATOM     13  C   UNL A   1      33.486  24.798  23.826  1.00  0.00     0.136 A 
ATOM     14  C   UNL A   1      35.301  23.513  23.691  1.00  0.00     0.129 A 
ATOM     15  C   UNL A   1      34.433  23.158  22.662  1.00  0.00     0.051 A 
ATOM     16  O   UNL A   1      34.685  24.516  24.417  1.00  0.00    -0.457 OA
ATOM     17  C   UNL A   1      33.309  24.003  22.720  1.00  0.00     0.051 A 
BRANCH  14  18
ATOM     18  C   UNL A   1      36.574  22.957  24.037  1.00  0.00     0.070 C 
ATOM     19  C   UNL A   1      36.775  22.210  25.146  1.00  0.00     0.098 C 
BRANCH  19  20
ATOM     20  C   UNL A   1      38.064  21.747  25.563  1.00  0.00     0.149 A 
ATOM     21  C   UNL A   1      41.941  19.726  26.728  1.00  0.00     0.121 A 
ATOM     22  C   UNL A   1      42.198  20.972  27.309  1.00  0.00     0.049 A 
ATOM     23  C   UNL A   1      40.745  19.497  26.043  1.00  0.00     0.077 A 
ATOM     24  C   UNL A   1      41.260  22.018  27.243  1.00  0.00     0.032 A 
ATOM     25  C   UNL A   1      39.802  20.529  25.972  1.00  0.00     0.093 A 
ATOM     26  C   UNL A   1      40.070  21.754  26.562  1.00  0.00     0.066 A 
ATOM     27  N   UNL A   1      38.574  20.542  25.373  1.00  0.00    -0.228 NA
ATOM     28  N   UNL A   1      38.956  22.515  26.288  1.00  0.00    -0.337 N 
ATOM     29  H   UNL A   1      38.816  23.449  26.563  1.00  0.00     0.168 HD
BRANCH  21  30
ATOM     30  O   UNL A   1      42.831  18.685  26.707  1.00  0.00    -0.497 OA
ATOM     31  C   UNL A   1      43.811  18.756  25.677  1.00  0.00     0.278 C 
ENDBRANCH  21  30
ENDBRANCH  19  20
BRANCH  19  32
ATOM     32  C   UNL A   1      35.676  21.821  25.991  1.00  0.00     0.103 C 
ATOM     33  N   UNL A   1      34.782  21.548  26.678  1.00  0.00    -0.192 NA
ENDBRANCH  19  32
ENDBRANCH  14  18
ENDBRANCH   7  13
ENDBRANCH   3   6
ENDBRANCH   1   2
BRANCH   1  34
ATOM     34  C   UNL A   1      31.583  32.414  26.643  1.00  0.00     0.042 C 
BRANCH  34  35
ATOM     35  C   UNL A   1      32.910  32.802  27.295  1.00  0.00     0.118 C 
BRANCH  35  36
ATOM     36  N   UNL A   1      32.860  34.147  27.857  1.00  0.00    -0.352 N 
ATOM     37  C   UNL A   1      33.491  34.676  28.955  1.00  0.00     0.251 C 
ATOM     38  H   UNL A   1      32.282  34.778  27.370  1.00  0.00     0.163 HD
ATOM     39  O   UNL A   1      33.085  35.736  29.423  1.00  0.00    -0.269 OA
BRANCH  37  40
ATOM     40  C   UNL A   1      34.639  33.978  29.569  1.00  0.00     0.039 A 
ATOM     41  C   UNL A   1      35.932  34.307  29.156  1.00  0.00     0.014 A 
ATOM     42  C   UNL A   1      34.442  32.972  30.519  1.00  0.00     0.014 A 
ATOM     43  C   UNL A   1      37.027  33.668  29.740  1.00  0.00     0.010 A 
ATOM     44  C   UNL A   1      35.535  32.402  31.163  1.00  0.00     0.010 A 
ATOM     45  C   UNL A   1      36.840  32.738  30.777  1.00  0.00    -0.014 A 
BRANCH  45  46
ATOM     46  C   UNL A   1      37.997  32.109  31.463  1.00  0.00     0.031 A 
ATOM     47  C   UNL A   1      38.761  30.998  30.795  1.00  0.00     0.074 A 
ATOM     48  C   UNL A   1      38.325  32.507  32.709  1.00  0.00     0.049 A 
ATOM     49  N   UNL A   1      39.755  30.285  31.256  1.00  0.00    -0.248 NA
ATOM     50  C   UNL A   1      38.331  30.620  29.439  1.00  0.00     0.031 C 
ATOM     51  C   UNL A   1      37.635  33.552  33.468  1.00  0.00     0.029 A 
ATOM     52  N   UNL A   1      39.315  32.082  33.557  1.00  0.00    -0.354 N 
ATOM     53  C   UNL A   1      40.065  29.372  30.254  1.00  0.00     0.074 A 
ATOM     54  C   UNL A   1      39.106  29.577  29.190  1.00  0.00     0.031 C 
ATOM     55  C   UNL A   1      38.247  33.714  34.651  1.00  0.00     0.029 A 
ATOM     56  C   UNL A   1      39.331  32.743  34.764  1.00  0.00     0.049 A 
ATOM     57  H   UNL A   1      39.955  31.371  33.325  1.00  0.00     0.167 HD
ATOM     58  C   UNL A   1      41.073  28.466  30.215  1.00  0.00     0.034 A 
ATOM     59  C   UNL A   1      40.117  32.576  35.847  1.00  0.00     0.034 A 
ATOM     60  C   UNL A   1      42.019  28.278  31.288  1.00  0.00     0.049 A 
ATOM     61  C   UNL A   1      41.194  31.521  35.801  1.00  0.00     0.074 A 
ATOM     62  C   UNL A   1      43.103  27.419  31.338  1.00  0.00     0.029 A 
ATOM     63  N   UNL A   1      41.987  28.947  32.506  1.00  0.00    -0.354 N 
ATOM     64  N   UNL A   1      41.504  30.697  34.826  1.00  0.00    -0.248 NA
ATOM     65  C   UNL A   1      42.033  31.380  36.997  1.00  0.00     0.031 C 
ATOM     66  C   UNL A   1      43.668  27.502  32.614  1.00  0.00     0.029 A 
ATOM     67  C   UNL A   1      43.007  28.489  33.327  1.00  0.00     0.049 A 
ATOM     68  H   UNL A   1      41.337  29.644  32.749  1.00  0.00     0.167 HD
ATOM     69  C   UNL A   1      42.599  29.966  35.280  1.00  0.00     0.074 A 
ATOM     70  C   UNL A   1      42.901  30.459  36.608  1.00  0.00     0.031 C 
ATOM     71  C   UNL A   1      43.293  28.982  34.655  1.00  0.00     0.034 A 
BRANCH  58  72
ATOM     72  C   UNL A   1      41.181  27.593  28.987  1.00  0.00     0.023 A 
ATOM     73  C   UNL A   1      42.185  27.792  28.024  1.00  0.00     0.031 A 
ATOM     74  C   UNL A   1      40.257  26.555  28.766  1.00  0.00     0.131 A 
ATOM     75  C   UNL A   1      42.194  27.022  26.851  1.00  0.00     0.055 A 
ATOM     76  C   UNL A   1      40.328  25.732  27.641  1.00  0.00     0.041 A 
ATOM     77  F   UNL A   1      39.259  26.331  29.637  1.00  0.00    -0.206 F 
ATOM     78  C   UNL A   1      41.291  25.972  26.667  1.00  0.00     0.022 A 
BRANCH  75  79
ATOM     79  S   UNL A   1      43.300  27.516  25.500  1.00  0.00     0.124 S 
ATOM     80  O   UNL A   1      42.358  28.099  24.547  1.00  0.00    -0.237 OA
ATOM     81  O   UNL A   1      44.204  28.451  26.159  1.00  0.00    -0.237 OA
ATOM     82  O   UNL A   1      43.905  26.256  25.074  1.00  0.00    -0.744 OA
ENDBRANCH  75  79
ENDBRANCH  58  72
BRANCH  59  83
ATOM     83  C   UNL A   1      39.912  33.408  37.069  1.00  0.00     0.023 A 
ATOM     84  C   UNL A   1      39.260  32.889  38.197  1.00  0.00     0.031 A 
ATOM     85  C   UNL A   1      40.319  34.754  37.106  1.00  0.00     0.131 A 
ATOM     86  C   UNL A   1      38.984  33.723  39.291  1.00  0.00     0.055 A 
ATOM     87  C   UNL A   1      40.103  35.562  38.223  1.00  0.00     0.041 A 
ATOM     88  F   UNL A   1      40.946  35.306  36.053  1.00  0.00    -0.206 F 
ATOM     89  C   UNL A   1      39.416  35.051  39.320  1.00  0.00     0.022 A 
BRANCH  86  90
ATOM     90  S   UNL A   1      37.945  33.079  40.632  1.00  0.00     0.124 S 
ATOM     91  O   UNL A   1      38.474  31.729  40.792  1.00  0.00    -0.237 OA
ATOM     92  O   UNL A   1      38.233  34.014  41.714  1.00  0.00    -0.237 OA
ATOM     93  O   UNL A   1      36.593  33.161  40.083  1.00  0.00    -0.744 OA
ENDBRANCH  86  90
ENDBRANCH  59  83
BRANCH  71  94
ATOM     94  C   UNL A   1      44.488  28.410  35.382  1.00  0.00     0.023 A 
ATOM     95  C   UNL A   1      44.363  27.356  36.304  1.00  0.00     0.031 A 
ATOM     96  C   UNL A   1      45.772  28.937  35.153  1.00  0.00     0.131 A 
ATOM     97  C   UNL A   1      45.491  26.908  37.009  1.00  0.00     0.055 A 
ATOM     98  C   UNL A   1      46.901  28.433  35.799  1.00  0.00     0.041 A 
ATOM     99  F   UNL A   1      45.952  29.949  34.289  1.00  0.00    -0.206 F 
ATOM    100  C   UNL A   1      46.762  27.423  36.745  1.00  0.00     0.022 A 
BRANCH  97 101
ATOM    101  S   UNL A   1      45.254  25.723  38.362  1.00  0.00     0.124 S 
ATOM    102  O   UNL A   1      44.348  24.751  37.758  1.00  0.00    -0.237 OA
ATOM    103  O   UNL A   1      46.614  25.257  38.611  1.00  0.00    -0.237 OA
ATOM    104  O   UNL A   1      44.672  26.533  39.430  1.00  0.00    -0.744 OA
ENDBRANCH  97 101
ENDBRANCH  71  94
ENDBRANCH  45  46
ENDBRANCH  37  40
ENDBRANCH  35  36
ENDBRANCH  34  35
ENDBRANCH   1  34
TORSDOF 18
ENDMDL
MODEL 2
REMARK VINA RESULT:     -12.7      1.612      7.289
REMARK SMILES COc1ccc2[nH]c(/C(C#N)=C/c3ccc(-c4cc(C(=O)NCCCNC(=O)c5ccc(-c6c7nc(c(-c8cc(S(=O)(=O)[O-])ccc8F)c8ccc([nH]8)c(-c8cc(S(=O)(=O)[O-])ccc8F)c8nc(c(-c9cc(S(=O)(=O)[O-])ccc9F)c9ccc6[nH]9)C=C8)C=C7)cc5)ccc4Cl)o3)nc2c1
REMARK SMILES IDX 23 1 22 2 20 3 21 4 19 6 17 7 18 8 94 9 93 10 95 11 92 12
REMARK SMILES IDX 16 13 13 14 14 15 96 16 15 17 12 18 9 19 8 20 3 21 4 22
REMARK SMILES IDX 99 23 5 24 98 25 6 26 97 27 7 28 2 30 1 31 10 32 11 33 24 34
REMARK SMILES IDX 25 35 26 36 27 37 28 39 29 40 30 41 91 42 31 43 90 44 32 45
REMARK SMILES IDX 33 46 34 47 84 48 35 49 89 50 83 51 85 52 36 53 88 54 82 55
REMARK SMILES IDX 81 56 37 58 69 59 49 60 68 61 50 62 53 63 67 64 86 65 51 66
REMARK SMILES IDX 52 67 66 69 87 70 54 71 38 72 39 73 47 74 40 75 46 76 48 77
REMARK SMILES IDX 45 78 41 79 42 80 43 81 44 82 70 83 71 84 79 85 72 86 78 87
REMARK SMILES IDX 80 88 77 89 73 90 74 91 75 92 76 93 55 94 56 95 64 96 57 97
REMARK SMILES IDX 63 98 65 99 62 100 58 101 59 102 60 103 61 104
REMARK H PARENT 22 5 7 29 26 38 85 57 53 68
REMARK Flexibility Score: inf
ROOT
ATOM      1  C   UNL A   1      31.462  31.080  26.257  1.00  0.00     0.118 C 
ENDROOT
BRANCH   1   2
ATOM      2  N   UNL A   1      32.747  30.457  26.514  1.00  0.00    -0.352 N 
ATOM      3  C   UNL A   1      33.257  29.203  26.297  1.00  0.00     0.251 C 
ATOM      4  O   UNL A   1      34.438  29.028  26.605  1.00  0.00    -0.269 OA
ATOM      5  H   UNL A   1      33.395  31.068  26.934  1.00  0.00     0.163 HD
BRANCH   3   6
ATOM      6  C   UNL A   1      32.501  28.068  25.684  1.00  0.00     0.040 A 
ATOM      7  C   UNL A   1      32.385  25.626  25.380  1.00  0.00     0.037 A 
ATOM      8  C   UNL A   1      32.985  26.766  25.945  1.00  0.00     0.027 A 
ATOM      9  C   UNL A   1      31.275  25.802  24.539  1.00  0.00     0.052 A 
ATOM     10  C   UNL A   1      30.765  27.079  24.304  1.00  0.00     0.022 A 
ATOM     11  Cl  UNL A   1      30.459  24.479  23.775  1.00  0.00    -0.084 Cl
ATOM     12  C   UNL A   1      31.358  28.198  24.895  1.00  0.00     0.015 A 
BRANCH   7  13
ATOM     13  C   UNL A   1      32.965  24.312  25.608  1.00  0.00     0.136 A 
ATOM     14  C   UNL A   1      34.652  22.921  26.040  1.00  0.00     0.129 A 
ATOM     15  C   UNL A   1      33.465  22.193  26.058  1.00  0.00     0.051 A 
ATOM     16  O   UNL A   1      34.318  24.239  25.783  1.00  0.00    -0.457 OA
ATOM     17  C   UNL A   1      32.407  23.064  25.738  1.00  0.00     0.051 A 
BRANCH  14  18
ATOM     18  C   UNL A   1      35.992  22.481  26.289  1.00  0.00     0.070 C 
ATOM     19  C   UNL A   1      36.912  22.329  25.312  1.00  0.00     0.098 C 
BRANCH  19  20
ATOM     20  C   UNL A   1      38.215  21.780  25.532  1.00  0.00     0.149 A 
ATOM     21  C   UNL A   1      42.058  19.499  26.247  1.00  0.00     0.121 A 
ATOM     22  C   UNL A   1      42.558  20.785  26.476  1.00  0.00     0.049 A 
ATOM     23  C   UNL A   1      40.717  19.312  25.901  1.00  0.00     0.077 A 
ATOM     24  C   UNL A   1      41.731  21.919  26.389  1.00  0.00     0.032 A 
ATOM     25  C   UNL A   1      39.882  20.432  25.812  1.00  0.00     0.093 A 
ATOM     26  C   UNL A   1      40.394  21.698  26.053  1.00  0.00     0.066 A 
ATOM     27  N   UNL A   1      38.553  20.502  25.503  1.00  0.00    -0.228 NA
ATOM     28  N   UNL A   1      39.320  22.540  25.867  1.00  0.00    -0.337 N 
ATOM     29  H   UNL A   1      39.335  23.520  25.957  1.00  0.00     0.168 HD
BRANCH  21  30
ATOM     30  O   UNL A   1      42.819  18.360  26.260  1.00  0.00    -0.497 OA
ATOM     31  C   UNL A   1      44.159  18.530  25.814  1.00  0.00     0.278 C 
ENDBRANCH  21  30
ENDBRANCH  19  20
BRANCH  19  32
ATOM     32  C   UNL A   1      36.631  22.725  23.956  1.00  0.00     0.103 C 
ATOM     33  N   UNL A   1      36.437  23.071  22.866  1.00  0.00    -0.192 NA
ENDBRANCH  19  32
ENDBRANCH  14  18
ENDBRANCH   7  13
ENDBRANCH   3   6
ENDBRANCH   1   2
BRANCH   1  34
ATOM     34  C   UNL A   1      31.484  32.562  26.633  1.00  0.00     0.042 C 
BRANCH  34  35
ATOM     35  C   UNL A   1      32.763  32.971  27.363  1.00  0.00     0.118 C 
BRANCH  35  36
ATOM     36  N   UNL A   1      32.690  34.347  27.845  1.00  0.00    -0.352 N 
ATOM     37  C   UNL A   1      33.300  34.945  28.918  1.00  0.00     0.251 C 
ATOM     38  H   UNL A   1      32.112  34.941  27.314  1.00  0.00     0.163 HD
ATOM     39  O   UNL A   1      32.875  36.026  29.318  1.00  0.00    -0.269 OA
BRANCH  37  40
ATOM     40  C   UNL A   1      34.446  34.298  29.588  1.00  0.00     0.039 A 
ATOM     41  C   UNL A   1      34.217  33.520  30.725  1.00  0.00     0.014 A 
ATOM     42  C   UNL A   1      35.750  34.492  29.123  1.00  0.00     0.014 A 
ATOM     43  C   UNL A   1      35.290  32.889  31.358  1.00  0.00     0.010 A 
ATOM     44  C   UNL A   1      36.803  33.791  29.700  1.00  0.00     0.010 A 
ATOM     45  C   UNL A   1      36.587  32.987  30.827  1.00  0.00    -0.014 A 
BRANCH  45  46
ATOM     46  C   UNL A   1      37.726  32.257  31.442  1.00  0.00     0.031 A 
ATOM     47  C   UNL A   1      38.280  32.700  32.769  1.00  0.00     0.074 A 
ATOM     48  C   UNL A   1      38.289  31.228  30.778  1.00  0.00     0.049 A 
ATOM     49  N   UNL A   1      39.305  32.231  33.434  1.00  0.00    -0.248 NA
ATOM     50  C   UNL A   1      37.611  33.836  33.421  1.00  0.00     0.031 C 
ATOM     51  C   UNL A   1      37.856  30.732  29.470  1.00  0.00     0.029 A 
ATOM     52  N   UNL A   1      39.344  30.416  31.106  1.00  0.00    -0.354 N 
ATOM     53  C   UNL A   1      39.407  33.018  34.576  1.00  0.00     0.074 A 
ATOM     54  C   UNL A   1      38.385  34.037  34.476  1.00  0.00     0.031 C 
ATOM     55  C   UNL A   1      38.612  29.679  29.126  1.00  0.00     0.029 A 
ATOM     56  C   UNL A   1      39.625  29.462  30.155  1.00  0.00     0.049 A 
ATOM     57  H   UNL A   1      39.854  30.507  31.943  1.00  0.00     0.167 HD
ATOM     58  C   UNL A   1      40.260  32.886  35.622  1.00  0.00     0.034 A 
ATOM     59  C   UNL A   1      40.597  28.529  30.106  1.00  0.00     0.034 A 
ATOM     60  C   UNL A   1      41.274  31.863  35.701  1.00  0.00     0.049 A 
ATOM     61  C   UNL A   1      41.569  28.439  31.255  1.00  0.00     0.074 A 
ATOM     62  C   UNL A   1      42.163  31.610  36.731  1.00  0.00     0.029 A 
ATOM     63  N   UNL A   1      41.545  30.930  34.707  1.00  0.00    -0.354 N 
ATOM     64  N   UNL A   1      41.624  29.162  32.351  1.00  0.00    -0.248 NA
ATOM     65  C   UNL A   1      42.605  27.403  31.166  1.00  0.00     0.031 C 
ATOM     66  C   UNL A   1      43.028  30.590  36.323  1.00  0.00     0.029 A 
ATOM     67  C   UNL A   1      42.614  30.131  35.083  1.00  0.00     0.049 A 
ATOM     68  H   UNL A   1      41.051  30.849  33.860  1.00  0.00     0.167 HD
ATOM     69  C   UNL A   1      42.677  28.641  33.098  1.00  0.00     0.074 A 
ATOM     70  C   UNL A   1      43.217  27.536  32.334  1.00  0.00     0.031 C 
ATOM     71  C   UNL A   1      43.151  29.036  34.307  1.00  0.00     0.034 A 
BRANCH  58  72
ATOM     72  C   UNL A   1      40.149  33.890  36.745  1.00  0.00     0.023 A 
ATOM     73  C   UNL A   1      41.097  34.913  36.920  1.00  0.00     0.031 A 
ATOM     74  C   UNL A   1      39.089  33.814  37.667  1.00  0.00     0.131 A 
ATOM     75  C   UNL A   1      41.011  35.766  38.031  1.00  0.00     0.055 A 
ATOM     76  C   UNL A   1      38.958  34.725  38.717  1.00  0.00     0.041 A 
ATOM     77  F   UNL A   1      38.165  32.844  37.569  1.00  0.00    -0.206 F 
ATOM     78  C   UNL A   1      39.931  35.700  38.913  1.00  0.00     0.022 A 
BRANCH  75  79
ATOM     79  S   UNL A   1      42.415  36.857  38.393  1.00  0.00     0.124 S 
ATOM     80  O   UNL A   1      43.193  36.037  39.319  1.00  0.00    -0.237 OA
ATOM     81  O   UNL A   1      43.001  37.065  37.075  1.00  0.00    -0.237 OA
ATOM     82  O   UNL A   1      41.788  38.034  38.992  1.00  0.00    -0.744 OA
ENDBRANCH  75  79
ENDBRANCH  58  72
BRANCH  59  83
ATOM     83  C   UNL A   1      40.715  27.616  28.931  1.00  0.00     0.023 A 
ATOM     84  C   UNL A   1      41.660  27.854  27.922  1.00  0.00     0.031 A 
ATOM     85  C   UNL A   1      39.846  26.521  28.773  1.00  0.00     0.131 A 
ATOM     86  C   UNL A   1      41.679  27.044  26.776  1.00  0.00     0.055 A 
ATOM     87  C   UNL A   1      39.913  25.678  27.664  1.00  0.00     0.041 A 
ATOM     88  F   UNL A   1      38.919  26.247  29.707  1.00  0.00    -0.206 F 
ATOM     89  C   UNL A   1      40.823  25.948  26.647  1.00  0.00     0.022 A 
BRANCH  86  90
ATOM     90  S   UNL A   1      42.760  27.517  25.398  1.00  0.00     0.124 S 
ATOM     91  O   UNL A   1      42.851  26.266  24.653  1.00  0.00    -0.237 OA
ATOM     92  O   UNL A   1      41.996  28.587  24.767  1.00  0.00    -0.237 OA
ATOM     93  O   UNL A   1      43.990  27.940  26.063  1.00  0.00    -0.744 OA
ENDBRANCH  86  90
ENDBRANCH  59  83
BRANCH  71  94
ATOM     94  C   UNL A   1      44.280  28.229  34.904  1.00  0.00     0.023 A 
ATOM     95  C   UNL A   1      44.046  27.066  35.659  1.00  0.00     0.031 A 
ATOM     96  C   UNL A   1      45.613  28.639  34.720  1.00  0.00     0.131 A 
ATOM     97  C   UNL A   1      45.124  26.392  36.254  1.00  0.00     0.055 A 
ATOM     98  C   UNL A   1      46.685  27.919  35.249  1.00  0.00     0.041 A 
ATOM     99  F   UNL A   1      45.898  29.745  34.015  1.00  0.00    -0.206 F 
ATOM    100  C   UNL A   1      46.442  26.797  36.034  1.00  0.00     0.022 A 
BRANCH  97 101
ATOM    101  S   UNL A   1      44.769  25.046  37.418  1.00  0.00     0.124 S 
ATOM    102  O   UNL A   1      43.313  25.101  37.509  1.00  0.00    -0.237 OA
ATOM    103  O   UNL A   1      45.321  23.884  36.729  1.00  0.00    -0.237 OA
ATOM    104  O   UNL A   1      45.482  25.445  38.630  1.00  0.00    -0.744 OA
ENDBRANCH  97 101
ENDBRANCH  71  94
ENDBRANCH  45  46
ENDBRANCH  37  40
ENDBRANCH  35  36
ENDBRANCH  34  35
ENDBRANCH   1  34
TORSDOF 18
ENDMDL
MODEL 3
REMARK VINA RESULT:     -11.6      6.189     10.689
REMARK SMILES COc1ccc2[nH]c(/C(C#N)=C/c3ccc(-c4cc(C(=O)NCCCNC(=O)c5ccc(-c6c7nc(c(-c8cc(S(=O)(=O)[O-])ccc8F)c8ccc([nH]8)c(-c8cc(S(=O)(=O)[O-])ccc8F)c8nc(c(-c9cc(S(=O)(=O)[O-])ccc9F)c9ccc6[nH]9)C=C8)C=C7)cc5)ccc4Cl)o3)nc2c1
REMARK SMILES IDX 23 1 22 2 20 3 21 4 19 6 17 7 18 8 94 9 93 10 95 11 92 12
REMARK SMILES IDX 16 13 13 14 14 15 96 16 15 17 12 18 9 19 8 20 3 21 4 22
REMARK SMILES IDX 99 23 5 24 98 25 6 26 97 27 7 28 2 30 1 31 10 32 11 33 24 34
REMARK SMILES IDX 25 35 26 36 27 37 28 39 29 40 30 41 91 42 31 43 90 44 32 45
REMARK SMILES IDX 33 46 34 47 84 48 35 49 89 50 83 51 85 52 36 53 88 54 82 55
REMARK SMILES IDX 81 56 37 58 69 59 49 60 68 61 50 62 53 63 67 64 86 65 51 66
REMARK SMILES IDX 52 67 66 69 87 70 54 71 38 72 39 73 47 74 40 75 46 76 48 77
REMARK SMILES IDX 45 78 41 79 42 80 43 81 44 82 70 83 71 84 79 85 72 86 78 87
REMARK SMILES IDX 80 88 77 89 73 90 74 91 75 92 76 93 55 94 56 95 64 96 57 97
REMARK SMILES IDX 63 98 65 99 62 100 58 101 59 102 60 103 61 104
REMARK H PARENT 22 5 7 29 26 38 85 57 53 68
REMARK Flexibility Score: inf
ROOT
ATOM      1  C   UNL A   1      42.514  20.218  27.232  1.00  0.00     0.118 C 
ENDROOT
BRANCH   1   2
ATOM      2  N   UNL A   1      43.446  19.894  26.167  1.00  0.00    -0.352 N 
ATOM      3  C   UNL A   1      44.185  20.643  25.288  1.00  0.00     0.251 C 
ATOM      4  O   UNL A   1      44.929  20.022  24.526  1.00  0.00    -0.269 OA
ATOM      5  H   UNL A   1      43.578  18.926  26.052  1.00  0.00     0.163 HD
BRANCH   3   6
ATOM      6  C   UNL A   1      44.180  22.136  25.225  1.00  0.00     0.040 A 
ATOM      7  C   UNL A   1      45.545  24.185  25.311  1.00  0.00     0.037 A 
ATOM      8  C   UNL A   1      45.434  22.783  25.309  1.00  0.00     0.027 A 
ATOM      9  C   UNL A   1      44.372  24.949  25.224  1.00  0.00     0.052 A 
ATOM     10  C   UNL A   1      43.131  24.323  25.102  1.00  0.00     0.022 A 
ATOM     11  Cl  UNL A   1      44.378  26.682  25.230  1.00  0.00    -0.084 Cl
ATOM     12  C   UNL A   1      43.041  22.929  25.075  1.00  0.00     0.015 A 
BRANCH   7  13
ATOM     13  C   UNL A   1      46.848  24.808  25.484  1.00  0.00     0.136 A 
ATOM     14  C   UNL A   1      48.679  25.845  24.751  1.00  0.00     0.129 A 
ATOM     15  C   UNL A   1      48.721  25.811  26.142  1.00  0.00     0.051 A 
ATOM     16  O   UNL A   1      47.498  25.240  24.362  1.00  0.00    -0.457 OA
ATOM     17  C   UNL A   1      47.587  25.113  26.600  1.00  0.00     0.051 A 
BRANCH  14  18
ATOM     18  C   UNL A   1      49.607  26.429  23.829  1.00  0.00     0.070 C 
ATOM     19  C   UNL A   1      49.253  27.367  22.922  1.00  0.00     0.098 C 
BRANCH  19  20
ATOM     20  C   UNL A   1      50.143  27.872  21.921  1.00  0.00     0.149 A 
ATOM     21  C   UNL A   1      52.594  29.963  18.743  1.00  0.00     0.121 A 
ATOM     22  C   UNL A   1      53.185  28.699  18.634  1.00  0.00     0.049 A 
ATOM     23  C   UNL A   1      51.577  30.191  19.673  1.00  0.00     0.077 A 
ATOM     24  C   UNL A   1      52.762  27.621  19.432  1.00  0.00     0.032 A 
ATOM     25  C   UNL A   1      51.145  29.126  20.473  1.00  0.00     0.093 A 
ATOM     26  C   UNL A   1      51.735  27.878  20.343  1.00  0.00     0.066 A 
ATOM     27  N   UNL A   1      50.174  29.100  21.434  1.00  0.00    -0.228 NA
ATOM     28  N   UNL A   1      51.087  27.097  21.273  1.00  0.00    -0.337 N 
ATOM     29  H   UNL A   1      51.265  26.145  21.449  1.00  0.00     0.168 HD
BRANCH  21  30
ATOM     30  O   UNL A   1      52.995  31.067  18.038  1.00  0.00    -0.497 OA
ATOM     31  C   UNL A   1      52.581  31.092  16.677  1.00  0.00     0.278 C 
ENDBRANCH  21  30
ENDBRANCH  19  20
BRANCH  19  32
ATOM     32  C   UNL A   1      47.929  27.932  22.912  1.00  0.00     0.103 C 
ATOM     33  N   UNL A   1      46.849  28.355  22.881  1.00  0.00    -0.192 NA
ENDBRANCH  19  32
ENDBRANCH  14  18
ENDBRANCH   7  13
ENDBRANCH   3   6
ENDBRANCH   1   2
BRANCH   1  34
ATOM     34  C   UNL A   1      41.099  20.407  26.685  1.00  0.00     0.042 C 
BRANCH  34  35
ATOM     35  C   UNL A   1      40.442  21.700  27.168  1.00  0.00     0.118 C 
BRANCH  35  36
ATOM     36  N   UNL A   1      39.413  22.159  26.241  1.00  0.00    -0.352 N 
ATOM     37  C   UNL A   1      38.763  23.364  26.160  1.00  0.00     0.251 C 
ATOM     38  H   UNL A   1      39.141  21.497  25.564  1.00  0.00     0.163 HD
ATOM     39  O   UNL A   1      37.730  23.442  25.501  1.00  0.00    -0.269 OA
BRANCH  37  40
ATOM     40  C   UNL A   1      39.295  24.552  26.859  1.00  0.00     0.039 A 
ATOM     41  C   UNL A   1      40.000  25.511  26.127  1.00  0.00     0.014 A 
ATOM     42  C   UNL A   1      39.139  24.701  28.240  1.00  0.00     0.014 A 
ATOM     43  C   UNL A   1      40.494  26.646  26.771  1.00  0.00     0.010 A 
ATOM     44  C   UNL A   1      39.552  25.874  28.862  1.00  0.00     0.010 A 
ATOM     45  C   UNL A   1      40.239  26.857  28.137  1.00  0.00    -0.014 A 
BRANCH  45  46
ATOM     46  C   UNL A   1      40.689  28.098  28.820  1.00  0.00     0.031 A 
ATOM     47  C   UNL A   1      42.157  28.366  29.013  1.00  0.00     0.074 A 
ATOM     48  C   UNL A   1      39.770  28.955  29.309  1.00  0.00     0.049 A 
ATOM     49  N   UNL A   1      42.741  29.357  29.636  1.00  0.00    -0.248 NA
ATOM     50  C   UNL A   1      43.091  27.375  28.456  1.00  0.00     0.031 C 
ATOM     51  C   UNL A   1      38.319  28.782  29.208  1.00  0.00     0.029 A 
ATOM     52  N   UNL A   1      39.915  30.138  29.986  1.00  0.00    -0.354 N 
ATOM     53  C   UNL A   1      44.106  29.105  29.553  1.00  0.00     0.074 A 
ATOM     54  C   UNL A   1      44.257  27.833  28.881  1.00  0.00     0.031 C 
ATOM     55  C   UNL A   1      37.710  29.838  29.768  1.00  0.00     0.029 A 
ATOM     56  C   UNL A   1      38.721  30.733  30.323  1.00  0.00     0.049 A 
ATOM     57  H   UNL A   1      40.791  30.526  30.212  1.00  0.00     0.167 HD
ATOM     58  C   UNL A   1      45.137  29.878  29.976  1.00  0.00     0.034 A 
ATOM     59  C   UNL A   1      38.466  31.862  31.015  1.00  0.00     0.034 A 
ATOM     60  C   UNL A   1      44.963  31.144  30.645  1.00  0.00     0.049 A 
ATOM     61  C   UNL A   1      39.629  32.674  31.525  1.00  0.00     0.074 A 
ATOM     62  C   UNL A   1      45.936  32.029  31.078  1.00  0.00     0.029 A 
ATOM     63  N   UNL A   1      43.738  31.702  30.991  1.00  0.00    -0.354 N 
ATOM     64  N   UNL A   1      40.917  32.446  31.396  1.00  0.00    -0.248 NA
ATOM     65  C   UNL A   1      39.306  33.900  32.264  1.00  0.00     0.031 C 
ATOM     66  C   UNL A   1      45.305  33.071  31.765  1.00  0.00     0.029 A 
ATOM     67  C   UNL A   1      43.934  32.896  31.670  1.00  0.00     0.049 A 
ATOM     68  H   UNL A   1      42.861  31.308  30.785  1.00  0.00     0.167 HD
ATOM     69  C   UNL A   1      41.555  33.522  32.008  1.00  0.00     0.074 A 
ATOM     70  C   UNL A   1      40.511  34.402  32.488  1.00  0.00     0.031 C 
ATOM     71  C   UNL A   1      42.883  33.762  32.153  1.00  0.00     0.034 A 
BRANCH  58  72
ATOM     72  C   UNL A   1      46.537  29.358  29.752  1.00  0.00     0.023 A 
ATOM     73  C   UNL A   1      47.326  29.794  28.673  1.00  0.00     0.031 A 
ATOM     74  C   UNL A   1      47.089  28.399  30.622  1.00  0.00     0.131 A 
ATOM     75  C   UNL A   1      48.584  29.216  28.445  1.00  0.00     0.055 A 
ATOM     76  C   UNL A   1      48.380  27.897  30.443  1.00  0.00     0.041 A 
ATOM     77  F   UNL A   1      46.378  27.924  31.656  1.00  0.00    -0.206 F 
ATOM     78  C   UNL A   1      49.130  28.294  29.340  1.00  0.00     0.022 A 
BRANCH  75  79
ATOM     79  S   UNL A   1      49.427  29.571  26.878  1.00  0.00     0.124 S 
ATOM     80  O   UNL A   1      48.413  29.174  25.903  1.00  0.00    -0.237 OA
ATOM     81  O   UNL A   1      49.692  31.001  26.979  1.00  0.00    -0.237 OA
ATOM     82  O   UNL A   1      50.607  28.710  26.922  1.00  0.00    -0.744 OA
ENDBRANCH  75  79
ENDBRANCH  58  72
BRANCH  59  83
ATOM     83  C   UNL A   1      37.060  32.286  31.282  1.00  0.00     0.023 A 
ATOM     84  C   UNL A   1      36.264  32.835  30.265  1.00  0.00     0.031 A 
ATOM     85  C   UNL A   1      36.509  32.200  32.574  1.00  0.00     0.131 A 
ATOM     86  C   UNL A   1      34.984  33.326  30.567  1.00  0.00     0.055 A 
ATOM     87  C   UNL A   1      35.211  32.627  32.854  1.00  0.00     0.041 A 
ATOM     88  F   UNL A   1      37.226  31.685  33.587  1.00  0.00    -0.206 F 
ATOM     89  C   UNL A   1      34.446  33.210  31.850  1.00  0.00     0.022 A 
BRANCH  86  90
ATOM     90  S   UNL A   1      34.077  34.227  29.281  1.00  0.00     0.124 S 
ATOM     91  O   UNL A   1      35.094  35.153  28.795  1.00  0.00    -0.237 OA
ATOM     92  O   UNL A   1      33.697  33.154  28.369  1.00  0.00    -0.237 OA
ATOM     93  O   UNL A   1      32.971  34.841  30.013  1.00  0.00    -0.744 OA
ENDBRANCH  86  90
ENDBRANCH  59  83
BRANCH  71  94
ATOM     94  C   UNL A   1      43.282  35.061  32.815  1.00  0.00     0.023 A 
ATOM     95  C   UNL A   1      43.524  35.148  34.197  1.00  0.00     0.031 A 
ATOM     96  C   UNL A   1      43.412  36.233  32.048  1.00  0.00     0.131 A 
ATOM     97  C   UNL A   1      43.821  36.391  34.777  1.00  0.00     0.055 A 
ATOM     98  C   UNL A   1      43.785  37.450  32.619  1.00  0.00     0.041 A 
ATOM     99  F   UNL A   1      43.187  36.212  30.725  1.00  0.00    -0.206 F 
ATOM    100  C   UNL A   1      43.976  37.537  33.994  1.00  0.00     0.022 A 
BRANCH  97 101
ATOM    101  S   UNL A   1      43.884  36.512  36.586  1.00  0.00     0.124 S 
ATOM    102  O   UNL A   1      43.728  37.947  36.799  1.00  0.00    -0.237 OA
ATOM    103  O   UNL A   1      42.758  35.680  36.995  1.00  0.00    -0.237 OA
ATOM    104  O   UNL A   1      45.203  35.976  36.919  1.00  0.00    -0.744 OA
ENDBRANCH  97 101
ENDBRANCH  71  94
ENDBRANCH  45  46
ENDBRANCH  37  40
ENDBRANCH  35  36
ENDBRANCH  34  35
ENDBRANCH   1  34
TORSDOF 18
ENDMDL
