MODEL 1
REMARK VINA RESULT:     -10.9      0.000      0.000
REMARK SMILES CCCN(CC(=O)NCCCNC(=O)c1ccc(-c2c3nc(c(-c4cc(S(=O)(=O)[O-])ccc4F)c4ccc([nH]4)c(-c4cc(S(=O)(=O)[O-])ccc4F)c4nc(c(-c5cc(S(=O)(=O)[O-])ccc5F)c5ccc2[nH]5)C=C4)C=C3)cc1)C(=O)Cc1ccc(F)c(F)c1
REMARK SMILES IDX 9 1 8 2 6 3 7 4 5 6 4 7 3 8 2 9 1 10 78 11 79 12 80 13 81 14
REMARK SMILES IDX 82 15 88 16 83 17 86 18 84 19 87 20 85 21 10 22 11 23 12 24
REMARK SMILES IDX 13 25 14 27 15 28 16 29 77 30 17 31 76 32 18 33 19 34 20 35
REMARK SMILES IDX 70 36 21 37 75 38 69 39 71 40 22 41 74 42 68 43 67 44 23 46
REMARK SMILES IDX 55 47 35 48 54 49 36 50 39 51 53 52 72 53 37 54 38 55 52 57
REMARK SMILES IDX 73 58 40 59 24 60 25 61 33 62 26 63 32 64 34 65 31 66 27 67
REMARK SMILES IDX 28 68 29 69 30 70 56 71 57 72 65 73 58 74 64 75 66 76 63 77
REMARK SMILES IDX 59 78 60 79 61 80 62 81 41 82 42 83 50 84 43 85 49 86 51 87
REMARK SMILES IDX 48 88 44 89 45 90 46 91 47 92
REMARK H PARENT 8 5 12 26 71 45 39 56
REMARK Flexibility Score: inf
ROOT
ATOM      1  C   UNL A   1      31.695  27.328  26.276  1.00  0.00     0.117 C 
ENDROOT
BRANCH   1   2
ATOM      2  N   UNL A   1      31.397  26.089  26.962  1.00  0.00    -0.354 N 
ATOM      3  C   UNL A   1      31.441  24.814  26.483  1.00  0.00     0.239 C 
ATOM      4  O   UNL A   1      31.240  23.890  27.273  1.00  0.00    -0.273 OA
ATOM      5  H   UNL A   1      31.127  26.180  27.904  1.00  0.00     0.163 HD
BRANCH   3   6
ATOM      6  C   UNL A   1      31.771  24.543  25.007  1.00  0.00     0.219 C 
BRANCH   6   7
ATOM      7  N   UNL A   1      33.005  23.762  24.811  1.00  0.00    -0.333 N 
BRANCH   7   8
ATOM      8  C   UNL A   1      34.246  24.274  25.408  1.00  0.00     0.120 C 
BRANCH   8   9
ATOM      9  C   UNL A   1      34.967  23.279  26.326  1.00  0.00     0.018 C 
ATOM     10  C   UNL A   1      36.384  22.934  25.884  1.00  0.00     0.006 C 
ENDBRANCH   8   9
ENDBRANCH   7   8
BRANCH   7  11
ATOM     11  C   UNL A   1      33.063  22.550  24.129  1.00  0.00     0.227 C 
ATOM     12  O   UNL A   1      33.599  22.477  23.018  1.00  0.00    -0.275 OA
BRANCH  11  13
ATOM     13  C   UNL A   1      32.421  21.293  24.706  1.00  0.00     0.135 C 
BRANCH  13  14
ATOM     14  C   UNL A   1      32.940  19.963  24.202  1.00  0.00    -0.036 A 
ATOM     15  C   UNL A   1      32.213  19.284  23.208  1.00  0.00     0.007 A 
ATOM     16  C   UNL A   1      34.115  19.377  24.700  1.00  0.00     0.046 A 
ATOM     17  C   UNL A   1      32.604  18.015  22.779  1.00  0.00     0.043 A 
ATOM     18  C   UNL A   1      34.484  18.101  24.284  1.00  0.00     0.159 A 
ATOM     19  C   UNL A   1      33.730  17.421  23.337  1.00  0.00     0.158 A 
ATOM     20  F   UNL A   1      35.558  17.517  24.834  1.00  0.00    -0.204 F 
ATOM     21  F   UNL A   1      34.074  16.182  22.960  1.00  0.00    -0.204 F 
ENDBRANCH  13  14
ENDBRANCH  11  13
ENDBRANCH   7  11
ENDBRANCH   6   7
ENDBRANCH   3   6
ENDBRANCH   1   2
BRANCH   1  22
ATOM     22  C   UNL A   1      32.484  28.304  27.139  1.00  0.00     0.042 C 
BRANCH  22  23
ATOM     23  C   UNL A   1      33.617  29.009  26.401  1.00  0.00     0.118 C 
BRANCH  23  24
ATOM     24  N   UNL A   1      33.706  30.422  26.744  1.00  0.00    -0.352 N 
ATOM     25  C   UNL A   1      34.575  31.080  27.575  1.00  0.00     0.251 C 
ATOM     26  H   UNL A   1      33.035  30.997  26.309  1.00  0.00     0.163 HD
ATOM     27  O   UNL A   1      34.322  32.242  27.901  1.00  0.00    -0.269 OA
BRANCH  25  28
ATOM     28  C   UNL A   1      35.789  30.410  28.087  1.00  0.00     0.039 A 
ATOM     29  C   UNL A   1      36.979  30.519  27.362  1.00  0.00     0.014 A 
ATOM     30  C   UNL A   1      35.754  29.647  29.258  1.00  0.00     0.014 A 
ATOM     31  C   UNL A   1      38.144  29.918  27.845  1.00  0.00     0.010 A 
ATOM     32  C   UNL A   1      36.932  29.120  29.780  1.00  0.00     0.010 A 
ATOM     33  C   UNL A   1      38.140  29.246  29.078  1.00  0.00    -0.014 A 
BRANCH  33  34
ATOM     34  C   UNL A   1      39.387  28.670  29.647  1.00  0.00     0.031 A 
ATOM     35  C   UNL A   1      40.016  29.284  30.868  1.00  0.00     0.074 A 
ATOM     36  C   UNL A   1      39.982  27.632  29.027  1.00  0.00     0.049 A 
ATOM     37  N   UNL A   1      41.140  28.977  31.464  1.00  0.00    -0.248 NA
ATOM     38  C   UNL A   1      39.300  30.411  31.483  1.00  0.00     0.031 C 
ATOM     39  C   UNL A   1      39.484  26.974  27.816  1.00  0.00     0.029 A 
ATOM     40  N   UNL A   1      41.137  26.951  29.321  1.00  0.00    -0.354 N 
ATOM     41  C   UNL A   1      41.271  29.876  32.516  1.00  0.00     0.074 A 
ATOM     42  C   UNL A   1      40.143  30.781  32.435  1.00  0.00     0.031 C 
ATOM     43  C   UNL A   1      40.312  25.970  27.489  1.00  0.00     0.029 A 
ATOM     44  C   UNL A   1      41.428  25.944  28.429  1.00  0.00     0.049 A 
ATOM     45  H   UNL A   1      41.704  27.164  30.096  1.00  0.00     0.167 HD
ATOM     46  C   UNL A   1      42.231  29.929  33.473  1.00  0.00     0.034 A 
ATOM     47  C   UNL A   1      42.482  25.106  28.365  1.00  0.00     0.034 A 
ATOM     48  C   UNL A   1      43.346  29.015  33.540  1.00  0.00     0.049 A 
ATOM     49  C   UNL A   1      43.560  25.212  29.415  1.00  0.00     0.074 A 
ATOM     50  C   UNL A   1      44.348  28.948  34.493  1.00  0.00     0.029 A 
ATOM     51  N   UNL A   1      43.615  28.015  32.613  1.00  0.00    -0.354 N 
ATOM     52  N   UNL A   1      43.645  26.040  30.432  1.00  0.00    -0.248 NA
ATOM     53  C   UNL A   1      44.678  24.266  29.314  1.00  0.00     0.031 C 
ATOM     54  C   UNL A   1      45.261  27.962  34.101  1.00  0.00     0.029 A 
ATOM     55  C   UNL A   1      44.785  27.351  32.952  1.00  0.00     0.049 A 
ATOM     56  H   UNL A   1      43.057  27.809  31.829  1.00  0.00     0.167 HD
ATOM     57  C   UNL A   1      44.809  25.688  31.109  1.00  0.00     0.074 A 
ATOM     58  C   UNL A   1      45.381  24.566  30.395  1.00  0.00     0.031 C 
ATOM     59  C   UNL A   1      45.352  26.239  32.226  1.00  0.00     0.034 A 
BRANCH  46  60
ATOM     60  C   UNL A   1      42.128  31.030  34.504  1.00  0.00     0.023 A 
ATOM     61  C   UNL A   1      42.758  32.274  34.323  1.00  0.00     0.031 A 
ATOM     62  C   UNL A   1      41.406  30.827  35.694  1.00  0.00     0.131 A 
ATOM     63  C   UNL A   1      42.721  33.234  35.346  1.00  0.00     0.055 A 
ATOM     64  C   UNL A   1      41.299  31.820  36.670  1.00  0.00     0.041 A 
ATOM     65  F   UNL A   1      40.799  29.654  35.935  1.00  0.00    -0.206 F 
ATOM     66  C   UNL A   1      41.973  33.027  36.507  1.00  0.00     0.022 A 
BRANCH  63  67
ATOM     67  S   UNL A   1      43.787  34.694  35.201  1.00  0.00     0.124 S 
ATOM     68  O   UNL A   1      44.179  34.912  36.592  1.00  0.00    -0.237 OA
ATOM     69  O   UNL A   1      44.841  34.228  34.307  1.00  0.00    -0.237 OA
ATOM     70  O   UNL A   1      42.901  35.713  34.644  1.00  0.00    -0.744 OA
ENDBRANCH  63  67
ENDBRANCH  46  60
BRANCH  47  71
ATOM     71  C   UNL A   1      42.585  24.102  27.267  1.00  0.00     0.023 A 
ATOM     72  C   UNL A   1      41.958  22.851  27.370  1.00  0.00     0.031 A 
ATOM     73  C   UNL A   1      43.353  24.360  26.117  1.00  0.00     0.131 A 
ATOM     74  C   UNL A   1      42.149  21.886  26.367  1.00  0.00     0.055 A 
ATOM     75  C   UNL A   1      43.492  23.420  25.095  1.00  0.00     0.041 A 
ATOM     76  F   UNL A   1      43.974  25.541  25.965  1.00  0.00    -0.206 F 
ATOM     77  C   UNL A   1      42.900  22.168  25.224  1.00  0.00     0.022 A 
BRANCH  74  78
ATOM     78  S   UNL A   1      41.480  20.221  26.628  1.00  0.00     0.124 S 
ATOM     79  O   UNL A   1      40.049  20.488  26.724  1.00  0.00    -0.237 OA
ATOM     80  O   UNL A   1      41.924  19.525  25.425  1.00  0.00    -0.237 OA
ATOM     81  O   UNL A   1      42.119  19.788  27.868  1.00  0.00    -0.744 OA
ENDBRANCH  74  78
ENDBRANCH  47  71
BRANCH  59  82
ATOM     82  C   UNL A   1      46.607  25.597  32.769  1.00  0.00     0.023 A 
ATOM     83  C   UNL A   1      46.564  24.583  33.741  1.00  0.00     0.031 A 
ATOM     84  C   UNL A   1      47.868  26.018  32.309  1.00  0.00     0.131 A 
ATOM     85  C   UNL A   1      47.759  24.065  34.264  1.00  0.00     0.055 A 
ATOM     86  C   UNL A   1      49.052  25.452  32.784  1.00  0.00     0.041 A 
ATOM     87  F   UNL A   1      47.971  26.987  31.384  1.00  0.00    -0.206 F 
ATOM     88  C   UNL A   1      49.001  24.479  33.777  1.00  0.00     0.022 A 
BRANCH  85  89
ATOM     89  S   UNL A   1      47.671  22.911  35.660  1.00  0.00     0.124 S 
ATOM     90  O   UNL A   1      47.736  21.617  34.987  1.00  0.00    -0.237 OA
ATOM     91  O   UNL A   1      48.843  23.280  36.446  1.00  0.00    -0.237 OA
ATOM     92  O   UNL A   1      46.385  23.222  36.283  1.00  0.00    -0.744 OA
ENDBRANCH  85  89
ENDBRANCH  59  82
ENDBRANCH  33  34
ENDBRANCH  25  28
ENDBRANCH  23  24
ENDBRANCH  22  23
ENDBRANCH   1  22
TORSDOF 19
ENDMDL
MODEL 2
REMARK VINA RESULT:     -10.8      5.543      8.496
REMARK SMILES CCCN(CC(=O)NCCCNC(=O)c1ccc(-c2c3nc(c(-c4cc(S(=O)(=O)[O-])ccc4F)c4ccc([nH]4)c(-c4cc(S(=O)(=O)[O-])ccc4F)c4nc(c(-c5cc(S(=O)(=O)[O-])ccc5F)c5ccc2[nH]5)C=C4)C=C3)cc1)C(=O)Cc1ccc(F)c(F)c1
REMARK SMILES IDX 9 1 8 2 6 3 7 4 5 6 4 7 3 8 2 9 1 10 78 11 79 12 80 13 81 14
REMARK SMILES IDX 82 15 88 16 83 17 86 18 84 19 87 20 85 21 10 22 11 23 12 24
REMARK SMILES IDX 13 25 14 27 15 28 16 29 77 30 17 31 76 32 18 33 19 34 20 35
REMARK SMILES IDX 70 36 21 37 75 38 69 39 71 40 22 41 74 42 68 43 67 44 23 46
REMARK SMILES IDX 55 47 35 48 54 49 36 50 39 51 53 52 72 53 37 54 38 55 52 57
REMARK SMILES IDX 73 58 40 59 24 60 25 61 33 62 26 63 32 64 34 65 31 66 27 67
REMARK SMILES IDX 28 68 29 69 30 70 56 71 57 72 65 73 58 74 64 75 66 76 63 77
REMARK SMILES IDX 59 78 60 79 61 80 62 81 41 82 42 83 50 84 43 85 49 86 51 87
REMARK SMILES IDX 48 88 44 89 45 90 46 91 47 92
REMARK H PARENT 8 5 12 26 71 45 39 56
REMARK Flexibility Score: inf
ROOT
ATOM      1  C   UNL A   1      34.952  23.175  26.274  1.00  0.00     0.117 C 
ENDROOT
BRANCH   1   2
ATOM      2  N   UNL A   1      33.796  23.206  27.144  1.00  0.00    -0.354 N 
ATOM      3  C   UNL A   1      32.486  23.391  26.819  1.00  0.00     0.239 C 
ATOM      4  O   UNL A   1      31.644  23.283  27.714  1.00  0.00    -0.273 OA
ATOM      5  H   UNL A   1      33.981  23.075  28.102  1.00  0.00     0.163 HD
BRANCH   3   6
ATOM      6  C   UNL A   1      32.072  23.685  25.368  1.00  0.00     0.219 C 
BRANCH   6   7
ATOM      7  N   UNL A   1      31.825  25.113  25.101  1.00  0.00    -0.333 N 
BRANCH   7   8
ATOM      8  C   UNL A   1      32.970  25.949  24.716  1.00  0.00     0.120 C 
BRANCH   8   9
ATOM      9  C   UNL A   1      33.741  26.554  25.896  1.00  0.00     0.018 C 
ATOM     10  C   UNL A   1      33.118  27.823  26.465  1.00  0.00     0.006 C 
ENDBRANCH   8   9
ENDBRANCH   7   8
BRANCH   7  11
ATOM     11  C   UNL A   1      30.570  25.712  25.154  1.00  0.00     0.227 C 
ATOM     12  O   UNL A   1      30.007  25.902  26.237  1.00  0.00    -0.275 OA
BRANCH  11  13
ATOM     13  C   UNL A   1      29.831  26.099  23.878  1.00  0.00     0.135 C 
BRANCH  13  14
ATOM     14  C   UNL A   1      29.592  27.575  23.643  1.00  0.00    -0.036 A 
ATOM     15  C   UNL A   1      30.625  28.484  23.936  1.00  0.00     0.007 A 
ATOM     16  C   UNL A   1      28.373  28.072  23.157  1.00  0.00     0.046 A 
ATOM     17  C   UNL A   1      30.419  29.860  23.822  1.00  0.00     0.043 A 
ATOM     18  C   UNL A   1      28.168  29.446  23.069  1.00  0.00     0.159 A 
ATOM     19  C   UNL A   1      29.181  30.334  23.407  1.00  0.00     0.158 A 
ATOM     20  F   UNL A   1      26.969  29.908  22.687  1.00  0.00    -0.204 F 
ATOM     21  F   UNL A   1      28.970  31.656  23.347  1.00  0.00    -0.204 F 
ENDBRANCH  13  14
ENDBRANCH  11  13
ENDBRANCH   7  11
ENDBRANCH   6   7
ENDBRANCH   3   6
ENDBRANCH   1   2
BRANCH   1  22
ATOM     22  C   UNL A   1      35.559  21.783  26.152  1.00  0.00     0.042 C 
BRANCH  22  23
ATOM     23  C   UNL A   1      36.707  21.692  25.152  1.00  0.00     0.118 C 
BRANCH  23  24
ATOM     24  N   UNL A   1      37.645  20.628  25.481  1.00  0.00    -0.352 N 
ATOM     25  C   UNL A   1      38.950  20.693  25.897  1.00  0.00     0.251 C 
ATOM     26  H   UNL A   1      37.285  19.716  25.392  1.00  0.00     0.163 HD
ATOM     27  O   UNL A   1      39.627  19.663  25.892  1.00  0.00    -0.269 OA
BRANCH  25  28
ATOM     28  C   UNL A   1      39.546  21.974  26.329  1.00  0.00     0.039 A 
ATOM     29  C   UNL A   1      40.635  21.952  27.205  1.00  0.00     0.014 A 
ATOM     30  C   UNL A   1      39.017  23.197  25.906  1.00  0.00     0.014 A 
ATOM     31  C   UNL A   1      41.232  23.151  27.602  1.00  0.00     0.010 A 
ATOM     32  C   UNL A   1      39.663  24.385  26.236  1.00  0.00     0.010 A 
ATOM     33  C   UNL A   1      40.775  24.377  27.090  1.00  0.00    -0.014 A 
BRANCH  33  34
ATOM     34  C   UNL A   1      41.448  25.657  27.438  1.00  0.00     0.031 A 
ATOM     35  C   UNL A   1      40.723  26.697  28.249  1.00  0.00     0.074 A 
ATOM     36  C   UNL A   1      42.688  25.905  26.970  1.00  0.00     0.049 A 
ATOM     37  N   UNL A   1      41.108  27.901  28.585  1.00  0.00    -0.248 NA
ATOM     38  C   UNL A   1      39.376  26.344  28.721  1.00  0.00     0.031 C 
ATOM     39  C   UNL A   1      43.477  24.987  26.146  1.00  0.00     0.029 A 
ATOM     40  N   UNL A   1      43.500  27.001  27.113  1.00  0.00    -0.354 N 
ATOM     41  C   UNL A   1      40.049  28.454  29.298  1.00  0.00     0.074 A 
ATOM     42  C   UNL A   1      38.982  27.474  29.287  1.00  0.00     0.031 C 
ATOM     43  C   UNL A   1      44.667  25.547  25.880  1.00  0.00     0.029 A 
ATOM     44  C   UNL A   1      44.709  26.883  26.466  1.00  0.00     0.049 A 
ATOM     45  H   UNL A   1      43.242  27.798  27.631  1.00  0.00     0.167 HD
ATOM     46  C   UNL A   1      39.982  29.657  29.920  1.00  0.00     0.034 A 
ATOM     47  C   UNL A   1      45.727  27.757  26.344  1.00  0.00     0.034 A 
ATOM     48  C   UNL A   1      41.058  30.619  29.923  1.00  0.00     0.049 A 
ATOM     49  C   UNL A   1      45.612  29.106  27.009  1.00  0.00     0.074 A 
ATOM     50  C   UNL A   1      41.114  31.846  30.562  1.00  0.00     0.029 A 
ATOM     51  N   UNL A   1      42.263  30.470  29.247  1.00  0.00    -0.354 N 
ATOM     52  N   UNL A   1      44.621  29.596  27.719  1.00  0.00    -0.248 NA
ATOM     53  C   UNL A   1      46.754  30.016  26.862  1.00  0.00     0.031 C 
ATOM     54  C   UNL A   1      42.317  32.470  30.210  1.00  0.00     0.029 A 
ATOM     55  C   UNL A   1      43.052  31.596  29.424  1.00  0.00     0.049 A 
ATOM     56  H   UNL A   1      42.518  29.680  28.719  1.00  0.00     0.167 HD
ATOM     57  C   UNL A   1      45.039  30.857  28.132  1.00  0.00     0.074 A 
ATOM     58  C   UNL A   1      46.375  31.044  27.605  1.00  0.00     0.031 C 
ATOM     59  C   UNL A   1      44.381  31.776  28.885  1.00  0.00     0.034 A 
BRANCH  46  60
ATOM     60  C   UNL A   1      38.690  30.006  30.623  1.00  0.00     0.023 A 
ATOM     61  C   UNL A   1      37.661  30.711  29.973  1.00  0.00     0.031 A 
ATOM     62  C   UNL A   1      38.490  29.649  31.969  1.00  0.00     0.131 A 
ATOM     63  C   UNL A   1      36.518  31.102  30.687  1.00  0.00     0.055 A 
ATOM     64  C   UNL A   1      37.313  29.965  32.650  1.00  0.00     0.041 A 
ATOM     65  F   UNL A   1      39.443  28.994  32.651  1.00  0.00    -0.206 F 
ATOM     66  C   UNL A   1      36.324  30.710  32.014  1.00  0.00     0.022 A 
BRANCH  63  67
ATOM     67  S   UNL A   1      35.361  32.257  29.903  1.00  0.00     0.124 S 
ATOM     68  O   UNL A   1      34.884  31.472  28.767  1.00  0.00    -0.237 OA
ATOM     69  O   UNL A   1      34.389  32.500  30.964  1.00  0.00    -0.237 OA
ATOM     70  O   UNL A   1      36.201  33.400  29.552  1.00  0.00    -0.744 OA
ENDBRANCH  63  67
ENDBRANCH  46  60
BRANCH  47  71
ATOM     71  C   UNL A   1      46.941  27.399  25.553  1.00  0.00     0.023 A 
ATOM     72  C   UNL A   1      47.087  27.821  24.223  1.00  0.00     0.031 A 
ATOM     73  C   UNL A   1      47.952  26.589  26.101  1.00  0.00     0.131 A 
ATOM     74  C   UNL A   1      48.190  27.391  23.468  1.00  0.00     0.055 A 
ATOM     75  C   UNL A   1      49.077  26.213  25.366  1.00  0.00     0.041 A 
ATOM     76  F   UNL A   1      47.865  26.158  27.370  1.00  0.00    -0.206 F 
ATOM     77  C   UNL A   1      49.194  26.602  24.035  1.00  0.00     0.022 A 
BRANCH  74  78
ATOM     78  S   UNL A   1      48.246  27.801  21.702  1.00  0.00     0.124 S 
ATOM     79  O   UNL A   1      46.917  28.362  21.486  1.00  0.00    -0.237 OA
ATOM     80  O   UNL A   1      49.358  28.743  21.644  1.00  0.00    -0.237 OA
ATOM     81  O   UNL A   1      48.490  26.510  21.062  1.00  0.00    -0.744 OA
ENDBRANCH  74  78
ENDBRANCH  47  71
BRANCH  59  82
ATOM     82  C   UNL A   1      45.122  33.048  29.223  1.00  0.00     0.023 A 
ATOM     83  C   UNL A   1      45.004  34.209  28.439  1.00  0.00     0.031 A 
ATOM     84  C   UNL A   1      45.970  33.092  30.345  1.00  0.00     0.131 A 
ATOM     85  C   UNL A   1      45.765  35.345  28.754  1.00  0.00     0.055 A 
ATOM     86  C   UNL A   1      46.672  34.246  30.692  1.00  0.00     0.041 A 
ATOM     87  F   UNL A   1      46.125  32.011  31.128  1.00  0.00    -0.206 F 
ATOM     88  C   UNL A   1      46.582  35.377  29.886  1.00  0.00     0.022 A 
BRANCH  85  89
ATOM     89  S   UNL A   1      45.748  36.751  27.607  1.00  0.00     0.124 S 
ATOM     90  O   UNL A   1      47.032  36.603  26.929  1.00  0.00    -0.237 OA
ATOM     91  O   UNL A   1      44.565  36.480  26.799  1.00  0.00    -0.237 OA
ATOM     92  O   UNL A   1      45.643  37.912  28.490  1.00  0.00    -0.744 OA
ENDBRANCH  85  89
ENDBRANCH  59  82
ENDBRANCH  33  34
ENDBRANCH  25  28
ENDBRANCH  23  24
ENDBRANCH  22  23
ENDBRANCH   1  22
TORSDOF 19
ENDMDL
MODEL 3
REMARK VINA RESULT:     -10.7      5.611      8.580
REMARK SMILES CCCN(CC(=O)NCCCNC(=O)c1ccc(-c2c3nc(c(-c4cc(S(=O)(=O)[O-])ccc4F)c4ccc([nH]4)c(-c4cc(S(=O)(=O)[O-])ccc4F)c4nc(c(-c5cc(S(=O)(=O)[O-])ccc5F)c5ccc2[nH]5)C=C4)C=C3)cc1)C(=O)Cc1ccc(F)c(F)c1
REMARK SMILES IDX 9 1 8 2 6 3 7 4 5 6 4 7 3 8 2 9 1 10 78 11 79 12 80 13 81 14
REMARK SMILES IDX 82 15 88 16 83 17 86 18 84 19 87 20 85 21 10 22 11 23 12 24
REMARK SMILES IDX 13 25 14 27 15 28 16 29 77 30 17 31 76 32 18 33 19 34 20 35
REMARK SMILES IDX 70 36 21 37 75 38 69 39 71 40 22 41 74 42 68 43 67 44 23 46
REMARK SMILES IDX 55 47 35 48 54 49 36 50 39 51 53 52 72 53 37 54 38 55 52 57
REMARK SMILES IDX 73 58 40 59 24 60 25 61 33 62 26 63 32 64 34 65 31 66 27 67
REMARK SMILES IDX 28 68 29 69 30 70 56 71 57 72 65 73 58 74 64 75 66 76 63 77
REMARK SMILES IDX 59 78 60 79 61 80 62 81 41 82 42 83 50 84 43 85 49 86 51 87
REMARK SMILES IDX 48 88 44 89 45 90 46 91 47 92
REMARK H PARENT 8 5 12 26 71 45 39 56
REMARK Flexibility Score: inf
ROOT
ATOM      1  C   UNL A   1      34.445  22.306  23.905  1.00  0.00     0.117 C 
ENDROOT
BRANCH   1   2
ATOM      2  N   UNL A   1      34.094  23.097  22.745  1.00  0.00    -0.354 N 
ATOM      3  C   UNL A   1      33.144  24.066  22.626  1.00  0.00     0.239 C 
ATOM      4  O   UNL A   1      33.077  24.687  21.563  1.00  0.00    -0.273 OA
ATOM      5  H   UNL A   1      34.613  22.910  21.930  1.00  0.00     0.163 HD
BRANCH   3   6
ATOM      6  C   UNL A   1      32.211  24.398  23.802  1.00  0.00     0.219 C 
BRANCH   6   7
ATOM      7  N   UNL A   1      32.075  25.842  24.059  1.00  0.00    -0.333 N 
BRANCH   7   8
ATOM      8  C   UNL A   1      30.780  26.473  23.768  1.00  0.00     0.120 C 
BRANCH   8   9
ATOM      9  C   UNL A   1      30.834  27.574  22.701  1.00  0.00     0.018 C 
ATOM     10  C   UNL A   1      29.974  28.791  23.014  1.00  0.00     0.006 C 
ENDBRANCH   8   9
ENDBRANCH   7   8
BRANCH   7  11
ATOM     11  C   UNL A   1      33.081  26.640  24.595  1.00  0.00     0.227 C 
ATOM     12  O   UNL A   1      34.016  27.033  23.889  1.00  0.00    -0.275 OA
BRANCH  11  13
ATOM     13  C   UNL A   1      33.089  27.004  26.075  1.00  0.00     0.135 C 
BRANCH  13  14
ATOM     14  C   UNL A   1      33.144  28.477  26.420  1.00  0.00    -0.036 A 
ATOM     15  C   UNL A   1      34.249  28.963  27.142  1.00  0.00     0.007 A 
ATOM     16  C   UNL A   1      32.127  29.373  26.056  1.00  0.00     0.046 A 
ATOM     17  C   UNL A   1      34.299  30.294  27.560  1.00  0.00     0.043 A 
ATOM     18  C   UNL A   1      32.173  30.693  26.498  1.00  0.00     0.159 A 
ATOM     19  C   UNL A   1      33.247  31.148  27.252  1.00  0.00     0.158 A 
ATOM     20  F   UNL A   1      31.152  31.514  26.218  1.00  0.00    -0.204 F 
ATOM     21  F   UNL A   1      33.274  32.412  27.697  1.00  0.00    -0.204 F 
ENDBRANCH  13  14
ENDBRANCH  11  13
ENDBRANCH   7  11
ENDBRANCH   6   7
ENDBRANCH   3   6
ENDBRANCH   1   2
BRANCH   1  22
ATOM     22  C   UNL A   1      35.940  22.320  24.196  1.00  0.00     0.042 C 
BRANCH  22  23
ATOM     23  C   UNL A   1      36.295  21.964  25.636  1.00  0.00     0.118 C 
BRANCH  23  24
ATOM     24  N   UNL A   1      37.295  20.908  25.715  1.00  0.00    -0.352 N 
ATOM     25  C   UNL A   1      38.650  20.982  25.904  1.00  0.00     0.251 C 
ATOM     26  H   UNL A   1      36.940  19.994  25.618  1.00  0.00     0.163 HD
ATOM     27  O   UNL A   1      39.335  19.977  25.703  1.00  0.00    -0.269 OA
BRANCH  25  28
ATOM     28  C   UNL A   1      39.289  22.246  26.326  1.00  0.00     0.039 A 
ATOM     29  C   UNL A   1      40.332  22.199  27.257  1.00  0.00     0.014 A 
ATOM     30  C   UNL A   1      38.846  23.479  25.839  1.00  0.00     0.014 A 
ATOM     31  C   UNL A   1      40.970  23.379  27.646  1.00  0.00     0.010 A 
ATOM     32  C   UNL A   1      39.535  24.644  26.165  1.00  0.00     0.010 A 
ATOM     33  C   UNL A   1      40.603  24.609  27.073  1.00  0.00    -0.014 A 
BRANCH  33  34
ATOM     34  C   UNL A   1      41.322  25.864  27.415  1.00  0.00     0.031 A 
ATOM     35  C   UNL A   1      40.641  26.928  28.232  1.00  0.00     0.074 A 
ATOM     36  C   UNL A   1      42.566  26.069  26.937  1.00  0.00     0.049 A 
ATOM     37  N   UNL A   1      41.071  28.119  28.565  1.00  0.00    -0.248 NA
ATOM     38  C   UNL A   1      39.287  26.623  28.716  1.00  0.00     0.031 C 
ATOM     39  C   UNL A   1      43.316  25.124  26.105  1.00  0.00     0.029 A 
ATOM     40  N   UNL A   1      43.417  27.136  27.072  1.00  0.00    -0.354 N 
ATOM     41  C   UNL A   1      40.038  28.708  29.286  1.00  0.00     0.074 A 
ATOM     42  C   UNL A   1      38.938  27.766  29.286  1.00  0.00     0.031 C 
ATOM     43  C   UNL A   1      44.522  25.642  25.829  1.00  0.00     0.029 A 
ATOM     44  C   UNL A   1      44.615  26.976  26.415  1.00  0.00     0.049 A 
ATOM     45  H   UNL A   1      43.191  27.941  27.592  1.00  0.00     0.167 HD
ATOM     46  C   UNL A   1      40.018  29.913  29.909  1.00  0.00     0.034 A 
ATOM     47  C   UNL A   1      45.663  27.814  26.283  1.00  0.00     0.034 A 
ATOM     48  C   UNL A   1      41.127  30.837  29.902  1.00  0.00     0.049 A 
ATOM     49  C   UNL A   1      45.600  29.166  26.948  1.00  0.00     0.074 A 
ATOM     50  C   UNL A   1      41.232  32.061  30.540  1.00  0.00     0.029 A 
ATOM     51  N   UNL A   1      42.320  30.646  29.216  1.00  0.00    -0.354 N 
ATOM     52  N   UNL A   1      44.633  29.690  27.667  1.00  0.00    -0.248 NA
ATOM     53  C   UNL A   1      46.772  30.036  26.792  1.00  0.00     0.031 C 
ATOM     54  C   UNL A   1      42.452  32.642  30.177  1.00  0.00     0.029 A 
ATOM     55  C   UNL A   1      43.150  31.744  29.386  1.00  0.00     0.049 A 
ATOM     56  H   UNL A   1      42.543  29.847  28.685  1.00  0.00     0.167 HD
ATOM     57  C   UNL A   1      45.098  30.936  28.076  1.00  0.00     0.074 A 
ATOM     58  C   UNL A   1      46.435  31.077  27.537  1.00  0.00     0.031 C 
ATOM     59  C   UNL A   1      44.479  31.877  28.835  1.00  0.00     0.034 A 
BRANCH  46  60
ATOM     60  C   UNL A   1      38.746  30.307  30.624  1.00  0.00     0.023 A 
ATOM     61  C   UNL A   1      37.852  31.246  30.078  1.00  0.00     0.031 A 
ATOM     62  C   UNL A   1      38.430  29.752  31.877  1.00  0.00     0.131 A 
ATOM     63  C   UNL A   1      36.731  31.658  30.815  1.00  0.00     0.055 A 
ATOM     64  C   UNL A   1      37.267  30.103  32.567  1.00  0.00     0.041 A 
ATOM     65  F   UNL A   1      39.253  28.867  32.460  1.00  0.00    -0.206 F 
ATOM     66  C   UNL A   1      36.418  31.074  32.044  1.00  0.00     0.022 A 
BRANCH  63  67
ATOM     67  S   UNL A   1      35.775  33.078  30.215  1.00  0.00     0.124 S 
ATOM     68  O   UNL A   1      36.105  33.075  28.791  1.00  0.00    -0.237 OA
ATOM     69  O   UNL A   1      34.407  32.704  30.554  1.00  0.00    -0.237 OA
ATOM     70  O   UNL A   1      36.320  34.204  30.971  1.00  0.00    -0.744 OA
ENDBRANCH  63  67
ENDBRANCH  46  60
BRANCH  47  71
ATOM     71  C   UNL A   1      46.856  27.414  25.482  1.00  0.00     0.023 A 
ATOM     72  C   UNL A   1      47.019  27.855  24.160  1.00  0.00     0.031 A 
ATOM     73  C   UNL A   1      47.828  26.545  26.011  1.00  0.00     0.131 A 
ATOM     74  C   UNL A   1      48.099  27.388  23.394  1.00  0.00     0.055 A 
ATOM     75  C   UNL A   1      48.932  26.131  25.265  1.00  0.00     0.041 A 
ATOM     76  F   UNL A   1      47.723  26.094  27.271  1.00  0.00    -0.206 F 
ATOM     77  C   UNL A   1      49.065  26.540  23.942  1.00  0.00     0.022 A 
BRANCH  74  78
ATOM     78  S   UNL A   1      48.171  27.829  21.636  1.00  0.00     0.124 S 
ATOM     79  O   UNL A   1      46.900  28.521  21.452  1.00  0.00    -0.237 OA
ATOM     80  O   UNL A   1      49.369  28.659  21.580  1.00  0.00    -0.237 OA
ATOM     81  O   UNL A   1      48.279  26.535  20.965  1.00  0.00    -0.744 OA
ENDBRANCH  74  78
ENDBRANCH  47  71
BRANCH  59  82
ATOM     82  C   UNL A   1      45.268  33.123  29.166  1.00  0.00     0.023 A 
ATOM     83  C   UNL A   1      45.246  34.259  28.338  1.00  0.00     0.031 A 
ATOM     84  C   UNL A   1      46.061  33.166  30.326  1.00  0.00     0.131 A 
ATOM     85  C   UNL A   1      46.048  35.367  28.652  1.00  0.00     0.055 A 
ATOM     86  C   UNL A   1      46.804  34.296  30.669  1.00  0.00     0.041 A 
ATOM     87  F   UNL A   1      46.124  32.108  31.152  1.00  0.00    -0.206 F 
ATOM     88  C   UNL A   1      46.811  35.400  29.822  1.00  0.00     0.022 A 
BRANCH  85  89
ATOM     89  S   UNL A   1      46.158  36.729  27.459  1.00  0.00     0.124 S 
ATOM     90  O   UNL A   1      47.007  37.683  28.167  1.00  0.00    -0.237 OA
ATOM     91  O   UNL A   1      46.758  36.081  26.298  1.00  0.00    -0.237 OA
ATOM     92  O   UNL A   1      44.767  37.147  27.286  1.00  0.00    -0.744 OA
ENDBRANCH  85  89
ENDBRANCH  59  82
ENDBRANCH  33  34
ENDBRANCH  25  28
ENDBRANCH  23  24
ENDBRANCH  22  23
ENDBRANCH   1  22
TORSDOF 19
ENDMDL
