MODEL 1
REMARK VINA RESULT:     -13.8      0.000      0.000
REMARK SMILES Cc1cccc(CC(=O)N2CCC3(CCC(=O)N([C@H](C)C(=O)NCCCNC(=O)c4ccc(-c5c6nc(c(-c7cc(S(=O)(=O)[O-])ccc7F)c7ccc([nH]7)c(-c7cc(S(=O)(=O)[O-])ccc7F)c7nc(c(-c8cc(S(=O)(=O)[O-])ccc8F)c8ccc5[nH]8)C=C7)C=C6)cc4)C3)CC2)c1
REMARK SMILES IDX 25 1 24 2 23 3 21 4 22 5 19 7 20 8 18 9 8 10 9 11 10 12
REMARK SMILES IDX 11 13 95 14 12 15 94 16 13 17 14 18 93 19 15 20 16 21 17 22
REMARK SMILES IDX 7 23 6 24 1 25 2 26 3 27 96 28 4 29 5 30 26 31 27 32 28 33
REMARK SMILES IDX 29 35 30 36 31 37 92 38 32 39 91 40 33 41 34 42 35 43 85 44
REMARK SMILES IDX 36 45 90 46 84 47 86 48 37 49 89 50 83 51 82 52 38 54 70 55
REMARK SMILES IDX 50 56 69 57 51 58 54 59 68 60 87 61 52 62 53 63 67 65 88 66
REMARK SMILES IDX 55 67 39 68 40 69 48 70 41 71 47 72 49 73 46 74 42 75 43 76
REMARK SMILES IDX 44 77 45 78 71 79 72 80 80 81 73 82 79 83 81 84 78 85 74 86
REMARK SMILES IDX 75 87 76 88 77 89 56 90 57 91 65 92 58 93 64 94 66 95 63 96
REMARK SMILES IDX 59 97 60 98 61 99 62 100
REMARK H PARENT 23 6 27 34 86 53 54 64
REMARK Flexibility Score: inf
ROOT
ATOM      1  C   UNL A   1      33.224  31.190  27.530  1.00  0.00     0.042 C 
ENDROOT
BRANCH   1   2
ATOM      2  C   UNL A   1      32.449  30.455  26.465  1.00  0.00     0.117 C 
BRANCH   2   3
ATOM      3  N   UNL A   1      31.746  29.283  26.952  1.00  0.00    -0.354 N 
ATOM      4  C   UNL A   1      31.851  27.979  26.554  1.00  0.00     0.242 C 
ATOM      5  O   UNL A   1      31.151  27.123  27.108  1.00  0.00    -0.273 OA
ATOM      6  H   UNL A   1      31.098  29.451  27.675  1.00  0.00     0.163 HD
BRANCH   4   7
ATOM      7  C   UNL A   1      32.707  27.580  25.325  1.00  0.00     0.171 C 
ATOM      8  C   UNL A   1      34.155  27.282  25.729  1.00  0.00     0.042 C 
BRANCH   7   9
ATOM      9  N   UNL A   1      32.174  26.560  24.400  1.00  0.00    -0.330 N 
ATOM     10  C   UNL A   1      33.073  20.214  25.375  1.00  0.00     0.226 C 
ATOM     11  O   UNL A   1      32.856  19.751  26.501  1.00  0.00    -0.275 OA
ATOM     12  N   UNL A   1      32.339  21.287  24.897  1.00  0.00    -0.342 N 
ATOM     13  C   UNL A   1      31.663  22.178  25.839  1.00  0.00     0.120 C 
ATOM     14  C   UNL A   1      32.157  21.665  23.504  1.00  0.00     0.120 C 
ATOM     15  C   UNL A   1      32.155  23.618  25.635  1.00  0.00     0.030 C 
ATOM     16  C   UNL A   1      32.800  23.017  23.262  1.00  0.00     0.030 C 
ATOM     17  C   UNL A   1      32.127  24.089  24.150  1.00  0.00    -0.008 C 
ATOM     18  C   UNL A   1      30.667  24.278  23.632  1.00  0.00     0.019 C 
ATOM     19  C   UNL A   1      32.946  25.401  24.021  1.00  0.00     0.127 C 
ATOM     20  C   UNL A   1      30.035  25.571  24.086  1.00  0.00     0.101 C 
ATOM     21  C   UNL A   1      30.978  26.686  23.729  1.00  0.00     0.223 C 
ATOM     22  O   UNL A   1      30.714  27.569  22.935  1.00  0.00    -0.275 OA
BRANCH  10  23
ATOM     23  C   UNL A   1      34.317  19.738  24.624  1.00  0.00     0.135 C 
BRANCH  23  24
ATOM     24  C   UNL A   1      35.654  20.329  24.983  1.00  0.00    -0.038 A 
ATOM     25  C   UNL A   1      37.041  23.761  25.917  1.00  0.00     0.044 C 
ATOM     26  C   UNL A   1      36.966  22.301  25.578  1.00  0.00    -0.051 A 
ATOM     27  C   UNL A   1      38.137  21.563  25.376  1.00  0.00     0.003 A 
ATOM     28  C   UNL A   1      35.729  21.671  25.405  1.00  0.00     0.007 A 
ATOM     29  C   UNL A   1      38.072  20.216  25.011  1.00  0.00     0.001 A 
ATOM     30  C   UNL A   1      36.837  19.598  24.818  1.00  0.00     0.004 A 
ENDBRANCH  23  24
ENDBRANCH  10  23
ENDBRANCH   7   9
ENDBRANCH   4   7
ENDBRANCH   2   3
ENDBRANCH   1   2
BRANCH   1  31
ATOM     31  C   UNL A   1      34.624  30.638  27.688  1.00  0.00     0.118 C 
BRANCH  31  32
ATOM     32  N   UNL A   1      35.505  31.486  28.500  1.00  0.00    -0.352 N 
ATOM     33  C   UNL A   1      36.687  31.139  29.135  1.00  0.00     0.251 C 
ATOM     34  H   UNL A   1      35.220  32.423  28.607  1.00  0.00     0.163 HD
ATOM     35  O   UNL A   1      37.326  31.930  29.822  1.00  0.00    -0.269 OA
BRANCH  33  36
ATOM     36  C   UNL A   1      37.255  29.807  28.834  1.00  0.00     0.039 A 
ATOM     37  C   UNL A   1      37.429  28.954  29.931  1.00  0.00     0.014 A 
ATOM     38  C   UNL A   1      37.990  29.640  27.668  1.00  0.00     0.014 A 
ATOM     39  C   UNL A   1      38.557  28.148  29.975  1.00  0.00     0.010 A 
ATOM     40  C   UNL A   1      39.183  28.956  27.773  1.00  0.00     0.010 A 
ATOM     41  C   UNL A   1      39.495  28.274  28.956  1.00  0.00    -0.014 A 
BRANCH  41  42
ATOM     42  C   UNL A   1      40.859  27.777  29.061  1.00  0.00     0.031 A 
ATOM     43  C   UNL A   1      41.129  26.383  28.666  1.00  0.00     0.074 A 
ATOM     44  C   UNL A   1      41.868  28.575  29.479  1.00  0.00     0.049 A 
ATOM     45  N   UNL A   1      42.184  25.733  29.007  1.00  0.00    -0.248 NA
ATOM     46  C   UNL A   1      40.168  25.567  27.923  1.00  0.00     0.031 C 
ATOM     47  C   UNL A   1      43.303  28.305  29.408  1.00  0.00     0.029 A 
ATOM     48  N   UNL A   1      41.769  29.684  30.322  1.00  0.00    -0.354 N 
ATOM     49  C   UNL A   1      42.198  24.569  28.286  1.00  0.00     0.074 A 
ATOM     50  C   UNL A   1      40.866  24.440  27.759  1.00  0.00     0.031 C 
ATOM     51  C   UNL A   1      43.926  29.009  30.364  1.00  0.00     0.029 A 
ATOM     52  C   UNL A   1      42.900  29.643  31.170  1.00  0.00     0.049 A 
ATOM     53  H   UNL A   1      41.054  30.361  30.324  1.00  0.00     0.167 HD
ATOM     54  C   UNL A   1      43.386  23.934  28.110  1.00  0.00     0.034 A 
ATOM     55  C   UNL A   1      42.750  29.510  32.522  1.00  0.00     0.034 A 
ATOM     56  C   UNL A   1      44.387  24.417  29.068  1.00  0.00     0.049 A 
ATOM     57  C   UNL A   1      43.352  28.235  33.085  1.00  0.00     0.074 A 
ATOM     58  C   UNL A   1      45.539  25.178  29.001  1.00  0.00     0.029 A 
ATOM     59  N   UNL A   1      44.088  24.309  30.418  1.00  0.00    -0.354 N 
ATOM     60  N   UNL A   1      43.950  27.318  32.371  1.00  0.00    -0.248 NA
ATOM     61  C   UNL A   1      43.245  27.852  34.492  1.00  0.00     0.031 C 
ATOM     62  C   UNL A   1      45.880  25.580  30.334  1.00  0.00     0.029 A 
ATOM     63  C   UNL A   1      44.965  25.018  31.209  1.00  0.00     0.049 A 
ATOM     64  H   UNL A   1      43.333  23.786  30.771  1.00  0.00     0.167 HD
ATOM     65  C   UNL A   1      44.211  26.222  33.152  1.00  0.00     0.074 A 
ATOM     66  C   UNL A   1      43.759  26.610  34.478  1.00  0.00     0.031 C 
ATOM     67  C   UNL A   1      44.725  25.058  32.648  1.00  0.00     0.034 A 
BRANCH  54  68
ATOM     68  C   UNL A   1      43.692  22.976  26.980  1.00  0.00     0.023 A 
ATOM     69  C   UNL A   1      43.026  21.734  26.956  1.00  0.00     0.031 A 
ATOM     70  C   UNL A   1      44.696  23.138  25.995  1.00  0.00     0.131 A 
ATOM     71  C   UNL A   1      43.364  20.740  26.017  1.00  0.00     0.055 A 
ATOM     72  C   UNL A   1      44.982  22.175  25.022  1.00  0.00     0.041 A 
ATOM     73  F   UNL A   1      45.509  24.197  25.951  1.00  0.00    -0.206 F 
ATOM     74  C   UNL A   1      44.323  20.962  25.034  1.00  0.00     0.022 A 
BRANCH  71  75
ATOM     75  S   UNL A   1      42.592  19.106  26.147  1.00  0.00     0.124 S 
ATOM     76  O   UNL A   1      43.596  18.245  25.530  1.00  0.00    -0.237 OA
ATOM     77  O   UNL A   1      42.409  18.964  27.587  1.00  0.00    -0.237 OA
ATOM     78  O   UNL A   1      41.356  19.254  25.380  1.00  0.00    -0.744 OA
ENDBRANCH  71  75
ENDBRANCH  54  68
BRANCH  55  79
ATOM     79  C   UNL A   1      41.525  30.212  33.018  1.00  0.00     0.023 A 
ATOM     80  C   UNL A   1      41.592  31.621  33.055  1.00  0.00     0.031 A 
ATOM     81  C   UNL A   1      40.256  29.620  32.985  1.00  0.00     0.131 A 
ATOM     82  C   UNL A   1      40.442  32.382  32.800  1.00  0.00     0.055 A 
ATOM     83  C   UNL A   1      39.096  30.397  32.864  1.00  0.00     0.041 A 
ATOM     84  F   UNL A   1      40.123  28.288  32.913  1.00  0.00    -0.206 F 
ATOM     85  C   UNL A   1      39.189  31.781  32.709  1.00  0.00     0.022 A 
BRANCH  82  86
ATOM     86  S   UNL A   1      40.683  34.087  32.205  1.00  0.00     0.124 S 
ATOM     87  O   UNL A   1      41.851  33.931  31.346  1.00  0.00    -0.237 OA
ATOM     88  O   UNL A   1      39.400  34.346  31.550  1.00  0.00    -0.237 OA
ATOM     89  O   UNL A   1      40.890  34.855  33.432  1.00  0.00    -0.744 OA
ENDBRANCH  82  86
ENDBRANCH  55  79
BRANCH  67  90
ATOM     90  C   UNL A   1      44.985  23.831  33.494  1.00  0.00     0.023 A 
ATOM     91  C   UNL A   1      46.285  23.397  33.797  1.00  0.00     0.031 A 
ATOM     92  C   UNL A   1      43.934  23.014  33.974  1.00  0.00     0.131 A 
ATOM     93  C   UNL A   1      46.498  22.263  34.602  1.00  0.00     0.055 A 
ATOM     94  C   UNL A   1      44.152  21.834  34.692  1.00  0.00     0.041 A 
ATOM     95  F   UNL A   1      42.645  23.346  33.813  1.00  0.00    -0.206 F 
ATOM     96  C   UNL A   1      45.441  21.459  35.025  1.00  0.00     0.022 A 
BRANCH  93  97
ATOM     97  S   UNL A   1      48.182  21.903  35.164  1.00  0.00     0.124 S 
ATOM     98  O   UNL A   1      48.977  22.897  34.452  1.00  0.00    -0.237 OA
ATOM     99  O   UNL A   1      48.061  22.102  36.606  1.00  0.00    -0.237 OA
ATOM    100  O   UNL A   1      48.398  20.518  34.748  1.00  0.00    -0.744 OA
ENDBRANCH  93  97
ENDBRANCH  67  90
ENDBRANCH  41  42
ENDBRANCH  33  36
ENDBRANCH  31  32
ENDBRANCH   1  31
TORSDOF 16
ENDMDL
MODEL 2
REMARK VINA RESULT:     -13.8      3.942     10.668
REMARK SMILES Cc1cccc(CC(=O)N2CCC3(CCC(=O)N([C@H](C)C(=O)NCCCNC(=O)c4ccc(-c5c6nc(c(-c7cc(S(=O)(=O)[O-])ccc7F)c7ccc([nH]7)c(-c7cc(S(=O)(=O)[O-])ccc7F)c7nc(c(-c8cc(S(=O)(=O)[O-])ccc8F)c8ccc5[nH]8)C=C7)C=C6)cc4)C3)CC2)c1
REMARK SMILES IDX 25 1 24 2 23 3 21 4 22 5 19 7 20 8 18 9 8 10 9 11 10 12
REMARK SMILES IDX 11 13 95 14 12 15 94 16 13 17 14 18 93 19 15 20 16 21 17 22
REMARK SMILES IDX 7 23 6 24 1 25 2 26 3 27 96 28 4 29 5 30 26 31 27 32 28 33
REMARK SMILES IDX 29 35 30 36 31 37 92 38 32 39 91 40 33 41 34 42 35 43 85 44
REMARK SMILES IDX 36 45 90 46 84 47 86 48 37 49 89 50 83 51 82 52 38 54 70 55
REMARK SMILES IDX 50 56 69 57 51 58 54 59 68 60 87 61 52 62 53 63 67 65 88 66
REMARK SMILES IDX 55 67 39 68 40 69 48 70 41 71 47 72 49 73 46 74 42 75 43 76
REMARK SMILES IDX 44 77 45 78 71 79 72 80 80 81 73 82 79 83 81 84 78 85 74 86
REMARK SMILES IDX 75 87 76 88 77 89 56 90 57 91 65 92 58 93 64 94 66 95 63 96
REMARK SMILES IDX 59 97 60 98 61 99 62 100
REMARK H PARENT 23 6 27 34 86 53 54 64
REMARK Flexibility Score: inf
ROOT
ATOM      1  C   UNL A   1      38.528  21.687  25.470  1.00  0.00     0.042 C 
ENDROOT
BRANCH   1   2
ATOM      2  C   UNL A   1      37.042  21.444  25.373  1.00  0.00     0.117 C 
BRANCH   2   3
ATOM      3  N   UNL A   1      36.450  21.914  24.134  1.00  0.00    -0.354 N 
ATOM      4  C   UNL A   1      35.419  22.791  23.942  1.00  0.00     0.242 C 
ATOM      5  O   UNL A   1      35.063  23.060  22.788  1.00  0.00    -0.273 OA
ATOM      6  H   UNL A   1      36.847  21.546  23.312  1.00  0.00     0.163 HD
BRANCH   4   7
ATOM      7  C   UNL A   1      34.588  23.330  25.136  1.00  0.00     0.171 C 
ATOM      8  C   UNL A   1      35.218  24.598  25.723  1.00  0.00     0.042 C 
BRANCH   7   9
ATOM      9  N   UNL A   1      33.128  23.468  24.969  1.00  0.00    -0.330 N 
ATOM     10  C   UNL A   1      30.416  28.885  22.661  1.00  0.00     0.226 C 
ATOM     11  O   UNL A   1      30.892  29.397  21.640  1.00  0.00    -0.275 OA
ATOM     12  N   UNL A   1      30.445  27.513  22.843  1.00  0.00    -0.342 N 
ATOM     13  C   UNL A   1      31.424  26.707  22.115  1.00  0.00     0.120 C 
ATOM     14  C   UNL A   1      29.586  26.734  23.722  1.00  0.00     0.120 C 
ATOM     15  C   UNL A   1      32.292  25.923  23.110  1.00  0.00     0.030 C 
ATOM     16  C   UNL A   1      30.427  26.099  24.812  1.00  0.00     0.030 C 
ATOM     17  C   UNL A   1      31.474  25.149  24.187  1.00  0.00    -0.008 C 
ATOM     18  C   UNL A   1      30.702  23.942  23.568  1.00  0.00     0.019 C 
ATOM     19  C   UNL A   1      32.435  24.686  25.314  1.00  0.00     0.127 C 
ATOM     20  C   UNL A   1      31.577  22.737  23.322  1.00  0.00     0.101 C 
ATOM     21  C   UNL A   1      32.298  22.431  24.605  1.00  0.00     0.223 C 
ATOM     22  O   UNL A   1      32.146  21.404  25.240  1.00  0.00    -0.275 OA
BRANCH  10  23
ATOM     23  C   UNL A   1      30.018  29.807  23.814  1.00  0.00     0.135 C 
BRANCH  23  24
ATOM     24  C   UNL A   1      31.038  30.131  24.872  1.00  0.00    -0.038 A 
ATOM     25  C   UNL A   1      34.034  28.410  26.498  1.00  0.00     0.044 C 
ATOM     26  C   UNL A   1      32.968  29.422  26.189  1.00  0.00    -0.051 A 
ATOM     27  C   UNL A   1      32.790  30.533  27.019  1.00  0.00     0.003 A 
ATOM     28  C   UNL A   1      32.105  29.241  25.103  1.00  0.00     0.007 A 
ATOM     29  C   UNL A   1      31.768  31.451  26.766  1.00  0.00     0.001 A 
ATOM     30  C   UNL A   1      30.896  31.255  25.694  1.00  0.00     0.004 A 
ENDBRANCH  23  24
ENDBRANCH  10  23
ENDBRANCH   7   9
ENDBRANCH   4   7
ENDBRANCH   2   3
ENDBRANCH   1   2
BRANCH   1  31
ATOM     31  C   UNL A   1      38.837  23.057  26.033  1.00  0.00     0.118 C 
BRANCH  31  32
ATOM     32  N   UNL A   1      40.184  23.169  26.607  1.00  0.00    -0.352 N 
ATOM     33  C   UNL A   1      40.828  24.305  27.072  1.00  0.00     0.251 C 
ATOM     34  H   UNL A   1      40.694  22.330  26.670  1.00  0.00     0.163 HD
ATOM     35  O   UNL A   1      41.977  24.283  27.502  1.00  0.00    -0.269 OA
BRANCH  33  36
ATOM     36  C   UNL A   1      40.028  25.543  27.185  1.00  0.00     0.039 A 
ATOM     37  C   UNL A   1      40.507  26.648  26.472  1.00  0.00     0.014 A 
ATOM     38  C   UNL A   1      39.190  25.701  28.281  1.00  0.00     0.014 A 
ATOM     39  C   UNL A   1      40.409  27.906  27.048  1.00  0.00     0.010 A 
ATOM     40  C   UNL A   1      39.223  26.921  28.924  1.00  0.00     0.010 A 
ATOM     41  C   UNL A   1      39.898  28.000  28.338  1.00  0.00    -0.014 A 
BRANCH  41  42
ATOM     42  C   UNL A   1      40.075  29.171  29.183  1.00  0.00     0.031 A 
ATOM     43  C   UNL A   1      39.064  30.241  29.118  1.00  0.00     0.074 A 
ATOM     44  C   UNL A   1      41.121  29.272  30.036  1.00  0.00     0.049 A 
ATOM     45  N   UNL A   1      39.258  31.438  29.546  1.00  0.00    -0.248 NA
ATOM     46  C   UNL A   1      37.766  30.070  28.464  1.00  0.00     0.031 C 
ATOM     47  C   UNL A   1      41.304  30.251  31.106  1.00  0.00     0.029 A 
ATOM     48  N   UNL A   1      42.372  28.666  29.908  1.00  0.00    -0.354 N 
ATOM     49  C   UNL A   1      38.049  32.080  29.526  1.00  0.00     0.074 A 
ATOM     50  C   UNL A   1      37.202  31.256  28.707  1.00  0.00     0.031 C 
ATOM     51  C   UNL A   1      42.617  30.392  31.346  1.00  0.00     0.029 A 
ATOM     52  C   UNL A   1      43.323  29.617  30.345  1.00  0.00     0.049 A 
ATOM     53  H   UNL A   1      42.555  27.756  29.578  1.00  0.00     0.167 HD
ATOM     54  C   UNL A   1      37.881  33.162  30.330  1.00  0.00     0.034 A 
ATOM     55  C   UNL A   1      44.272  30.096  29.486  1.00  0.00     0.034 A 
ATOM     56  C   UNL A   1      39.174  33.681  30.790  1.00  0.00     0.049 A 
ATOM     57  C   UNL A   1      44.170  31.589  29.229  1.00  0.00     0.074 A 
ATOM     58  C   UNL A   1      39.856  33.725  31.992  1.00  0.00     0.029 A 
ATOM     59  N   UNL A   1      40.094  34.058  29.824  1.00  0.00    -0.354 N 
ATOM     60  N   UNL A   1      43.262  32.372  29.749  1.00  0.00    -0.248 NA
ATOM     61  C   UNL A   1      45.035  32.300  28.289  1.00  0.00     0.031 C 
ATOM     62  C   UNL A   1      41.220  34.066  31.713  1.00  0.00     0.029 A 
ATOM     63  C   UNL A   1      41.348  34.281  30.350  1.00  0.00     0.049 A 
ATOM     64  H   UNL A   1      39.877  34.155  28.869  1.00  0.00     0.167 HD
ATOM     65  C   UNL A   1      43.339  33.614  29.174  1.00  0.00     0.074 A 
ATOM     66  C   UNL A   1      44.475  33.522  28.271  1.00  0.00     0.031 C 
ATOM     67  C   UNL A   1      42.436  34.609  29.435  1.00  0.00     0.034 A 
BRANCH  54  68
ATOM     68  C   UNL A   1      36.544  33.671  30.822  1.00  0.00     0.023 A 
ATOM     69  C   UNL A   1      35.637  34.193  29.877  1.00  0.00     0.031 A 
ATOM     70  C   UNL A   1      36.146  33.809  32.174  1.00  0.00     0.131 A 
ATOM     71  C   UNL A   1      34.437  34.811  30.277  1.00  0.00     0.055 A 
ATOM     72  C   UNL A   1      34.922  34.362  32.564  1.00  0.00     0.041 A 
ATOM     73  F   UNL A   1      36.936  33.485  33.202  1.00  0.00    -0.206 F 
ATOM     74  C   UNL A   1      34.063  34.879  31.615  1.00  0.00     0.022 A 
BRANCH  71  75
ATOM     75  S   UNL A   1      33.399  35.613  29.026  1.00  0.00     0.124 S 
ATOM     76  O   UNL A   1      34.394  36.197  28.134  1.00  0.00    -0.237 OA
ATOM     77  O   UNL A   1      32.629  34.493  28.498  1.00  0.00    -0.237 OA
ATOM     78  O   UNL A   1      32.625  36.583  29.801  1.00  0.00    -0.744 OA
ENDBRANCH  71  75
ENDBRANCH  54  68
BRANCH  55  79
ATOM     79  C   UNL A   1      44.719  29.052  28.511  1.00  0.00     0.023 A 
ATOM     80  C   UNL A   1      45.439  27.967  29.054  1.00  0.00     0.031 A 
ATOM     81  C   UNL A   1      44.092  28.865  27.273  1.00  0.00     0.131 A 
ATOM     82  C   UNL A   1      45.300  26.687  28.497  1.00  0.00     0.055 A 
ATOM     83  C   UNL A   1      44.071  27.608  26.653  1.00  0.00     0.041 A 
ATOM     84  F   UNL A   1      43.363  29.844  26.718  1.00  0.00    -0.206 F 
ATOM     85  C   UNL A   1      44.623  26.498  27.294  1.00  0.00     0.022 A 
BRANCH  82  86
ATOM     86  S   UNL A   1      45.671  25.263  29.571  1.00  0.00     0.124 S 
ATOM     87  O   UNL A   1      45.609  24.160  28.620  1.00  0.00    -0.237 OA
ATOM     88  O   UNL A   1      46.990  25.630  30.087  1.00  0.00    -0.237 OA
ATOM     89  O   UNL A   1      44.608  25.302  30.575  1.00  0.00    -0.744 OA
ENDBRANCH  82  86
ENDBRANCH  55  79
BRANCH  67  90
ATOM     90  C   UNL A   1      42.492  35.972  28.781  1.00  0.00     0.023 A 
ATOM     91  C   UNL A   1      42.942  37.111  29.467  1.00  0.00     0.031 A 
ATOM     92  C   UNL A   1      42.031  36.189  27.460  1.00  0.00     0.131 A 
ATOM     93  C   UNL A   1      43.000  38.363  28.829  1.00  0.00     0.055 A 
ATOM     94  C   UNL A   1      42.001  37.453  26.862  1.00  0.00     0.041 A 
ATOM     95  F   UNL A   1      41.637  35.181  26.670  1.00  0.00    -0.206 F 
ATOM     96  C   UNL A   1      42.503  38.549  27.540  1.00  0.00     0.022 A 
BRANCH  93  97
ATOM     97  S   UNL A   1      43.822  39.733  29.682  1.00  0.00     0.124 S 
ATOM     98  O   UNL A   1      45.087  39.846  28.965  1.00  0.00    -0.237 OA
ATOM     99  O   UNL A   1      42.873  40.824  29.469  1.00  0.00    -0.237 OA
ATOM    100  O   UNL A   1      43.928  39.268  31.064  1.00  0.00    -0.744 OA
ENDBRANCH  93  97
ENDBRANCH  67  90
ENDBRANCH  41  42
ENDBRANCH  33  36
ENDBRANCH  31  32
ENDBRANCH   1  31
TORSDOF 16
ENDMDL
MODEL 3
REMARK VINA RESULT:     -13.6      1.329      2.263
REMARK SMILES Cc1cccc(CC(=O)N2CCC3(CCC(=O)N([C@H](C)C(=O)NCCCNC(=O)c4ccc(-c5c6nc(c(-c7cc(S(=O)(=O)[O-])ccc7F)c7ccc([nH]7)c(-c7cc(S(=O)(=O)[O-])ccc7F)c7nc(c(-c8cc(S(=O)(=O)[O-])ccc8F)c8ccc5[nH]8)C=C7)C=C6)cc4)C3)CC2)c1
REMARK SMILES IDX 25 1 24 2 23 3 21 4 22 5 19 7 20 8 18 9 8 10 9 11 10 12
REMARK SMILES IDX 11 13 95 14 12 15 94 16 13 17 14 18 93 19 15 20 16 21 17 22
REMARK SMILES IDX 7 23 6 24 1 25 2 26 3 27 96 28 4 29 5 30 26 31 27 32 28 33
REMARK SMILES IDX 29 35 30 36 31 37 92 38 32 39 91 40 33 41 34 42 35 43 85 44
REMARK SMILES IDX 36 45 90 46 84 47 86 48 37 49 89 50 83 51 82 52 38 54 70 55
REMARK SMILES IDX 50 56 69 57 51 58 54 59 68 60 87 61 52 62 53 63 67 65 88 66
REMARK SMILES IDX 55 67 39 68 40 69 48 70 41 71 47 72 49 73 46 74 42 75 43 76
REMARK SMILES IDX 44 77 45 78 71 79 72 80 80 81 73 82 79 83 81 84 78 85 74 86
REMARK SMILES IDX 75 87 76 88 77 89 56 90 57 91 65 92 58 93 64 94 66 95 63 96
REMARK SMILES IDX 59 97 60 98 61 99 62 100
REMARK H PARENT 23 6 27 34 86 53 54 64
REMARK Flexibility Score: inf
ROOT
ATOM      1  C   UNL A   1      32.956  31.053  27.077  1.00  0.00     0.042 C 
ENDROOT
BRANCH   1   2
ATOM      2  C   UNL A   1      31.864  30.086  26.691  1.00  0.00     0.117 C 
BRANCH   2   3
ATOM      3  N   UNL A   1      31.447  30.192  25.305  1.00  0.00    -0.354 N 
ATOM      4  C   UNL A   1      30.999  29.219  24.456  1.00  0.00     0.242 C 
ATOM      5  O   UNL A   1      30.691  29.525  23.298  1.00  0.00    -0.273 OA
ATOM      6  H   UNL A   1      31.495  31.097  24.919  1.00  0.00     0.163 HD
BRANCH   4   7
ATOM      7  C   UNL A   1      31.019  27.723  24.864  1.00  0.00     0.171 C 
ATOM      8  C   UNL A   1      29.865  26.954  24.212  1.00  0.00     0.042 C 
BRANCH   7   9
ATOM      9  N   UNL A   1      32.295  26.987  24.767  1.00  0.00    -0.330 N 
ATOM     10  C   UNL A   1      32.525  20.642  23.456  1.00  0.00     0.226 C 
ATOM     11  O   UNL A   1      31.847  20.206  22.518  1.00  0.00    -0.275 OA
ATOM     12  N   UNL A   1      33.055  21.921  23.411  1.00  0.00    -0.342 N 
ATOM     13  C   UNL A   1      32.454  22.923  22.532  1.00  0.00     0.120 C 
ATOM     14  C   UNL A   1      34.186  22.422  24.178  1.00  0.00     0.120 C 
ATOM     15  C   UNL A   1      32.009  24.138  23.359  1.00  0.00     0.030 C 
ATOM     16  C   UNL A   1      33.710  23.507  25.124  1.00  0.00     0.030 C 
ATOM     17  C   UNL A   1      33.108  24.682  24.321  1.00  0.00    -0.008 C 
ATOM     18  C   UNL A   1      34.274  25.362  23.537  1.00  0.00     0.019 C 
ATOM     19  C   UNL A   1      32.455  25.667  25.327  1.00  0.00     0.127 C 
ATOM     20  C   UNL A   1      33.946  26.759  23.071  1.00  0.00     0.101 C 
ATOM     21  C   UNL A   1      33.457  27.531  24.264  1.00  0.00     0.223 C 
ATOM     22  O   UNL A   1      34.030  28.499  24.728  1.00  0.00    -0.275 OA
BRANCH  10  23
ATOM     23  C   UNL A   1      32.566  19.838  24.756  1.00  0.00     0.135 C 
BRANCH  23  24
ATOM     24  C   UNL A   1      33.196  18.471  24.745  1.00  0.00    -0.038 A 
ATOM     25  C   UNL A   1      32.211  14.922  25.751  1.00  0.00     0.044 C 
ATOM     26  C   UNL A   1      33.017  16.092  25.267  1.00  0.00    -0.051 A 
ATOM     27  C   UNL A   1      34.389  15.954  25.030  1.00  0.00     0.003 A 
ATOM     28  C   UNL A   1      32.423  17.347  25.097  1.00  0.00     0.007 A 
ATOM     29  C   UNL A   1      35.154  17.051  24.628  1.00  0.00     0.001 A 
ATOM     30  C   UNL A   1      34.561  18.306  24.481  1.00  0.00     0.004 A 
ENDBRANCH  23  24
ENDBRANCH  10  23
ENDBRANCH   7   9
ENDBRANCH   4   7
ENDBRANCH   2   3
ENDBRANCH   1   2
BRANCH   1  31
ATOM     31  C   UNL A   1      34.064  30.371  27.848  1.00  0.00     0.118 C 
BRANCH  31  32
ATOM     32  N   UNL A   1      34.924  31.300  28.591  1.00  0.00    -0.352 N 
ATOM     33  C   UNL A   1      36.125  31.035  29.232  1.00  0.00     0.251 C 
ATOM     34  H   UNL A   1      34.608  32.231  28.642  1.00  0.00     0.163 HD
ATOM     35  O   UNL A   1      36.743  31.891  29.857  1.00  0.00    -0.269 OA
BRANCH  33  36
ATOM     36  C   UNL A   1      36.736  29.707  29.009  1.00  0.00     0.039 A 
ATOM     37  C   UNL A   1      37.007  28.958  30.160  1.00  0.00     0.014 A 
ATOM     38  C   UNL A   1      37.414  29.472  27.820  1.00  0.00     0.014 A 
ATOM     39  C   UNL A   1      38.171  28.204  30.205  1.00  0.00     0.010 A 
ATOM     40  C   UNL A   1      38.640  28.849  27.912  1.00  0.00     0.010 A 
ATOM     41  C   UNL A   1      39.046  28.282  29.128  1.00  0.00    -0.014 A 
BRANCH  41  42
ATOM     42  C   UNL A   1      40.434  27.851  29.195  1.00  0.00     0.031 A 
ATOM     43  C   UNL A   1      40.761  26.473  28.789  1.00  0.00     0.074 A 
ATOM     44  C   UNL A   1      41.415  28.698  29.588  1.00  0.00     0.049 A 
ATOM     45  N   UNL A   1      41.855  25.874  29.101  1.00  0.00    -0.248 NA
ATOM     46  C   UNL A   1      39.821  25.612  28.071  1.00  0.00     0.031 C 
ATOM     47  C   UNL A   1      42.859  28.497  29.477  1.00  0.00     0.029 A 
ATOM     48  N   UNL A   1      41.285  29.799  30.435  1.00  0.00    -0.354 N 
ATOM     49  C   UNL A   1      41.906  24.713  28.377  1.00  0.00     0.074 A 
ATOM     50  C   UNL A   1      40.568  24.521  27.886  1.00  0.00     0.031 C 
ATOM     51  C   UNL A   1      43.473  29.230  30.419  1.00  0.00     0.029 A 
ATOM     52  C   UNL A   1      42.439  29.812  31.253  1.00  0.00     0.049 A 
ATOM     53  H   UNL A   1      40.538  30.441  30.458  1.00  0.00     0.167 HD
ATOM     54  C   UNL A   1      43.118  24.136  28.168  1.00  0.00     0.034 A 
ATOM     55  C   UNL A   1      42.332  29.671  32.608  1.00  0.00     0.034 A 
ATOM     56  C   UNL A   1      44.120  24.667  29.100  1.00  0.00     0.049 A 
ATOM     57  C   UNL A   1      43.009  28.426  33.152  1.00  0.00     0.074 A 
ATOM     58  C   UNL A   1      45.232  25.482  29.003  1.00  0.00     0.029 A 
ATOM     59  N   UNL A   1      43.863  24.543  30.457  1.00  0.00    -0.354 N 
ATOM     60  N   UNL A   1      43.632  27.540  32.420  1.00  0.00    -0.248 NA
ATOM     61  C   UNL A   1      42.959  28.037  34.560  1.00  0.00     0.031 C 
ATOM     62  C   UNL A   1      45.589  25.899  30.328  1.00  0.00     0.029 A 
ATOM     63  C   UNL A   1      44.726  25.293  31.226  1.00  0.00     0.049 A 
ATOM     64  H   UNL A   1      43.144  23.983  30.829  1.00  0.00     0.167 HD
ATOM     65  C   UNL A   1      43.967  26.457  33.191  1.00  0.00     0.074 A 
ATOM     66  C   UNL A   1      43.532  26.821  34.530  1.00  0.00     0.031 C 
ATOM     67  C   UNL A   1      44.522  25.319  32.671  1.00  0.00     0.034 A 
BRANCH  54  68
ATOM     68  C   UNL A   1      43.440  23.196  27.028  1.00  0.00     0.023 A 
ATOM     69  C   UNL A   1      42.863  21.910  27.037  1.00  0.00     0.031 A 
ATOM     70  C   UNL A   1      44.385  23.422  25.998  1.00  0.00     0.131 A 
ATOM     71  C   UNL A   1      43.227  20.937  26.087  1.00  0.00     0.055 A 
ATOM     72  C   UNL A   1      44.695  22.475  25.015  1.00  0.00     0.041 A 
ATOM     73  F   UNL A   1      45.120  24.535  25.915  1.00  0.00    -0.206 F 
ATOM     74  C   UNL A   1      44.123  21.219  25.061  1.00  0.00     0.022 A 
BRANCH  71  75
ATOM     75  S   UNL A   1      42.578  19.253  26.256  1.00  0.00     0.124 S 
ATOM     76  O   UNL A   1      43.698  18.447  25.783  1.00  0.00    -0.237 OA
ATOM     77  O   UNL A   1      42.278  19.179  27.681  1.00  0.00    -0.237 OA
ATOM     78  O   UNL A   1      41.408  19.252  25.378  1.00  0.00    -0.744 OA
ENDBRANCH  71  75
ENDBRANCH  54  68
BRANCH  55  79
ATOM     79  C   UNL A   1      41.088  30.312  33.138  1.00  0.00     0.023 A 
ATOM     80  C   UNL A   1      41.050  31.722  33.089  1.00  0.00     0.031 A 
ATOM     81  C   UNL A   1      39.868  29.629  33.219  1.00  0.00     0.131 A 
ATOM     82  C   UNL A   1      39.832  32.380  32.863  1.00  0.00     0.055 A 
ATOM     83  C   UNL A   1      38.647  30.311  33.127  1.00  0.00     0.041 A 
ATOM     84  F   UNL A   1      39.833  28.289  33.234  1.00  0.00    -0.206 F 
ATOM     85  C   UNL A   1      38.626  31.685  32.886  1.00  0.00     0.022 A 
BRANCH  82  86
ATOM     86  S   UNL A   1      39.908  34.057  32.155  1.00  0.00     0.124 S 
ATOM     87  O   UNL A   1      38.593  34.579  32.506  1.00  0.00    -0.237 OA
ATOM     88  O   UNL A   1      41.061  34.615  32.863  1.00  0.00    -0.237 OA
ATOM     89  O   UNL A   1      40.143  33.820  30.731  1.00  0.00    -0.744 OA
ENDBRANCH  82  86
ENDBRANCH  55  79
BRANCH  67  90
ATOM     90  C   UNL A   1      44.865  24.105  33.507  1.00  0.00     0.023 A 
ATOM     91  C   UNL A   1      46.192  23.709  33.737  1.00  0.00     0.031 A 
ATOM     92  C   UNL A   1      43.866  23.263  34.050  1.00  0.00     0.131 A 
ATOM     93  C   UNL A   1      46.482  22.586  34.534  1.00  0.00     0.055 A 
ATOM     94  C   UNL A   1      44.157  22.095  34.761  1.00  0.00     0.041 A 
ATOM     95  F   UNL A   1      42.561  23.559  33.963  1.00  0.00    -0.206 F 
ATOM     96  C   UNL A   1      45.473  21.757  35.021  1.00  0.00     0.022 A 
BRANCH  93  97
ATOM     97  S   UNL A   1      48.204  22.276  34.999  1.00  0.00     0.124 S 
ATOM     98  O   UNL A   1      48.374  20.863  34.678  1.00  0.00    -0.237 OA
ATOM     99  O   UNL A   1      48.917  23.212  34.133  1.00  0.00    -0.237 OA
ATOM    100  O   UNL A   1      48.243  22.600  36.424  1.00  0.00    -0.744 OA
ENDBRANCH  93  97
ENDBRANCH  67  90
ENDBRANCH  41  42
ENDBRANCH  33  36
ENDBRANCH  31  32
ENDBRANCH   1  31
TORSDOF 16
ENDMDL
