MODEL 1
REMARK VINA RESULT:     -10.7      0.000      0.000
REMARK SMILES CC(C)[C@H](NC(=O)[C@H](C)NC(=O)C[NH3+])C(=O)NCCCNC(=O)c1ccc(-c2c3nc(c(-c4cc(S(=O)(=O)[O-])ccc4F)c4ccc([nH]4)c(-c4cc(S(=O)(=O)[O-])ccc4F)c4nc(c(-c5cc(S(=O)(=O)[O-])ccc5F)c5ccc2[nH]5)C=C4)C=C3)cc1
REMARK SMILES IDX 18 1 17 2 15 3 16 4 4 6 2 7 1 8 3 9 5 10 6 11 7 13 8 14 9 15
REMARK SMILES IDX 10 16 11 17 12 19 13 20 14 21 19 25 20 26 21 27 22 28 23 30
REMARK SMILES IDX 24 31 25 32 86 33 26 34 85 35 27 36 28 37 29 38 79 39 30 40
REMARK SMILES IDX 84 41 78 42 80 43 31 44 83 45 77 46 76 47 32 49 64 50 44 51
REMARK SMILES IDX 63 52 45 53 48 54 62 55 81 56 46 57 47 58 61 60 82 61 49 62
REMARK SMILES IDX 33 63 34 64 42 65 35 66 41 67 43 68 40 69 36 70 37 71 38 72
REMARK SMILES IDX 39 73 65 74 66 75 74 76 67 77 73 78 75 79 72 80 68 81 69 82
REMARK SMILES IDX 70 83 71 84 50 85 51 86 59 87 52 88 58 89 60 90 57 91 53 92
REMARK SMILES IDX 54 93 55 94 56 95
REMARK H PARENT 17 5 5 12 10 18 14 22 14 23 14 24 21 29 80 48 48 59
REMARK Flexibility Score: inf
ROOT
ATOM      1  C   UNL A   1      31.339  31.154  26.019  1.00  0.00     0.117 C 
ENDROOT
BRANCH   1   2
ATOM      2  N   UNL A   1      32.564  30.428  25.749  1.00  0.00    -0.354 N 
ATOM      3  C   UNL A   1      32.738  29.168  25.262  1.00  0.00     0.242 C 
ATOM      4  O   UNL A   1      33.870  28.841  24.892  1.00  0.00    -0.273 OA
ATOM      5  H   UNL A   1      33.395  30.918  25.946  1.00  0.00     0.163 HD
BRANCH   3   6
ATOM      6  C   UNL A   1      31.549  28.204  25.071  1.00  0.00     0.173 C 
BRANCH   6   7
ATOM      7  C   UNL A   1      31.504  27.040  26.127  1.00  0.00     0.015 C 
ATOM      8  C   UNL A   1      31.455  27.459  27.603  1.00  0.00     0.010 C 
ATOM      9  C   UNL A   1      30.428  25.975  25.864  1.00  0.00     0.010 C 
ENDBRANCH   6   7
BRANCH   6  10
ATOM     10  N   UNL A   1      31.436  27.781  23.670  1.00  0.00    -0.342 N 
ATOM     11  C   UNL A   1      30.468  27.948  22.727  1.00  0.00     0.242 C 
ATOM     12  H   UNL A   1      32.216  27.274  23.348  1.00  0.00     0.164 HD
ATOM     13  O   UNL A   1      30.727  27.465  21.617  1.00  0.00    -0.273 OA
BRANCH  11  14
ATOM     14  C   UNL A   1      29.196  28.814  22.902  1.00  0.00     0.168 C 
ATOM     15  C   UNL A   1      27.986  27.957  23.271  1.00  0.00     0.041 C 
BRANCH  14  16
ATOM     16  N   UNL A   1      28.934  29.714  21.785  1.00  0.00    -0.340 N 
ATOM     17  C   UNL A   1      28.739  31.063  21.804  1.00  0.00     0.275 C 
ATOM     18  H   UNL A   1      28.893  29.291  20.898  1.00  0.00     0.164 HD
ATOM     19  O   UNL A   1      28.562  31.645  20.732  1.00  0.00    -0.268 OA
BRANCH  17  20
ATOM     20  C   UNL A   1      28.729  31.826  23.130  1.00  0.00     0.360 C 
BRANCH  20  21
ATOM     21  N   UNL A   1      29.184  33.205  22.926  1.00  0.00    -0.350 N 
ATOM     22  H   UNL A   1      28.586  33.841  23.453  1.00  0.00     0.344 HD
ATOM     23  H   UNL A   1      29.137  33.436  21.935  1.00  0.00     0.344 HD
ATOM     24  H   UNL A   1      30.147  33.296  23.252  1.00  0.00     0.344 HD
ENDBRANCH  20  21
ENDBRANCH  17  20
ENDBRANCH  14  16
ENDBRANCH  11  14
ENDBRANCH   6  10
ENDBRANCH   3   6
ENDBRANCH   1   2
BRANCH   1  25
ATOM     25  C   UNL A   1      31.441  32.111  27.195  1.00  0.00     0.042 C 
BRANCH  25  26
ATOM     26  C   UNL A   1      32.783  32.824  27.287  1.00  0.00     0.118 C 
BRANCH  26  27
ATOM     27  N   UNL A   1      32.636  34.224  27.662  1.00  0.00    -0.352 N 
ATOM     28  C   UNL A   1      33.199  34.933  28.692  1.00  0.00     0.251 C 
ATOM     29  H   UNL A   1      32.036  34.746  27.082  1.00  0.00     0.163 HD
ATOM     30  O   UNL A   1      32.716  36.025  28.995  1.00  0.00    -0.269 OA
BRANCH  28  31
ATOM     31  C   UNL A   1      34.355  34.395  29.441  1.00  0.00     0.039 A 
ATOM     32  C   UNL A   1      34.133  33.713  30.639  1.00  0.00     0.014 A 
ATOM     33  C   UNL A   1      35.661  34.598  28.988  1.00  0.00     0.014 A 
ATOM     34  C   UNL A   1      35.214  33.182  31.348  1.00  0.00     0.010 A 
ATOM     35  C   UNL A   1      36.727  33.989  29.643  1.00  0.00     0.010 A 
ATOM     36  C   UNL A   1      36.518  33.283  30.836  1.00  0.00    -0.014 A 
BRANCH  36  37
ATOM     37  C   UNL A   1      37.680  32.681  31.539  1.00  0.00     0.031 A 
ATOM     38  C   UNL A   1      38.414  31.521  30.919  1.00  0.00     0.074 A 
ATOM     39  C   UNL A   1      38.028  33.130  32.761  1.00  0.00     0.049 A 
ATOM     40  N   UNL A   1      39.377  30.789  31.415  1.00  0.00    -0.248 NA
ATOM     41  C   UNL A   1      37.980  31.110  29.574  1.00  0.00     0.031 C 
ATOM     42  C   UNL A   1      37.368  34.222  33.480  1.00  0.00     0.029 A 
ATOM     43  N   UNL A   1      39.016  32.719  33.621  1.00  0.00    -0.354 N 
ATOM     44  C   UNL A   1      39.653  29.821  30.453  1.00  0.00     0.074 A 
ATOM     45  C   UNL A   1      38.710  30.023  29.374  1.00  0.00     0.031 C 
ATOM     46  C   UNL A   1      37.983  34.409  34.659  1.00  0.00     0.029 A 
ATOM     47  C   UNL A   1      39.047  33.420  34.804  1.00  0.00     0.049 A 
ATOM     48  H   UNL A   1      39.644  31.990  33.410  1.00  0.00     0.167 HD
ATOM     49  C   UNL A   1      40.618  28.868  30.460  1.00  0.00     0.034 A 
ATOM     50  C   UNL A   1      39.832  33.273  35.889  1.00  0.00     0.034 A 
ATOM     51  C   UNL A   1      41.562  28.695  31.536  1.00  0.00     0.049 A 
ATOM     52  C   UNL A   1      40.887  32.195  35.881  1.00  0.00     0.074 A 
ATOM     53  C   UNL A   1      42.613  27.798  31.626  1.00  0.00     0.029 A 
ATOM     54  N   UNL A   1      41.569  29.431  32.715  1.00  0.00    -0.354 N 
ATOM     55  N   UNL A   1      41.161  31.315  34.945  1.00  0.00    -0.248 NA
ATOM     56  C   UNL A   1      41.743  32.096  37.070  1.00  0.00     0.031 C 
ATOM     57  C   UNL A   1      43.214  27.949  32.880  1.00  0.00     0.029 A 
ATOM     58  C   UNL A   1      42.588  28.991  33.546  1.00  0.00     0.049 A 
ATOM     59  H   UNL A   1      40.943  30.160  32.928  1.00  0.00     0.167 HD
ATOM     60  C   UNL A   1      42.245  30.581  35.421  1.00  0.00     0.074 A 
ATOM     61  C   UNL A   1      42.581  31.132  36.718  1.00  0.00     0.031 C 
ATOM     62  C   UNL A   1      42.905  29.549  34.839  1.00  0.00     0.034 A 
BRANCH  49  63
ATOM     63  C   UNL A   1      40.683  27.933  29.275  1.00  0.00     0.023 A 
ATOM     64  C   UNL A   1      41.623  28.110  28.246  1.00  0.00     0.031 A 
ATOM     65  C   UNL A   1      39.779  26.863  29.162  1.00  0.00     0.131 A 
ATOM     66  C   UNL A   1      41.590  27.280  27.115  1.00  0.00     0.055 A 
ATOM     67  C   UNL A   1      39.805  25.988  28.073  1.00  0.00     0.041 A 
ATOM     68  F   UNL A   1      38.844  26.654  30.101  1.00  0.00    -0.206 F 
ATOM     69  C   UNL A   1      40.705  26.203  27.034  1.00  0.00     0.022 A 
BRANCH  66  70
ATOM     70  S   UNL A   1      42.628  27.713  25.692  1.00  0.00     0.124 S 
ATOM     71  O   UNL A   1      42.181  26.743  24.696  1.00  0.00    -0.237 OA
ATOM     72  O   UNL A   1      42.259  29.102  25.442  1.00  0.00    -0.237 OA
ATOM     73  O   UNL A   1      43.989  27.508  26.185  1.00  0.00    -0.744 OA
ENDBRANCH  66  70
ENDBRANCH  49  63
BRANCH  50  74
ATOM     74  C   UNL A   1      39.655  34.153  37.080  1.00  0.00     0.023 A 
ATOM     75  C   UNL A   1      39.072  33.662  38.259  1.00  0.00     0.031 A 
ATOM     76  C   UNL A   1      40.022  35.510  37.042  1.00  0.00     0.131 A 
ATOM     77  C   UNL A   1      38.822  34.533  39.332  1.00  0.00     0.055 A 
ATOM     78  C   UNL A   1      39.823  36.359  38.132  1.00  0.00     0.041 A 
ATOM     79  F   UNL A   1      40.589  36.030  35.941  1.00  0.00    -0.206 F 
ATOM     80  C   UNL A   1      39.205  35.875  39.282  1.00  0.00     0.022 A 
BRANCH  77  81
ATOM     81  S   UNL A   1      37.898  33.905  40.761  1.00  0.00     0.124 S 
ATOM     82  O   UNL A   1      38.862  32.989  41.359  1.00  0.00    -0.237 OA
ATOM     83  O   UNL A   1      37.629  35.130  41.507  1.00  0.00    -0.237 OA
ATOM     84  O   UNL A   1      36.726  33.275  40.158  1.00  0.00    -0.744 OA
ENDBRANCH  77  81
ENDBRANCH  50  74
BRANCH  62  85
ATOM     85  C   UNL A   1      44.091  28.988  35.585  1.00  0.00     0.023 A 
ATOM     86  C   UNL A   1      43.961  27.917  36.486  1.00  0.00     0.031 A 
ATOM     87  C   UNL A   1      45.370  29.545  35.398  1.00  0.00     0.131 A 
ATOM     88  C   UNL A   1      45.079  27.472  37.208  1.00  0.00     0.055 A 
ATOM     89  C   UNL A   1      46.489  29.058  36.073  1.00  0.00     0.041 A 
ATOM     90  F   UNL A   1      45.551  30.570  34.551  1.00  0.00    -0.206 F 
ATOM     91  C   UNL A   1      46.345  28.024  36.994  1.00  0.00     0.022 A 
BRANCH  88  92
ATOM     92  S   UNL A   1      44.840  26.221  38.499  1.00  0.00     0.124 S 
ATOM     93  O   UNL A   1      45.918  26.535  39.430  1.00  0.00    -0.237 OA
ATOM     94  O   UNL A   1      43.488  26.511  38.968  1.00  0.00    -0.237 OA
ATOM     95  O   UNL A   1      44.988  24.956  37.782  1.00  0.00    -0.744 OA
ENDBRANCH  88  92
ENDBRANCH  62  85
ENDBRANCH  36  37
ENDBRANCH  28  31
ENDBRANCH  26  27
ENDBRANCH  25  26
ENDBRANCH   1  25
TORSDOF 19
ENDMDL
MODEL 2
REMARK VINA RESULT:     -10.7      5.908     10.884
REMARK SMILES CC(C)[C@H](NC(=O)[C@H](C)NC(=O)C[NH3+])C(=O)NCCCNC(=O)c1ccc(-c2c3nc(c(-c4cc(S(=O)(=O)[O-])ccc4F)c4ccc([nH]4)c(-c4cc(S(=O)(=O)[O-])ccc4F)c4nc(c(-c5cc(S(=O)(=O)[O-])ccc5F)c5ccc2[nH]5)C=C4)C=C3)cc1
REMARK SMILES IDX 18 1 17 2 15 3 16 4 4 6 2 7 1 8 3 9 5 10 6 11 7 13 8 14 9 15
REMARK SMILES IDX 10 16 11 17 12 19 13 20 14 21 19 25 20 26 21 27 22 28 23 30
REMARK SMILES IDX 24 31 25 32 86 33 26 34 85 35 27 36 28 37 29 38 79 39 30 40
REMARK SMILES IDX 84 41 78 42 80 43 31 44 83 45 77 46 76 47 32 49 64 50 44 51
REMARK SMILES IDX 63 52 45 53 48 54 62 55 81 56 46 57 47 58 61 60 82 61 49 62
REMARK SMILES IDX 33 63 34 64 42 65 35 66 41 67 43 68 40 69 36 70 37 71 38 72
REMARK SMILES IDX 39 73 65 74 66 75 74 76 67 77 73 78 75 79 72 80 68 81 69 82
REMARK SMILES IDX 70 83 71 84 50 85 51 86 59 87 52 88 58 89 60 90 57 91 53 92
REMARK SMILES IDX 54 93 55 94 56 95
REMARK H PARENT 17 5 5 12 10 18 14 22 14 23 14 24 21 29 80 48 48 59
REMARK Flexibility Score: inf
ROOT
ATOM      1  C   UNL A   1      34.251  23.526  26.092  1.00  0.00     0.117 C 
ENDROOT
BRANCH   1   2
ATOM      2  N   UNL A   1      32.982  23.455  26.790  1.00  0.00    -0.354 N 
ATOM      3  C   UNL A   1      31.895  24.271  26.702  1.00  0.00     0.242 C 
ATOM      4  O   UNL A   1      30.840  23.886  27.214  1.00  0.00    -0.273 OA
ATOM      5  H   UNL A   1      32.892  22.705  27.422  1.00  0.00     0.163 HD
BRANCH   3   6
ATOM      6  C   UNL A   1      31.935  25.587  25.898  1.00  0.00     0.173 C 
BRANCH   6   7
ATOM      7  C   UNL A   1      32.552  26.794  26.695  1.00  0.00     0.015 C 
ATOM      8  C   UNL A   1      33.797  27.451  26.083  1.00  0.00     0.010 C 
ATOM      9  C   UNL A   1      31.544  27.885  27.090  1.00  0.00     0.010 C 
ENDBRANCH   6   7
BRANCH   6  10
ATOM     10  N   UNL A   1      30.639  25.855  25.264  1.00  0.00    -0.342 N 
ATOM     11  C   UNL A   1      30.278  26.158  23.987  1.00  0.00     0.242 C 
ATOM     12  H   UNL A   1      29.878  25.806  25.887  1.00  0.00     0.164 HD
ATOM     13  O   UNL A   1      29.061  26.298  23.803  1.00  0.00    -0.273 OA
BRANCH  11  14
ATOM     14  C   UNL A   1      31.236  26.168  22.770  1.00  0.00     0.168 C 
ATOM     15  C   UNL A   1      31.766  24.768  22.467  1.00  0.00     0.041 C 
BRANCH  14  16
ATOM     16  N   UNL A   1      32.294  27.168  22.857  1.00  0.00    -0.340 N 
ATOM     17  C   UNL A   1      32.184  28.527  22.874  1.00  0.00     0.275 C 
ATOM     18  H   UNL A   1      33.211  26.815  22.912  1.00  0.00     0.164 HD
ATOM     19  O   UNL A   1      33.213  29.197  22.986  1.00  0.00    -0.268 OA
BRANCH  17  20
ATOM     20  C   UNL A   1      30.815  29.195  22.744  1.00  0.00     0.360 C 
BRANCH  20  21
ATOM     21  N   UNL A   1      30.776  30.047  21.551  1.00  0.00    -0.350 N 
ATOM     22  H   UNL A   1      29.806  30.264  21.321  1.00  0.00     0.344 HD
ATOM     23  H   UNL A   1      31.210  29.557  20.770  1.00  0.00     0.344 HD
ATOM     24  H   UNL A   1      31.283  30.913  21.735  1.00  0.00     0.344 HD
ENDBRANCH  20  21
ENDBRANCH  17  20
ENDBRANCH  14  16
ENDBRANCH  11  14
ENDBRANCH   6  10
ENDBRANCH   3   6
ENDBRANCH   1   2
BRANCH   1  25
ATOM     25  C   UNL A   1      34.977  22.194  26.006  1.00  0.00     0.042 C 
BRANCH  25  26
ATOM     26  C   UNL A   1      36.256  22.249  25.184  1.00  0.00     0.118 C 
BRANCH  26  27
ATOM     27  N   UNL A   1      37.136  21.120  25.461  1.00  0.00    -0.352 N 
ATOM     28  C   UNL A   1      38.465  21.090  25.795  1.00  0.00     0.251 C 
ATOM     29  H   UNL A   1      36.706  20.237  25.399  1.00  0.00     0.163 HD
ATOM     30  O   UNL A   1      39.077  20.024  25.702  1.00  0.00    -0.269 OA
BRANCH  28  31
ATOM     31  C   UNL A   1      39.163  22.313  26.245  1.00  0.00     0.039 A 
ATOM     32  C   UNL A   1      40.342  22.191  26.985  1.00  0.00     0.014 A 
ATOM     33  C   UNL A   1      38.639  23.580  25.976  1.00  0.00     0.014 A 
ATOM     34  C   UNL A   1      41.024  23.338  27.400  1.00  0.00     0.010 A 
ATOM     35  C   UNL A   1      39.367  24.719  26.307  1.00  0.00     0.010 A 
ATOM     36  C   UNL A   1      40.562  24.612  27.032  1.00  0.00    -0.014 A 
BRANCH  36  37
ATOM     37  C   UNL A   1      41.296  25.847  27.412  1.00  0.00     0.031 A 
ATOM     38  C   UNL A   1      40.605  26.910  28.226  1.00  0.00     0.074 A 
ATOM     39  C   UNL A   1      42.554  26.040  26.968  1.00  0.00     0.049 A 
ATOM     40  N   UNL A   1      41.030  28.099  28.567  1.00  0.00    -0.248 NA
ATOM     41  C   UNL A   1      39.241  26.606  28.686  1.00  0.00     0.031 C 
ATOM     42  C   UNL A   1      43.312  25.099  26.142  1.00  0.00     0.029 A 
ATOM     43  N   UNL A   1      43.413  27.096  27.140  1.00  0.00    -0.354 N 
ATOM     44  C   UNL A   1      39.981  28.691  29.265  1.00  0.00     0.074 A 
ATOM     45  C   UNL A   1      38.880  27.753  29.241  1.00  0.00     0.031 C 
ATOM     46  C   UNL A   1      44.530  25.609  25.899  1.00  0.00     0.029 A 
ATOM     47  C   UNL A   1      44.624  26.933  26.507  1.00  0.00     0.049 A 
ATOM     48  H   UNL A   1      43.185  27.896  27.667  1.00  0.00     0.167 HD
ATOM     49  C   UNL A   1      39.950  29.895  29.888  1.00  0.00     0.034 A 
ATOM     50  C   UNL A   1      45.682  27.761  26.413  1.00  0.00     0.034 A 
ATOM     51  C   UNL A   1      41.065  30.809  29.919  1.00  0.00     0.049 A 
ATOM     52  C   UNL A   1      45.617  29.103  27.099  1.00  0.00     0.074 A 
ATOM     53  C   UNL A   1      41.162  32.031  30.562  1.00  0.00     0.029 A 
ATOM     54  N   UNL A   1      42.279  30.604  29.274  1.00  0.00    -0.354 N 
ATOM     55  N   UNL A   1      44.632  29.629  27.790  1.00  0.00    -0.248 NA
ATOM     56  C   UNL A   1      46.808  29.956  26.999  1.00  0.00     0.031 C 
ATOM     57  C   UNL A   1      42.407  32.592  30.257  1.00  0.00     0.029 A 
ATOM     58  C   UNL A   1      43.119  31.688  29.484  1.00  0.00     0.049 A 
ATOM     59  H   UNL A   1      42.510  29.806  28.747  1.00  0.00     0.167 HD
ATOM     60  C   UNL A   1      45.100  30.863  28.236  1.00  0.00     0.074 A 
ATOM     61  C   UNL A   1      46.458  30.992  27.748  1.00  0.00     0.031 C 
ATOM     62  C   UNL A   1      44.469  31.802  28.984  1.00  0.00     0.034 A 
BRANCH  49  63
ATOM     63  C   UNL A   1      38.661  30.295  30.567  1.00  0.00     0.023 A 
ATOM     64  C   UNL A   1      37.663  31.017  29.889  1.00  0.00     0.031 A 
ATOM     65  C   UNL A   1      38.434  29.969  31.915  1.00  0.00     0.131 A 
ATOM     66  C   UNL A   1      36.522  31.453  30.579  1.00  0.00     0.055 A 
ATOM     67  C   UNL A   1      37.258  30.335  32.574  1.00  0.00     0.041 A 
ATOM     68  F   UNL A   1      39.358  29.300  32.623  1.00  0.00    -0.206 F 
ATOM     69  C   UNL A   1      36.299  31.093  31.910  1.00  0.00     0.022 A 
BRANCH  66  70
ATOM     70  S   UNL A   1      35.400  32.612  29.751  1.00  0.00     0.124 S 
ATOM     71  O   UNL A   1      36.338  33.448  29.006  1.00  0.00    -0.237 OA
ATOM     72  O   UNL A   1      34.561  31.726  28.953  1.00  0.00    -0.237 OA
ATOM     73  O   UNL A   1      34.722  33.284  30.858  1.00  0.00    -0.744 OA
ENDBRANCH  66  70
ENDBRANCH  49  63
BRANCH  50  74
ATOM     74  C   UNL A   1      46.892  27.363  25.636  1.00  0.00     0.023 A 
ATOM     75  C   UNL A   1      47.075  27.798  24.313  1.00  0.00     0.031 A 
ATOM     76  C   UNL A   1      47.859  26.504  26.187  1.00  0.00     0.131 A 
ATOM     77  C   UNL A   1      48.168  27.329  23.568  1.00  0.00     0.055 A 
ATOM     78  C   UNL A   1      48.975  26.087  25.460  1.00  0.00     0.041 A 
ATOM     79  F   UNL A   1      47.736  26.064  27.450  1.00  0.00    -0.206 F 
ATOM     80  C   UNL A   1      49.127  26.487  24.136  1.00  0.00     0.022 A 
BRANCH  77  81
ATOM     81  S   UNL A   1      48.267  27.761  21.809  1.00  0.00     0.124 S 
ATOM     82  O   UNL A   1      46.962  28.370  21.579  1.00  0.00    -0.237 OA
ATOM     83  O   UNL A   1      49.411  28.668  21.785  1.00  0.00    -0.237 OA
ATOM     84  O   UNL A   1      48.481  26.474  21.154  1.00  0.00    -0.744 OA
ENDBRANCH  77  81
ENDBRANCH  50  74
BRANCH  62  85
ATOM     85  C   UNL A   1      45.266  33.027  29.361  1.00  0.00     0.023 A 
ATOM     86  C   UNL A   1      45.258  34.188  28.570  1.00  0.00     0.031 A 
ATOM     87  C   UNL A   1      46.055  33.023  30.526  1.00  0.00     0.131 A 
ATOM     88  C   UNL A   1      46.067  35.279  28.923  1.00  0.00     0.055 A 
ATOM     89  C   UNL A   1      46.811  34.134  30.904  1.00  0.00     0.041 A 
ATOM     90  F   UNL A   1      46.101  31.940  31.317  1.00  0.00    -0.206 F 
ATOM     91  C   UNL A   1      46.830  35.265  30.095  1.00  0.00     0.022 A 
BRANCH  88  92
ATOM     92  S   UNL A   1      46.181  36.684  27.782  1.00  0.00     0.124 S 
ATOM     93  O   UNL A   1      44.988  37.451  28.124  1.00  0.00    -0.237 OA
ATOM     94  O   UNL A   1      47.457  37.288  28.155  1.00  0.00    -0.237 OA
ATOM     95  O   UNL A   1      46.157  36.055  26.462  1.00  0.00    -0.744 OA
ENDBRANCH  88  92
ENDBRANCH  62  85
ENDBRANCH  36  37
ENDBRANCH  28  31
ENDBRANCH  26  27
ENDBRANCH  25  26
ENDBRANCH   1  25
TORSDOF 19
ENDMDL
MODEL 3
REMARK VINA RESULT:     -10.6      2.029      8.048
REMARK SMILES CC(C)[C@H](NC(=O)[C@H](C)NC(=O)C[NH3+])C(=O)NCCCNC(=O)c1ccc(-c2c3nc(c(-c4cc(S(=O)(=O)[O-])ccc4F)c4ccc([nH]4)c(-c4cc(S(=O)(=O)[O-])ccc4F)c4nc(c(-c5cc(S(=O)(=O)[O-])ccc5F)c5ccc2[nH]5)C=C4)C=C3)cc1
REMARK SMILES IDX 18 1 17 2 15 3 16 4 4 6 2 7 1 8 3 9 5 10 6 11 7 13 8 14 9 15
REMARK SMILES IDX 10 16 11 17 12 19 13 20 14 21 19 25 20 26 21 27 22 28 23 30
REMARK SMILES IDX 24 31 25 32 86 33 26 34 85 35 27 36 28 37 29 38 79 39 30 40
REMARK SMILES IDX 84 41 78 42 80 43 31 44 83 45 77 46 76 47 32 49 64 50 44 51
REMARK SMILES IDX 63 52 45 53 48 54 62 55 81 56 46 57 47 58 61 60 82 61 49 62
REMARK SMILES IDX 33 63 34 64 42 65 35 66 41 67 43 68 40 69 36 70 37 71 38 72
REMARK SMILES IDX 39 73 65 74 66 75 74 76 67 77 73 78 75 79 72 80 68 81 69 82
REMARK SMILES IDX 70 83 71 84 50 85 51 86 59 87 52 88 58 89 60 90 57 91 53 92
REMARK SMILES IDX 54 93 55 94 56 95
REMARK H PARENT 17 5 5 12 10 18 14 22 14 23 14 24 21 29 80 48 48 59
REMARK Flexibility Score: inf
ROOT
ATOM      1  C   UNL A   1      32.575  29.974  25.905  1.00  0.00     0.117 C 
ENDROOT
BRANCH   1   2
ATOM      2  N   UNL A   1      33.418  29.372  24.891  1.00  0.00    -0.354 N 
ATOM      3  C   UNL A   1      33.072  28.650  23.789  1.00  0.00     0.242 C 
ATOM      4  O   UNL A   1      33.942  28.436  22.941  1.00  0.00    -0.273 OA
ATOM      5  H   UNL A   1      34.386  29.504  25.017  1.00  0.00     0.163 HD
BRANCH   3   6
ATOM      6  C   UNL A   1      31.617  28.201  23.543  1.00  0.00     0.173 C 
BRANCH   6   7
ATOM      7  C   UNL A   1      31.418  26.643  23.606  1.00  0.00     0.015 C 
ATOM      8  C   UNL A   1      30.119  26.147  24.255  1.00  0.00     0.010 C 
ATOM      9  C   UNL A   1      31.630  25.913  22.271  1.00  0.00     0.010 C 
ENDBRANCH   6   7
BRANCH   6  10
ATOM     10  N   UNL A   1      31.061  28.853  22.351  1.00  0.00    -0.342 N 
ATOM     11  C   UNL A   1      29.990  29.671  22.157  1.00  0.00     0.242 C 
ATOM     12  H   UNL A   1      31.563  28.660  21.526  1.00  0.00     0.164 HD
ATOM     13  O   UNL A   1      29.830  30.061  20.993  1.00  0.00    -0.273 OA
BRANCH  11  14
ATOM     14  C   UNL A   1      29.100  30.254  23.283  1.00  0.00     0.168 C 
ATOM     15  C   UNL A   1      27.660  29.759  23.167  1.00  0.00     0.041 C 
BRANCH  14  16
ATOM     16  N   UNL A   1      29.193  31.703  23.420  1.00  0.00    -0.340 N 
ATOM     17  C   UNL A   1      28.592  32.671  22.670  1.00  0.00     0.275 C 
ATOM     18  H   UNL A   1      29.765  32.027  24.152  1.00  0.00     0.164 HD
ATOM     19  O   UNL A   1      28.780  33.850  22.977  1.00  0.00    -0.268 OA
BRANCH  17  20
ATOM     20  C   UNL A   1      27.720  32.293  21.472  1.00  0.00     0.360 C 
BRANCH  20  21
ATOM     21  N   UNL A   1      28.452  32.513  20.221  1.00  0.00    -0.350 N 
ATOM     22  H   UNL A   1      28.582  33.514  20.074  1.00  0.00     0.344 HD
ATOM     23  H   UNL A   1      27.922  32.121  19.443  1.00  0.00     0.344 HD
ATOM     24  H   UNL A   1      29.363  32.057  20.275  1.00  0.00     0.344 HD
ENDBRANCH  20  21
ENDBRANCH  17  20
ENDBRANCH  14  16
ENDBRANCH  11  14
ENDBRANCH   6  10
ENDBRANCH   3   6
ENDBRANCH   1   2
BRANCH   1  25
ATOM     25  C   UNL A   1      33.171  31.223  26.534  1.00  0.00     0.042 C 
BRANCH  25  26
ATOM     26  C   UNL A   1      32.166  32.046  27.326  1.00  0.00     0.118 C 
BRANCH  26  27
ATOM     27  N   UNL A   1      32.535  33.455  27.385  1.00  0.00    -0.352 N 
ATOM     28  C   UNL A   1      33.540  34.083  28.073  1.00  0.00     0.251 C 
ATOM     29  H   UNL A   1      31.971  34.052  26.842  1.00  0.00     0.163 HD
ATOM     30  O   UNL A   1      33.493  35.307  28.208  1.00  0.00    -0.269 OA
BRANCH  28  31
ATOM     31  C   UNL A   1      34.656  33.312  28.660  1.00  0.00     0.039 A 
ATOM     32  C   UNL A   1      35.943  33.473  28.140  1.00  0.00     0.014 A 
ATOM     33  C   UNL A   1      34.434  32.397  29.693  1.00  0.00     0.014 A 
ATOM     34  C   UNL A   1      37.012  32.765  28.698  1.00  0.00     0.010 A 
ATOM     35  C   UNL A   1      35.510  31.766  30.308  1.00  0.00     0.010 A 
ATOM     36  C   UNL A   1      36.810  31.934  29.811  1.00  0.00    -0.014 A 
BRANCH  36  37
ATOM     37  C   UNL A   1      37.936  31.212  30.458  1.00  0.00     0.031 A 
ATOM     38  C   UNL A   1      38.339  31.560  31.867  1.00  0.00     0.074 A 
ATOM     39  C   UNL A   1      38.636  30.299  29.757  1.00  0.00     0.049 A 
ATOM     40  N   UNL A   1      39.355  31.128  32.570  1.00  0.00    -0.248 NA
ATOM     41  C   UNL A   1      37.506  32.553  32.565  1.00  0.00     0.031 C 
ATOM     42  C   UNL A   1      38.364  29.906  28.373  1.00  0.00     0.029 A 
ATOM     43  N   UNL A   1      39.727  29.542  30.107  1.00  0.00    -0.354 N 
ATOM     44  C   UNL A   1      39.294  31.809  33.783  1.00  0.00     0.074 A 
ATOM     45  C   UNL A   1      38.179  32.727  33.693  1.00  0.00     0.031 C 
ATOM     46  C   UNL A   1      39.247  28.965  28.001  1.00  0.00     0.029 A 
ATOM     47  C   UNL A   1      40.179  28.724  29.098  1.00  0.00     0.049 A 
ATOM     48  H   UNL A   1      40.146  29.581  30.997  1.00  0.00     0.167 HD
ATOM     49  C   UNL A   1      40.081  31.662  34.878  1.00  0.00     0.034 A 
ATOM     50  C   UNL A   1      41.234  27.887  29.054  1.00  0.00     0.034 A 
ATOM     51  C   UNL A   1      41.176  30.727  34.956  1.00  0.00     0.049 A 
ATOM     52  C   UNL A   1      42.106  27.755  30.278  1.00  0.00     0.074 A 
ATOM     53  C   UNL A   1      42.006  30.459  36.031  1.00  0.00     0.029 A 
ATOM     54  N   UNL A   1      41.598  29.908  33.916  1.00  0.00    -0.354 N 
ATOM     55  N   UNL A   1      42.009  28.376  31.432  1.00  0.00    -0.248 NA
ATOM     56  C   UNL A   1      43.222  26.804  30.197  1.00  0.00     0.031 C 
ATOM     57  C   UNL A   1      42.966  29.526  35.624  1.00  0.00     0.029 A 
ATOM     58  C   UNL A   1      42.691  29.154  34.317  1.00  0.00     0.049 A 
ATOM     59  H   UNL A   1      41.182  29.867  33.025  1.00  0.00     0.167 HD
ATOM     60  C   UNL A   1      43.033  27.863  32.225  1.00  0.00     0.074 A 
ATOM     61  C   UNL A   1      43.723  26.874  31.422  1.00  0.00     0.031 C 
ATOM     62  C   UNL A   1      43.371  28.176  33.501  1.00  0.00     0.034 A 
BRANCH  49  63
ATOM     63  C   UNL A   1      39.793  32.550  36.066  1.00  0.00     0.023 A 
ATOM     64  C   UNL A   1      38.924  32.147  37.095  1.00  0.00     0.031 A 
ATOM     65  C   UNL A   1      40.378  33.824  36.163  1.00  0.00     0.131 A 
ATOM     66  C   UNL A   1      38.606  33.035  38.133  1.00  0.00     0.055 A 
ATOM     67  C   UNL A   1      40.122  34.672  37.243  1.00  0.00     0.041 A 
ATOM     68  F   UNL A   1      41.200  34.275  35.202  1.00  0.00    -0.206 F 
ATOM     69  C   UNL A   1      39.220  34.285  38.229  1.00  0.00     0.022 A 
BRANCH  66  70
ATOM     70  S   UNL A   1      37.274  32.586  39.279  1.00  0.00     0.124 S 
ATOM     71  O   UNL A   1      37.496  33.531  40.371  1.00  0.00    -0.237 OA
ATOM     72  O   UNL A   1      36.077  32.808  38.476  1.00  0.00    -0.237 OA
ATOM     73  O   UNL A   1      37.558  31.190  39.605  1.00  0.00    -0.744 OA
ENDBRANCH  66  70
ENDBRANCH  49  63
BRANCH  50  74
ATOM     74  C   UNL A   1      41.541  27.114  27.817  1.00  0.00     0.023 A 
ATOM     75  C   UNL A   1      41.281  25.736  27.744  1.00  0.00     0.031 A 
ATOM     76  C   UNL A   1      42.142  27.730  26.705  1.00  0.00     0.131 A 
ATOM     77  C   UNL A   1      41.671  25.009  26.608  1.00  0.00     0.055 A 
ATOM     78  C   UNL A   1      42.475  27.014  25.554  1.00  0.00     0.041 A 
ATOM     79  F   UNL A   1      42.406  29.046  26.719  1.00  0.00    -0.206 F 
ATOM     80  C   UNL A   1      42.255  25.640  25.507  1.00  0.00     0.022 A 
BRANCH  77  81
ATOM     81  S   UNL A   1      41.491  23.204  26.630  1.00  0.00     0.124 S 
ATOM     82  O   UNL A   1      42.148  22.855  27.884  1.00  0.00    -0.237 OA
ATOM     83  O   UNL A   1      40.041  23.045  26.600  1.00  0.00    -0.237 OA
ATOM     84  O   UNL A   1      42.188  22.778  25.419  1.00  0.00    -0.744 OA
ENDBRANCH  77  81
ENDBRANCH  50  74
BRANCH  62  85
ATOM     85  C   UNL A   1      44.507  27.399  34.119  1.00  0.00     0.023 A 
ATOM     86  C   UNL A   1      44.301  26.159  34.748  1.00  0.00     0.031 A 
ATOM     87  C   UNL A   1      45.815  27.916  34.086  1.00  0.00     0.131 A 
ATOM     88  C   UNL A   1      45.376  25.504  35.368  1.00  0.00     0.055 A 
ATOM     89  C   UNL A   1      46.891  27.231  34.652  1.00  0.00     0.041 A 
ATOM     90  F   UNL A   1      46.069  29.097  33.499  1.00  0.00    -0.206 F 
ATOM     91  C   UNL A   1      46.672  26.024  35.309  1.00  0.00     0.022 A 
BRANCH  88  92
ATOM     92  S   UNL A   1      45.041  24.006  36.334  1.00  0.00     0.124 S 
ATOM     93  O   UNL A   1      44.690  24.558  37.639  1.00  0.00    -0.237 OA
ATOM     94  O   UNL A   1      43.948  23.390  35.587  1.00  0.00    -0.237 OA
ATOM     95  O   UNL A   1      46.308  23.279  36.289  1.00  0.00    -0.744 OA
ENDBRANCH  88  92
ENDBRANCH  62  85
ENDBRANCH  36  37
ENDBRANCH  28  31
ENDBRANCH  26  27
ENDBRANCH  25  26
ENDBRANCH   1  25
TORSDOF 19
ENDMDL
