MODEL 1
REMARK VINA RESULT:     -13.9      0.000      0.000
REMARK SMILES Cc1c(NC(=O)c2ccccc2NC(=O)[C@@H]2CCCO2)cccc1C(=O)NCCCNC(=O)c1ccc(-c2c3nc(c(-c4cc(S(=O)(=O)[O-])ccc4F)c4ccc([nH]4)c(-c4cc(S(=O)(=O)[O-])ccc4F)c4nc(c(-c5cc(S(=O)(=O)[O-])ccc5F)c5ccc2[nH]5)C=C4)C=C3)cc1
REMARK SMILES IDX 28 1 27 2 25 3 26 4 24 6 1 7 2 8 3 9 21 10 23 11 22 12 4 13
REMARK SMILES IDX 5 14 6 16 7 17 8 18 12 19 9 20 11 21 10 22 13 23 14 24 15 26
REMARK SMILES IDX 16 27 17 28 20 29 18 30 19 31 29 32 30 33 31 34 32 35 33 37
REMARK SMILES IDX 34 38 35 39 96 40 36 41 95 42 37 43 38 44 39 45 89 46 40 47
REMARK SMILES IDX 94 48 88 49 90 50 41 51 93 52 87 53 86 54 42 56 74 57 54 58
REMARK SMILES IDX 73 59 55 60 58 61 72 62 91 63 56 64 57 65 71 67 92 68 59 69
REMARK SMILES IDX 43 70 44 71 52 72 45 73 51 74 53 75 50 76 46 77 47 78 48 79
REMARK SMILES IDX 49 80 75 81 76 82 84 83 77 84 83 85 85 86 82 87 78 88 79 89
REMARK SMILES IDX 80 90 81 91 60 92 61 93 69 94 62 95 68 96 70 97 67 98 63 99
REMARK SMILES IDX 64 100 65 101 66 102
REMARK H PARENT 27 5 4 15 13 25 31 36 90 55 58 66
REMARK Flexibility Score: inf
ROOT
ATOM      1  C   UNL A   1      31.892  30.055  25.693  1.00  0.00     0.118 C 
ENDROOT
BRANCH   1   2
ATOM      2  N   UNL A   1      32.872  29.846  24.631  1.00  0.00    -0.352 N 
ATOM      3  C   UNL A   1      33.261  28.806  23.827  1.00  0.00     0.251 C 
ATOM      4  O   UNL A   1      34.049  29.125  22.927  1.00  0.00    -0.269 OA
ATOM      5  H   UNL A   1      33.388  30.664  24.444  1.00  0.00     0.163 HD
BRANCH   3   6
ATOM      6  C   UNL A   1      32.837  27.354  23.887  1.00  0.00     0.044 A 
ATOM      7  C   UNL A   1      33.485  26.783  26.286  1.00  0.00     0.047 C 
ATOM      8  C   UNL A   1      32.860  26.451  24.970  1.00  0.00    -0.015 A 
ATOM      9  C   UNL A   1      32.482  25.092  24.788  1.00  0.00     0.045 A 
ATOM     10  C   UNL A   1      32.191  24.587  23.527  1.00  0.00     0.026 A 
ATOM     11  C   UNL A   1      32.520  26.803  22.623  1.00  0.00     0.014 A 
ATOM     12  C   UNL A   1      32.226  25.446  22.438  1.00  0.00     0.003 A 
BRANCH   9  13
ATOM     13  N   UNL A   1      32.492  24.274  25.931  1.00  0.00    -0.322 N 
ATOM     14  C   UNL A   1      33.411  23.369  26.402  1.00  0.00     0.257 C 
ATOM     15  H   UNL A   1      31.693  24.366  26.497  1.00  0.00     0.170 HD
ATOM     16  O   UNL A   1      33.184  22.820  27.484  1.00  0.00    -0.269 OA
BRANCH  14  17
ATOM     17  C   UNL A   1      34.677  23.030  25.700  1.00  0.00     0.063 A 
ATOM     18  C   UNL A   1      35.764  23.835  26.099  1.00  0.00     0.016 A 
ATOM     19  C   UNL A   1      34.853  22.068  24.676  1.00  0.00     0.054 A 
ATOM     20  C   UNL A   1      37.037  23.624  25.591  1.00  0.00     0.001 A 
ATOM     21  C   UNL A   1      36.167  21.786  24.291  1.00  0.00     0.027 A 
ATOM     22  C   UNL A   1      37.245  22.563  24.726  1.00  0.00     0.002 A 
BRANCH  19  23
ATOM     23  N   UNL A   1      33.724  21.496  24.046  1.00  0.00    -0.323 N 
ATOM     24  C   UNL A   1      33.001  20.339  24.128  1.00  0.00     0.253 C 
ATOM     25  H   UNL A   1      33.359  22.097  23.356  1.00  0.00     0.170 HD
ATOM     26  O   UNL A   1      32.039  20.233  23.358  1.00  0.00    -0.272 OA
BRANCH  24  27
ATOM     27  C   UNL A   1      33.394  19.187  25.052  1.00  0.00     0.207 C 
ATOM     28  C   UNL A   1      34.255  18.197  24.278  1.00  0.00     0.044 C 
ATOM     29  O   UNL A   1      32.297  18.410  25.565  1.00  0.00    -0.368 OA
ATOM     30  C   UNL A   1      34.059  16.928  25.060  1.00  0.00     0.032 C 
ATOM     31  C   UNL A   1      32.591  17.018  25.406  1.00  0.00     0.161 C 
ENDBRANCH  24  27
ENDBRANCH  19  23
ENDBRANCH  14  17
ENDBRANCH   9  13
ENDBRANCH   3   6
ENDBRANCH   1   2
BRANCH   1  32
ATOM     32  C   UNL A   1      32.423  31.006  26.776  1.00  0.00     0.042 C 
BRANCH  32  33
ATOM     33  C   UNL A   1      33.475  30.438  27.697  1.00  0.00     0.118 C 
BRANCH  33  34
ATOM     34  N   UNL A   1      34.317  31.434  28.368  1.00  0.00    -0.352 N 
ATOM     35  C   UNL A   1      35.484  31.233  29.097  1.00  0.00     0.251 C 
ATOM     36  H   UNL A   1      34.017  32.368  28.291  1.00  0.00     0.163 HD
ATOM     37  O   UNL A   1      36.098  32.163  29.609  1.00  0.00    -0.269 OA
BRANCH  35  38
ATOM     38  C   UNL A   1      36.086  29.873  29.103  1.00  0.00     0.039 A 
ATOM     39  C   UNL A   1      36.721  29.533  30.302  1.00  0.00     0.014 A 
ATOM     40  C   UNL A   1      36.512  29.338  27.897  1.00  0.00     0.014 A 
ATOM     41  C   UNL A   1      38.015  29.042  30.245  1.00  0.00     0.010 A 
ATOM     42  C   UNL A   1      37.841  28.989  27.824  1.00  0.00     0.010 A 
ATOM     43  C   UNL A   1      38.610  28.939  28.992  1.00  0.00    -0.014 A 
BRANCH  43  44
ATOM     44  C   UNL A   1      40.025  28.698  28.798  1.00  0.00     0.031 A 
ATOM     45  C   UNL A   1      40.389  27.320  28.456  1.00  0.00     0.074 A 
ATOM     46  C   UNL A   1      40.939  29.688  28.906  1.00  0.00     0.049 A 
ATOM     47  N   UNL A   1      41.503  26.761  28.754  1.00  0.00    -0.248 NA
ATOM     48  C   UNL A   1      39.435  26.411  27.829  1.00  0.00     0.031 C 
ATOM     49  C   UNL A   1      42.357  29.636  28.564  1.00  0.00     0.029 A 
ATOM     50  N   UNL A   1      40.789  30.913  29.553  1.00  0.00    -0.354 N 
ATOM     51  C   UNL A   1      41.534  25.546  28.108  1.00  0.00     0.074 A 
ATOM     52  C   UNL A   1      40.184  25.322  27.666  1.00  0.00     0.031 C 
ATOM     53  C   UNL A   1      42.997  30.629  29.203  1.00  0.00     0.029 A 
ATOM     54  C   UNL A   1      42.044  31.266  30.095  1.00  0.00     0.049 A 
ATOM     55  H   UNL A   1      39.958  31.436  29.621  1.00  0.00     0.167 HD
ATOM     56  C   UNL A   1      42.740  24.958  27.888  1.00  0.00     0.034 A 
ATOM     57  C   UNL A   1      42.185  31.368  31.452  1.00  0.00     0.034 A 
ATOM     58  C   UNL A   1      43.804  25.738  28.538  1.00  0.00     0.049 A 
ATOM     59  C   UNL A   1      43.007  30.230  32.048  1.00  0.00     0.074 A 
ATOM     60  C   UNL A   1      44.702  26.692  28.086  1.00  0.00     0.029 A 
ATOM     61  N   UNL A   1      43.783  25.866  29.920  1.00  0.00    -0.354 N 
ATOM     62  N   UNL A   1      43.534  29.244  31.369  1.00  0.00    -0.248 NA
ATOM     63  C   UNL A   1      43.220  30.085  33.485  1.00  0.00     0.031 C 
ATOM     64  C   UNL A   1      45.172  27.428  29.218  1.00  0.00     0.029 A 
ATOM     65  C   UNL A   1      44.607  26.888  30.359  1.00  0.00     0.049 A 
ATOM     66  H   UNL A   1      43.245  25.297  30.516  1.00  0.00     0.167 HD
ATOM     67  C   UNL A   1      44.090  28.325  32.226  1.00  0.00     0.074 A 
ATOM     68  C   UNL A   1      43.843  28.896  33.544  1.00  0.00     0.031 C 
ATOM     69  C   UNL A   1      44.677  27.160  31.793  1.00  0.00     0.034 A 
BRANCH  56  70
ATOM     70  C   UNL A   1      42.984  23.882  26.851  1.00  0.00     0.023 A 
ATOM     71  C   UNL A   1      42.319  22.650  27.002  1.00  0.00     0.031 A 
ATOM     72  C   UNL A   1      43.870  23.945  25.752  1.00  0.00     0.131 A 
ATOM     73  C   UNL A   1      42.604  21.549  26.171  1.00  0.00     0.055 A 
ATOM     74  C   UNL A   1      44.194  22.838  24.956  1.00  0.00     0.041 A 
ATOM     75  F   UNL A   1      44.426  25.089  25.343  1.00  0.00    -0.206 F 
ATOM     76  C   UNL A   1      43.565  21.626  25.168  1.00  0.00     0.022 A 
BRANCH  73  77
ATOM     77  S   UNL A   1      41.692  20.006  26.419  1.00  0.00     0.124 S 
ATOM     78  O   UNL A   1      42.200  19.172  25.335  1.00  0.00    -0.237 OA
ATOM     79  O   UNL A   1      42.089  19.627  27.770  1.00  0.00    -0.237 OA
ATOM     80  O   UNL A   1      40.295  20.414  26.280  1.00  0.00    -0.744 OA
ENDBRANCH  73  77
ENDBRANCH  56  70
BRANCH  57  81
ATOM     81  C   UNL A   1      40.968  31.989  32.073  1.00  0.00     0.023 A 
ATOM     82  C   UNL A   1      40.109  31.139  32.812  1.00  0.00     0.031 A 
ATOM     83  C   UNL A   1      40.977  33.354  32.394  1.00  0.00     0.131 A 
ATOM     84  C   UNL A   1      39.489  31.618  33.979  1.00  0.00     0.055 A 
ATOM     85  C   UNL A   1      40.334  33.823  33.542  1.00  0.00     0.041 A 
ATOM     86  F   UNL A   1      41.743  34.215  31.709  1.00  0.00    -0.206 F 
ATOM     87  C   UNL A   1      39.655  32.943  34.380  1.00  0.00     0.022 A 
BRANCH  84  88
ATOM     88  S   UNL A   1      38.662  30.461  35.110  1.00  0.00     0.124 S 
ATOM     89  O   UNL A   1      38.065  29.501  34.190  1.00  0.00    -0.237 OA
ATOM     90  O   UNL A   1      39.761  29.961  35.929  1.00  0.00    -0.237 OA
ATOM     91  O   UNL A   1      37.718  31.318  35.830  1.00  0.00    -0.744 OA
ENDBRANCH  84  88
ENDBRANCH  57  81
BRANCH  69  92
ATOM     92  C   UNL A   1      45.338  26.133  32.703  1.00  0.00     0.023 A 
ATOM     93  C   UNL A   1      44.600  25.289  33.542  1.00  0.00     0.031 A 
ATOM     94  C   UNL A   1      46.747  25.990  32.806  1.00  0.00     0.131 A 
ATOM     95  C   UNL A   1      45.218  24.261  34.276  1.00  0.00     0.055 A 
ATOM     96  C   UNL A   1      47.366  25.017  33.596  1.00  0.00     0.041 A 
ATOM     97  F   UNL A   1      47.601  26.779  32.144  1.00  0.00    -0.206 F 
ATOM     98  C   UNL A   1      46.600  24.119  34.313  1.00  0.00     0.022 A 
BRANCH  95  99
ATOM     99  S   UNL A   1      44.151  23.075  35.129  1.00  0.00     0.124 S 
ATOM    100  O   UNL A   1      44.604  21.799  34.595  1.00  0.00    -0.237 OA
ATOM    101  O   UNL A   1      44.480  23.334  36.527  1.00  0.00    -0.237 OA
ATOM    102  O   UNL A   1      42.800  23.477  34.725  1.00  0.00    -0.744 OA
ENDBRANCH  95  99
ENDBRANCH  69  92
ENDBRANCH  43  44
ENDBRANCH  35  38
ENDBRANCH  33  34
ENDBRANCH  32  33
ENDBRANCH   1  32
TORSDOF 17
ENDMDL
MODEL 2
REMARK VINA RESULT:     -13.4      3.846      9.711
REMARK SMILES Cc1c(NC(=O)c2ccccc2NC(=O)[C@@H]2CCCO2)cccc1C(=O)NCCCNC(=O)c1ccc(-c2c3nc(c(-c4cc(S(=O)(=O)[O-])ccc4F)c4ccc([nH]4)c(-c4cc(S(=O)(=O)[O-])ccc4F)c4nc(c(-c5cc(S(=O)(=O)[O-])ccc5F)c5ccc2[nH]5)C=C4)C=C3)cc1
REMARK SMILES IDX 28 1 27 2 25 3 26 4 24 6 1 7 2 8 3 9 21 10 23 11 22 12 4 13
REMARK SMILES IDX 5 14 6 16 7 17 8 18 12 19 9 20 11 21 10 22 13 23 14 24 15 26
REMARK SMILES IDX 16 27 17 28 20 29 18 30 19 31 29 32 30 33 31 34 32 35 33 37
REMARK SMILES IDX 34 38 35 39 96 40 36 41 95 42 37 43 38 44 39 45 89 46 40 47
REMARK SMILES IDX 94 48 88 49 90 50 41 51 93 52 87 53 86 54 42 56 74 57 54 58
REMARK SMILES IDX 73 59 55 60 58 61 72 62 91 63 56 64 57 65 71 67 92 68 59 69
REMARK SMILES IDX 43 70 44 71 52 72 45 73 51 74 53 75 50 76 46 77 47 78 48 79
REMARK SMILES IDX 49 80 75 81 76 82 84 83 77 84 83 85 85 86 82 87 78 88 79 89
REMARK SMILES IDX 80 90 81 91 60 92 61 93 69 94 62 95 68 96 70 97 67 98 63 99
REMARK SMILES IDX 64 100 65 101 66 102
REMARK H PARENT 27 5 4 15 13 25 31 36 90 55 58 66
REMARK Flexibility Score: inf
ROOT
ATOM      1  C   UNL A   1      36.123  20.916  25.241  1.00  0.00     0.118 C 
ENDROOT
BRANCH   1   2
ATOM      2  N   UNL A   1      35.561  21.425  26.490  1.00  0.00    -0.352 N 
ATOM      3  C   UNL A   1      34.499  22.210  26.856  1.00  0.00     0.251 C 
ATOM      4  O   UNL A   1      34.298  22.259  28.077  1.00  0.00    -0.269 OA
ATOM      5  H   UNL A   1      36.080  21.127  27.272  1.00  0.00     0.163 HD
BRANCH   3   6
ATOM      6  C   UNL A   1      33.547  22.987  25.970  1.00  0.00     0.044 A 
ATOM      7  C   UNL A   1      35.184  24.552  24.798  1.00  0.00     0.047 C 
ATOM      8  C   UNL A   1      33.820  23.978  25.005  1.00  0.00    -0.015 A 
ATOM      9  C   UNL A   1      32.758  24.644  24.332  1.00  0.00     0.045 A 
ATOM     10  C   UNL A   1      31.432  24.422  24.681  1.00  0.00     0.026 A 
ATOM     11  C   UNL A   1      32.184  22.780  26.285  1.00  0.00     0.014 A 
ATOM     12  C   UNL A   1      31.147  23.496  25.674  1.00  0.00     0.003 A 
BRANCH   9  13
ATOM     13  N   UNL A   1      33.121  25.586  23.354  1.00  0.00    -0.322 N 
ATOM     14  C   UNL A   1      33.234  26.953  23.397  1.00  0.00     0.257 C 
ATOM     15  H   UNL A   1      33.331  25.193  22.477  1.00  0.00     0.170 HD
ATOM     16  O   UNL A   1      33.634  27.536  22.385  1.00  0.00    -0.269 OA
BRANCH  14  17
ATOM     17  C   UNL A   1      32.931  27.774  24.599  1.00  0.00     0.063 A 
ATOM     18  C   UNL A   1      34.042  27.940  25.451  1.00  0.00     0.016 A 
ATOM     19  C   UNL A   1      31.675  28.313  24.968  1.00  0.00     0.054 A 
ATOM     20  C   UNL A   1      33.959  28.724  26.592  1.00  0.00     0.001 A 
ATOM     21  C   UNL A   1      31.660  29.208  26.042  1.00  0.00     0.027 A 
ATOM     22  C   UNL A   1      32.781  29.400  26.856  1.00  0.00     0.002 A 
BRANCH  19  23
ATOM     23  N   UNL A   1      30.502  27.882  24.307  1.00  0.00    -0.323 N 
ATOM     24  C   UNL A   1      29.634  28.373  23.370  1.00  0.00     0.253 C 
ATOM     25  H   UNL A   1      30.236  26.982  24.603  1.00  0.00     0.170 HD
ATOM     26  O   UNL A   1      28.692  27.638  23.052  1.00  0.00    -0.272 OA
BRANCH  24  27
ATOM     27  C   UNL A   1      29.753  29.785  22.798  1.00  0.00     0.207 C 
ATOM     28  C   UNL A   1      28.705  30.677  23.449  1.00  0.00     0.044 C 
ATOM     29  O   UNL A   1      29.515  29.896  21.383  1.00  0.00    -0.368 OA
ATOM     30  C   UNL A   1      28.542  31.770  22.430  1.00  0.00     0.032 C 
ATOM     31  C   UNL A   1      28.620  30.986  21.141  1.00  0.00     0.161 C 
ENDBRANCH  24  27
ENDBRANCH  19  23
ENDBRANCH  14  17
ENDBRANCH   9  13
ENDBRANCH   3   6
ENDBRANCH   1   2
BRANCH   1  32
ATOM     32  C   UNL A   1      37.652  21.054  25.210  1.00  0.00     0.042 C 
BRANCH  32  33
ATOM     33  C   UNL A   1      38.205  22.394  25.632  1.00  0.00     0.118 C 
BRANCH  33  34
ATOM     34  N   UNL A   1      39.541  22.354  26.234  1.00  0.00    -0.352 N 
ATOM     35  C   UNL A   1      40.364  23.415  26.591  1.00  0.00     0.251 C 
ATOM     36  H   UNL A   1      39.903  21.455  26.410  1.00  0.00     0.163 HD
ATOM     37  O   UNL A   1      41.469  23.242  27.094  1.00  0.00    -0.269 OA
BRANCH  35  38
ATOM     38  C   UNL A   1      39.808  24.794  26.516  1.00  0.00     0.039 A 
ATOM     39  C   UNL A   1      40.756  25.779  26.224  1.00  0.00     0.014 A 
ATOM     40  C   UNL A   1      38.685  25.091  27.274  1.00  0.00     0.014 A 
ATOM     41  C   UNL A   1      40.816  26.897  27.040  1.00  0.00     0.010 A 
ATOM     42  C   UNL A   1      38.819  26.119  28.179  1.00  0.00     0.010 A 
ATOM     43  C   UNL A   1      39.937  26.957  28.115  1.00  0.00    -0.014 A 
BRANCH  43  44
ATOM     44  C   UNL A   1      40.058  27.919  29.192  1.00  0.00     0.031 A 
ATOM     45  C   UNL A   1      39.148  29.066  29.117  1.00  0.00     0.074 A 
ATOM     46  C   UNL A   1      40.938  27.752  30.203  1.00  0.00     0.049 A 
ATOM     47  N   UNL A   1      39.400  30.233  29.581  1.00  0.00    -0.248 NA
ATOM     48  C   UNL A   1      37.888  28.995  28.383  1.00  0.00     0.031 C 
ATOM     49  C   UNL A   1      41.044  28.531  31.433  1.00  0.00     0.029 A 
ATOM     50  N   UNL A   1      42.069  26.938  30.217  1.00  0.00    -0.354 N 
ATOM     51  C   UNL A   1      38.242  30.969  29.481  1.00  0.00     0.074 A 
ATOM     52  C   UNL A   1      37.386  30.206  28.615  1.00  0.00     0.031 C 
ATOM     53  C   UNL A   1      42.270  28.356  31.957  1.00  0.00     0.029 A 
ATOM     54  C   UNL A   1      43.048  27.578  31.008  1.00  0.00     0.049 A 
ATOM     55  H   UNL A   1      42.168  26.073  29.757  1.00  0.00     0.167 HD
ATOM     56  C   UNL A   1      38.095  32.060  30.280  1.00  0.00     0.034 A 
ATOM     57  C   UNL A   1      44.218  27.988  30.429  1.00  0.00     0.034 A 
ATOM     58  C   UNL A   1      39.334  32.300  31.035  1.00  0.00     0.049 A 
ATOM     59  C   UNL A   1      44.311  29.503  30.291  1.00  0.00     0.074 A 
ATOM     60  C   UNL A   1      39.748  31.985  32.319  1.00  0.00     0.029 A 
ATOM     61  N   UNL A   1      40.492  32.600  30.330  1.00  0.00    -0.354 N 
ATOM     62  N   UNL A   1      43.392  30.353  30.671  1.00  0.00    -0.248 NA
ATOM     63  C   UNL A   1      45.431  30.164  29.629  1.00  0.00     0.031 C 
ATOM     64  C   UNL A   1      41.176  32.048  32.352  1.00  0.00     0.029 A 
ATOM     65  C   UNL A   1      41.627  32.455  31.109  1.00  0.00     0.049 A 
ATOM     66  H   UNL A   1      40.504  32.884  29.388  1.00  0.00     0.167 HD
ATOM     67  C   UNL A   1      43.733  31.624  30.278  1.00  0.00     0.074 A 
ATOM     68  C   UNL A   1      45.015  31.441  29.608  1.00  0.00     0.031 C 
ATOM     69  C   UNL A   1      42.929  32.717  30.502  1.00  0.00     0.034 A 
BRANCH  56  70
ATOM     70  C   UNL A   1      36.763  32.703  30.603  1.00  0.00     0.023 A 
ATOM     71  C   UNL A   1      36.058  33.333  29.558  1.00  0.00     0.031 A 
ATOM     72  C   UNL A   1      36.153  32.804  31.873  1.00  0.00     0.131 A 
ATOM     73  C   UNL A   1      34.890  34.082  29.801  1.00  0.00     0.055 A 
ATOM     74  C   UNL A   1      35.021  33.591  32.126  1.00  0.00     0.041 A 
ATOM     75  F   UNL A   1      36.574  32.103  32.930  1.00  0.00    -0.206 F 
ATOM     76  C   UNL A   1      34.385  34.244  31.087  1.00  0.00     0.022 A 
BRANCH  73  77
ATOM     77  S   UNL A   1      34.032  34.844  28.402  1.00  0.00     0.124 S 
ATOM     78  O   UNL A   1      34.570  36.199  28.414  1.00  0.00    -0.237 OA
ATOM     79  O   UNL A   1      34.443  33.993  27.290  1.00  0.00    -0.237 OA
ATOM     80  O   UNL A   1      32.622  34.735  28.770  1.00  0.00    -0.744 OA
ENDBRANCH  73  77
ENDBRANCH  56  70
BRANCH  57  81
ATOM     81  C   UNL A   1      44.697  26.985  29.421  1.00  0.00     0.023 A 
ATOM     82  C   UNL A   1      44.538  27.311  28.052  1.00  0.00     0.031 A 
ATOM     83  C   UNL A   1      45.720  26.091  29.768  1.00  0.00     0.131 A 
ATOM     84  C   UNL A   1      45.530  26.944  27.127  1.00  0.00     0.055 A 
ATOM     85  C   UNL A   1      46.686  25.711  28.834  1.00  0.00     0.041 A 
ATOM     86  F   UNL A   1      45.900  25.716  31.043  1.00  0.00    -0.206 F 
ATOM     87  C   UNL A   1      46.639  26.200  27.531  1.00  0.00     0.022 A 
BRANCH  84  88
ATOM     88  S   UNL A   1      45.509  27.636  25.447  1.00  0.00     0.124 S 
ATOM     89  O   UNL A   1      44.134  28.101  25.320  1.00  0.00    -0.237 OA
ATOM     90  O   UNL A   1      46.531  28.675  25.507  1.00  0.00    -0.237 OA
ATOM     91  O   UNL A   1      45.868  26.488  24.611  1.00  0.00    -0.744 OA
ENDBRANCH  84  88
ENDBRANCH  57  81
BRANCH  69  92
ATOM     92  C   UNL A   1      43.285  34.147  30.118  1.00  0.00     0.023 A 
ATOM     93  C   UNL A   1      43.400  34.560  28.785  1.00  0.00     0.031 A 
ATOM     94  C   UNL A   1      43.575  35.152  31.078  1.00  0.00     0.131 A 
ATOM     95  C   UNL A   1      43.599  35.910  28.449  1.00  0.00     0.055 A 
ATOM     96  C   UNL A   1      43.851  36.481  30.743  1.00  0.00     0.041 A 
ATOM     97  F   UNL A   1      43.602  34.906  32.393  1.00  0.00    -0.206 F 
ATOM     98  C   UNL A   1      43.830  36.877  29.420  1.00  0.00     0.022 A 
BRANCH  95  99
ATOM     99  S   UNL A   1      43.483  36.372  26.704  1.00  0.00     0.124 S 
ATOM    100  O   UNL A   1      42.741  37.623  26.754  1.00  0.00    -0.237 OA
ATOM    101  O   UNL A   1      44.890  36.480  26.333  1.00  0.00    -0.237 OA
ATOM    102  O   UNL A   1      42.767  35.245  26.098  1.00  0.00    -0.744 OA
ENDBRANCH  95  99
ENDBRANCH  69  92
ENDBRANCH  43  44
ENDBRANCH  35  38
ENDBRANCH  33  34
ENDBRANCH  32  33
ENDBRANCH   1  32
TORSDOF 17
ENDMDL
MODEL 3
REMARK VINA RESULT:     -13.3      3.949      9.742
REMARK SMILES Cc1c(NC(=O)c2ccccc2NC(=O)[C@@H]2CCCO2)cccc1C(=O)NCCCNC(=O)c1ccc(-c2c3nc(c(-c4cc(S(=O)(=O)[O-])ccc4F)c4ccc([nH]4)c(-c4cc(S(=O)(=O)[O-])ccc4F)c4nc(c(-c5cc(S(=O)(=O)[O-])ccc5F)c5ccc2[nH]5)C=C4)C=C3)cc1
REMARK SMILES IDX 28 1 27 2 25 3 26 4 24 6 1 7 2 8 3 9 21 10 23 11 22 12 4 13
REMARK SMILES IDX 5 14 6 16 7 17 8 18 12 19 9 20 11 21 10 22 13 23 14 24 15 26
REMARK SMILES IDX 16 27 17 28 20 29 18 30 19 31 29 32 30 33 31 34 32 35 33 37
REMARK SMILES IDX 34 38 35 39 96 40 36 41 95 42 37 43 38 44 39 45 89 46 40 47
REMARK SMILES IDX 94 48 88 49 90 50 41 51 93 52 87 53 86 54 42 56 74 57 54 58
REMARK SMILES IDX 73 59 55 60 58 61 72 62 91 63 56 64 57 65 71 67 92 68 59 69
REMARK SMILES IDX 43 70 44 71 52 72 45 73 51 74 53 75 50 76 46 77 47 78 48 79
REMARK SMILES IDX 49 80 75 81 76 82 84 83 77 84 83 85 85 86 82 87 78 88 79 89
REMARK SMILES IDX 80 90 81 91 60 92 61 93 69 94 62 95 68 96 70 97 67 98 63 99
REMARK SMILES IDX 64 100 65 101 66 102
REMARK H PARENT 27 5 4 15 13 25 31 36 90 55 58 66
REMARK Flexibility Score: inf
ROOT
ATOM      1  C   UNL A   1      36.098  21.013  25.198  1.00  0.00     0.118 C 
ENDROOT
BRANCH   1   2
ATOM      2  N   UNL A   1      35.509  21.459  26.458  1.00  0.00    -0.352 N 
ATOM      3  C   UNL A   1      34.428  22.212  26.840  1.00  0.00     0.251 C 
ATOM      4  O   UNL A   1      34.209  22.206  28.059  1.00  0.00    -0.269 OA
ATOM      5  H   UNL A   1      36.021  21.136  27.235  1.00  0.00     0.163 HD
BRANCH   3   6
ATOM      6  C   UNL A   1      33.478  23.011  25.973  1.00  0.00     0.044 A 
ATOM      7  C   UNL A   1      35.133  24.496  24.725  1.00  0.00     0.047 C 
ATOM      8  C   UNL A   1      33.756  23.977  24.984  1.00  0.00    -0.015 A 
ATOM      9  C   UNL A   1      32.698  24.672  24.334  1.00  0.00     0.045 A 
ATOM     10  C   UNL A   1      31.377  24.505  24.728  1.00  0.00     0.026 A 
ATOM     11  C   UNL A   1      32.119  22.860  26.334  1.00  0.00     0.014 A 
ATOM     12  C   UNL A   1      31.090  23.605  25.745  1.00  0.00     0.003 A 
BRANCH   9  13
ATOM     13  N   UNL A   1      33.064  25.585  23.331  1.00  0.00    -0.322 N 
ATOM     14  C   UNL A   1      33.195  26.952  23.340  1.00  0.00     0.257 C 
ATOM     15  H   UNL A   1      33.262  25.169  22.462  1.00  0.00     0.170 HD
ATOM     16  O   UNL A   1      33.592  27.505  22.310  1.00  0.00    -0.269 OA
BRANCH  14  17
ATOM     17  C   UNL A   1      32.912  27.805  24.524  1.00  0.00     0.063 A 
ATOM     18  C   UNL A   1      34.027  27.965  25.371  1.00  0.00     0.016 A 
ATOM     19  C   UNL A   1      31.668  28.380  24.883  1.00  0.00     0.054 A 
ATOM     20  C   UNL A   1      33.964  28.775  26.495  1.00  0.00     0.001 A 
ATOM     21  C   UNL A   1      31.676  29.298  25.937  1.00  0.00     0.027 A 
ATOM     22  C   UNL A   1      32.802  29.483  26.745  1.00  0.00     0.002 A 
BRANCH  19  23
ATOM     23  N   UNL A   1      30.485  27.961  24.233  1.00  0.00    -0.323 N 
ATOM     24  C   UNL A   1      29.584  28.481  23.345  1.00  0.00     0.253 C 
ATOM     25  H   UNL A   1      30.242  27.043  24.491  1.00  0.00     0.170 HD
ATOM     26  O   UNL A   1      28.646  27.746  23.016  1.00  0.00    -0.272 OA
BRANCH  24  27
ATOM     27  C   UNL A   1      29.664  29.921  22.840  1.00  0.00     0.207 C 
ATOM     28  C   UNL A   1      28.508  30.721  23.426  1.00  0.00     0.044 C 
ATOM     29  O   UNL A   1      29.546  30.079  21.415  1.00  0.00    -0.368 OA
ATOM     30  C   UNL A   1      28.368  31.845  22.438  1.00  0.00     0.032 C 
ATOM     31  C   UNL A   1      28.609  31.124  21.133  1.00  0.00     0.161 C 
ENDBRANCH  24  27
ENDBRANCH  19  23
ENDBRANCH  14  17
ENDBRANCH   9  13
ENDBRANCH   3   6
ENDBRANCH   1   2
BRANCH   1  32
ATOM     32  C   UNL A   1      37.632  21.016  25.257  1.00  0.00     0.042 C 
BRANCH  32  33
ATOM     33  C   UNL A   1      38.284  22.362  25.466  1.00  0.00     0.118 C 
BRANCH  33  34
ATOM     34  N   UNL A   1      39.539  22.335  26.224  1.00  0.00    -0.352 N 
ATOM     35  C   UNL A   1      40.266  23.402  26.736  1.00  0.00     0.251 C 
ATOM     36  H   UNL A   1      39.915  21.441  26.393  1.00  0.00     0.163 HD
ATOM     37  O   UNL A   1      41.309  23.240  27.360  1.00  0.00    -0.269 OA
BRANCH  35  38
ATOM     38  C   UNL A   1      39.664  24.762  26.669  1.00  0.00     0.039 A 
ATOM     39  C   UNL A   1      40.532  25.750  26.193  1.00  0.00     0.014 A 
ATOM     40  C   UNL A   1      38.651  25.076  27.563  1.00  0.00     0.014 A 
ATOM     41  C   UNL A   1      40.673  26.913  26.932  1.00  0.00     0.010 A 
ATOM     42  C   UNL A   1      38.881  26.156  28.384  1.00  0.00     0.010 A 
ATOM     43  C   UNL A   1      39.954  27.014  28.117  1.00  0.00    -0.014 A 
BRANCH  43  44
ATOM     44  C   UNL A   1      40.196  28.037  29.113  1.00  0.00     0.031 A 
ATOM     45  C   UNL A   1      39.366  29.240  28.997  1.00  0.00     0.074 A 
ATOM     46  C   UNL A   1      41.114  27.877  30.092  1.00  0.00     0.049 A 
ATOM     47  N   UNL A   1      39.723  30.415  29.362  1.00  0.00    -0.248 NA
ATOM     48  C   UNL A   1      38.069  29.211  28.329  1.00  0.00     0.031 C 
ATOM     49  C   UNL A   1      41.337  28.731  31.256  1.00  0.00     0.029 A 
ATOM     50  N   UNL A   1      42.184  26.985  30.114  1.00  0.00    -0.354 N 
ATOM     51  C   UNL A   1      38.616  31.226  29.261  1.00  0.00     0.074 A 
ATOM     52  C   UNL A   1      37.665  30.469  28.494  1.00  0.00     0.031 C 
ATOM     53  C   UNL A   1      42.573  28.503  31.734  1.00  0.00     0.029 A 
ATOM     54  C   UNL A   1      43.244  27.605  30.810  1.00  0.00     0.049 A 
ATOM     55  H   UNL A   1      42.198  26.085  29.715  1.00  0.00     0.167 HD
ATOM     56  C   UNL A   1      38.587  32.378  29.984  1.00  0.00     0.034 A 
ATOM     57  C   UNL A   1      44.409  27.886  30.149  1.00  0.00     0.034 A 
ATOM     58  C   UNL A   1      39.877  32.578  30.661  1.00  0.00     0.049 A 
ATOM     59  C   UNL A   1      44.601  29.377  29.896  1.00  0.00     0.074 A 
ATOM     60  C   UNL A   1      40.333  32.324  31.944  1.00  0.00     0.029 A 
ATOM     61  N   UNL A   1      41.015  32.742  29.883  1.00  0.00    -0.354 N 
ATOM     62  N   UNL A   1      43.764  30.317  30.254  1.00  0.00    -0.248 NA
ATOM     63  C   UNL A   1      45.729  29.906  29.136  1.00  0.00     0.031 C 
ATOM     64  C   UNL A   1      41.762  32.284  31.907  1.00  0.00     0.029 A 
ATOM     65  C   UNL A   1      42.176  32.568  30.618  1.00  0.00     0.049 A 
ATOM     66  H   UNL A   1      40.999  32.958  28.923  1.00  0.00     0.167 HD
ATOM     67  C   UNL A   1      44.173  31.529  29.754  1.00  0.00     0.074 A 
ATOM     68  C   UNL A   1      45.403  31.206  29.041  1.00  0.00     0.031 C 
ATOM     69  C   UNL A   1      43.460  32.691  29.933  1.00  0.00     0.034 A 
BRANCH  56  70
ATOM     70  C   UNL A   1      37.322  33.139  30.319  1.00  0.00     0.023 A 
ATOM     71  C   UNL A   1      37.098  33.501  31.662  1.00  0.00     0.031 A 
ATOM     72  C   UNL A   1      36.278  33.485  29.432  1.00  0.00     0.131 A 
ATOM     73  C   UNL A   1      35.882  34.073  32.080  1.00  0.00     0.055 A 
ATOM     74  C   UNL A   1      35.047  34.007  29.853  1.00  0.00     0.041 A 
ATOM     75  F   UNL A   1      36.406  33.400  28.105  1.00  0.00    -0.206 F 
ATOM     76  C   UNL A   1      34.839  34.298  31.187  1.00  0.00     0.022 A 
BRANCH  73  77
ATOM     77  S   UNL A   1      35.682  34.528  33.820  1.00  0.00     0.124 S 
ATOM     78  O   UNL A   1      34.893  35.751  33.729  1.00  0.00    -0.237 OA
ATOM     79  O   UNL A   1      35.005  33.358  34.369  1.00  0.00    -0.237 OA
ATOM     80  O   UNL A   1      37.057  34.714  34.281  1.00  0.00    -0.744 OA
ENDBRANCH  73  77
ENDBRANCH  56  70
BRANCH  57  81
ATOM     81  C   UNL A   1      44.765  26.782  29.196  1.00  0.00     0.023 A 
ATOM     82  C   UNL A   1      44.741  27.085  27.813  1.00  0.00     0.031 A 
ATOM     83  C   UNL A   1      45.597  25.740  29.627  1.00  0.00     0.131 A 
ATOM     84  C   UNL A   1      45.705  26.522  26.960  1.00  0.00     0.055 A 
ATOM     85  C   UNL A   1      46.534  25.169  28.763  1.00  0.00     0.041 A 
ATOM     86  F   UNL A   1      45.638  25.383  30.919  1.00  0.00    -0.206 F 
ATOM     87  C   UNL A   1      46.645  25.614  27.448  1.00  0.00     0.022 A 
BRANCH  84  88
ATOM     88  S   UNL A   1      45.899  27.150  25.265  1.00  0.00     0.124 S 
ATOM     89  O   UNL A   1      46.204  25.937  24.519  1.00  0.00    -0.237 OA
ATOM     90  O   UNL A   1      44.601  27.758  24.991  1.00  0.00    -0.237 OA
ATOM     91  O   UNL A   1      46.998  28.110  25.389  1.00  0.00    -0.744 OA
ENDBRANCH  84  88
ENDBRANCH  57  81
BRANCH  69  92
ATOM     92  C   UNL A   1      43.895  34.061  29.429  1.00  0.00     0.023 A 
ATOM     93  C   UNL A   1      44.137  35.136  30.293  1.00  0.00     0.031 A 
ATOM     94  C   UNL A   1      44.039  34.362  28.050  1.00  0.00     0.131 A 
ATOM     95  C   UNL A   1      44.663  36.352  29.822  1.00  0.00     0.055 A 
ATOM     96  C   UNL A   1      44.488  35.598  27.574  1.00  0.00     0.041 A 
ATOM     97  F   UNL A   1      43.758  33.478  27.085  1.00  0.00    -0.206 F 
ATOM     98  C   UNL A   1      44.839  36.594  28.465  1.00  0.00     0.022 A 
BRANCH  95  99
ATOM     99  S   UNL A   1      45.171  37.582  31.047  1.00  0.00     0.124 S 
ATOM    100  O   UNL A   1      44.234  38.671  30.812  1.00  0.00    -0.237 OA
ATOM    101  O   UNL A   1      44.994  36.847  32.295  1.00  0.00    -0.237 OA
ATOM    102  O   UNL A   1      46.564  37.868  30.688  1.00  0.00    -0.744 OA
ENDBRANCH  95  99
ENDBRANCH  69  92
ENDBRANCH  43  44
ENDBRANCH  35  38
ENDBRANCH  33  34
ENDBRANCH  32  33
ENDBRANCH   1  32
TORSDOF 17
ENDMDL
