MODEL 1
REMARK VINA RESULT:     -11.8      0.000      0.000
REMARK SMILES Cc1nc2n(n1)[C@@H](c1ccc([N+](=O)[O-])o1)CC(C(=O)NCCCNC(=O)c1ccc(-c3c4nc(c(-c5cc(S(=O)(=O)[O-])ccc5F)c5ccc([nH]5)c(-c5cc(S(=O)(=O)[O-])ccc5F)c5nc(c(-c6cc(S(=O)(=O)[O-])ccc6F)c6ccc3[nH]6)C=C5)C=C4)cc1)=N2
REMARK SMILES IDX 22 1 21 2 20 3 18 4 19 5 17 7 1 8 2 9 3 10 6 11 4 12 5 13
REMARK SMILES IDX 90 14 7 15 16 16 8 17 9 18 15 19 10 20 11 21 12 22 13 23
REMARK SMILES IDX 14 24 23 25 24 26 25 27 26 29 27 30 28 31 89 32 29 33 88 34
REMARK SMILES IDX 30 35 31 36 32 37 82 38 33 39 87 40 81 41 83 42 34 43 86 44
REMARK SMILES IDX 80 45 79 46 35 48 67 49 47 50 66 51 48 52 51 53 65 54 84 55
REMARK SMILES IDX 49 56 50 57 64 59 85 60 52 61 36 62 37 63 45 64 38 65 44 66
REMARK SMILES IDX 46 67 43 68 39 69 40 70 41 71 42 72 68 73 69 74 77 75 70 76
REMARK SMILES IDX 76 77 78 78 75 79 71 80 72 81 73 82 74 83 53 84 54 85 62 86
REMARK SMILES IDX 55 87 61 88 63 89 60 90 56 91 57 92 58 93 59 94
REMARK H PARENT 20 6 24 28 83 47 51 58
REMARK Flexibility Score: inf
ROOT
ATOM      1  C   UNL A   1      34.691  30.492  26.924  1.00  0.00     0.042 C 
ENDROOT
BRANCH   1   2
ATOM      2  C   UNL A   1      34.415  28.987  26.758  1.00  0.00     0.118 C 
BRANCH   2   3
ATOM      3  N   UNL A   1      33.280  28.527  27.545  1.00  0.00    -0.351 N 
ATOM      4  C   UNL A   1      32.002  28.090  27.305  1.00  0.00     0.265 C 
ATOM      5  O   UNL A   1      31.373  27.687  28.284  1.00  0.00    -0.268 OA
ATOM      6  H   UNL A   1      33.485  28.532  28.509  1.00  0.00     0.163 HD
BRANCH   4   7
ATOM      7  C   UNL A   1      31.287  28.049  25.936  1.00  0.00     0.112 C 
ATOM      8  C   UNL A   1      28.875  30.634  21.314  1.00  0.00     0.092 C 
ATOM      9  C   UNL A   1      29.446  29.786  22.380  1.00  0.00     0.149 A 
ATOM     10  N   UNL A   1      30.062  30.312  23.485  1.00  0.00    -0.195 NA
ATOM     11  N   UNL A   1      29.411  28.446  22.343  1.00  0.00    -0.154 NA
ATOM     12  C   UNL A   1      30.452  29.261  24.175  1.00  0.00     0.249 A 
ATOM     13  N   UNL A   1      30.078  28.150  23.475  1.00  0.00    -0.219 N 
ATOM     14  N   UNL A   1      31.116  29.200  25.350  1.00  0.00    -0.211 NA
ATOM     15  C   UNL A   1      30.360  26.801  23.905  1.00  0.00     0.184 C 
ATOM     16  C   UNL A   1      30.760  26.750  25.387  1.00  0.00     0.098 C 
BRANCH  15  17
ATOM     17  C   UNL A   1      31.396  26.148  23.034  1.00  0.00     0.136 A 
ATOM     18  C   UNL A   1      31.867  26.331  21.744  1.00  0.00     0.056 A 
ATOM     19  O   UNL A   1      32.045  25.084  23.606  1.00  0.00    -0.404 OA
ATOM     20  C   UNL A   1      32.867  25.348  21.521  1.00  0.00     0.134 A 
ATOM     21  C   UNL A   1      32.938  24.630  22.690  1.00  0.00     0.433 A 
BRANCH  21  22
ATOM     22  N   UNL A   1      33.750  23.528  23.096  1.00  0.00     0.102 N 
ATOM     23  O   UNL A   1      33.467  23.007  24.182  1.00  0.00    -0.256 OA
ATOM     24  O   UNL A   1      34.666  23.183  22.337  1.00  0.00    -0.256 OA
ENDBRANCH  21  22
ENDBRANCH  15  17
ENDBRANCH   4   7
ENDBRANCH   2   3
ENDBRANCH   1   2
BRANCH   1  25
ATOM     25  C   UNL A   1      33.623  31.261  27.734  1.00  0.00     0.118 C 
BRANCH  25  26
ATOM     26  N   UNL A   1      34.096  32.589  28.099  1.00  0.00    -0.352 N 
ATOM     27  C   UNL A   1      35.114  33.038  28.897  1.00  0.00     0.251 C 
ATOM     28  H   UNL A   1      33.575  33.316  27.685  1.00  0.00     0.163 HD
ATOM     29  O   UNL A   1      35.093  34.235  29.192  1.00  0.00    -0.269 OA
BRANCH  27  30
ATOM     30  C   UNL A   1      36.217  32.190  29.412  1.00  0.00     0.039 A 
ATOM     31  C   UNL A   1      36.010  31.544  30.643  1.00  0.00     0.014 A 
ATOM     32  C   UNL A   1      37.482  32.135  28.827  1.00  0.00     0.014 A 
ATOM     33  C   UNL A   1      37.037  30.820  31.262  1.00  0.00     0.010 A 
ATOM     34  C   UNL A   1      38.512  31.411  29.454  1.00  0.00     0.010 A 
ATOM     35  C   UNL A   1      38.302  30.733  30.668  1.00  0.00    -0.014 A 
BRANCH  35  36
ATOM     36  C   UNL A   1      39.308  29.806  31.249  1.00  0.00     0.031 A 
ATOM     37  C   UNL A   1      39.421  28.474  30.593  1.00  0.00     0.074 A 
ATOM     38  C   UNL A   1      40.343  30.160  32.045  1.00  0.00     0.049 A 
ATOM     39  N   UNL A   1      40.076  28.307  29.483  1.00  0.00    -0.248 NA
ATOM     40  C   UNL A   1      38.665  27.300  31.022  1.00  0.00     0.031 C 
ATOM     41  C   UNL A   1      40.941  31.496  32.088  1.00  0.00     0.029 A 
ATOM     42  N   UNL A   1      41.204  29.381  32.789  1.00  0.00    -0.354 N 
ATOM     43  C   UNL A   1      39.799  27.036  29.031  1.00  0.00     0.074 A 
ATOM     44  C   UNL A   1      38.928  26.440  30.025  1.00  0.00     0.031 C 
ATOM     45  C   UNL A   1      42.154  31.404  32.676  1.00  0.00     0.029 A 
ATOM     46  C   UNL A   1      42.364  30.047  33.197  1.00  0.00     0.049 A 
ATOM     47  H   UNL A   1      41.019  28.441  33.014  1.00  0.00     0.167 HD
ATOM     48  C   UNL A   1      40.289  26.554  27.859  1.00  0.00     0.034 A 
ATOM     49  C   UNL A   1      43.606  29.489  33.264  1.00  0.00     0.034 A 
ATOM     50  C   UNL A   1      41.153  27.443  27.134  1.00  0.00     0.049 A 
ATOM     51  C   UNL A   1      43.819  28.932  31.887  1.00  0.00     0.074 A 
ATOM     52  C   UNL A   1      41.004  28.439  26.192  1.00  0.00     0.029 A 
ATOM     53  N   UNL A   1      42.491  27.482  27.457  1.00  0.00    -0.354 N 
ATOM     54  N   UNL A   1      44.187  29.614  30.840  1.00  0.00    -0.248 NA
ATOM     55  C   UNL A   1      43.328  27.585  31.597  1.00  0.00     0.031 C 
ATOM     56  C   UNL A   1      42.135  29.302  26.362  1.00  0.00     0.029 A 
ATOM     57  C   UNL A   1      42.850  28.811  27.454  1.00  0.00     0.049 A 
ATOM     58  H   UNL A   1      43.075  26.714  27.652  1.00  0.00     0.167 HD
ATOM     59  C   UNL A   1      43.771  28.875  29.737  1.00  0.00     0.074 A 
ATOM     60  C   UNL A   1      43.289  27.615  30.271  1.00  0.00     0.031 C 
ATOM     61  C   UNL A   1      43.678  29.406  28.483  1.00  0.00     0.034 A 
BRANCH  48  62
ATOM     62  C   UNL A   1      40.028  25.194  27.354  1.00  0.00     0.023 A 
ATOM     63  C   UNL A   1      38.847  24.961  26.638  1.00  0.00     0.031 A 
ATOM     64  C   UNL A   1      40.825  24.100  27.710  1.00  0.00     0.131 A 
ATOM     65  C   UNL A   1      38.462  23.652  26.334  1.00  0.00     0.055 A 
ATOM     66  C   UNL A   1      40.443  22.793  27.395  1.00  0.00     0.041 A 
ATOM     67  F   UNL A   1      41.958  24.279  28.408  1.00  0.00    -0.206 F 
ATOM     68  C   UNL A   1      39.246  22.563  26.715  1.00  0.00     0.022 A 
BRANCH  65  69
ATOM     69  S   UNL A   1      36.865  23.406  25.516  1.00  0.00     0.124 S 
ATOM     70  O   UNL A   1      36.161  24.642  25.838  1.00  0.00    -0.237 OA
ATOM     71  O   UNL A   1      37.272  23.247  24.123  1.00  0.00    -0.237 OA
ATOM     72  O   UNL A   1      36.340  22.202  26.157  1.00  0.00    -0.744 OA
ENDBRANCH  65  69
ENDBRANCH  48  62
BRANCH  49  73
ATOM     73  C   UNL A   1      44.013  28.732  34.496  1.00  0.00     0.023 A 
ATOM     74  C   UNL A   1      43.191  27.694  34.983  1.00  0.00     0.031 A 
ATOM     75  C   UNL A   1      45.149  29.041  35.271  1.00  0.00     0.131 A 
ATOM     76  C   UNL A   1      43.547  26.975  36.141  1.00  0.00     0.055 A 
ATOM     77  C   UNL A   1      45.528  28.293  36.391  1.00  0.00     0.041 A 
ATOM     78  F   UNL A   1      45.938  30.082  34.973  1.00  0.00    -0.206 F 
ATOM     79  C   UNL A   1      44.730  27.245  36.827  1.00  0.00     0.022 A 
BRANCH  76  80
ATOM     80  S   UNL A   1      42.453  25.659  36.748  1.00  0.00     0.124 S 
ATOM     81  O   UNL A   1      41.725  25.286  35.539  1.00  0.00    -0.237 OA
ATOM     82  O   UNL A   1      43.396  24.667  37.257  1.00  0.00    -0.237 OA
ATOM     83  O   UNL A   1      41.654  26.327  37.774  1.00  0.00    -0.744 OA
ENDBRANCH  76  80
ENDBRANCH  49  73
BRANCH  61  84
ATOM     84  C   UNL A   1      44.204  30.810  28.353  1.00  0.00     0.023 A 
ATOM     85  C   UNL A   1      43.421  31.913  28.747  1.00  0.00     0.031 A 
ATOM     86  C   UNL A   1      45.460  31.072  27.777  1.00  0.00     0.131 A 
ATOM     87  C   UNL A   1      43.900  33.220  28.561  1.00  0.00     0.055 A 
ATOM     88  C   UNL A   1      45.951  32.371  27.636  1.00  0.00     0.041 A 
ATOM     89  F   UNL A   1      46.239  30.076  27.322  1.00  0.00    -0.206 F 
ATOM     90  C   UNL A   1      45.170  33.452  28.026  1.00  0.00     0.022 A 
BRANCH  87  91
ATOM     91  S   UNL A   1      42.849  34.625  29.022  1.00  0.00     0.124 S 
ATOM     92  O   UNL A   1      42.510  35.210  27.726  1.00  0.00    -0.237 OA
ATOM     93  O   UNL A   1      41.758  33.989  29.742  1.00  0.00    -0.237 OA
ATOM     94  O   UNL A   1      43.732  35.450  29.851  1.00  0.00    -0.744 OA
ENDBRANCH  87  91
ENDBRANCH  61  84
ENDBRANCH  35  36
ENDBRANCH  27  30
ENDBRANCH  25  26
ENDBRANCH   1  25
TORSDOF 15
ENDMDL
MODEL 2
REMARK VINA RESULT:     -11.8      2.803      7.925
REMARK SMILES Cc1nc2n(n1)[C@@H](c1ccc([N+](=O)[O-])o1)CC(C(=O)NCCCNC(=O)c1ccc(-c3c4nc(c(-c5cc(S(=O)(=O)[O-])ccc5F)c5ccc([nH]5)c(-c5cc(S(=O)(=O)[O-])ccc5F)c5nc(c(-c6cc(S(=O)(=O)[O-])ccc6F)c6ccc3[nH]6)C=C5)C=C4)cc1)=N2
REMARK SMILES IDX 22 1 21 2 20 3 18 4 19 5 17 7 1 8 2 9 3 10 6 11 4 12 5 13
REMARK SMILES IDX 90 14 7 15 16 16 8 17 9 18 15 19 10 20 11 21 12 22 13 23
REMARK SMILES IDX 14 24 23 25 24 26 25 27 26 29 27 30 28 31 89 32 29 33 88 34
REMARK SMILES IDX 30 35 31 36 32 37 82 38 33 39 87 40 81 41 83 42 34 43 86 44
REMARK SMILES IDX 80 45 79 46 35 48 67 49 47 50 66 51 48 52 51 53 65 54 84 55
REMARK SMILES IDX 49 56 50 57 64 59 85 60 52 61 36 62 37 63 45 64 38 65 44 66
REMARK SMILES IDX 46 67 43 68 39 69 40 70 41 71 42 72 68 73 69 74 77 75 70 76
REMARK SMILES IDX 76 77 78 78 75 79 71 80 72 81 73 82 74 83 53 84 54 85 62 86
REMARK SMILES IDX 55 87 61 88 63 89 60 90 56 91 57 92 58 93 59 94
REMARK H PARENT 20 6 24 28 83 47 51 58
REMARK Flexibility Score: inf
ROOT
ATOM      1  C   UNL A   1      36.854  21.467  25.868  1.00  0.00     0.042 C 
ENDROOT
BRANCH   1   2
ATOM      2  C   UNL A   1      36.067  20.442  25.033  1.00  0.00     0.118 C 
BRANCH   2   3
ATOM      3  N   UNL A   1      34.641  20.441  25.330  1.00  0.00    -0.351 N 
ATOM      4  C   UNL A   1      33.548  21.206  25.013  1.00  0.00     0.265 C 
ATOM      5  O   UNL A   1      32.459  20.789  25.410  1.00  0.00    -0.268 OA
ATOM      6  H   UNL A   1      34.397  19.689  25.918  1.00  0.00     0.163 HD
BRANCH   4   7
ATOM      7  C   UNL A   1      33.552  22.525  24.208  1.00  0.00     0.112 C 
ATOM      8  C   UNL A   1      32.761  25.565  19.310  1.00  0.00     0.092 C 
ATOM      9  C   UNL A   1      33.006  24.991  20.649  1.00  0.00     0.149 A 
ATOM     10  N   UNL A   1      32.824  23.660  20.921  1.00  0.00    -0.195 NA
ATOM     11  N   UNL A   1      33.413  25.725  21.693  1.00  0.00    -0.154 NA
ATOM     12  C   UNL A   1      33.113  23.544  22.200  1.00  0.00     0.249 A 
ATOM     13  N   UNL A   1      33.443  24.786  22.659  1.00  0.00    -0.219 N 
ATOM     14  N   UNL A   1      33.095  22.449  22.991  1.00  0.00    -0.211 NA
ATOM     15  C   UNL A   1      33.796  25.065  24.031  1.00  0.00     0.184 C 
ATOM     16  C   UNL A   1      34.135  23.780  24.802  1.00  0.00     0.098 C 
BRANCH  15  17
ATOM     17  C   UNL A   1      32.724  25.856  24.728  1.00  0.00     0.136 A 
ATOM     18  C   UNL A   1      32.172  25.874  25.999  1.00  0.00     0.056 A 
ATOM     19  O   UNL A   1      32.088  26.784  23.945  1.00  0.00    -0.404 OA
ATOM     20  C   UNL A   1      31.165  26.876  26.002  1.00  0.00     0.134 A 
ATOM     21  C   UNL A   1      31.170  27.399  24.732  1.00  0.00     0.433 A 
BRANCH  21  22
ATOM     22  N   UNL A   1      30.404  28.435  24.115  1.00  0.00     0.102 N 
ATOM     23  O   UNL A   1      29.478  28.069  23.380  1.00  0.00    -0.256 OA
ATOM     24  O   UNL A   1      30.724  29.605  24.360  1.00  0.00    -0.256 OA
ENDBRANCH  21  22
ENDBRANCH  15  17
ENDBRANCH   4   7
ENDBRANCH   2   3
ENDBRANCH   1   2
BRANCH   1  25
ATOM     25  C   UNL A   1      38.241  21.839  25.298  1.00  0.00     0.118 C 
BRANCH  25  26
ATOM     26  N   UNL A   1      39.305  21.159  26.022  1.00  0.00    -0.352 N 
ATOM     27  C   UNL A   1      40.472  21.585  26.600  1.00  0.00     0.251 C 
ATOM     28  H   UNL A   1      39.156  20.189  26.116  1.00  0.00     0.163 HD
ATOM     29  O   UNL A   1      41.277  20.708  26.923  1.00  0.00    -0.269 OA
BRANCH  27  30
ATOM     30  C   UNL A   1      40.815  23.005  26.857  1.00  0.00     0.039 A 
ATOM     31  C   UNL A   1      41.973  23.509  26.239  1.00  0.00     0.014 A 
ATOM     32  C   UNL A   1      40.148  23.800  27.790  1.00  0.00     0.014 A 
ATOM     33  C   UNL A   1      42.436  24.801  26.518  1.00  0.00     0.010 A 
ATOM     34  C   UNL A   1      40.620  25.095  28.070  1.00  0.00     0.010 A 
ATOM     35  C   UNL A   1      41.758  25.618  27.429  1.00  0.00    -0.014 A 
BRANCH  35  36
ATOM     36  C   UNL A   1      42.162  27.043  27.560  1.00  0.00     0.031 A 
ATOM     37  C   UNL A   1      41.051  28.034  27.589  1.00  0.00     0.074 A 
ATOM     38  C   UNL A   1      43.360  27.487  28.003  1.00  0.00     0.049 A 
ATOM     39  N   UNL A   1      40.352  28.253  28.662  1.00  0.00    -0.248 NA
ATOM     40  C   UNL A   1      40.533  28.695  26.394  1.00  0.00     0.031 C 
ATOM     41  C   UNL A   1      44.266  26.723  28.862  1.00  0.00     0.029 A 
ATOM     42  N   UNL A   1      43.908  28.753  27.979  1.00  0.00    -0.354 N 
ATOM     43  C   UNL A   1      39.279  29.038  28.300  1.00  0.00     0.074 A 
ATOM     44  C   UNL A   1      39.438  29.300  26.883  1.00  0.00     0.031 C 
ATOM     45  C   UNL A   1      45.156  27.576  29.414  1.00  0.00     0.029 A 
ATOM     46  C   UNL A   1      44.998  28.918  28.838  1.00  0.00     0.049 A 
ATOM     47  H   UNL A   1      43.562  29.476  27.407  1.00  0.00     0.167 HD
ATOM     48  C   UNL A   1      38.316  29.412  29.182  1.00  0.00     0.034 A 
ATOM     49  C   UNL A   1      45.266  30.044  29.558  1.00  0.00     0.034 A 
ATOM     50  C   UNL A   1      38.508  28.970  30.535  1.00  0.00     0.049 A 
ATOM     51  C   UNL A   1      43.998  30.285  30.324  1.00  0.00     0.074 A 
ATOM     52  C   UNL A   1      38.186  27.855  31.280  1.00  0.00     0.029 A 
ATOM     53  N   UNL A   1      39.301  29.719  31.375  1.00  0.00    -0.354 N 
ATOM     54  N   UNL A   1      43.644  29.675  31.418  1.00  0.00    -0.248 NA
ATOM     55  C   UNL A   1      42.934  31.057  29.683  1.00  0.00     0.031 C 
ATOM     56  C   UNL A   1      39.172  27.787  32.317  1.00  0.00     0.029 A 
ATOM     57  C   UNL A   1      40.074  28.823  32.077  1.00  0.00     0.049 A 
ATOM     58  H   UNL A   1      39.312  30.701  31.457  1.00  0.00     0.167 HD
ATOM     59  C   UNL A   1      42.260  29.797  31.493  1.00  0.00     0.074 A 
ATOM     60  C   UNL A   1      41.889  30.698  30.418  1.00  0.00     0.031 C 
ATOM     61  C   UNL A   1      41.491  29.018  32.309  1.00  0.00     0.034 A 
BRANCH  48  62
ATOM     62  C   UNL A   1      37.167  30.265  28.833  1.00  0.00     0.023 A 
ATOM     63  C   UNL A   1      36.028  29.661  28.285  1.00  0.00     0.031 A 
ATOM     64  C   UNL A   1      37.236  31.662  28.867  1.00  0.00     0.131 A 
ATOM     65  C   UNL A   1      35.010  30.453  27.744  1.00  0.00     0.055 A 
ATOM     66  C   UNL A   1      36.212  32.451  28.336  1.00  0.00     0.041 A 
ATOM     67  F   UNL A   1      38.316  32.280  29.373  1.00  0.00    -0.206 F 
ATOM     68  C   UNL A   1      35.097  31.845  27.756  1.00  0.00     0.022 A 
BRANCH  65  69
ATOM     69  S   UNL A   1      33.621  29.615  26.938  1.00  0.00     0.124 S 
ATOM     70  O   UNL A   1      34.247  29.061  25.743  1.00  0.00    -0.237 OA
ATOM     71  O   UNL A   1      33.230  28.650  27.960  1.00  0.00    -0.237 OA
ATOM     72  O   UNL A   1      32.668  30.697  26.700  1.00  0.00    -0.744 OA
ENDBRANCH  65  69
ENDBRANCH  48  62
BRANCH  49  73
ATOM     73  C   UNL A   1      46.032  31.167  28.920  1.00  0.00     0.023 A 
ATOM     74  C   UNL A   1      45.459  31.884  27.848  1.00  0.00     0.031 A 
ATOM     75  C   UNL A   1      47.350  31.521  29.270  1.00  0.00     0.131 A 
ATOM     76  C   UNL A   1      46.159  32.937  27.227  1.00  0.00     0.055 A 
ATOM     77  C   UNL A   1      48.025  32.599  28.687  1.00  0.00     0.041 A 
ATOM     78  F   UNL A   1      48.039  30.833  30.191  1.00  0.00    -0.206 F 
ATOM     79  C   UNL A   1      47.425  33.322  27.666  1.00  0.00     0.022 A 
BRANCH  76  80
ATOM     80  S   UNL A   1      45.397  33.823  25.838  1.00  0.00     0.124 S 
ATOM     81  O   UNL A   1      44.752  32.740  25.102  1.00  0.00    -0.237 OA
ATOM     82  O   UNL A   1      44.501  34.761  26.509  1.00  0.00    -0.237 OA
ATOM     83  O   UNL A   1      46.536  34.441  25.162  1.00  0.00    -0.744 OA
ENDBRANCH  76  80
ENDBRANCH  49  73
BRANCH  61  84
ATOM     84  C   UNL A   1      42.265  28.119  33.235  1.00  0.00     0.023 A 
ATOM     85  C   UNL A   1      43.175  27.171  32.725  1.00  0.00     0.031 A 
ATOM     86  C   UNL A   1      42.062  28.148  34.625  1.00  0.00     0.131 A 
ATOM     87  C   UNL A   1      43.843  26.296  33.596  1.00  0.00     0.055 A 
ATOM     88  C   UNL A   1      42.763  27.306  35.492  1.00  0.00     0.041 A 
ATOM     89  F   UNL A   1      41.168  28.982  35.181  1.00  0.00    -0.206 F 
ATOM     90  C   UNL A   1      43.657  26.374  34.979  1.00  0.00     0.022 A 
BRANCH  87  91
ATOM     91  S   UNL A   1      44.965  25.045  32.911  1.00  0.00     0.124 S 
ATOM     92  O   UNL A   1      46.210  25.792  32.739  1.00  0.00    -0.237 OA
ATOM     93  O   UNL A   1      44.972  24.018  33.941  1.00  0.00    -0.237 OA
ATOM     94  O   UNL A   1      44.311  24.653  31.659  1.00  0.00    -0.744 OA
ENDBRANCH  87  91
ENDBRANCH  61  84
ENDBRANCH  35  36
ENDBRANCH  27  30
ENDBRANCH  25  26
ENDBRANCH   1  25
TORSDOF 15
ENDMDL
MODEL 3
REMARK VINA RESULT:     -11.8      2.088      2.846
REMARK SMILES Cc1nc2n(n1)[C@@H](c1ccc([N+](=O)[O-])o1)CC(C(=O)NCCCNC(=O)c1ccc(-c3c4nc(c(-c5cc(S(=O)(=O)[O-])ccc5F)c5ccc([nH]5)c(-c5cc(S(=O)(=O)[O-])ccc5F)c5nc(c(-c6cc(S(=O)(=O)[O-])ccc6F)c6ccc3[nH]6)C=C5)C=C4)cc1)=N2
REMARK SMILES IDX 22 1 21 2 20 3 18 4 19 5 17 7 1 8 2 9 3 10 6 11 4 12 5 13
REMARK SMILES IDX 90 14 7 15 16 16 8 17 9 18 15 19 10 20 11 21 12 22 13 23
REMARK SMILES IDX 14 24 23 25 24 26 25 27 26 29 27 30 28 31 89 32 29 33 88 34
REMARK SMILES IDX 30 35 31 36 32 37 82 38 33 39 87 40 81 41 83 42 34 43 86 44
REMARK SMILES IDX 80 45 79 46 35 48 67 49 47 50 66 51 48 52 51 53 65 54 84 55
REMARK SMILES IDX 49 56 50 57 64 59 85 60 52 61 36 62 37 63 45 64 38 65 44 66
REMARK SMILES IDX 46 67 43 68 39 69 40 70 41 71 42 72 68 73 69 74 77 75 70 76
REMARK SMILES IDX 76 77 78 78 75 79 71 80 72 81 73 82 74 83 53 84 54 85 62 86
REMARK SMILES IDX 55 87 61 88 63 89 60 90 56 91 57 92 58 93 59 94
REMARK H PARENT 20 6 24 28 83 47 51 58
REMARK Flexibility Score: inf
ROOT
ATOM      1  C   UNL A   1      32.299  30.209  27.120  1.00  0.00     0.042 C 
ENDROOT
BRANCH   1   2
ATOM      2  C   UNL A   1      31.412  30.524  25.903  1.00  0.00     0.118 C 
BRANCH   2   3
ATOM      3  N   UNL A   1      31.959  30.015  24.654  1.00  0.00    -0.351 N 
ATOM      4  C   UNL A   1      32.312  28.795  24.134  1.00  0.00     0.265 C 
ATOM      5  O   UNL A   1      32.661  28.788  22.953  1.00  0.00    -0.268 OA
ATOM      6  H   UNL A   1      32.121  30.742  24.009  1.00  0.00     0.163 HD
BRANCH   4   7
ATOM      7  C   UNL A   1      32.306  27.442  24.880  1.00  0.00     0.112 C 
ATOM      8  C   UNL A   1      29.568  22.905  27.283  1.00  0.00     0.092 C 
ATOM      9  C   UNL A   1      30.452  23.949  26.725  1.00  0.00     0.149 A 
ATOM     10  N   UNL A   1      29.965  25.045  26.063  1.00  0.00    -0.195 NA
ATOM     11  N   UNL A   1      31.788  23.897  26.817  1.00  0.00    -0.154 NA
ATOM     12  C   UNL A   1      31.040  25.714  25.703  1.00  0.00     0.249 A 
ATOM     13  N   UNL A   1      32.125  25.011  26.138  1.00  0.00    -0.219 N 
ATOM     14  N   UNL A   1      31.142  26.873  25.016  1.00  0.00    -0.211 NA
ATOM     15  C   UNL A   1      33.490  25.419  25.903  1.00  0.00     0.184 C 
ATOM     16  C   UNL A   1      33.576  26.891  25.473  1.00  0.00     0.098 C 
BRANCH  15  17
ATOM     17  C   UNL A   1      34.176  24.518  24.915  1.00  0.00     0.136 A 
ATOM     18  C   UNL A   1      34.264  24.445  23.534  1.00  0.00     0.056 A 
ATOM     19  O   UNL A   1      34.880  23.481  25.469  1.00  0.00    -0.404 OA
ATOM     20  C   UNL A   1      35.078  23.322  23.227  1.00  0.00     0.134 A 
ATOM     21  C   UNL A   1      35.430  22.786  24.441  1.00  0.00     0.433 A 
BRANCH  21  22
ATOM     22  N   UNL A   1      36.239  21.665  24.801  1.00  0.00     0.102 N 
ATOM     23  O   UNL A   1      35.826  20.967  25.736  1.00  0.00    -0.256 OA
ATOM     24  O   UNL A   1      37.280  21.482  24.157  1.00  0.00    -0.256 OA
ENDBRANCH  21  22
ENDBRANCH  15  17
ENDBRANCH   4   7
ENDBRANCH   2   3
ENDBRANCH   1   2
BRANCH   1  25
ATOM     25  C   UNL A   1      33.752  30.723  27.013  1.00  0.00     0.118 C 
BRANCH  25  26
ATOM     26  N   UNL A   1      33.911  31.996  27.701  1.00  0.00    -0.352 N 
ATOM     27  C   UNL A   1      34.710  32.415  28.732  1.00  0.00     0.251 C 
ATOM     28  H   UNL A   1      33.320  32.704  27.354  1.00  0.00     0.163 HD
ATOM     29  O   UNL A   1      34.422  33.499  29.245  1.00  0.00    -0.269 OA
BRANCH  27  30
ATOM     30  C   UNL A   1      35.877  31.661  29.253  1.00  0.00     0.039 A 
ATOM     31  C   UNL A   1      35.925  31.429  30.639  1.00  0.00     0.014 A 
ATOM     32  C   UNL A   1      36.983  31.322  28.474  1.00  0.00     0.014 A 
ATOM     33  C   UNL A   1      37.043  30.830  31.233  1.00  0.00     0.010 A 
ATOM     34  C   UNL A   1      38.106  30.726  29.075  1.00  0.00     0.010 A 
ATOM     35  C   UNL A   1      38.146  30.458  30.456  1.00  0.00    -0.014 A 
BRANCH  35  36
ATOM     36  C   UNL A   1      39.231  29.658  31.082  1.00  0.00     0.031 A 
ATOM     37  C   UNL A   1      39.477  28.316  30.483  1.00  0.00     0.074 A 
ATOM     38  C   UNL A   1      40.220  30.142  31.867  1.00  0.00     0.049 A 
ATOM     39  N   UNL A   1      40.156  28.166  29.386  1.00  0.00    -0.248 NA
ATOM     40  C   UNL A   1      38.833  27.094  30.958  1.00  0.00     0.031 C 
ATOM     41  C   UNL A   1      40.686  31.530  31.857  1.00  0.00     0.029 A 
ATOM     42  N   UNL A   1      41.144  29.482  32.649  1.00  0.00    -0.354 N 
ATOM     43  C   UNL A   1      40.006  26.856  28.986  1.00  0.00     0.074 A 
ATOM     44  C   UNL A   1      39.186  26.222  30.000  1.00  0.00     0.031 C 
ATOM     45  C   UNL A   1      41.897  31.580  32.455  1.00  0.00     0.029 A 
ATOM     46  C   UNL A   1      42.231  30.272  33.035  1.00  0.00     0.049 A 
ATOM     47  H   UNL A   1      41.047  28.538  32.912  1.00  0.00     0.167 HD
ATOM     48  C   UNL A   1      40.551  26.375  27.839  1.00  0.00     0.034 A 
ATOM     49  C   UNL A   1      43.520  29.839  33.133  1.00  0.00     0.034 A 
ATOM     50  C   UNL A   1      41.333  27.312  27.081  1.00  0.00     0.049 A 
ATOM     51  C   UNL A   1      43.799  29.248  31.782  1.00  0.00     0.074 A 
ATOM     52  C   UNL A   1      41.099  28.249  26.097  1.00  0.00     0.029 A 
ATOM     53  N   UNL A   1      42.658  27.493  27.410  1.00  0.00    -0.354 N 
ATOM     54  N   UNL A   1      44.110  29.917  30.709  1.00  0.00    -0.248 NA
ATOM     55  C   UNL A   1      43.441  27.849  31.547  1.00  0.00     0.031 C 
ATOM     56  C   UNL A   1      42.140  29.223  26.237  1.00  0.00     0.029 A 
ATOM     57  C   UNL A   1      42.888  28.849  27.352  1.00  0.00     0.049 A 
ATOM     58  H   UNL A   1      43.311  26.792  27.641  1.00  0.00     0.167 HD
ATOM     59  C   UNL A   1      43.777  29.096  29.636  1.00  0.00     0.074 A 
ATOM     60  C   UNL A   1      43.413  27.819  30.221  1.00  0.00     0.031 C 
ATOM     61  C   UNL A   1      43.646  29.563  28.360  1.00  0.00     0.034 A 
BRANCH  48  62
ATOM     62  C   UNL A   1      40.427  24.976  27.392  1.00  0.00     0.023 A 
ATOM     63  C   UNL A   1      41.596  24.254  27.120  1.00  0.00     0.031 A 
ATOM     64  C   UNL A   1      39.192  24.403  27.066  1.00  0.00     0.131 A 
ATOM     65  C   UNL A   1      41.517  23.008  26.492  1.00  0.00     0.055 A 
ATOM     66  C   UNL A   1      39.115  23.152  26.448  1.00  0.00     0.041 A 
ATOM     67  F   UNL A   1      38.048  25.067  27.298  1.00  0.00    -0.206 F 
ATOM     68  C   UNL A   1      40.284  22.454  26.144  1.00  0.00     0.022 A 
BRANCH  65  69
ATOM     69  S   UNL A   1      43.066  22.178  26.054  1.00  0.00     0.124 S 
ATOM     70  O   UNL A   1      43.299  22.658  24.697  1.00  0.00    -0.237 OA
ATOM     71  O   UNL A   1      43.971  22.691  27.078  1.00  0.00    -0.237 OA
ATOM     72  O   UNL A   1      42.731  20.760  26.166  1.00  0.00    -0.744 OA
ENDBRANCH  65  69
ENDBRANCH  48  62
BRANCH  49  73
ATOM     73  C   UNL A   1      43.985  29.177  34.398  1.00  0.00     0.023 A 
ATOM     74  C   UNL A   1      43.143  28.259  35.059  1.00  0.00     0.031 A 
ATOM     75  C   UNL A   1      45.207  29.470  35.037  1.00  0.00     0.131 A 
ATOM     76  C   UNL A   1      43.552  27.631  36.251  1.00  0.00     0.055 A 
ATOM     77  C   UNL A   1      45.634  28.808  36.193  1.00  0.00     0.041 A 
ATOM     78  F   UNL A   1      46.036  30.412  34.566  1.00  0.00    -0.206 F 
ATOM     79  C   UNL A   1      44.810  27.874  36.802  1.00  0.00     0.022 A 
BRANCH  76  80
ATOM     80  S   UNL A   1      42.431  26.471  37.083  1.00  0.00     0.124 S 
ATOM     81  O   UNL A   1      42.485  25.309  36.201  1.00  0.00    -0.237 OA
ATOM     82  O   UNL A   1      43.052  26.307  38.394  1.00  0.00    -0.237 OA
ATOM     83  O   UNL A   1      41.153  27.182  37.095  1.00  0.00    -0.744 OA
ENDBRANCH  76  80
ENDBRANCH  49  73
BRANCH  61  84
ATOM     84  C   UNL A   1      44.037  31.004  28.173  1.00  0.00     0.023 A 
ATOM     85  C   UNL A   1      43.248  32.040  28.710  1.00  0.00     0.031 A 
ATOM     86  C   UNL A   1      45.158  31.366  27.406  1.00  0.00     0.131 A 
ATOM     87  C   UNL A   1      43.590  33.382  28.474  1.00  0.00     0.055 A 
ATOM     88  C   UNL A   1      45.521  32.700  27.211  1.00  0.00     0.041 A 
ATOM     89  F   UNL A   1      45.925  30.437  26.811  1.00  0.00    -0.206 F 
ATOM     90  C   UNL A   1      44.735  33.715  27.744  1.00  0.00     0.022 A 
BRANCH  87  91
ATOM     91  S   UNL A   1      42.526  34.699  29.127  1.00  0.00     0.124 S 
ATOM     92  O   UNL A   1      42.175  35.451  27.923  1.00  0.00    -0.237 OA
ATOM     93  O   UNL A   1      41.445  33.958  29.756  1.00  0.00    -0.237 OA
ATOM     94  O   UNL A   1      43.404  35.412  30.058  1.00  0.00    -0.744 OA
ENDBRANCH  87  91
ENDBRANCH  61  84
ENDBRANCH  35  36
ENDBRANCH  27  30
ENDBRANCH  25  26
ENDBRANCH   1  25
TORSDOF 15
ENDMDL
