MODEL 1
REMARK VINA RESULT:     -13.2      0.000      0.000
REMARK SMILES Cc1cc2c(=O)c3ccccc3oc2c(C(=O)NCCCNC(=O)c2ccc(-c3c4nc(c(-c5cc(S(=O)(=O)[O-])ccc5F)c5ccc([nH]5)c(-c5cc(S(=O)(=O)[O-])ccc5F)c5nc(c(-c6cc(S(=O)(=O)[O-])ccc6F)c6ccc3[nH]6)C=C5)C=C4)cc2)c1C
REMARK SMILES IDX 22 1 23 2 24 3 21 5 20 6 19 7 18 8 16 9 17 10 15 12 1 13
REMARK SMILES IDX 2 14 3 15 88 16 4 17 89 18 5 19 14 20 6 21 7 22 13 23 8 24
REMARK SMILES IDX 12 25 9 26 11 27 10 28 25 29 26 30 87 31 27 32 86 33 28 34
REMARK SMILES IDX 29 35 30 36 80 37 31 38 85 39 79 40 81 41 32 42 84 43 78 44
REMARK SMILES IDX 77 45 33 47 65 48 45 49 64 50 46 51 49 52 63 53 82 54 47 55
REMARK SMILES IDX 48 56 62 58 83 59 50 60 34 61 35 62 43 63 36 64 42 65 44 66
REMARK SMILES IDX 41 67 37 68 38 69 39 70 40 71 66 72 67 73 75 74 68 75 74 76
REMARK SMILES IDX 76 77 73 78 69 79 70 80 71 81 72 82 51 83 52 84 60 85 53 86
REMARK SMILES IDX 59 87 61 88 58 89 54 90 55 91 56 92 57 93
REMARK H PARENT 22 4 18 11 81 46 49 57
REMARK Flexibility Score: inf
ROOT
ATOM      1  N   UNL A   1      32.407  31.652  26.897  1.00  0.00    -0.352 N 
ATOM      2  C   UNL A   1      33.314  32.503  27.495  1.00  0.00     0.251 C 
ATOM      3  O   UNL A   1      33.020  33.679  27.646  1.00  0.00    -0.269 OA
ATOM      4  H   UNL A   1      31.633  32.095  26.480  1.00  0.00     0.163 HD
ENDROOT
BRANCH   1   5
ATOM      5  C   UNL A   1      32.418  30.200  26.787  1.00  0.00     0.118 C 
BRANCH   5   6
ATOM      6  C   UNL A   1      32.587  29.732  25.351  1.00  0.00     0.042 C 
BRANCH   6   7
ATOM      7  C   UNL A   1      33.970  29.161  25.025  1.00  0.00     0.118 C 
BRANCH   7   8
ATOM      8  N   UNL A   1      34.017  28.682  23.656  1.00  0.00    -0.352 N 
ATOM      9  C   UNL A   1      33.445  27.733  22.854  1.00  0.00     0.255 C 
ATOM     10  O   UNL A   1      34.020  27.682  21.755  1.00  0.00    -0.269 OA
ATOM     11  H   UNL A   1      34.667  29.209  23.139  1.00  0.00     0.163 HD
BRANCH   9  12
ATOM     12  C   UNL A   1      32.284  26.776  23.091  1.00  0.00     0.086 A 
ATOM     13  C   UNL A   1      28.495  26.387  23.866  1.00  0.00     0.044 C 
ATOM     14  C   UNL A   1      29.970  26.109  23.684  1.00  0.00    -0.046 A 
ATOM     15  C   UNL A   1      30.417  24.840  24.046  1.00  0.00     0.019 A 
ATOM     16  C   UNL A   1      30.890  27.082  23.181  1.00  0.00    -0.032 A 
ATOM     17  C   UNL A   1      31.756  24.508  23.909  1.00  0.00     0.066 A 
ATOM     18  C   UNL A   1      30.304  28.399  22.782  1.00  0.00     0.045 C 
ATOM     19  C   UNL A   1      32.193  23.161  24.309  1.00  0.00     0.200 A 
ATOM     20  C   UNL A   1      32.682  25.442  23.433  1.00  0.00     0.151 A 
ATOM     21  O   UNL A   1      31.399  22.310  24.692  1.00  0.00    -0.288 OA
ATOM     22  C   UNL A   1      33.626  22.883  24.241  1.00  0.00     0.065 A 
ATOM     23  O   UNL A   1      34.007  25.076  23.255  1.00  0.00    -0.455 OA
ATOM     24  C   UNL A   1      34.144  21.661  24.682  1.00  0.00     0.016 A 
ATOM     25  C   UNL A   1      34.456  23.870  23.729  1.00  0.00     0.138 A 
ATOM     26  C   UNL A   1      35.518  21.432  24.611  1.00  0.00     0.001 A 
ATOM     27  C   UNL A   1      35.831  23.640  23.666  1.00  0.00     0.048 A 
ATOM     28  C   UNL A   1      36.361  22.423  24.106  1.00  0.00     0.004 A 
ENDBRANCH   9  12
ENDBRANCH   7   8
ENDBRANCH   6   7
ENDBRANCH   5   6
ENDBRANCH   1   5
BRANCH   2  29
ATOM     29  C   UNL A   1      34.619  31.986  27.984  1.00  0.00     0.039 A 
ATOM     30  C   UNL A   1      34.763  30.660  28.388  1.00  0.00     0.014 A 
ATOM     31  C   UNL A   1      35.721  32.848  28.036  1.00  0.00     0.014 A 
ATOM     32  C   UNL A   1      35.929  30.254  29.026  1.00  0.00     0.010 A 
ATOM     33  C   UNL A   1      36.934  32.402  28.576  1.00  0.00     0.010 A 
ATOM     34  C   UNL A   1      37.033  31.116  29.126  1.00  0.00    -0.014 A 
BRANCH  34  35
ATOM     35  C   UNL A   1      38.274  30.632  29.793  1.00  0.00     0.031 A 
ATOM     36  C   UNL A   1      38.603  31.026  31.208  1.00  0.00     0.074 A 
ATOM     37  C   UNL A   1      39.074  29.769  29.133  1.00  0.00     0.049 A 
ATOM     38  N   UNL A   1      39.609  30.648  31.955  1.00  0.00    -0.248 NA
ATOM     39  C   UNL A   1      37.693  31.973  31.874  1.00  0.00     0.031 C 
ATOM     40  C   UNL A   1      38.856  29.322  27.756  1.00  0.00     0.029 A 
ATOM     41  N   UNL A   1      40.199  29.088  29.527  1.00  0.00    -0.354 N 
ATOM     42  C   UNL A   1      39.468  31.323  33.162  1.00  0.00     0.074 A 
ATOM     43  C   UNL A   1      38.296  32.161  33.040  1.00  0.00     0.031 C 
ATOM     44  C   UNL A   1      39.765  28.388  27.448  1.00  0.00     0.029 A 
ATOM     45  C   UNL A   1      40.686  28.228  28.569  1.00  0.00     0.049 A 
ATOM     46  H   UNL A   1      40.618  29.205  30.410  1.00  0.00     0.167 HD
ATOM     47  C   UNL A   1      40.239  31.239  34.274  1.00  0.00     0.034 A 
ATOM     48  C   UNL A   1      41.755  27.405  28.581  1.00  0.00     0.034 A 
ATOM     49  C   UNL A   1      41.388  30.376  34.389  1.00  0.00     0.049 A 
ATOM     50  C   UNL A   1      42.595  27.330  29.828  1.00  0.00     0.074 A 
ATOM     51  C   UNL A   1      42.218  30.199  35.482  1.00  0.00     0.029 A 
ATOM     52  N   UNL A   1      41.866  29.540  33.388  1.00  0.00    -0.354 N 
ATOM     53  N   UNL A   1      42.424  27.950  30.972  1.00  0.00    -0.248 NA
ATOM     54  C   UNL A   1      43.770  26.451  29.793  1.00  0.00     0.031 C 
ATOM     55  C   UNL A   1      43.229  29.307  35.125  1.00  0.00     0.029 A 
ATOM     56  C   UNL A   1      42.992  28.865  33.833  1.00  0.00     0.049 A 
ATOM     57  H   UNL A   1      41.465  29.441  32.495  1.00  0.00     0.167 HD
ATOM     58  C   UNL A   1      43.461  27.527  31.797  1.00  0.00     0.074 A 
ATOM     59  C   UNL A   1      44.234  26.571  31.030  1.00  0.00     0.031 C 
ATOM     60  C   UNL A   1      43.750  27.904  33.068  1.00  0.00     0.034 A 
BRANCH  47  61
ATOM     61  C   UNL A   1      39.880  32.082  35.474  1.00  0.00     0.023 A 
ATOM     62  C   UNL A   1      38.995  31.580  36.448  1.00  0.00     0.031 A 
ATOM     63  C   UNL A   1      40.303  33.419  35.589  1.00  0.00     0.131 A 
ATOM     64  C   UNL A   1      38.534  32.419  37.471  1.00  0.00     0.055 A 
ATOM     65  C   UNL A   1      39.873  34.238  36.635  1.00  0.00     0.041 A 
ATOM     66  F   UNL A   1      41.147  33.947  34.688  1.00  0.00    -0.206 F 
ATOM     67  C   UNL A   1      38.974  33.742  37.574  1.00  0.00     0.022 A 
BRANCH  64  68
ATOM     68  S   UNL A   1      37.298  31.847  38.670  1.00  0.00     0.124 S 
ATOM     69  O   UNL A   1      37.052  30.480  38.215  1.00  0.00    -0.237 OA
ATOM     70  O   UNL A   1      38.021  31.963  39.933  1.00  0.00    -0.237 OA
ATOM     71  O   UNL A   1      36.183  32.770  38.492  1.00  0.00    -0.744 OA
ENDBRANCH  64  68
ENDBRANCH  47  61
BRANCH  48  72
ATOM     72  C   UNL A   1      42.037  26.567  27.377  1.00  0.00     0.023 A 
ATOM     73  C   UNL A   1      41.623  25.222  27.323  1.00  0.00     0.031 A 
ATOM     74  C   UNL A   1      42.833  27.054  26.327  1.00  0.00     0.131 A 
ATOM     75  C   UNL A   1      42.081  24.392  26.293  1.00  0.00     0.055 A 
ATOM     76  C   UNL A   1      43.219  26.243  25.258  1.00  0.00     0.041 A 
ATOM     77  F   UNL A   1      43.264  28.324  26.338  1.00  0.00    -0.206 F 
ATOM     78  C   UNL A   1      42.861  24.897  25.249  1.00  0.00     0.022 A 
BRANCH  75  79
ATOM     79  S   UNL A   1      41.817  22.597  26.365  1.00  0.00     0.124 S 
ATOM     80  O   UNL A   1      42.408  22.254  27.653  1.00  0.00    -0.237 OA
ATOM     81  O   UNL A   1      40.360  22.507  26.295  1.00  0.00    -0.237 OA
ATOM     82  O   UNL A   1      42.522  22.097  25.190  1.00  0.00    -0.744 OA
ENDBRANCH  75  79
ENDBRANCH  48  72
BRANCH  60  83
ATOM     83  C   UNL A   1      44.957  27.296  33.742  1.00  0.00     0.023 A 
ATOM     84  C   UNL A   1      44.808  26.163  34.563  1.00  0.00     0.031 A 
ATOM     85  C   UNL A   1      46.214  27.923  33.695  1.00  0.00     0.131 A 
ATOM     86  C   UNL A   1      45.886  25.716  35.336  1.00  0.00     0.055 A 
ATOM     87  C   UNL A   1      47.299  27.445  34.431  1.00  0.00     0.041 A 
ATOM     88  F   UNL A   1      46.404  29.015  32.936  1.00  0.00    -0.206 F 
ATOM     89  C   UNL A   1      47.133  26.345  35.268  1.00  0.00     0.022 A 
BRANCH  86  90
ATOM     90  S   UNL A   1      45.684  24.363  36.530  1.00  0.00     0.124 S 
ATOM     91  O   UNL A   1      45.148  23.297  35.687  1.00  0.00    -0.237 OA
ATOM     92  O   UNL A   1      47.053  24.160  36.997  1.00  0.00    -0.237 OA
ATOM     93  O   UNL A   1      44.757  24.901  37.519  1.00  0.00    -0.744 OA
ENDBRANCH  86  90
ENDBRANCH  60  83
ENDBRANCH  34  35
ENDBRANCH   2  29
TORSDOF 13
ENDMDL
MODEL 2
REMARK VINA RESULT:     -13.2      5.049     10.168
REMARK SMILES Cc1cc2c(=O)c3ccccc3oc2c(C(=O)NCCCNC(=O)c2ccc(-c3c4nc(c(-c5cc(S(=O)(=O)[O-])ccc5F)c5ccc([nH]5)c(-c5cc(S(=O)(=O)[O-])ccc5F)c5nc(c(-c6cc(S(=O)(=O)[O-])ccc6F)c6ccc3[nH]6)C=C5)C=C4)cc2)c1C
REMARK SMILES IDX 22 1 23 2 24 3 21 5 20 6 19 7 18 8 16 9 17 10 15 12 1 13
REMARK SMILES IDX 2 14 3 15 88 16 4 17 89 18 5 19 14 20 6 21 7 22 13 23 8 24
REMARK SMILES IDX 12 25 9 26 11 27 10 28 25 29 26 30 87 31 27 32 86 33 28 34
REMARK SMILES IDX 29 35 30 36 80 37 31 38 85 39 79 40 81 41 32 42 84 43 78 44
REMARK SMILES IDX 77 45 33 47 65 48 45 49 64 50 46 51 49 52 63 53 82 54 47 55
REMARK SMILES IDX 48 56 62 58 83 59 50 60 34 61 35 62 43 63 36 64 42 65 44 66
REMARK SMILES IDX 41 67 37 68 38 69 39 70 40 71 66 72 67 73 75 74 68 75 74 76
REMARK SMILES IDX 76 77 73 78 69 79 70 80 71 81 72 82 51 83 52 84 60 85 53 86
REMARK SMILES IDX 59 87 61 88 58 89 54 90 55 91 56 92 57 93
REMARK H PARENT 22 4 18 11 81 46 49 57
REMARK Flexibility Score: inf
ROOT
ATOM      1  N   UNL A   1      38.184  20.806  25.426  1.00  0.00    -0.352 N 
ATOM      2  C   UNL A   1      39.376  20.872  26.119  1.00  0.00     0.251 C 
ATOM      3  O   UNL A   1      40.036  19.856  26.270  1.00  0.00    -0.269 OA
ATOM      4  H   UNL A   1      37.864  19.894  25.236  1.00  0.00     0.163 HD
ENDROOT
BRANCH   1   5
ATOM      5  C   UNL A   1      37.327  21.874  24.934  1.00  0.00     0.118 C 
BRANCH   5   6
ATOM      6  C   UNL A   1      35.930  21.815  25.530  1.00  0.00     0.042 C 
BRANCH   6   7
ATOM      7  C   UNL A   1      35.728  22.691  26.770  1.00  0.00     0.118 C 
BRANCH   7   8
ATOM      8  N   UNL A   1      34.317  22.813  27.086  1.00  0.00    -0.352 N 
ATOM      9  C   UNL A   1      33.103  22.904  26.462  1.00  0.00     0.255 C 
ATOM     10  O   UNL A   1      32.207  23.164  27.279  1.00  0.00    -0.269 OA
ATOM     11  H   UNL A   1      34.194  22.839  28.062  1.00  0.00     0.163 HD
BRANCH   9  12
ATOM     12  C   UNL A   1      32.706  22.753  24.999  1.00  0.00     0.086 A 
ATOM     13  C   UNL A   1      32.036  20.317  22.045  1.00  0.00     0.044 C 
ATOM     14  C   UNL A   1      32.308  21.560  22.860  1.00  0.00    -0.046 A 
ATOM     15  C   UNL A   1      32.500  22.745  22.152  1.00  0.00     0.019 A 
ATOM     16  C   UNL A   1      32.384  21.553  24.289  1.00  0.00    -0.032 A 
ATOM     17  C   UNL A   1      32.754  23.927  22.829  1.00  0.00     0.066 A 
ATOM     18  C   UNL A   1      32.122  20.241  24.957  1.00  0.00     0.045 C 
ATOM     19  C   UNL A   1      32.959  25.157  22.047  1.00  0.00     0.200 A 
ATOM     20  C   UNL A   1      32.848  23.951  24.224  1.00  0.00     0.151 A 
ATOM     21  O   UNL A   1      32.843  25.176  20.827  1.00  0.00    -0.288 OA
ATOM     22  C   UNL A   1      33.320  26.362  22.791  1.00  0.00     0.065 A 
ATOM     23  O   UNL A   1      33.052  25.151  24.887  1.00  0.00    -0.455 OA
ATOM     24  C   UNL A   1      33.619  27.556  22.127  1.00  0.00     0.016 A 
ATOM     25  C   UNL A   1      33.361  26.283  24.176  1.00  0.00     0.138 A 
ATOM     26  C   UNL A   1      33.968  28.685  22.867  1.00  0.00     0.001 A 
ATOM     27  C   UNL A   1      33.718  27.412  24.914  1.00  0.00     0.048 A 
ATOM     28  C   UNL A   1      34.022  28.611  24.260  1.00  0.00     0.004 A 
ENDBRANCH   9  12
ENDBRANCH   7   8
ENDBRANCH   6   7
ENDBRANCH   5   6
ENDBRANCH   1   5
BRANCH   2  29
ATOM     29  C   UNL A   1      39.868  22.172  26.644  1.00  0.00     0.039 A 
ATOM     30  C   UNL A   1      39.342  23.379  26.186  1.00  0.00     0.014 A 
ATOM     31  C   UNL A   1      40.875  22.182  27.615  1.00  0.00     0.014 A 
ATOM     32  C   UNL A   1      39.951  24.578  26.539  1.00  0.00     0.010 A 
ATOM     33  C   UNL A   1      41.411  23.399  28.056  1.00  0.00     0.010 A 
ATOM     34  C   UNL A   1      40.991  24.607  27.481  1.00  0.00    -0.014 A 
BRANCH  34  35
ATOM     35  C   UNL A   1      41.598  25.916  27.852  1.00  0.00     0.031 A 
ATOM     36  C   UNL A   1      42.965  26.309  27.357  1.00  0.00     0.074 A 
ATOM     37  C   UNL A   1      40.874  26.785  28.587  1.00  0.00     0.049 A 
ATOM     38  N   UNL A   1      43.613  27.431  27.538  1.00  0.00    -0.248 NA
ATOM     39  C   UNL A   1      43.707  25.316  26.563  1.00  0.00     0.031 C 
ATOM     40  C   UNL A   1      39.540  26.508  29.125  1.00  0.00     0.029 A 
ATOM     41  N   UNL A   1      41.127  28.076  28.978  1.00  0.00    -0.354 N 
ATOM     42  C   UNL A   1      44.841  27.273  26.905  1.00  0.00     0.074 A 
ATOM     43  C   UNL A   1      44.863  25.934  26.361  1.00  0.00     0.031 C 
ATOM     44  C   UNL A   1      39.062  27.616  29.705  1.00  0.00     0.029 A 
ATOM     45  C   UNL A   1      40.083  28.658  29.661  1.00  0.00     0.049 A 
ATOM     46  H   UNL A   1      41.973  28.541  28.789  1.00  0.00     0.167 HD
ATOM     47  C   UNL A   1      45.850  28.170  26.778  1.00  0.00     0.034 A 
ATOM     48  C   UNL A   1      39.955  29.889  30.200  1.00  0.00     0.034 A 
ATOM     49  C   UNL A   1      45.799  29.512  27.303  1.00  0.00     0.049 A 
ATOM     50  C   UNL A   1      41.090  30.865  30.046  1.00  0.00     0.074 A 
ATOM     51  C   UNL A   1      46.759  30.504  27.203  1.00  0.00     0.029 A 
ATOM     52  N   UNL A   1      44.737  30.056  28.012  1.00  0.00    -0.354 N 
ATOM     53  N   UNL A   1      42.229  30.709  29.412  1.00  0.00    -0.248 NA
ATOM     54  C   UNL A   1      40.932  32.183  30.675  1.00  0.00     0.031 C 
ATOM     55  C   UNL A   1      46.306  31.623  27.901  1.00  0.00     0.029 A 
ATOM     56  C   UNL A   1      45.030  31.361  28.376  1.00  0.00     0.049 A 
ATOM     57  H   UNL A   1      43.900  29.585  28.226  1.00  0.00     0.167 HD
ATOM     58  C   UNL A   1      42.917  31.909  29.555  1.00  0.00     0.074 A 
ATOM     59  C   UNL A   1      42.050  32.795  30.306  1.00  0.00     0.031 C 
ATOM     60  C   UNL A   1      44.156  32.242  29.113  1.00  0.00     0.034 A 
BRANCH  47  61
ATOM     61  C   UNL A   1      47.100  27.759  26.038  1.00  0.00     0.023 A 
ATOM     62  C   UNL A   1      47.205  27.986  24.652  1.00  0.00     0.031 A 
ATOM     63  C   UNL A   1      48.124  27.029  26.670  1.00  0.00     0.131 A 
ATOM     64  C   UNL A   1      48.289  27.460  23.938  1.00  0.00     0.055 A 
ATOM     65  C   UNL A   1      49.223  26.543  25.959  1.00  0.00     0.041 A 
ATOM     66  F   UNL A   1      48.074  26.785  27.989  1.00  0.00    -0.206 F 
ATOM     67  C   UNL A   1      49.302  26.746  24.586  1.00  0.00     0.022 A 
BRANCH  64  68
ATOM     68  S   UNL A   1      48.395  27.623  22.134  1.00  0.00     0.124 S 
ATOM     69  O   UNL A   1      49.535  28.525  21.982  1.00  0.00    -0.237 OA
ATOM     70  O   UNL A   1      48.631  26.244  21.716  1.00  0.00    -0.237 OA
ATOM     71  O   UNL A   1      47.103  28.186  21.756  1.00  0.00    -0.744 OA
ENDBRANCH  64  68
ENDBRANCH  47  61
BRANCH  48  72
ATOM     72  C   UNL A   1      38.680  30.250  30.888  1.00  0.00     0.023 A 
ATOM     73  C   UNL A   1      37.631  30.868  30.180  1.00  0.00     0.031 A 
ATOM     74  C   UNL A   1      38.540  30.104  32.277  1.00  0.00     0.131 A 
ATOM     75  C   UNL A   1      36.536  31.397  30.875  1.00  0.00     0.055 A 
ATOM     76  C   UNL A   1      37.407  30.560  32.956  1.00  0.00     0.041 A 
ATOM     77  F   UNL A   1      39.516  29.533  33.000  1.00  0.00    -0.206 F 
ATOM     78  C   UNL A   1      36.408  31.231  32.257  1.00  0.00     0.022 A 
BRANCH  75  79
ATOM     79  S   UNL A   1      35.331  32.460  30.031  1.00  0.00     0.124 S 
ATOM     80  O   UNL A   1      36.133  33.635  29.710  1.00  0.00    -0.237 OA
ATOM     81  O   UNL A   1      34.946  31.629  28.892  1.00  0.00    -0.237 OA
ATOM     82  O   UNL A   1      34.287  32.658  31.030  1.00  0.00    -0.744 OA
ENDBRANCH  75  79
ENDBRANCH  48  72
BRANCH  60  83
ATOM     83  C   UNL A   1      44.681  33.625  29.418  1.00  0.00     0.023 A 
ATOM     84  C   UNL A   1      44.552  34.652  28.465  1.00  0.00     0.031 A 
ATOM     85  C   UNL A   1      45.437  33.881  30.575  1.00  0.00     0.131 A 
ATOM     86  C   UNL A   1      45.203  35.875  28.666  1.00  0.00     0.055 A 
ATOM     87  C   UNL A   1      46.045  35.118  30.793  1.00  0.00     0.041 A 
ATOM     88  F   UNL A   1      45.600  32.930  31.508  1.00  0.00    -0.206 F 
ATOM     89  C   UNL A   1      45.942  36.117  29.829  1.00  0.00     0.022 A 
BRANCH  86  90
ATOM     90  S   UNL A   1      45.197  37.160  27.385  1.00  0.00     0.124 S 
ATOM     91  O   UNL A   1      45.740  38.308  28.108  1.00  0.00    -0.237 OA
ATOM     92  O   UNL A   1      46.078  36.588  26.370  1.00  0.00    -0.237 OA
ATOM     93  O   UNL A   1      43.793  37.272  27.004  1.00  0.00    -0.744 OA
ENDBRANCH  86  90
ENDBRANCH  60  83
ENDBRANCH  34  35
ENDBRANCH   2  29
TORSDOF 13
ENDMDL
MODEL 3
REMARK VINA RESULT:     -13.1      5.161     10.019
REMARK SMILES Cc1cc2c(=O)c3ccccc3oc2c(C(=O)NCCCNC(=O)c2ccc(-c3c4nc(c(-c5cc(S(=O)(=O)[O-])ccc5F)c5ccc([nH]5)c(-c5cc(S(=O)(=O)[O-])ccc5F)c5nc(c(-c6cc(S(=O)(=O)[O-])ccc6F)c6ccc3[nH]6)C=C5)C=C4)cc2)c1C
REMARK SMILES IDX 22 1 23 2 24 3 21 5 20 6 19 7 18 8 16 9 17 10 15 12 1 13
REMARK SMILES IDX 2 14 3 15 88 16 4 17 89 18 5 19 14 20 6 21 7 22 13 23 8 24
REMARK SMILES IDX 12 25 9 26 11 27 10 28 25 29 26 30 87 31 27 32 86 33 28 34
REMARK SMILES IDX 29 35 30 36 80 37 31 38 85 39 79 40 81 41 32 42 84 43 78 44
REMARK SMILES IDX 77 45 33 47 65 48 45 49 64 50 46 51 49 52 63 53 82 54 47 55
REMARK SMILES IDX 48 56 62 58 83 59 50 60 34 61 35 62 43 63 36 64 42 65 44 66
REMARK SMILES IDX 41 67 37 68 38 69 39 70 40 71 66 72 67 73 75 74 68 75 74 76
REMARK SMILES IDX 76 77 73 78 69 79 70 80 71 81 72 82 51 83 52 84 60 85 53 86
REMARK SMILES IDX 59 87 61 88 58 89 54 90 55 91 56 92 57 93
REMARK H PARENT 22 4 18 11 81 46 49 57
REMARK Flexibility Score: inf
ROOT
ATOM      1  N   UNL A   1      37.000  21.217  25.827  1.00  0.00    -0.352 N 
ATOM      2  C   UNL A   1      38.376  21.319  25.873  1.00  0.00     0.251 C 
ATOM      3  O   UNL A   1      39.056  20.409  25.426  1.00  0.00    -0.269 OA
ATOM      4  H   UNL A   1      36.657  20.329  25.577  1.00  0.00     0.163 HD
ENDROOT
BRANCH   1   5
ATOM      5  C   UNL A   1      35.978  22.220  26.090  1.00  0.00     0.118 C 
BRANCH   5   6
ATOM      6  C   UNL A   1      34.819  21.663  26.902  1.00  0.00     0.042 C 
BRANCH   6   7
ATOM      7  C   UNL A   1      34.271  22.617  27.967  1.00  0.00     0.118 C 
BRANCH   7   8
ATOM      8  N   UNL A   1      32.823  22.690  27.892  1.00  0.00    -0.352 N 
ATOM      9  C   UNL A   1      31.830  23.008  27.007  1.00  0.00     0.255 C 
ATOM     10  O   UNL A   1      30.729  23.043  27.576  1.00  0.00    -0.269 OA
ATOM     11  H   UNL A   1      32.430  22.424  28.754  1.00  0.00     0.163 HD
BRANCH   9  12
ATOM     12  C   UNL A   1      31.868  23.321  25.516  1.00  0.00     0.086 A 
ATOM     13  C   UNL A   1      31.000  25.856  22.702  1.00  0.00     0.044 C 
ATOM     14  C   UNL A   1      31.382  24.597  23.446  1.00  0.00    -0.046 A 
ATOM     15  C   UNL A   1      31.539  23.441  22.684  1.00  0.00     0.019 A 
ATOM     16  C   UNL A   1      31.567  24.558  24.864  1.00  0.00    -0.032 A 
ATOM     17  C   UNL A   1      31.888  22.247  23.294  1.00  0.00     0.066 A 
ATOM     18  C   UNL A   1      31.417  25.859  25.586  1.00  0.00     0.045 C 
ATOM     19  C   UNL A   1      32.037  21.046  22.458  1.00  0.00     0.200 A 
ATOM     20  C   UNL A   1      32.063  22.173  24.680  1.00  0.00     0.151 A 
ATOM     21  O   UNL A   1      31.929  21.088  21.238  1.00  0.00    -0.288 OA
ATOM     22  C   UNL A   1      32.311  19.788  23.150  1.00  0.00     0.065 A 
ATOM     23  O   UNL A   1      32.462  20.982  25.266  1.00  0.00    -0.455 OA
ATOM     24  C   UNL A   1      32.383  18.580  22.448  1.00  0.00     0.016 A 
ATOM     25  C   UNL A   1      32.493  19.829  24.525  1.00  0.00     0.138 A 
ATOM     26  C   UNL A   1      32.637  17.397  23.140  1.00  0.00     0.001 A 
ATOM     27  C   UNL A   1      32.739  18.642  25.216  1.00  0.00     0.048 A 
ATOM     28  C   UNL A   1      32.811  17.428  24.525  1.00  0.00     0.004 A 
ENDBRANCH   9  12
ENDBRANCH   7   8
ENDBRANCH   6   7
ENDBRANCH   5   6
ENDBRANCH   1   5
BRANCH   2  29
ATOM     29  C   UNL A   1      39.020  22.538  26.426  1.00  0.00     0.039 A 
ATOM     30  C   UNL A   1      38.533  23.810  26.126  1.00  0.00     0.014 A 
ATOM     31  C   UNL A   1      40.133  22.405  27.263  1.00  0.00     0.014 A 
ATOM     32  C   UNL A   1      39.266  24.935  26.488  1.00  0.00     0.010 A 
ATOM     33  C   UNL A   1      40.806  23.545  27.722  1.00  0.00     0.010 A 
ATOM     34  C   UNL A   1      40.410  24.820  27.294  1.00  0.00    -0.014 A 
BRANCH  34  35
ATOM     35  C   UNL A   1      41.151  26.053  27.682  1.00  0.00     0.031 A 
ATOM     36  C   UNL A   1      42.531  26.333  27.148  1.00  0.00     0.074 A 
ATOM     37  C   UNL A   1      40.538  26.960  28.469  1.00  0.00     0.049 A 
ATOM     38  N   UNL A   1      43.289  27.382  27.339  1.00  0.00    -0.248 NA
ATOM     39  C   UNL A   1      43.147  25.303  26.296  1.00  0.00     0.031 C 
ATOM     40  C   UNL A   1      39.204  26.792  29.048  1.00  0.00     0.029 A 
ATOM     41  N   UNL A   1      40.925  28.208  28.890  1.00  0.00    -0.354 N 
ATOM     42  C   UNL A   1      44.473  27.132  26.655  1.00  0.00     0.074 A 
ATOM     43  C   UNL A   1      44.349  25.815  26.070  1.00  0.00     0.031 C 
ATOM     44  C   UNL A   1      38.853  27.919  29.680  1.00  0.00     0.029 A 
ATOM     45  C   UNL A   1      39.966  28.862  29.629  1.00  0.00     0.049 A 
ATOM     46  H   UNL A   1      41.805  28.598  28.684  1.00  0.00     0.167 HD
ATOM     47  C   UNL A   1      45.557  27.934  26.517  1.00  0.00     0.034 A 
ATOM     48  C   UNL A   1      39.975  30.080  30.210  1.00  0.00     0.034 A 
ATOM     49  C   UNL A   1      45.652  29.256  27.084  1.00  0.00     0.049 A 
ATOM     50  C   UNL A   1      41.191  30.950  30.043  1.00  0.00     0.074 A 
ATOM     51  C   UNL A   1      46.698  30.157  26.979  1.00  0.00     0.029 A 
ATOM     52  N   UNL A   1      44.672  29.873  27.849  1.00  0.00    -0.354 N 
ATOM     53  N   UNL A   1      42.287  30.710  29.362  1.00  0.00    -0.248 NA
ATOM     54  C   UNL A   1      41.180  32.255  30.717  1.00  0.00     0.031 C 
ATOM     55  C   UNL A   1      46.377  31.289  27.728  1.00  0.00     0.029 A 
ATOM     56  C   UNL A   1      45.099  31.132  28.242  1.00  0.00     0.049 A 
ATOM     57  H   UNL A   1      43.801  29.475  28.080  1.00  0.00     0.167 HD
ATOM     58  C   UNL A   1      43.090  31.835  29.516  1.00  0.00     0.074 A 
ATOM     59  C   UNL A   1      42.337  32.772  30.326  1.00  0.00     0.031 C 
ATOM     60  C   UNL A   1      44.339  32.065  29.038  1.00  0.00     0.034 A 
BRANCH  47  61
ATOM     61  C   UNL A   1      46.737  27.433  25.719  1.00  0.00     0.023 A 
ATOM     62  C   UNL A   1      46.949  27.901  24.407  1.00  0.00     0.031 A 
ATOM     63  C   UNL A   1      47.568  26.404  26.198  1.00  0.00     0.131 A 
ATOM     64  C   UNL A   1      47.942  27.318  23.610  1.00  0.00     0.055 A 
ATOM     65  C   UNL A   1      48.583  25.855  25.412  1.00  0.00     0.041 A 
ATOM     66  F   UNL A   1      47.409  25.922  27.441  1.00  0.00    -0.206 F 
ATOM     67  C   UNL A   1      48.765  26.302  24.108  1.00  0.00     0.022 A 
BRANCH  64  68
ATOM     68  S   UNL A   1      48.162  27.806  21.877  1.00  0.00     0.124 S 
ATOM     69  O   UNL A   1      48.384  26.515  21.228  1.00  0.00    -0.237 OA
ATOM     70  O   UNL A   1      46.883  28.444  21.575  1.00  0.00    -0.237 OA
ATOM     71  O   UNL A   1      49.320  28.693  21.905  1.00  0.00    -0.744 OA
ENDBRANCH  64  68
ENDBRANCH  47  61
BRANCH  48  72
ATOM     72  C   UNL A   1      38.763  30.536  30.956  1.00  0.00     0.023 A 
ATOM     73  C   UNL A   1      37.656  31.073  30.271  1.00  0.00     0.031 A 
ATOM     74  C   UNL A   1      38.746  30.563  32.360  1.00  0.00     0.131 A 
ATOM     75  C   UNL A   1      36.626  31.694  30.988  1.00  0.00     0.055 A 
ATOM     76  C   UNL A   1      37.676  31.109  33.073  1.00  0.00     0.041 A 
ATOM     77  F   UNL A   1      39.781  30.075  33.059  1.00  0.00    -0.206 F 
ATOM     78  C   UNL A   1      36.619  31.700  32.386  1.00  0.00     0.022 A 
BRANCH  75  79
ATOM     79  S   UNL A   1      35.351  32.658  30.128  1.00  0.00     0.124 S 
ATOM     80  O   UNL A   1      34.991  31.771  29.026  1.00  0.00    -0.237 OA
ATOM     81  O   UNL A   1      34.338  32.811  31.170  1.00  0.00    -0.237 OA
ATOM     82  O   UNL A   1      36.041  33.887  29.753  1.00  0.00    -0.744 OA
ENDBRANCH  75  79
ENDBRANCH  48  72
BRANCH  60  83
ATOM     83  C   UNL A   1      45.003  33.381  29.365  1.00  0.00     0.023 A 
ATOM     84  C   UNL A   1      44.897  34.463  28.472  1.00  0.00     0.031 A 
ATOM     85  C   UNL A   1      45.858  33.514  30.473  1.00  0.00     0.131 A 
ATOM     86  C   UNL A   1      45.666  35.615  28.679  1.00  0.00     0.055 A 
ATOM     87  C   UNL A   1      46.586  34.682  30.701  1.00  0.00     0.041 A 
ATOM     88  F   UNL A   1      46.003  32.505  31.347  1.00  0.00    -0.206 F 
ATOM     89  C   UNL A   1      46.503  35.734  29.793  1.00  0.00     0.022 A 
BRANCH  86  90
ATOM     90  S   UNL A   1      45.682  36.961  27.461  1.00  0.00     0.124 S 
ATOM     91  O   UNL A   1      46.532  36.405  26.410  1.00  0.00    -0.237 OA
ATOM     92  O   UNL A   1      44.267  37.083  27.118  1.00  0.00    -0.237 OA
ATOM     93  O   UNL A   1      46.250  38.090  28.190  1.00  0.00    -0.744 OA
ENDBRANCH  86  90
ENDBRANCH  60  83
ENDBRANCH  34  35
ENDBRANCH   2  29
TORSDOF 13
ENDMDL
