MODEL 1
REMARK VINA RESULT:     -12.4      0.000      0.000
REMARK SMILES Cc1cc(F)cc(N[C@H](C(=O)NCCCNC(=O)c2ccc(-c3c4nc(c(-c5cc(S(=O)(=O)[O-])ccc5F)c5ccc([nH]5)c(-c5cc(S(=O)(=O)[O-])ccc5F)c5nc(c(-c6cc(S(=O)(=O)[O-])ccc6F)c6ccc3[nH]6)C=C5)C=C4)cc2)c2cc(Br)cs2)c1
REMARK SMILES IDX 14 1 13 2 12 3 10 4 11 5 9 7 8 8 7 10 1 11 2 12 3 13 88 14
REMARK SMILES IDX 4 15 5 16 6 17 82 18 83 19 87 20 84 21 86 22 85 23 15 24
REMARK SMILES IDX 16 25 17 26 18 28 19 29 20 30 81 31 21 32 80 33 22 34 23 35
REMARK SMILES IDX 24 36 74 37 25 38 79 39 73 40 75 41 26 42 78 43 72 44 71 45
REMARK SMILES IDX 27 47 59 48 39 49 58 50 40 51 43 52 57 53 76 54 41 55 42 56
REMARK SMILES IDX 56 58 77 59 44 60 28 61 29 62 37 63 30 64 36 65 38 66 35 67
REMARK SMILES IDX 31 68 32 69 33 70 34 71 60 72 61 73 69 74 62 75 68 76 70 77
REMARK SMILES IDX 67 78 63 79 64 80 65 81 66 82 45 83 46 84 54 85 47 86 53 87
REMARK SMILES IDX 55 88 52 89 48 90 49 91 50 92 51 93
REMARK H PARENT 12 6 8 9 16 27 75 46 43 57
REMARK Flexibility Score: inf
ROOT
ATOM      1  C   UNL A   1      32.214  30.157  25.504  1.00  0.00     0.042 C 
ENDROOT
BRANCH   1   2
ATOM      2  C   UNL A   1      33.292  29.090  25.430  1.00  0.00     0.117 C 
BRANCH   2   3
ATOM      3  N   UNL A   1      33.867  28.920  24.107  1.00  0.00    -0.354 N 
ATOM      4  C   UNL A   1      33.357  28.312  22.988  1.00  0.00     0.247 C 
ATOM      5  O   UNL A   1      34.079  28.411  21.987  1.00  0.00    -0.272 OA
ATOM      6  H   UNL A   1      34.767  29.303  23.995  1.00  0.00     0.163 HD
BRANCH   4   7
ATOM      7  C   UNL A   1      32.034  27.445  23.003  1.00  0.00     0.210 C 
BRANCH   7   8
ATOM      8  N   UNL A   1      31.013  27.952  22.068  1.00  0.00    -0.369 N 
ATOM      9  H   UNL A   1      31.164  27.769  21.113  1.00  0.00     0.161 HD
BRANCH   8  10
ATOM     10  C   UNL A   1      29.867  28.656  22.387  1.00  0.00     0.038 A 
ATOM     11  C   UNL A   1      28.684  32.276  22.041  1.00  0.00     0.044 C 
ATOM     12  C   UNL A   1      28.698  30.814  22.370  1.00  0.00    -0.046 A 
ATOM     13  C   UNL A   1      27.590  30.215  22.968  1.00  0.00     0.042 A 
ATOM     14  C   UNL A   1      29.834  30.033  22.110  1.00  0.00     0.029 A 
ATOM     15  C   UNL A   1      27.604  28.852  23.222  1.00  0.00     0.125 A 
ATOM     16  F   UNL A   1      26.533  28.274  23.784  1.00  0.00    -0.207 F 
ATOM     17  C   UNL A   1      28.708  28.071  22.904  1.00  0.00     0.065 A 
ENDBRANCH   8  10
ENDBRANCH   7   8
BRANCH   7  18
ATOM     18  C   UNL A   1      32.304  25.937  22.872  1.00  0.00     0.038 A 
ATOM     19  C   UNL A   1      32.367  24.931  23.827  1.00  0.00     0.033 A 
ATOM     20  S   UNL A   1      32.574  25.249  21.297  1.00  0.00    -0.145 S 
ATOM     21  C   UNL A   1      32.928  23.738  23.305  1.00  0.00     0.029 A 
ATOM     22  C   UNL A   1      33.170  23.795  21.960  1.00  0.00     0.080 A 
ATOM     23  Br  UNL A   1      33.343  22.266  24.407  1.00  0.00    -0.050 Br
ENDBRANCH   7  18
ENDBRANCH   4   7
ENDBRANCH   2   3
ENDBRANCH   1   2
BRANCH   1  24
ATOM     24  C   UNL A   1      31.969  30.716  26.897  1.00  0.00     0.118 C 
BRANCH  24  25
ATOM     25  N   UNL A   1      32.162  32.157  26.987  1.00  0.00    -0.352 N 
ATOM     26  C   UNL A   1      33.189  32.904  27.525  1.00  0.00     0.251 C 
ATOM     27  H   UNL A   1      31.432  32.691  26.594  1.00  0.00     0.163 HD
ATOM     28  O   UNL A   1      33.056  34.118  27.624  1.00  0.00    -0.269 OA
BRANCH  26  29
ATOM     29  C   UNL A   1      34.421  32.250  28.025  1.00  0.00     0.039 A 
ATOM     30  C   UNL A   1      35.568  33.024  28.229  1.00  0.00     0.014 A 
ATOM     31  C   UNL A   1      34.461  30.882  28.293  1.00  0.00     0.014 A 
ATOM     32  C   UNL A   1      36.708  32.445  28.795  1.00  0.00     0.010 A 
ATOM     33  C   UNL A   1      35.549  30.336  28.969  1.00  0.00     0.010 A 
ATOM     34  C   UNL A   1      36.691  31.108  29.225  1.00  0.00    -0.014 A 
BRANCH  34  35
ATOM     35  C   UNL A   1      37.850  30.490  29.926  1.00  0.00     0.031 A 
ATOM     36  C   UNL A   1      38.122  30.828  31.370  1.00  0.00     0.074 A 
ATOM     37  C   UNL A   1      38.699  29.690  29.246  1.00  0.00     0.049 A 
ATOM     38  N   UNL A   1      39.132  30.483  32.126  1.00  0.00    -0.248 NA
ATOM     39  C   UNL A   1      37.146  31.701  32.044  1.00  0.00     0.031 C 
ATOM     40  C   UNL A   1      38.568  29.320  27.834  1.00  0.00     0.029 A 
ATOM     41  N   UNL A   1      39.847  29.050  29.644  1.00  0.00    -0.354 N 
ATOM     42  C   UNL A   1      38.930  31.118  33.347  1.00  0.00     0.074 A 
ATOM     43  C   UNL A   1      37.731  31.914  33.213  1.00  0.00     0.031 C 
ATOM     44  C   UNL A   1      39.568  28.491  27.498  1.00  0.00     0.029 A 
ATOM     45  C   UNL A   1      40.451  28.316  28.647  1.00  0.00     0.049 A 
ATOM     46  H   UNL A   1      40.207  29.111  30.559  1.00  0.00     0.167 HD
ATOM     47  C   UNL A   1      39.665  31.029  34.483  1.00  0.00     0.034 A 
ATOM     48  C   UNL A   1      41.592  27.596  28.653  1.00  0.00     0.034 A 
ATOM     49  C   UNL A   1      40.837  30.197  34.612  1.00  0.00     0.049 A 
ATOM     50  C   UNL A   1      42.400  27.531  29.929  1.00  0.00     0.074 A 
ATOM     51  C   UNL A   1      41.604  29.967  35.740  1.00  0.00     0.029 A 
ATOM     52  N   UNL A   1      41.415  29.470  33.581  1.00  0.00    -0.354 N 
ATOM     53  N   UNL A   1      42.153  28.085  31.094  1.00  0.00    -0.248 NA
ATOM     54  C   UNL A   1      43.634  26.736  29.891  1.00  0.00     0.031 C 
ATOM     55  C   UNL A   1      42.691  29.169  35.374  1.00  0.00     0.029 A 
ATOM     56  C   UNL A   1      42.553  28.823  34.039  1.00  0.00     0.049 A 
ATOM     57  H   UNL A   1      41.068  29.419  32.661  1.00  0.00     0.167 HD
ATOM     58  C   UNL A   1      43.180  27.666  31.937  1.00  0.00     0.074 A 
ATOM     59  C   UNL A   1      44.036  26.803  31.151  1.00  0.00     0.031 C 
ATOM     60  C   UNL A   1      43.395  27.963  33.243  1.00  0.00     0.034 A 
BRANCH  47  61
ATOM     61  C   UNL A   1      39.244  31.865  35.667  1.00  0.00     0.023 A 
ATOM     62  C   UNL A   1      38.509  31.327  36.736  1.00  0.00     0.031 A 
ATOM     63  C   UNL A   1      39.598  33.224  35.730  1.00  0.00     0.131 A 
ATOM     64  C   UNL A   1      38.103  32.156  37.795  1.00  0.00     0.055 A 
ATOM     65  C   UNL A   1      39.260  34.025  36.823  1.00  0.00     0.041 A 
ATOM     66  F   UNL A   1      40.280  33.800  34.727  1.00  0.00    -0.206 F 
ATOM     67  C   UNL A   1      38.498  33.494  37.858  1.00  0.00     0.022 A 
BRANCH  64  68
ATOM     68  S   UNL A   1      36.950  31.491  39.025  1.00  0.00     0.124 S 
ATOM     69  O   UNL A   1      37.744  31.575  40.249  1.00  0.00    -0.237 OA
ATOM     70  O   UNL A   1      35.822  32.409  38.932  1.00  0.00    -0.237 OA
ATOM     71  O   UNL A   1      36.690  30.133  38.552  1.00  0.00    -0.744 OA
ENDBRANCH  64  68
ENDBRANCH  47  61
BRANCH  48  72
ATOM     72  C   UNL A   1      42.062  26.882  27.428  1.00  0.00     0.023 A 
ATOM     73  C   UNL A   1      41.843  25.504  27.271  1.00  0.00     0.031 A 
ATOM     74  C   UNL A   1      42.812  27.542  26.438  1.00  0.00     0.131 A 
ATOM     75  C   UNL A   1      42.428  24.818  26.195  1.00  0.00     0.055 A 
ATOM     76  C   UNL A   1      43.333  26.868  25.332  1.00  0.00     0.041 A 
ATOM     77  F   UNL A   1      43.055  28.860  26.533  1.00  0.00    -0.206 F 
ATOM     78  C   UNL A   1      43.159  25.492  25.216  1.00  0.00     0.022 A 
BRANCH  75  79
ATOM     79  S   UNL A   1      42.333  23.006  26.172  1.00  0.00     0.124 S 
ATOM     80  O   UNL A   1      42.825  22.702  24.833  1.00  0.00    -0.237 OA
ATOM     81  O   UNL A   1      43.214  22.643  27.277  1.00  0.00    -0.237 OA
ATOM     82  O   UNL A   1      40.913  22.739  26.392  1.00  0.00    -0.744 OA
ENDBRANCH  75  79
ENDBRANCH  48  72
BRANCH  60  83
ATOM     83  C   UNL A   1      44.568  27.295  33.920  1.00  0.00     0.023 A 
ATOM     84  C   UNL A   1      44.434  26.078  34.609  1.00  0.00     0.031 A 
ATOM     85  C   UNL A   1      45.841  27.892  33.874  1.00  0.00     0.131 A 
ATOM     86  C   UNL A   1      45.539  25.528  35.277  1.00  0.00     0.055 A 
ATOM     87  C   UNL A   1      46.951  27.306  34.481  1.00  0.00     0.041 A 
ATOM     88  F   UNL A   1      46.026  29.057  33.232  1.00  0.00    -0.206 F 
ATOM     89  C   UNL A   1      46.801  26.124  35.199  1.00  0.00     0.022 A 
BRANCH  86  90
ATOM     90  S   UNL A   1      45.285  24.076  36.333  1.00  0.00     0.124 S 
ATOM     91  O   UNL A   1      46.655  23.702  36.670  1.00  0.00    -0.237 OA
ATOM     92  O   UNL A   1      44.487  24.620  37.426  1.00  0.00    -0.237 OA
ATOM     93  O   UNL A   1      44.582  23.137  35.461  1.00  0.00    -0.744 OA
ENDBRANCH  86  90
ENDBRANCH  60  83
ENDBRANCH  34  35
ENDBRANCH  26  29
ENDBRANCH  24  25
ENDBRANCH   1  24
TORSDOF 16
ENDMDL
MODEL 2
REMARK VINA RESULT:     -12.3      6.379      9.724
REMARK SMILES Cc1cc(F)cc(N[C@H](C(=O)NCCCNC(=O)c2ccc(-c3c4nc(c(-c5cc(S(=O)(=O)[O-])ccc5F)c5ccc([nH]5)c(-c5cc(S(=O)(=O)[O-])ccc5F)c5nc(c(-c6cc(S(=O)(=O)[O-])ccc6F)c6ccc3[nH]6)C=C5)C=C4)cc2)c2cc(Br)cs2)c1
REMARK SMILES IDX 14 1 13 2 12 3 10 4 11 5 9 7 8 8 7 10 1 11 2 12 3 13 88 14
REMARK SMILES IDX 4 15 5 16 6 17 82 18 83 19 87 20 84 21 86 22 85 23 15 24
REMARK SMILES IDX 16 25 17 26 18 28 19 29 20 30 81 31 21 32 80 33 22 34 23 35
REMARK SMILES IDX 24 36 74 37 25 38 79 39 73 40 75 41 26 42 78 43 72 44 71 45
REMARK SMILES IDX 27 47 59 48 39 49 58 50 40 51 43 52 57 53 76 54 41 55 42 56
REMARK SMILES IDX 56 58 77 59 44 60 28 61 29 62 37 63 30 64 36 65 38 66 35 67
REMARK SMILES IDX 31 68 32 69 33 70 34 71 60 72 61 73 69 74 62 75 68 76 70 77
REMARK SMILES IDX 67 78 63 79 64 80 65 81 66 82 45 83 46 84 54 85 47 86 53 87
REMARK SMILES IDX 55 88 52 89 48 90 49 91 50 92 51 93
REMARK H PARENT 12 6 8 9 16 27 75 46 43 57
REMARK Flexibility Score: inf
ROOT
ATOM      1  C   UNL A   1      37.698  20.392  25.004  1.00  0.00     0.042 C 
ENDROOT
BRANCH   1   2
ATOM      2  C   UNL A   1      36.660  21.497  24.917  1.00  0.00     0.117 C 
BRANCH   2   3
ATOM      3  N   UNL A   1      35.931  21.720  26.153  1.00  0.00    -0.354 N 
ATOM      4  C   UNL A   1      34.614  21.492  26.460  1.00  0.00     0.247 C 
ATOM      5  O   UNL A   1      34.325  21.721  27.643  1.00  0.00    -0.272 OA
ATOM      6  H   UNL A   1      36.468  22.097  26.887  1.00  0.00     0.163 HD
BRANCH   4   7
ATOM      7  C   UNL A   1      33.528  21.103  25.379  1.00  0.00     0.210 C 
BRANCH   7   8
ATOM      8  N   UNL A   1      32.817  19.856  25.712  1.00  0.00    -0.369 N 
ATOM      9  H   UNL A   1      32.102  19.925  26.385  1.00  0.00     0.161 HD
BRANCH   8  10
ATOM     10  C   UNL A   1      33.044  18.600  25.181  1.00  0.00     0.038 A 
ATOM     11  C   UNL A   1      32.160  15.008  26.155  1.00  0.00     0.044 C 
ATOM     12  C   UNL A   1      32.712  16.177  25.396  1.00  0.00    -0.046 A 
ATOM     13  C   UNL A   1      33.417  15.978  24.210  1.00  0.00     0.042 A 
ATOM     14  C   UNL A   1      32.556  17.484  25.882  1.00  0.00     0.029 A 
ATOM     15  C   UNL A   1      33.879  17.074  23.498  1.00  0.00     0.125 A 
ATOM     16  F   UNL A   1      34.544  16.884  22.349  1.00  0.00    -0.207 F 
ATOM     17  C   UNL A   1      33.666  18.371  23.952  1.00  0.00     0.065 A 
ENDBRANCH   8  10
ENDBRANCH   7   8
BRANCH   7  18
ATOM     18  C   UNL A   1      32.598  22.272  25.015  1.00  0.00     0.038 A 
ATOM     19  C   UNL A   1      32.615  23.158  23.946  1.00  0.00     0.033 A 
ATOM     20  S   UNL A   1      31.237  22.634  26.037  1.00  0.00    -0.145 S 
ATOM     21  C   UNL A   1      31.746  24.259  24.156  1.00  0.00     0.029 A 
ATOM     22  C   UNL A   1      30.997  24.150  25.295  1.00  0.00     0.080 A 
ATOM     23  Br  UNL A   1      31.708  25.736  22.986  1.00  0.00    -0.050 Br
ENDBRANCH   7  18
ENDBRANCH   4   7
ENDBRANCH   2   3
ENDBRANCH   1   2
BRANCH   1  24
ATOM     24  C   UNL A   1      38.910  20.725  25.862  1.00  0.00     0.118 C 
BRANCH  24  25
ATOM     25  N   UNL A   1      39.884  19.645  25.936  1.00  0.00    -0.352 N 
ATOM     26  C   UNL A   1      41.253  19.666  26.107  1.00  0.00     0.251 C 
ATOM     27  H   UNL A   1      39.499  18.742  25.850  1.00  0.00     0.163 HD
ATOM     28  O   UNL A   1      41.887  18.625  25.980  1.00  0.00    -0.269 OA
BRANCH  26  29
ATOM     29  C   UNL A   1      41.962  20.937  26.392  1.00  0.00     0.039 A 
ATOM     30  C   UNL A   1      42.274  21.794  25.333  1.00  0.00     0.014 A 
ATOM     31  C   UNL A   1      42.323  21.291  27.691  1.00  0.00     0.014 A 
ATOM     32  C   UNL A   1      42.851  23.042  25.593  1.00  0.00     0.010 A 
ATOM     33  C   UNL A   1      42.780  22.578  27.960  1.00  0.00     0.010 A 
ATOM     34  C   UNL A   1      43.057  23.471  26.915  1.00  0.00    -0.014 A 
BRANCH  34  35
ATOM     35  C   UNL A   1      43.571  24.832  27.232  1.00  0.00     0.031 A 
ATOM     36  C   UNL A   1      42.636  25.876  27.790  1.00  0.00     0.074 A 
ATOM     37  C   UNL A   1      44.850  25.152  26.945  1.00  0.00     0.049 A 
ATOM     38  N   UNL A   1      42.859  27.142  28.032  1.00  0.00    -0.248 NA
ATOM     39  C   UNL A   1      41.258  25.448  28.083  1.00  0.00     0.031 C 
ATOM     40  C   UNL A   1      45.842  24.242  26.364  1.00  0.00     0.029 A 
ATOM     41  N   UNL A   1      45.538  26.331  27.092  1.00  0.00    -0.354 N 
ATOM     42  C   UNL A   1      41.647  27.665  28.472  1.00  0.00     0.074 A 
ATOM     43  C   UNL A   1      40.680  26.593  28.411  1.00  0.00     0.031 C 
ATOM     44  C   UNL A   1      47.014  24.884  26.243  1.00  0.00     0.029 A 
ATOM     45  C   UNL A   1      46.850  26.268  26.676  1.00  0.00     0.049 A 
ATOM     46  H   UNL A   1      45.131  27.149  27.462  1.00  0.00     0.167 HD
ATOM     47  C   UNL A   1      41.372  28.920  28.907  1.00  0.00     0.034 A 
ATOM     48  C   UNL A   1      47.807  27.217  26.634  1.00  0.00     0.034 A 
ATOM     49  C   UNL A   1      42.359  29.967  29.000  1.00  0.00     0.049 A 
ATOM     50  C   UNL A   1      47.464  28.611  27.108  1.00  0.00     0.074 A 
ATOM     51  C   UNL A   1      42.207  31.245  29.507  1.00  0.00     0.029 A 
ATOM     52  N   UNL A   1      43.673  29.863  28.570  1.00  0.00    -0.354 N 
ATOM     53  N   UNL A   1      46.328  29.067  27.586  1.00  0.00    -0.248 NA
ATOM     54  C   UNL A   1      48.535  29.615  27.046  1.00  0.00     0.031 C 
ATOM     55  C   UNL A   1      43.403  31.939  29.308  1.00  0.00     0.029 A 
ATOM     56  C   UNL A   1      44.331  31.068  28.763  1.00  0.00     0.049 A 
ATOM     57  H   UNL A   1      44.080  29.053  28.186  1.00  0.00     0.167 HD
ATOM     58  C   UNL A   1      46.566  30.397  27.921  1.00  0.00     0.074 A 
ATOM     59  C   UNL A   1      47.953  30.664  27.606  1.00  0.00     0.031 C 
ATOM     60  C   UNL A   1      45.717  31.317  28.447  1.00  0.00     0.034 A 
BRANCH  47  61
ATOM     61  C   UNL A   1      39.948  29.239  29.293  1.00  0.00     0.023 A 
ATOM     62  C   UNL A   1      39.532  29.296  30.634  1.00  0.00     0.031 A 
ATOM     63  C   UNL A   1      38.991  29.503  28.297  1.00  0.00     0.131 A 
ATOM     64  C   UNL A   1      38.186  29.553  30.940  1.00  0.00     0.055 A 
ATOM     65  C   UNL A   1      37.672  29.838  28.610  1.00  0.00     0.041 A 
ATOM     66  F   UNL A   1      39.323  29.441  26.997  1.00  0.00    -0.206 F 
ATOM     67  C   UNL A   1      37.261  29.853  29.939  1.00  0.00     0.022 A 
BRANCH  64  68
ATOM     68  S   UNL A   1      37.637  29.372  32.659  1.00  0.00     0.124 S 
ATOM     69  O   UNL A   1      36.296  29.948  32.602  1.00  0.00    -0.237 OA
ATOM     70  O   UNL A   1      37.704  27.931  32.863  1.00  0.00    -0.237 OA
ATOM     71  O   UNL A   1      38.613  30.156  33.414  1.00  0.00    -0.744 OA
ENDBRANCH  64  68
ENDBRANCH  47  61
BRANCH  48  72
ATOM     72  C   UNL A   1      49.177  26.913  26.122  1.00  0.00     0.023 A 
ATOM     73  C   UNL A   1      49.596  27.385  24.867  1.00  0.00     0.031 A 
ATOM     74  C   UNL A   1      50.056  26.077  26.833  1.00  0.00     0.131 A 
ATOM     75  C   UNL A   1      50.821  26.960  24.330  1.00  0.00     0.055 A 
ATOM     76  C   UNL A   1      51.305  25.714  26.325  1.00  0.00     0.041 A 
ATOM     77  F   UNL A   1      49.711  25.595  28.038  1.00  0.00    -0.206 F 
ATOM     78  C   UNL A   1      51.685  26.140  25.056  1.00  0.00     0.022 A 
BRANCH  75  79
ATOM     79  S   UNL A   1      51.204  27.386  22.608  1.00  0.00     0.124 S 
ATOM     80  O   UNL A   1      50.060  26.819  21.903  1.00  0.00    -0.237 OA
ATOM     81  O   UNL A   1      51.266  28.843  22.664  1.00  0.00    -0.237 OA
ATOM     82  O   UNL A   1      52.481  26.716  22.370  1.00  0.00    -0.744 OA
ENDBRANCH  75  79
ENDBRANCH  48  72
BRANCH  60  83
ATOM     83  C   UNL A   1      46.287  32.676  28.774  1.00  0.00     0.023 A 
ATOM     84  C   UNL A   1      46.245  33.740  27.857  1.00  0.00     0.031 A 
ATOM     85  C   UNL A   1      46.886  32.906  30.026  1.00  0.00     0.131 A 
ATOM     86  C   UNL A   1      46.845  34.966  28.182  1.00  0.00     0.055 A 
ATOM     87  C   UNL A   1      47.419  34.148  30.370  1.00  0.00     0.041 A 
ATOM     88  F   UNL A   1      46.958  31.924  30.940  1.00  0.00    -0.206 F 
ATOM     89  C   UNL A   1      47.413  35.183  29.440  1.00  0.00     0.022 A 
BRANCH  86  90
ATOM     90  S   UNL A   1      46.962  36.245  26.901  1.00  0.00     0.124 S 
ATOM     91  O   UNL A   1      47.996  37.122  27.441  1.00  0.00    -0.237 OA
ATOM     92  O   UNL A   1      47.337  35.471  25.721  1.00  0.00    -0.237 OA
ATOM     93  O   UNL A   1      45.619  36.818  26.865  1.00  0.00    -0.744 OA
ENDBRANCH  86  90
ENDBRANCH  60  83
ENDBRANCH  34  35
ENDBRANCH  26  29
ENDBRANCH  24  25
ENDBRANCH   1  24
TORSDOF 16
ENDMDL
MODEL 3
REMARK VINA RESULT:     -12.2      5.740     11.140
REMARK SMILES Cc1cc(F)cc(N[C@H](C(=O)NCCCNC(=O)c2ccc(-c3c4nc(c(-c5cc(S(=O)(=O)[O-])ccc5F)c5ccc([nH]5)c(-c5cc(S(=O)(=O)[O-])ccc5F)c5nc(c(-c6cc(S(=O)(=O)[O-])ccc6F)c6ccc3[nH]6)C=C5)C=C4)cc2)c2cc(Br)cs2)c1
REMARK SMILES IDX 14 1 13 2 12 3 10 4 11 5 9 7 8 8 7 10 1 11 2 12 3 13 88 14
REMARK SMILES IDX 4 15 5 16 6 17 82 18 83 19 87 20 84 21 86 22 85 23 15 24
REMARK SMILES IDX 16 25 17 26 18 28 19 29 20 30 81 31 21 32 80 33 22 34 23 35
REMARK SMILES IDX 24 36 74 37 25 38 79 39 73 40 75 41 26 42 78 43 72 44 71 45
REMARK SMILES IDX 27 47 59 48 39 49 58 50 40 51 43 52 57 53 76 54 41 55 42 56
REMARK SMILES IDX 56 58 77 59 44 60 28 61 29 62 37 63 30 64 36 65 38 66 35 67
REMARK SMILES IDX 31 68 32 69 33 70 34 71 60 72 61 73 69 74 62 75 68 76 70 77
REMARK SMILES IDX 67 78 63 79 64 80 65 81 66 82 45 83 46 84 54 85 47 86 53 87
REMARK SMILES IDX 55 88 52 89 48 90 49 91 50 92 51 93
REMARK H PARENT 12 6 8 9 16 27 75 46 43 57
REMARK Flexibility Score: inf
ROOT
ATOM      1  C   UNL A   1      37.486  20.231  25.067  1.00  0.00     0.042 C 
ENDROOT
BRANCH   1   2
ATOM      2  C   UNL A   1      36.214  21.053  24.955  1.00  0.00     0.117 C 
BRANCH   2   3
ATOM      3  N   UNL A   1      35.632  21.419  26.234  1.00  0.00    -0.354 N 
ATOM      4  C   UNL A   1      34.332  21.696  26.571  1.00  0.00     0.247 C 
ATOM      5  O   UNL A   1      34.157  21.899  27.781  1.00  0.00    -0.272 OA
ATOM      6  H   UNL A   1      36.274  21.479  26.978  1.00  0.00     0.163 HD
BRANCH   4   7
ATOM      7  C   UNL A   1      33.181  21.875  25.502  1.00  0.00     0.210 C 
BRANCH   7   8
ATOM      8  N   UNL A   1      32.321  20.683  25.388  1.00  0.00    -0.369 N 
ATOM      9  H   UNL A   1      31.479  20.700  25.897  1.00  0.00     0.161 HD
BRANCH   8  10
ATOM     10  C   UNL A   1      32.569  19.544  24.646  1.00  0.00     0.038 A 
ATOM     11  C   UNL A   1      33.886  16.028  25.372  1.00  0.00     0.044 C 
ATOM     12  C   UNL A   1      33.345  17.216  24.635  1.00  0.00    -0.046 A 
ATOM     13  C   UNL A   1      33.110  17.146  23.262  1.00  0.00     0.042 A 
ATOM     14  C   UNL A   1      33.097  18.422  25.307  1.00  0.00     0.029 A 
ATOM     15  C   UNL A   1      32.565  18.240  22.607  1.00  0.00     0.125 A 
ATOM     16  F   UNL A   1      32.325  18.168  21.290  1.00  0.00    -0.207 F 
ATOM     17  C   UNL A   1      32.262  19.412  23.290  1.00  0.00     0.065 A 
ENDBRANCH   8  10
ENDBRANCH   7   8
BRANCH   7  18
ATOM     18  C   UNL A   1      32.403  23.190  25.673  1.00  0.00     0.038 A 
ATOM     19  C   UNL A   1      32.838  24.501  25.807  1.00  0.00     0.033 A 
ATOM     20  S   UNL A   1      30.663  23.159  25.699  1.00  0.00    -0.145 S 
ATOM     21  C   UNL A   1      31.797  25.365  26.232  1.00  0.00     0.029 A 
ATOM     22  C   UNL A   1      30.576  24.753  26.299  1.00  0.00     0.080 A 
ATOM     23  Br  UNL A   1      32.123  27.160  26.709  1.00  0.00    -0.050 Br
ENDBRANCH   7  18
ENDBRANCH   4   7
ENDBRANCH   2   3
ENDBRANCH   1   2
BRANCH   1  24
ATOM     24  C   UNL A   1      38.718  21.022  25.481  1.00  0.00     0.118 C 
BRANCH  24  25
ATOM     25  N   UNL A   1      39.691  20.233  26.225  1.00  0.00    -0.352 N 
ATOM     26  C   UNL A   1      40.746  20.615  27.028  1.00  0.00     0.251 C 
ATOM     27  H   UNL A   1      39.575  19.259  26.141  1.00  0.00     0.163 HD
ATOM     28  O   UNL A   1      41.531  19.763  27.429  1.00  0.00    -0.269 OA
BRANCH  26  29
ATOM     29  C   UNL A   1      40.964  22.041  27.367  1.00  0.00     0.039 A 
ATOM     30  C   UNL A   1      41.791  22.365  28.447  1.00  0.00     0.014 A 
ATOM     31  C   UNL A   1      40.361  23.063  26.634  1.00  0.00     0.014 A 
ATOM     32  C   UNL A   1      42.090  23.704  28.719  1.00  0.00     0.010 A 
ATOM     33  C   UNL A   1      40.756  24.384  26.826  1.00  0.00     0.010 A 
ATOM     34  C   UNL A   1      41.621  24.725  27.876  1.00  0.00    -0.014 A 
BRANCH  34  35
ATOM     35  C   UNL A   1      42.005  26.150  28.074  1.00  0.00     0.031 A 
ATOM     36  C   UNL A   1      43.369  26.628  27.641  1.00  0.00     0.074 A 
ATOM     37  C   UNL A   1      41.163  26.991  28.711  1.00  0.00     0.049 A 
ATOM     38  N   UNL A   1      43.932  27.795  27.820  1.00  0.00    -0.248 NA
ATOM     39  C   UNL A   1      44.227  25.653  26.948  1.00  0.00     0.031 C 
ATOM     40  C   UNL A   1      39.832  26.639  29.213  1.00  0.00     0.029 A 
ATOM     41  N   UNL A   1      41.300  28.314  29.054  1.00  0.00    -0.354 N 
ATOM     42  C   UNL A   1      45.214  27.684  27.292  1.00  0.00     0.074 A 
ATOM     43  C   UNL A   1      45.365  26.320  26.837  1.00  0.00     0.031 C 
ATOM     44  C   UNL A   1      39.264  27.724  29.763  1.00  0.00     0.029 A 
ATOM     45  C   UNL A   1      40.208  28.836  29.711  1.00  0.00     0.049 A 
ATOM     46  H   UNL A   1      42.106  28.842  28.850  1.00  0.00     0.167 HD
ATOM     47  C   UNL A   1      46.171  28.638  27.177  1.00  0.00     0.034 A 
ATOM     48  C   UNL A   1      39.995  30.065  30.225  1.00  0.00     0.034 A 
ATOM     49  C   UNL A   1      45.990  30.005  27.599  1.00  0.00     0.049 A 
ATOM     50  C   UNL A   1      41.088  31.102  30.098  1.00  0.00     0.074 A 
ATOM     51  C   UNL A   1      46.860  31.071  27.451  1.00  0.00     0.029 A 
ATOM     52  N   UNL A   1      44.871  30.493  28.258  1.00  0.00    -0.354 N 
ATOM     53  N   UNL A   1      42.269  30.995  29.533  1.00  0.00    -0.248 NA
ATOM     54  C   UNL A   1      40.815  32.426  30.672  1.00  0.00     0.031 C 
ATOM     55  C   UNL A   1      46.305  32.181  28.092  1.00  0.00     0.029 A 
ATOM     56  C   UNL A   1      45.048  31.835  28.560  1.00  0.00     0.049 A 
ATOM     57  H   UNL A   1      44.069  29.966  28.479  1.00  0.00     0.167 HD
ATOM     58  C   UNL A   1      42.856  32.252  29.645  1.00  0.00     0.074 A 
ATOM     59  C   UNL A   1      41.896  33.102  30.316  1.00  0.00     0.031 C 
ATOM     60  C   UNL A   1      44.078  32.670  29.227  1.00  0.00     0.034 A 
BRANCH  47  61
ATOM     61  C   UNL A   1      47.505  28.237  26.596  1.00  0.00     0.023 A 
ATOM     62  C   UNL A   1      47.695  28.057  25.215  1.00  0.00     0.031 A 
ATOM     63  C   UNL A   1      48.612  28.043  27.442  1.00  0.00     0.131 A 
ATOM     64  C   UNL A   1      48.944  27.641  24.728  1.00  0.00     0.055 A 
ATOM     65  C   UNL A   1      49.872  27.707  26.943  1.00  0.00     0.041 A 
ATOM     66  F   UNL A   1      48.487  28.178  28.772  1.00  0.00    -0.206 F 
ATOM     67  C   UNL A   1      50.041  27.493  25.579  1.00  0.00     0.022 A 
BRANCH  64  68
ATOM     68  S   UNL A   1      49.083  27.180  22.980  1.00  0.00     0.124 S 
ATOM     69  O   UNL A   1      50.533  27.116  22.806  1.00  0.00    -0.237 OA
ATOM     70  O   UNL A   1      48.379  25.905  22.931  1.00  0.00    -0.237 OA
ATOM     71  O   UNL A   1      48.427  28.283  22.281  1.00  0.00    -0.744 OA
ENDBRANCH  64  68
ENDBRANCH  47  61
BRANCH  48  72
ATOM     72  C   UNL A   1      38.715  30.403  30.917  1.00  0.00     0.023 A 
ATOM     73  C   UNL A   1      37.677  31.055  30.230  1.00  0.00     0.031 A 
ATOM     74  C   UNL A   1      38.538  30.161  32.291  1.00  0.00     0.131 A 
ATOM     75  C   UNL A   1      36.548  31.509  30.930  1.00  0.00     0.055 A 
ATOM     76  C   UNL A   1      37.381  30.552  32.969  1.00  0.00     0.041 A 
ATOM     77  F   UNL A   1      39.495  29.542  33.002  1.00  0.00    -0.206 F 
ATOM     78  C   UNL A   1      36.386  31.249  32.291  1.00  0.00     0.022 A 
BRANCH  75  79
ATOM     79  S   UNL A   1      35.359  32.566  30.058  1.00  0.00     0.124 S 
ATOM     80  O   UNL A   1      35.124  31.801  28.838  1.00  0.00    -0.237 OA
ATOM     81  O   UNL A   1      34.251  32.620  31.006  1.00  0.00    -0.237 OA
ATOM     82  O   UNL A   1      36.088  33.820  29.879  1.00  0.00    -0.744 OA
ENDBRANCH  75  79
ENDBRANCH  48  72
BRANCH  60  83
ATOM     83  C   UNL A   1      44.415  34.128  29.427  1.00  0.00     0.023 A 
ATOM     84  C   UNL A   1      44.007  35.117  28.516  1.00  0.00     0.031 A 
ATOM     85  C   UNL A   1      45.162  34.531  30.550  1.00  0.00     0.131 A 
ATOM     86  C   UNL A   1      44.400  36.451  28.711  1.00  0.00     0.055 A 
ATOM     87  C   UNL A   1      45.489  35.868  30.775  1.00  0.00     0.041 A 
ATOM     88  F   UNL A   1      45.580  33.628  31.452  1.00  0.00    -0.206 F 
ATOM     89  C   UNL A   1      45.120  36.835  29.846  1.00  0.00     0.022 A 
BRANCH  86  90
ATOM     90  S   UNL A   1      44.042  37.663  27.410  1.00  0.00     0.124 S 
ATOM     91  O   UNL A   1      45.320  37.742  26.709  1.00  0.00    -0.237 OA
ATOM     92  O   UNL A   1      42.953  37.022  26.678  1.00  0.00    -0.237 OA
ATOM     93  O   UNL A   1      43.666  38.863  28.154  1.00  0.00    -0.744 OA
ENDBRANCH  86  90
ENDBRANCH  60  83
ENDBRANCH  34  35
ENDBRANCH  26  29
ENDBRANCH  24  25
ENDBRANCH   1  24
TORSDOF 16
ENDMDL
