MODEL 1
REMARK VINA RESULT:     -12.5      0.000      0.000
REMARK SMILES CC(C)[C@H]([NH2+][C@@H](C)C[C@@H]1CCCC[NH2+]1)C(=O)NCCCNC(=O)c1ccc(-c2c3nc(c(-c4cc(S(=O)(=O)[O-])ccc4F)c4ccc([nH]4)c(-c4cc(S(=O)(=O)[O-])ccc4F)c4nc(c(-c5cc(S(=O)(=O)[O-])ccc5F)c5ccc2[nH]5)C=C4)C=C3)cc1
REMARK SMILES IDX 18 1 17 2 15 3 16 4 4 6 2 7 1 8 3 9 5 10 6 13 7 14 8 15 9 16
REMARK SMILES IDX 10 17 14 18 11 19 13 20 12 23 19 24 20 25 21 26 22 27 23 29
REMARK SMILES IDX 24 30 25 31 86 32 26 33 85 34 27 35 28 36 29 37 79 38 30 39
REMARK SMILES IDX 84 40 78 41 80 42 31 43 83 44 77 45 76 46 32 48 64 49 44 50
REMARK SMILES IDX 63 51 45 52 48 53 62 54 81 55 46 56 47 57 61 59 82 60 49 61
REMARK SMILES IDX 33 62 34 63 42 64 35 65 41 66 43 67 40 68 36 69 37 70 38 71
REMARK SMILES IDX 39 72 65 73 66 74 74 75 67 76 73 77 75 78 72 79 68 80 69 81
REMARK SMILES IDX 70 82 71 83 50 84 51 85 59 86 52 87 58 88 60 89 57 90 53 91
REMARK SMILES IDX 54 92 55 93 56 94
REMARK H PARENT 17 5 5 11 5 12 14 21 14 22 21 28 80 47 48 58
REMARK Flexibility Score: inf
ROOT
ATOM      1  C   UNL A   1      35.888  22.554  23.689  1.00  0.00     0.118 C 
ENDROOT
BRANCH   1   2
ATOM      2  N   UNL A   1      34.462  22.988  22.920  1.00  0.00    -0.351 N 
ATOM      3  C   UNL A   1      32.866  23.968  23.243  1.00  0.00     0.278 C 
ATOM      4  O   UNL A   1      32.137  24.485  22.365  1.00  0.00    -0.268 OA
ATOM      5  H   UNL A   1      34.446  22.614  22.009  1.00  0.00     0.163 HD
BRANCH   3   6
ATOM      6  C   UNL A   1      32.009  24.233  24.943  1.00  0.00     0.275 C 
BRANCH   6   7
ATOM      7  C   UNL A   1      31.826  23.061  26.005  1.00  0.00     0.051 C 
ATOM      8  C   UNL A   1      32.638  23.228  27.302  1.00  0.00     0.014 C 
ATOM      9  C   UNL A   1      30.361  22.896  26.464  1.00  0.00     0.014 C 
ENDBRANCH   6   7
BRANCH   6  10
ATOM     10  N   UNL A   1      30.755  25.285  25.112  1.00  0.00    -0.333 N 
ATOM     11  H   UNL A   1      30.136  24.904  25.827  1.00  0.00     0.347 HD
ATOM     12  H   UNL A   1      30.364  25.359  24.172  1.00  0.00     0.347 HD
BRANCH  10  13
ATOM     13  C   UNL A   1      31.055  26.709  25.496  1.00  0.00     0.185 C 
ATOM     14  C   UNL A   1      32.115  26.919  26.576  1.00  0.00     0.075 C 
BRANCH  13  15
ATOM     15  C   UNL A   1      31.509  27.519  24.263  1.00  0.00     0.129 C 
BRANCH  15  16
ATOM     16  C   UNL A   1      30.326  28.403  24.027  1.00  0.00     0.188 C 
ATOM     17  C   UNL A   1      28.628  27.874  23.295  1.00  0.00     0.065 C 
ATOM     18  N   UNL A   1      30.754  30.230  24.463  1.00  0.00    -0.344 N 
ATOM     19  C   UNL A   1      27.275  29.195  23.033  1.00  0.00     0.012 C 
ATOM     20  C   UNL A   1      29.422  31.538  24.134  1.00  0.00     0.260 C 
ATOM     21  H   UNL A   1      31.578  30.490  23.921  1.00  0.00     0.346 HD
ATOM     22  H   UNL A   1      30.881  30.234  25.475  1.00  0.00     0.346 HD
ATOM     23  C   UNL A   1      27.701  31.037  23.386  1.00  0.00     0.062 C 
ENDBRANCH  15  16
ENDBRANCH  13  15
ENDBRANCH  10  13
ENDBRANCH   6  10
ENDBRANCH   3   6
ENDBRANCH   1   2
BRANCH   1  24
ATOM     24  C   UNL A   1      36.640  23.680  24.365  1.00  0.00     0.042 C 
BRANCH  24  25
ATOM     25  C   UNL A   1      36.485  23.586  25.857  1.00  0.00     0.118 C 
BRANCH  25  26
ATOM     26  N   UNL A   1      37.410  22.570  26.348  1.00  0.00    -0.352 N 
ATOM     27  C   UNL A   1      38.764  22.771  26.447  1.00  0.00     0.251 C 
ATOM     28  H   UNL A   1      37.045  21.697  26.622  1.00  0.00     0.163 HD
ATOM     29  O   UNL A   1      39.565  21.899  26.140  1.00  0.00    -0.269 OA
BRANCH  27  30
ATOM     30  C   UNL A   1      39.161  24.091  26.954  1.00  0.00     0.039 A 
ATOM     31  C   UNL A   1      38.983  24.437  28.289  1.00  0.00     0.014 A 
ATOM     32  C   UNL A   1      39.799  24.954  26.052  1.00  0.00     0.014 A 
ATOM     33  C   UNL A   1      39.452  25.675  28.715  1.00  0.00     0.010 A 
ATOM     34  C   UNL A   1      40.402  26.098  26.515  1.00  0.00     0.010 A 
ATOM     35  C   UNL A   1      40.168  26.503  27.830  1.00  0.00    -0.014 A 
BRANCH  35  36
ATOM     36  C   UNL A   1      40.596  27.862  28.207  1.00  0.00     0.031 A 
ATOM     37  C   UNL A   1      42.042  28.240  28.027  1.00  0.00     0.074 A 
ATOM     38  C   UNL A   1      39.708  28.710  28.752  1.00  0.00     0.049 A 
ATOM     39  N   UNL A   1      42.654  29.346  28.353  1.00  0.00    -0.248 NA
ATOM     40  C   UNL A   1      42.930  27.214  27.450  1.00  0.00     0.031 C 
ATOM     41  C   UNL A   1      38.297  28.413  29.006  1.00  0.00     0.029 A 
ATOM     42  N   UNL A   1      39.863  29.999  29.181  1.00  0.00    -0.354 N 
ATOM     43  C   UNL A   1      43.991  29.141  28.029  1.00  0.00     0.074 A 
ATOM     44  C   UNL A   1      44.119  27.770  27.596  1.00  0.00     0.031 C 
ATOM     45  C   UNL A   1      37.701  29.514  29.489  1.00  0.00     0.029 A 
ATOM     46  C   UNL A   1      38.698  30.569  29.632  1.00  0.00     0.049 A 
ATOM     47  H   UNL A   1      40.725  30.473  29.167  1.00  0.00     0.167 HD
ATOM     48  C   UNL A   1      45.009  30.032  28.042  1.00  0.00     0.034 A 
ATOM     49  C   UNL A   1      38.472  31.808  30.105  1.00  0.00     0.034 A 
ATOM     50  C   UNL A   1      44.845  31.397  28.472  1.00  0.00     0.049 A 
ATOM     51  C   UNL A   1      39.632  32.770  30.168  1.00  0.00     0.074 A 
ATOM     52  C   UNL A   1      45.784  32.409  28.506  1.00  0.00     0.029 A 
ATOM     53  N   UNL A   1      43.656  31.936  28.951  1.00  0.00    -0.354 N 
ATOM     54  N   UNL A   1      40.884  32.583  29.813  1.00  0.00    -0.248 NA
ATOM     55  C   UNL A   1      39.344  34.110  30.686  1.00  0.00     0.031 C 
ATOM     56  C   UNL A   1      45.187  33.535  29.083  1.00  0.00     0.029 A 
ATOM     57  C   UNL A   1      43.848  33.256  29.317  1.00  0.00     0.049 A 
ATOM     58  H   UNL A   1      42.803  31.449  29.018  1.00  0.00     0.167 HD
ATOM     59  C   UNL A   1      41.524  33.800  30.029  1.00  0.00     0.074 A 
ATOM     60  C   UNL A   1      40.515  34.711  30.532  1.00  0.00     0.031 C 
ATOM     61  C   UNL A   1      42.824  34.140  29.825  1.00  0.00     0.034 A 
BRANCH  48  62
ATOM     62  C   UNL A   1      46.367  29.537  27.601  1.00  0.00     0.023 A 
ATOM     63  C   UNL A   1      46.619  29.168  26.266  1.00  0.00     0.031 A 
ATOM     64  C   UNL A   1      47.402  29.358  28.534  1.00  0.00     0.131 A 
ATOM     65  C   UNL A   1      47.827  28.543  25.926  1.00  0.00     0.055 A 
ATOM     66  C   UNL A   1      48.643  28.834  28.166  1.00  0.00     0.041 A 
ATOM     67  F   UNL A   1      47.216  29.662  29.828  1.00  0.00    -0.206 F 
ATOM     68  C   UNL A   1      48.854  28.402  26.860  1.00  0.00     0.022 A 
BRANCH  65  69
ATOM     69  S   UNL A   1      47.955  27.741  24.303  1.00  0.00     0.124 S 
ATOM     70  O   UNL A   1      47.613  26.358  24.631  1.00  0.00    -0.237 OA
ATOM     71  O   UNL A   1      46.973  28.471  23.512  1.00  0.00    -0.237 OA
ATOM     72  O   UNL A   1      49.351  27.955  23.925  1.00  0.00    -0.744 OA
ENDBRANCH  65  69
ENDBRANCH  48  62
BRANCH  49  73
ATOM     73  C   UNL A   1      37.105  32.216  30.528  1.00  0.00     0.023 A 
ATOM     74  C   UNL A   1      36.202  32.762  29.602  1.00  0.00     0.031 A 
ATOM     75  C   UNL A   1      36.686  32.097  31.865  1.00  0.00     0.131 A 
ATOM     76  C   UNL A   1      34.949  33.219  30.033  1.00  0.00     0.055 A 
ATOM     77  C   UNL A   1      35.413  32.496  32.278  1.00  0.00     0.041 A 
ATOM     78  F   UNL A   1      37.507  31.576  32.791  1.00  0.00    -0.206 F 
ATOM     79  C   UNL A   1      34.542  33.075  31.360  1.00  0.00     0.022 A 
BRANCH  76  80
ATOM     80  S   UNL A   1      33.896  34.098  28.847  1.00  0.00     0.124 S 
ATOM     81  O   UNL A   1      32.854  34.633  29.716  1.00  0.00    -0.237 OA
ATOM     82  O   UNL A   1      34.824  35.072  28.282  1.00  0.00    -0.237 OA
ATOM     83  O   UNL A   1      33.466  33.044  27.930  1.00  0.00    -0.744 OA
ENDBRANCH  76  80
ENDBRANCH  49  73
BRANCH  61  84
ATOM     84  C   UNL A   1      43.208  35.573  30.100  1.00  0.00     0.023 A 
ATOM     85  C   UNL A   1      43.093  36.573  29.120  1.00  0.00     0.031 A 
ATOM     86  C   UNL A   1      43.698  35.940  31.366  1.00  0.00     0.131 A 
ATOM     87  C   UNL A   1      43.527  37.876  29.401  1.00  0.00     0.055 A 
ATOM     88  C   UNL A   1      44.053  37.255  31.664  1.00  0.00     0.041 A 
ATOM     89  F   UNL A   1      43.832  35.025  32.340  1.00  0.00    -0.206 F 
ATOM     90  C   UNL A   1      43.984  38.229  30.672  1.00  0.00     0.022 A 
BRANCH  87  91
ATOM     91  S   UNL A   1      43.594  39.078  28.045  1.00  0.00     0.124 S 
ATOM     92  O   UNL A   1      43.505  38.215  26.871  1.00  0.00    -0.237 OA
ATOM     93  O   UNL A   1      42.427  39.914  28.311  1.00  0.00    -0.237 OA
ATOM     94  O   UNL A   1      44.884  39.737  28.235  1.00  0.00    -0.744 OA
ENDBRANCH  87  91
ENDBRANCH  61  84
ENDBRANCH  35  36
ENDBRANCH  27  30
ENDBRANCH  25  26
ENDBRANCH  24  25
ENDBRANCH   1  24
TORSDOF 18
ENDMDL
MODEL 2
REMARK VINA RESULT:     -12.1      2.135      8.027
REMARK SMILES CC(C)[C@H]([NH2+][C@@H](C)C[C@@H]1CCCC[NH2+]1)C(=O)NCCCNC(=O)c1ccc(-c2c3nc(c(-c4cc(S(=O)(=O)[O-])ccc4F)c4ccc([nH]4)c(-c4cc(S(=O)(=O)[O-])ccc4F)c4nc(c(-c5cc(S(=O)(=O)[O-])ccc5F)c5ccc2[nH]5)C=C4)C=C3)cc1
REMARK SMILES IDX 18 1 17 2 15 3 16 4 4 6 2 7 1 8 3 9 5 10 6 13 7 14 8 15 9 16
REMARK SMILES IDX 10 17 14 18 11 19 13 20 12 23 19 24 20 25 21 26 22 27 23 29
REMARK SMILES IDX 24 30 25 31 86 32 26 33 85 34 27 35 28 36 29 37 79 38 30 39
REMARK SMILES IDX 84 40 78 41 80 42 31 43 83 44 77 45 76 46 32 48 64 49 44 50
REMARK SMILES IDX 63 51 45 52 48 53 62 54 81 55 46 56 47 57 61 59 82 60 49 61
REMARK SMILES IDX 33 62 34 63 42 64 35 65 41 66 43 67 40 68 36 69 37 70 38 71
REMARK SMILES IDX 39 72 65 73 66 74 74 75 67 76 73 77 75 78 72 79 68 80 69 81
REMARK SMILES IDX 70 82 71 83 50 84 51 85 59 86 52 87 58 88 60 89 57 90 53 91
REMARK SMILES IDX 54 92 55 93 56 94
REMARK H PARENT 17 5 5 11 5 12 14 21 14 22 21 28 80 47 48 58
REMARK Flexibility Score: inf
ROOT
ATOM      1  C   UNL A   1      35.002  21.386  25.834  1.00  0.00     0.118 C 
ENDROOT
BRANCH   1   2
ATOM      2  N   UNL A   1      33.970  22.399  26.684  1.00  0.00    -0.351 N 
ATOM      3  C   UNL A   1      32.412  23.455  26.420  1.00  0.00     0.278 C 
ATOM      4  O   UNL A   1      31.600  23.793  27.312  1.00  0.00    -0.268 OA
ATOM      5  H   UNL A   1      34.267  22.468  27.621  1.00  0.00     0.163 HD
BRANCH   3   6
ATOM      6  C   UNL A   1      31.868  24.304  24.784  1.00  0.00     0.275 C 
BRANCH   6   7
ATOM      7  C   UNL A   1      32.796  24.352  23.490  1.00  0.00     0.051 C 
ATOM      8  C   UNL A   1      32.144  24.981  22.246  1.00  0.00     0.014 C 
ATOM      9  C   UNL A   1      34.094  25.156  23.717  1.00  0.00     0.014 C 
ENDBRANCH   6   7
BRANCH   6  10
ATOM     10  N   UNL A   1      30.926  25.653  24.795  1.00  0.00    -0.333 N 
ATOM     11  H   UNL A   1      30.076  25.423  25.308  1.00  0.00     0.347 HD
ATOM     12  H   UNL A   1      30.808  25.882  23.807  1.00  0.00     0.347 HD
BRANCH  10  13
ATOM     13  C   UNL A   1      31.481  26.916  25.399  1.00  0.00     0.185 C 
ATOM     14  C   UNL A   1      32.692  26.762  26.317  1.00  0.00     0.075 C 
BRANCH  13  15
ATOM     15  C   UNL A   1      31.884  27.914  24.292  1.00  0.00     0.129 C 
BRANCH  15  16
ATOM     16  C   UNL A   1      30.589  28.614  24.028  1.00  0.00     0.188 C 
ATOM     17  C   UNL A   1      29.005  27.842  23.260  1.00  0.00     0.065 C 
ATOM     18  N   UNL A   1      30.734  30.484  24.469  1.00  0.00    -0.344 N 
ATOM     19  C   UNL A   1      27.478  28.949  22.964  1.00  0.00     0.012 C 
ATOM     20  C   UNL A   1      29.231  31.582  24.108  1.00  0.00     0.260 C 
ATOM     21  H   UNL A   1      31.522  30.863  23.946  1.00  0.00     0.346 HD
ATOM     22  H   UNL A   1      30.835  30.506  25.484  1.00  0.00     0.346 HD
ATOM     23  C   UNL A   1      27.620  30.834  23.323  1.00  0.00     0.062 C 
ENDBRANCH  15  16
ENDBRANCH  13  15
ENDBRANCH  10  13
ENDBRANCH   6  10
ENDBRANCH   3   6
ENDBRANCH   1   2
BRANCH   1  24
ATOM     24  C   UNL A   1      35.454  21.892  24.481  1.00  0.00     0.042 C 
BRANCH  24  25
ATOM     25  C   UNL A   1      36.954  21.944  24.420  1.00  0.00     0.118 C 
BRANCH  25  26
ATOM     26  N   UNL A   1      37.484  20.934  25.330  1.00  0.00    -0.352 N 
ATOM     27  C   UNL A   1      38.795  20.904  25.737  1.00  0.00     0.251 C 
ATOM     28  H   UNL A   1      36.872  20.241  25.669  1.00  0.00     0.163 HD
ATOM     29  O   UNL A   1      39.411  19.852  25.832  1.00  0.00    -0.269 OA
BRANCH  27  30
ATOM     30  C   UNL A   1      39.378  22.214  26.053  1.00  0.00     0.039 A 
ATOM     31  C   UNL A   1      38.594  23.361  26.105  1.00  0.00     0.014 A 
ATOM     32  C   UNL A   1      40.742  22.242  26.379  1.00  0.00     0.014 A 
ATOM     33  C   UNL A   1      39.199  24.554  26.486  1.00  0.00     0.010 A 
ATOM     34  C   UNL A   1      41.291  23.385  26.908  1.00  0.00     0.010 A 
ATOM     35  C   UNL A   1      40.546  24.565  26.894  1.00  0.00    -0.014 A 
BRANCH  35  36
ATOM     36  C   UNL A   1      41.256  25.818  27.209  1.00  0.00     0.031 A 
ATOM     37  C   UNL A   1      40.565  26.843  28.067  1.00  0.00     0.074 A 
ATOM     38  C   UNL A   1      42.470  26.043  26.681  1.00  0.00     0.049 A 
ATOM     39  N   UNL A   1      40.965  28.037  28.412  1.00  0.00    -0.248 NA
ATOM     40  C   UNL A   1      39.220  26.499  28.562  1.00  0.00     0.031 C 
ATOM     41  C   UNL A   1      43.196  25.125  25.800  1.00  0.00     0.029 A 
ATOM     42  N   UNL A   1      43.311  27.112  26.817  1.00  0.00    -0.354 N 
ATOM     43  C   UNL A   1      39.920  28.581  29.150  1.00  0.00     0.074 A 
ATOM     44  C   UNL A   1      38.828  27.639  29.101  1.00  0.00     0.031 C 
ATOM     45  C   UNL A   1      44.402  25.646  25.527  1.00  0.00     0.029 A 
ATOM     46  C   UNL A   1      44.509  26.954  26.163  1.00  0.00     0.049 A 
ATOM     47  H   UNL A   1      43.082  27.917  27.335  1.00  0.00     0.167 HD
ATOM     48  C   UNL A   1      39.893  29.740  29.849  1.00  0.00     0.034 A 
ATOM     49  C   UNL A   1      45.568  27.780  26.094  1.00  0.00     0.034 A 
ATOM     50  C   UNL A   1      41.004  30.655  29.885  1.00  0.00     0.049 A 
ATOM     51  C   UNL A   1      45.497  29.094  26.832  1.00  0.00     0.074 A 
ATOM     52  C   UNL A   1      41.120  31.845  30.576  1.00  0.00     0.029 A 
ATOM     53  N   UNL A   1      42.194  30.478  29.187  1.00  0.00    -0.354 N 
ATOM     54  N   UNL A   1      44.523  29.579  27.569  1.00  0.00    -0.248 NA
ATOM     55  C   UNL A   1      46.672  29.965  26.733  1.00  0.00     0.031 C 
ATOM     56  C   UNL A   1      42.344  32.429  30.230  1.00  0.00     0.029 A 
ATOM     57  C   UNL A   1      43.034  31.557  29.402  1.00  0.00     0.049 A 
ATOM     58  H   UNL A   1      42.407  29.699  28.623  1.00  0.00     0.167 HD
ATOM     59  C   UNL A   1      44.987  30.797  28.056  1.00  0.00     0.074 A 
ATOM     60  C   UNL A   1      46.331  30.961  27.537  1.00  0.00     0.031 C 
ATOM     61  C   UNL A   1      44.368  31.698  28.864  1.00  0.00     0.034 A 
BRANCH  48  62
ATOM     62  C   UNL A   1      38.621  30.066  30.597  1.00  0.00     0.023 A 
ATOM     63  C   UNL A   1      37.592  30.825  30.007  1.00  0.00     0.031 A 
ATOM     64  C   UNL A   1      38.461  29.683  31.939  1.00  0.00     0.131 A 
ATOM     65  C   UNL A   1      36.510  31.263  30.781  1.00  0.00     0.055 A 
ATOM     66  C   UNL A   1      37.327  30.033  32.675  1.00  0.00     0.041 A 
ATOM     67  F   UNL A   1      39.418  28.984  32.570  1.00  0.00    -0.206 F 
ATOM     68  C   UNL A   1      36.353  30.847  32.104  1.00  0.00     0.022 A 
BRANCH  65  69
ATOM     69  S   UNL A   1      35.422  32.544  30.095  1.00  0.00     0.124 S 
ATOM     70  O   UNL A   1      34.344  32.575  31.082  1.00  0.00    -0.237 OA
ATOM     71  O   UNL A   1      36.292  33.713  30.064  1.00  0.00    -0.237 OA
ATOM     72  O   UNL A   1      35.044  32.008  28.789  1.00  0.00    -0.744 OA
ENDBRANCH  65  69
ENDBRANCH  48  62
BRANCH  49  73
ATOM     73  C   UNL A   1      46.782  27.387  25.328  1.00  0.00     0.023 A 
ATOM     74  C   UNL A   1      46.980  27.847  24.017  1.00  0.00     0.031 A 
ATOM     75  C   UNL A   1      47.748  26.526  25.878  1.00  0.00     0.131 A 
ATOM     76  C   UNL A   1      48.086  27.400  23.280  1.00  0.00     0.055 A 
ATOM     77  C   UNL A   1      48.880  26.134  25.161  1.00  0.00     0.041 A 
ATOM     78  F   UNL A   1      47.611  26.062  27.131  1.00  0.00    -0.206 F 
ATOM     79  C   UNL A   1      49.045  26.561  23.848  1.00  0.00     0.022 A 
BRANCH  76  80
ATOM     80  S   UNL A   1      48.197  27.857  21.529  1.00  0.00     0.124 S 
ATOM     81  O   UNL A   1      46.855  28.369  21.272  1.00  0.00    -0.237 OA
ATOM     82  O   UNL A   1      49.270  28.845  21.540  1.00  0.00    -0.237 OA
ATOM     83  O   UNL A   1      48.521  26.594  20.869  1.00  0.00    -0.744 OA
ENDBRANCH  76  80
ENDBRANCH  49  73
BRANCH  61  84
ATOM     84  C   UNL A   1      45.164  32.913  29.272  1.00  0.00     0.023 A 
ATOM     85  C   UNL A   1      45.070  34.129  28.577  1.00  0.00     0.031 A 
ATOM     86  C   UNL A   1      46.034  32.846  30.375  1.00  0.00     0.131 A 
ATOM     87  C   UNL A   1      45.882  35.210  28.951  1.00  0.00     0.055 A 
ATOM     88  C   UNL A   1      46.779  33.948  30.792  1.00  0.00     0.041 A 
ATOM     89  F   UNL A   1      46.167  31.707  31.074  1.00  0.00    -0.206 F 
ATOM     90  C   UNL A   1      46.717  35.135  30.068  1.00  0.00     0.022 A 
BRANCH  87  91
ATOM     91  S   UNL A   1      45.914  36.678  27.888  1.00  0.00     0.124 S 
ATOM     92  O   UNL A   1      46.177  37.743  28.851  1.00  0.00    -0.237 OA
ATOM     93  O   UNL A   1      47.003  36.371  26.965  1.00  0.00    -0.237 OA
ATOM     94  O   UNL A   1      44.582  36.697  27.289  1.00  0.00    -0.744 OA
ENDBRANCH  87  91
ENDBRANCH  61  84
ENDBRANCH  35  36
ENDBRANCH  27  30
ENDBRANCH  25  26
ENDBRANCH  24  25
ENDBRANCH   1  24
TORSDOF 18
ENDMDL
MODEL 3
REMARK VINA RESULT:     -12.0      5.197     10.070
REMARK SMILES CC(C)[C@H]([NH2+][C@@H](C)C[C@@H]1CCCC[NH2+]1)C(=O)NCCCNC(=O)c1ccc(-c2c3nc(c(-c4cc(S(=O)(=O)[O-])ccc4F)c4ccc([nH]4)c(-c4cc(S(=O)(=O)[O-])ccc4F)c4nc(c(-c5cc(S(=O)(=O)[O-])ccc5F)c5ccc2[nH]5)C=C4)C=C3)cc1
REMARK SMILES IDX 18 1 17 2 15 3 16 4 4 6 2 7 1 8 3 9 5 10 6 13 7 14 8 15 9 16
REMARK SMILES IDX 10 17 14 18 11 19 13 20 12 23 19 24 20 25 21 26 22 27 23 29
REMARK SMILES IDX 24 30 25 31 86 32 26 33 85 34 27 35 28 36 29 37 79 38 30 39
REMARK SMILES IDX 84 40 78 41 80 42 31 43 83 44 77 45 76 46 32 48 64 49 44 50
REMARK SMILES IDX 63 51 45 52 48 53 62 54 81 55 46 56 47 57 61 59 82 60 49 61
REMARK SMILES IDX 33 62 34 63 42 64 35 65 41 66 43 67 40 68 36 69 37 70 38 71
REMARK SMILES IDX 39 72 65 73 66 74 74 75 67 76 73 77 75 78 72 79 68 80 69 81
REMARK SMILES IDX 70 82 71 83 50 84 51 85 59 86 52 87 58 88 60 89 57 90 53 91
REMARK SMILES IDX 54 92 55 93 56 94
REMARK H PARENT 17 5 5 11 5 12 14 21 14 22 21 28 80 47 48 58
REMARK Flexibility Score: inf
ROOT
ATOM      1  C   UNL A   1      31.514  28.240  27.017  1.00  0.00     0.118 C 
ENDROOT
BRANCH   1   2
ATOM      2  N   UNL A   1      30.889  26.684  26.965  1.00  0.00    -0.351 N 
ATOM      3  C   UNL A   1      31.370  24.933  26.405  1.00  0.00     0.278 C 
ATOM      4  O   UNL A   1      30.886  23.866  26.849  1.00  0.00    -0.268 OA
ATOM      5  H   UNL A   1      29.981  26.676  27.346  1.00  0.00     0.163 HD
BRANCH   3   6
ATOM      6  C   UNL A   1      32.575  24.477  24.979  1.00  0.00     0.275 C 
BRANCH   6   7
ATOM      7  C   UNL A   1      33.752  23.418  25.153  1.00  0.00     0.051 C 
ATOM      8  C   UNL A   1      34.102  22.621  23.883  1.00  0.00     0.014 C 
ATOM      9  C   UNL A   1      35.079  24.069  25.600  1.00  0.00     0.014 C 
ENDBRANCH   6   7
BRANCH   6  10
ATOM     10  N   UNL A   1      33.047  25.597  23.869  1.00  0.00    -0.333 N 
ATOM     11  H   UNL A   1      33.790  25.175  23.313  1.00  0.00     0.347 HD
ATOM     12  H   UNL A   1      33.310  26.408  24.431  1.00  0.00     0.347 HD
BRANCH  10  13
ATOM     13  C   UNL A   1      32.022  26.135  22.907  1.00  0.00     0.185 C 
ATOM     14  C   UNL A   1      32.155  25.697  21.449  1.00  0.00     0.075 C 
BRANCH  13  15
ATOM     15  C   UNL A   1      30.598  25.747  23.360  1.00  0.00     0.129 C 
BRANCH  15  16
ATOM     16  C   UNL A   1      29.856  27.030  23.161  1.00  0.00     0.188 C 
ATOM     17  C   UNL A   1      30.607  28.715  22.619  1.00  0.00     0.065 C 
ATOM     18  N   UNL A   1      28.001  26.815  23.632  1.00  0.00    -0.344 N 
ATOM     19  C   UNL A   1      29.468  30.242  22.481  1.00  0.00     0.012 C 
ATOM     20  C   UNL A   1      26.898  28.355  23.554  1.00  0.00     0.260 C 
ATOM     21  H   UNL A   1      27.965  26.462  24.588  1.00  0.00     0.346 HD
ATOM     22  H   UNL A   1      27.623  26.186  22.923  1.00  0.00     0.346 HD
ATOM     23  C   UNL A   1      27.628  30.073  23.019  1.00  0.00     0.062 C 
ENDBRANCH  15  16
ENDBRANCH  13  15
ENDBRANCH  10  13
ENDBRANCH   6  10
ENDBRANCH   3   6
ENDBRANCH   1   2
BRANCH   1  24
ATOM     24  C   UNL A   1      32.939  28.360  27.513  1.00  0.00     0.042 C 
BRANCH  24  25
ATOM     25  C   UNL A   1      33.835  28.845  26.408  1.00  0.00     0.118 C 
BRANCH  25  26
ATOM     26  N   UNL A   1      33.901  30.301  26.479  1.00  0.00    -0.352 N 
ATOM     27  C   UNL A   1      34.493  30.976  27.518  1.00  0.00     0.251 C 
ATOM     28  H   UNL A   1      33.502  30.825  25.747  1.00  0.00     0.163 HD
ATOM     29  O   UNL A   1      33.996  31.988  27.989  1.00  0.00    -0.269 OA
BRANCH  27  30
ATOM     30  C   UNL A   1      35.754  30.396  27.998  1.00  0.00     0.039 A 
ATOM     31  C   UNL A   1      36.935  30.538  27.277  1.00  0.00     0.014 A 
ATOM     32  C   UNL A   1      35.730  29.765  29.250  1.00  0.00     0.014 A 
ATOM     33  C   UNL A   1      38.106  30.029  27.829  1.00  0.00     0.010 A 
ATOM     34  C   UNL A   1      36.910  29.414  29.858  1.00  0.00     0.010 A 
ATOM     35  C   UNL A   1      38.096  29.474  29.123  1.00  0.00    -0.014 A 
BRANCH  35  36
ATOM     36  C   UNL A   1      39.288  28.833  29.707  1.00  0.00     0.031 A 
ATOM     37  C   UNL A   1      39.826  29.361  31.010  1.00  0.00     0.074 A 
ATOM     38  C   UNL A   1      39.899  27.839  29.043  1.00  0.00     0.049 A 
ATOM     39  N   UNL A   1      40.895  29.003  31.668  1.00  0.00    -0.248 NA
ATOM     40  C   UNL A   1      39.090  30.478  31.629  1.00  0.00     0.031 C 
ATOM     41  C   UNL A   1      39.475  27.294  27.751  1.00  0.00     0.029 A 
ATOM     42  N   UNL A   1      41.004  27.103  29.370  1.00  0.00    -0.354 N 
ATOM     43  C   UNL A   1      40.959  29.855  32.765  1.00  0.00     0.074 A 
ATOM     44  C   UNL A   1      39.895  30.819  32.619  1.00  0.00     0.031 C 
ATOM     45  C   UNL A   1      40.275  26.266  27.428  1.00  0.00     0.029 A 
ATOM     46  C   UNL A   1      41.299  26.121  28.457  1.00  0.00     0.049 A 
ATOM     47  H   UNL A   1      41.537  27.261  30.183  1.00  0.00     0.167 HD
ATOM     48  C   UNL A   1      41.798  29.805  33.826  1.00  0.00     0.034 A 
ATOM     49  C   UNL A   1      42.287  25.209  28.462  1.00  0.00     0.034 A 
ATOM     50  C   UNL A   1      42.844  28.824  33.946  1.00  0.00     0.049 A 
ATOM     51  C   UNL A   1      43.250  25.206  29.623  1.00  0.00     0.074 A 
ATOM     52  C   UNL A   1      43.743  28.642  34.979  1.00  0.00     0.029 A 
ATOM     53  N   UNL A   1      43.135  27.859  32.988  1.00  0.00    -0.354 N 
ATOM     54  N   UNL A   1      43.273  25.984  30.682  1.00  0.00    -0.248 NA
ATOM     55  C   UNL A   1      44.311  24.195  29.592  1.00  0.00     0.031 C 
ATOM     56  C   UNL A   1      44.628  27.624  34.609  1.00  0.00     0.029 A 
ATOM     57  C   UNL A   1      44.223  27.103  33.390  1.00  0.00     0.049 A 
ATOM     58  H   UNL A   1      42.638  27.732  32.147  1.00  0.00     0.167 HD
ATOM     59  C   UNL A   1      44.330  25.528  31.464  1.00  0.00     0.074 A 
ATOM     60  C   UNL A   1      44.906  24.401  30.757  1.00  0.00     0.031 C 
ATOM     61  C   UNL A   1      44.783  25.989  32.659  1.00  0.00     0.034 A 
BRANCH  48  62
ATOM     62  C   UNL A   1      41.615  30.850  34.902  1.00  0.00     0.023 A 
ATOM     63  C   UNL A   1      40.465  30.879  35.713  1.00  0.00     0.031 A 
ATOM     64  C   UNL A   1      42.561  31.874  35.074  1.00  0.00     0.131 A 
ATOM     65  C   UNL A   1      40.240  31.962  36.575  1.00  0.00     0.055 A 
ATOM     66  C   UNL A   1      42.381  32.893  36.012  1.00  0.00     0.041 A 
ATOM     67  F   UNL A   1      43.665  31.921  34.312  1.00  0.00    -0.206 F 
ATOM     68  C   UNL A   1      41.205  32.954  36.754  1.00  0.00     0.022 A 
BRANCH  65  69
ATOM     69  S   UNL A   1      38.588  32.156  37.301  1.00  0.00     0.124 S 
ATOM     70  O   UNL A   1      38.911  32.393  38.708  1.00  0.00    -0.237 OA
ATOM     71  O   UNL A   1      38.053  33.297  36.569  1.00  0.00    -0.237 OA
ATOM     72  O   UNL A   1      37.941  30.875  37.027  1.00  0.00    -0.744 OA
ENDBRANCH  65  69
ENDBRANCH  48  62
BRANCH  49  73
ATOM     73  C   UNL A   1      42.404  24.218  27.357  1.00  0.00     0.023 A 
ATOM     74  C   UNL A   1      41.642  23.039  27.370  1.00  0.00     0.031 A 
ATOM     75  C   UNL A   1      43.297  24.414  26.289  1.00  0.00     0.131 A 
ATOM     76  C   UNL A   1      41.826  22.077  26.366  1.00  0.00     0.055 A 
ATOM     77  C   UNL A   1      43.431  23.481  25.258  1.00  0.00     0.041 A 
ATOM     78  F   UNL A   1      44.045  25.527  26.224  1.00  0.00    -0.206 F 
ATOM     79  C   UNL A   1      42.702  22.297  25.303  1.00  0.00     0.022 A 
BRANCH  76  80
ATOM     80  S   UNL A   1      40.971  20.487  26.530  1.00  0.00     0.124 S 
ATOM     81  O   UNL A   1      39.695  20.769  25.883  1.00  0.00    -0.237 OA
ATOM     82  O   UNL A   1      41.868  19.586  25.815  1.00  0.00    -0.237 OA
ATOM     83  O   UNL A   1      40.908  20.283  27.976  1.00  0.00    -0.744 OA
ENDBRANCH  76  80
ENDBRANCH  49  73
BRANCH  61  84
ATOM     84  C   UNL A   1      45.925  25.236  33.296  1.00  0.00     0.023 A 
ATOM     85  C   UNL A   1      45.711  24.103  34.097  1.00  0.00     0.031 A 
ATOM     86  C   UNL A   1      47.249  25.667  33.096  1.00  0.00     0.131 A 
ATOM     87  C   UNL A   1      46.799  23.478  34.723  1.00  0.00     0.055 A 
ATOM     88  C   UNL A   1      48.333  24.993  33.657  1.00  0.00     0.041 A 
ATOM     89  F   UNL A   1      47.512  26.747  32.343  1.00  0.00    -0.206 F 
ATOM     90  C   UNL A   1      48.110  23.901  34.490  1.00  0.00     0.022 A 
BRANCH  87  91
ATOM     91  S   UNL A   1      46.467  22.175  35.940  1.00  0.00     0.124 S 
ATOM     92  O   UNL A   1      47.814  21.803  36.359  1.00  0.00    -0.237 OA
ATOM     93  O   UNL A   1      45.661  22.875  36.935  1.00  0.00    -0.237 OA
ATOM     94  O   UNL A   1      45.754  21.160  35.167  1.00  0.00    -0.744 OA
ENDBRANCH  87  91
ENDBRANCH  61  84
ENDBRANCH  35  36
ENDBRANCH  27  30
ENDBRANCH  25  26
ENDBRANCH  24  25
ENDBRANCH   1  24
TORSDOF 18
ENDMDL
