MODEL 1
REMARK VINA RESULT:     -13.1      0.000      0.000
REMARK SMILES O=C(Cn1cnc(-c2ccccc2)c1-c1ccccc1)NCCCNC(=O)c1ccc(-c2c3nc(c(-c4cc(S(=O)(=O)[O-])ccc4F)c4ccc([nH]4)c(-c4cc(S(=O)(=O)[O-])ccc4F)c4nc(c(-c5cc(S(=O)(=O)[O-])ccc5F)c5ccc2[nH]5)C=C4)C=C3)cc1
REMARK SMILES IDX 23 1 22 2 21 3 1 4 2 5 3 7 4 8 5 9 14 10 6 11 7 12 15 13
REMARK SMILES IDX 16 14 20 15 17 16 19 17 18 18 8 19 9 20 13 21 10 22 12 23
REMARK SMILES IDX 11 24 24 25 25 26 26 27 27 29 28 30 29 31 90 32 30 33 89 34
REMARK SMILES IDX 31 35 32 36 33 37 83 38 34 39 88 40 82 41 84 42 35 43 87 44
REMARK SMILES IDX 81 45 80 46 36 48 68 49 48 50 67 51 49 52 52 53 66 54 85 55
REMARK SMILES IDX 50 56 51 57 65 59 86 60 53 61 37 62 38 63 46 64 39 65 45 66
REMARK SMILES IDX 47 67 44 68 40 69 41 70 42 71 43 72 69 73 70 74 78 75 71 76
REMARK SMILES IDX 77 77 79 78 76 79 72 80 73 81 74 82 75 83 54 84 55 85 63 86
REMARK SMILES IDX 56 87 62 88 64 89 61 90 57 91 58 92 59 93 60 94
REMARK H PARENT 21 6 25 28 84 47 52 58
REMARK Flexibility Score: inf
ROOT
ATOM      1  C   UNL A   1      34.041  29.477  26.963  1.00  0.00     0.042 C 
ENDROOT
BRANCH   1   2
ATOM      2  C   UNL A   1      33.207  28.198  27.077  1.00  0.00     0.117 C 
BRANCH   2   3
ATOM      3  N   UNL A   1      33.318  27.307  25.928  1.00  0.00    -0.354 N 
ATOM      4  O   UNL A   1      31.855  28.462  24.591  1.00  0.00    -0.273 OA
ATOM      5  C   UNL A   1      32.676  27.557  24.729  1.00  0.00     0.239 C 
ATOM      6  H   UNL A   1      33.872  26.497  26.009  1.00  0.00     0.163 HD
BRANCH   5   7
ATOM      7  C   UNL A   1      33.045  26.634  23.576  1.00  0.00     0.223 C 
BRANCH   7   8
ATOM      8  N   UNL A   1      32.412  25.320  23.611  1.00  0.00    -0.321 N 
ATOM      9  C   UNL A   1      31.081  25.052  23.424  1.00  0.00     0.201 A 
ATOM     10  C   UNL A   1      33.054  24.110  23.817  1.00  0.00     0.076 A 
ATOM     11  N   UNL A   1      30.830  23.765  23.427  1.00  0.00    -0.236 NA
ATOM     12  C   UNL A   1      32.035  23.169  23.694  1.00  0.00     0.096 A 
BRANCH  10  13
ATOM     13  C   UNL A   1      34.475  23.903  24.105  1.00  0.00     0.000 A 
ATOM     14  C   UNL A   1      35.309  23.359  23.119  1.00  0.00     0.010 A 
ATOM     15  C   UNL A   1      34.986  24.089  25.396  1.00  0.00     0.010 A 
ATOM     16  C   UNL A   1      36.608  22.959  23.431  1.00  0.00     0.001 A 
ATOM     17  C   UNL A   1      36.303  23.725  25.696  1.00  0.00     0.001 A 
ATOM     18  C   UNL A   1      37.108  23.147  24.717  1.00  0.00     0.000 A 
ENDBRANCH  10  13
BRANCH  12  19
ATOM     19  C   UNL A   1      32.185  21.734  23.861  1.00  0.00     0.002 A 
ATOM     20  C   UNL A   1      32.115  20.884  22.753  1.00  0.00     0.010 A 
ATOM     21  C   UNL A   1      32.436  21.191  25.129  1.00  0.00     0.010 A 
ATOM     22  C   UNL A   1      32.315  19.509  22.911  1.00  0.00     0.001 A 
ATOM     23  C   UNL A   1      32.631  19.819  25.286  1.00  0.00     0.001 A 
ATOM     24  C   UNL A   1      32.572  18.979  24.175  1.00  0.00     0.000 A 
ENDBRANCH  12  19
ENDBRANCH   7   8
ENDBRANCH   5   7
ENDBRANCH   2   3
ENDBRANCH   1   2
BRANCH   1  25
ATOM     25  C   UNL A   1      35.430  29.346  27.567  1.00  0.00     0.118 C 
BRANCH  25  26
ATOM     26  N   UNL A   1      35.519  29.750  28.979  1.00  0.00    -0.352 N 
ATOM     27  C   UNL A   1      36.509  29.430  29.913  1.00  0.00     0.251 C 
ATOM     28  H   UNL A   1      34.787  30.318  29.310  1.00  0.00     0.163 HD
ATOM     29  O   UNL A   1      36.285  29.506  31.107  1.00  0.00    -0.269 OA
BRANCH  27  30
ATOM     30  C   UNL A   1      37.834  29.005  29.409  1.00  0.00     0.039 A 
ATOM     31  C   UNL A   1      38.452  29.535  28.272  1.00  0.00     0.014 A 
ATOM     32  C   UNL A   1      38.486  28.047  30.167  1.00  0.00     0.014 A 
ATOM     33  C   UNL A   1      39.749  29.111  27.959  1.00  0.00     0.010 A 
ATOM     34  C   UNL A   1      39.832  27.912  30.059  1.00  0.00     0.010 A 
ATOM     35  C   UNL A   1      40.427  28.291  28.871  1.00  0.00    -0.014 A 
BRANCH  35  36
ATOM     36  C   UNL A   1      41.795  27.820  28.716  1.00  0.00     0.031 A 
ATOM     37  C   UNL A   1      41.911  26.578  27.920  1.00  0.00     0.074 A 
ATOM     38  C   UNL A   1      42.847  28.637  28.974  1.00  0.00     0.049 A 
ATOM     39  N   UNL A   1      42.260  25.412  28.343  1.00  0.00    -0.248 NA
ATOM     40  C   UNL A   1      41.395  26.573  26.539  1.00  0.00     0.031 C 
ATOM     41  C   UNL A   1      42.827  30.027  29.460  1.00  0.00     0.029 A 
ATOM     42  N   UNL A   1      44.169  28.450  28.718  1.00  0.00    -0.354 N 
ATOM     43  C   UNL A   1      42.267  24.590  27.222  1.00  0.00     0.074 A 
ATOM     44  C   UNL A   1      41.482  25.277  26.234  1.00  0.00     0.031 C 
ATOM     45  C   UNL A   1      44.026  30.612  29.231  1.00  0.00     0.029 A 
ATOM     46  C   UNL A   1      44.946  29.610  28.720  1.00  0.00     0.049 A 
ATOM     47  H   UNL A   1      44.552  27.559  28.544  1.00  0.00     0.167 HD
ATOM     48  C   UNL A   1      43.146  23.553  27.120  1.00  0.00     0.034 A 
ATOM     49  C   UNL A   1      46.236  29.743  28.293  1.00  0.00     0.034 A 
ATOM     50  C   UNL A   1      43.799  23.320  28.393  1.00  0.00     0.049 A 
ATOM     51  C   UNL A   1      46.818  28.376  28.298  1.00  0.00     0.074 A 
ATOM     52  C   UNL A   1      43.346  23.018  29.664  1.00  0.00     0.029 A 
ATOM     53  N   UNL A   1      45.073  23.823  28.561  1.00  0.00    -0.354 N 
ATOM     54  N   UNL A   1      46.993  27.689  29.396  1.00  0.00    -0.248 NA
ATOM     55  C   UNL A   1      46.690  27.574  27.087  1.00  0.00     0.031 C 
ATOM     56  C   UNL A   1      44.135  23.830  30.530  1.00  0.00     0.029 A 
ATOM     57  C   UNL A   1      45.103  24.486  29.766  1.00  0.00     0.049 A 
ATOM     58  H   UNL A   1      45.825  23.725  27.933  1.00  0.00     0.167 HD
ATOM     59  C   UNL A   1      46.537  26.414  29.096  1.00  0.00     0.074 A 
ATOM     60  C   UNL A   1      46.460  26.374  27.634  1.00  0.00     0.031 C 
ATOM     61  C   UNL A   1      45.959  25.625  30.053  1.00  0.00     0.034 A 
BRANCH  48  62
ATOM     62  C   UNL A   1      43.702  22.985  25.833  1.00  0.00     0.023 A 
ATOM     63  C   UNL A   1      43.617  21.588  25.670  1.00  0.00     0.031 A 
ATOM     64  C   UNL A   1      44.525  23.658  24.903  1.00  0.00     0.131 A 
ATOM     65  C   UNL A   1      44.403  20.919  24.719  1.00  0.00     0.055 A 
ATOM     66  C   UNL A   1      45.251  22.994  23.909  1.00  0.00     0.041 A 
ATOM     67  F   UNL A   1      44.752  24.974  24.947  1.00  0.00    -0.206 F 
ATOM     68  C   UNL A   1      45.222  21.613  23.834  1.00  0.00     0.022 A 
BRANCH  65  69
ATOM     69  S   UNL A   1      44.473  19.112  24.787  1.00  0.00     0.124 S 
ATOM     70  O   UNL A   1      44.795  18.779  23.403  1.00  0.00    -0.237 OA
ATOM     71  O   UNL A   1      45.532  18.891  25.766  1.00  0.00    -0.237 OA
ATOM     72  O   UNL A   1      43.130  18.738  25.223  1.00  0.00    -0.744 OA
ENDBRANCH  65  69
ENDBRANCH  48  62
BRANCH  49  73
ATOM     73  C   UNL A   1      46.825  30.892  27.532  1.00  0.00     0.023 A 
ATOM     74  C   UNL A   1      46.081  31.999  27.053  1.00  0.00     0.031 A 
ATOM     75  C   UNL A   1      48.231  31.020  27.489  1.00  0.00     0.131 A 
ATOM     76  C   UNL A   1      46.747  33.153  26.556  1.00  0.00     0.055 A 
ATOM     77  C   UNL A   1      48.877  32.167  27.023  1.00  0.00     0.041 A 
ATOM     78  F   UNL A   1      49.034  30.061  27.975  1.00  0.00    -0.206 F 
ATOM     79  C   UNL A   1      48.140  33.236  26.548  1.00  0.00     0.022 A 
BRANCH  76  80
ATOM     80  S   UNL A   1      45.818  34.615  25.974  1.00  0.00     0.124 S 
ATOM     81  O   UNL A   1      46.025  34.569  24.532  1.00  0.00    -0.237 OA
ATOM     82  O   UNL A   1      44.467  34.334  26.447  1.00  0.00    -0.237 OA
ATOM     83  O   UNL A   1      46.479  35.733  26.649  1.00  0.00    -0.744 OA
ENDBRANCH  76  80
ENDBRANCH  49  73
BRANCH  61  84
ATOM     84  C   UNL A   1      46.028  26.075  31.504  1.00  0.00     0.023 A 
ATOM     85  C   UNL A   1      44.949  26.625  32.238  1.00  0.00     0.031 A 
ATOM     86  C   UNL A   1      47.210  25.793  32.210  1.00  0.00     0.131 A 
ATOM     87  C   UNL A   1      45.084  26.876  33.619  1.00  0.00     0.055 A 
ATOM     88  C   UNL A   1      47.331  26.015  33.582  1.00  0.00     0.041 A 
ATOM     89  F   UNL A   1      48.263  25.247  31.581  1.00  0.00    -0.206 F 
ATOM     90  C   UNL A   1      46.269  26.564  34.291  1.00  0.00     0.022 A 
BRANCH  87  91
ATOM     91  S   UNL A   1      43.723  27.635  34.569  1.00  0.00     0.124 S 
ATOM     92  O   UNL A   1      44.411  28.521  35.500  1.00  0.00    -0.237 OA
ATOM     93  O   UNL A   1      42.934  28.288  33.528  1.00  0.00    -0.237 OA
ATOM     94  O   UNL A   1      43.065  26.485  35.195  1.00  0.00    -0.744 OA
ENDBRANCH  87  91
ENDBRANCH  61  84
ENDBRANCH  35  36
ENDBRANCH  27  30
ENDBRANCH  25  26
ENDBRANCH   1  25
TORSDOF 16
ENDMDL
MODEL 2
REMARK VINA RESULT:     -12.8      4.305      5.616
REMARK SMILES O=C(Cn1cnc(-c2ccccc2)c1-c1ccccc1)NCCCNC(=O)c1ccc(-c2c3nc(c(-c4cc(S(=O)(=O)[O-])ccc4F)c4ccc([nH]4)c(-c4cc(S(=O)(=O)[O-])ccc4F)c4nc(c(-c5cc(S(=O)(=O)[O-])ccc5F)c5ccc2[nH]5)C=C4)C=C3)cc1
REMARK SMILES IDX 23 1 22 2 21 3 1 4 2 5 3 7 4 8 5 9 14 10 6 11 7 12 15 13
REMARK SMILES IDX 16 14 20 15 17 16 19 17 18 18 8 19 9 20 13 21 10 22 12 23
REMARK SMILES IDX 11 24 24 25 25 26 26 27 27 29 28 30 29 31 90 32 30 33 89 34
REMARK SMILES IDX 31 35 32 36 33 37 83 38 34 39 88 40 82 41 84 42 35 43 87 44
REMARK SMILES IDX 81 45 80 46 36 48 68 49 48 50 67 51 49 52 52 53 66 54 85 55
REMARK SMILES IDX 50 56 51 57 65 59 86 60 53 61 37 62 38 63 46 64 39 65 45 66
REMARK SMILES IDX 47 67 44 68 40 69 41 70 42 71 43 72 69 73 70 74 78 75 71 76
REMARK SMILES IDX 77 77 79 78 76 79 72 80 73 81 74 82 75 83 54 84 55 85 63 86
REMARK SMILES IDX 56 87 62 88 64 89 61 90 57 91 58 92 59 93 60 94
REMARK H PARENT 21 6 25 28 84 47 52 58
REMARK Flexibility Score: inf
ROOT
ATOM      1  C   UNL A   1      31.777  30.856  26.002  1.00  0.00     0.042 C 
ENDROOT
BRANCH   1   2
ATOM      2  C   UNL A   1      31.636  29.338  26.139  1.00  0.00     0.117 C 
BRANCH   2   3
ATOM      3  N   UNL A   1      32.082  28.589  24.970  1.00  0.00    -0.354 N 
ATOM      4  O   UNL A   1      33.589  27.274  26.093  1.00  0.00    -0.273 OA
ATOM      5  C   UNL A   1      32.987  27.547  25.056  1.00  0.00     0.239 C 
ATOM      6  H   UNL A   1      31.724  28.834  24.086  1.00  0.00     0.163 HD
BRANCH   5   7
ATOM      7  C   UNL A   1      33.203  26.751  23.777  1.00  0.00     0.223 C 
BRANCH   7   8
ATOM      8  N   UNL A   1      32.537  25.453  23.739  1.00  0.00    -0.321 N 
ATOM      9  C   UNL A   1      31.202  25.228  23.526  1.00  0.00     0.201 A 
ATOM     10  C   UNL A   1      33.147  24.218  23.889  1.00  0.00     0.076 A 
ATOM     11  N   UNL A   1      30.920  23.950  23.461  1.00  0.00    -0.236 NA
ATOM     12  C   UNL A   1      32.107  23.310  23.709  1.00  0.00     0.096 A 
BRANCH  10  13
ATOM     13  C   UNL A   1      34.559  23.962  24.179  1.00  0.00     0.000 A 
ATOM     14  C   UNL A   1      35.354  23.309  23.228  1.00  0.00     0.010 A 
ATOM     15  C   UNL A   1      35.095  24.213  25.449  1.00  0.00     0.010 A 
ATOM     16  C   UNL A   1      36.635  22.868  23.557  1.00  0.00     0.001 A 
ATOM     17  C   UNL A   1      36.395  23.806  25.764  1.00  0.00     0.001 A 
ATOM     18  C   UNL A   1      37.159  23.121  24.822  1.00  0.00     0.000 A 
ENDBRANCH  10  13
BRANCH  12  19
ATOM     19  C   UNL A   1      32.220  21.866  23.805  1.00  0.00     0.002 A 
ATOM     20  C   UNL A   1      32.133  21.074  22.655  1.00  0.00     0.010 A 
ATOM     21  C   UNL A   1      32.451  21.254  25.044  1.00  0.00     0.010 A 
ATOM     22  C   UNL A   1      32.298  19.689  22.744  1.00  0.00     0.001 A 
ATOM     23  C   UNL A   1      32.612  19.871  25.132  1.00  0.00     0.001 A 
ATOM     24  C   UNL A   1      32.537  19.090  23.981  1.00  0.00     0.000 A 
ENDBRANCH  12  19
ENDBRANCH   7   8
ENDBRANCH   5   7
ENDBRANCH   2   3
ENDBRANCH   1   2
BRANCH   1  25
ATOM     25  C   UNL A   1      32.345  31.523  27.245  1.00  0.00     0.118 C 
BRANCH  25  26
ATOM     26  N   UNL A   1      32.203  32.987  27.268  1.00  0.00    -0.352 N 
ATOM     27  C   UNL A   1      32.870  33.911  28.078  1.00  0.00     0.251 C 
ATOM     28  H   UNL A   1      31.554  33.365  26.632  1.00  0.00     0.163 HD
ATOM     29  O   UNL A   1      32.408  35.022  28.263  1.00  0.00    -0.269 OA
BRANCH  27  30
ATOM     30  C   UNL A   1      34.152  33.504  28.696  1.00  0.00     0.039 A 
ATOM     31  C   UNL A   1      34.289  33.086  30.024  1.00  0.00     0.014 A 
ATOM     32  C   UNL A   1      35.252  33.511  27.857  1.00  0.00     0.014 A 
ATOM     33  C   UNL A   1      35.543  32.637  30.456  1.00  0.00     0.010 A 
ATOM     34  C   UNL A   1      36.341  32.766  28.175  1.00  0.00     0.010 A 
ATOM     35  C   UNL A   1      36.564  32.485  29.509  1.00  0.00    -0.014 A 
BRANCH  35  36
ATOM     36  C   UNL A   1      37.897  31.973  29.792  1.00  0.00     0.031 A 
ATOM     37  C   UNL A   1      38.124  30.598  29.291  1.00  0.00     0.074 A 
ATOM     38  C   UNL A   1      38.904  32.808  30.151  1.00  0.00     0.049 A 
ATOM     39  N   UNL A   1      38.286  29.530  29.995  1.00  0.00    -0.248 NA
ATOM     40  C   UNL A   1      37.962  30.334  27.851  1.00  0.00     0.031 C 
ATOM     41  C   UNL A   1      38.854  34.265  30.353  1.00  0.00     0.029 A 
ATOM     42  N   UNL A   1      40.234  32.554  30.274  1.00  0.00    -0.354 N 
ATOM     43  C   UNL A   1      38.514  28.507  29.083  1.00  0.00     0.074 A 
ATOM     44  C   UNL A   1      38.038  29.002  27.820  1.00  0.00     0.031 C 
ATOM     45  C   UNL A   1      40.106  34.777  30.329  1.00  0.00     0.029 A 
ATOM     46  C   UNL A   1      41.058  33.681  30.258  1.00  0.00     0.049 A 
ATOM     47  H   UNL A   1      40.591  31.641  30.368  1.00  0.00     0.167 HD
ATOM     48  C   UNL A   1      39.324  27.457  29.396  1.00  0.00     0.034 A 
ATOM     49  C   UNL A   1      42.419  33.709  30.152  1.00  0.00     0.034 A 
ATOM     50  C   UNL A   1      39.631  27.464  30.812  1.00  0.00     0.049 A 
ATOM     51  C   UNL A   1      42.895  32.360  30.554  1.00  0.00     0.074 A 
ATOM     52  C   UNL A   1      38.864  27.421  31.962  1.00  0.00     0.029 A 
ATOM     53  N   UNL A   1      40.855  27.971  31.200  1.00  0.00    -0.354 N 
ATOM     54  N   UNL A   1      42.754  31.896  31.767  1.00  0.00    -0.248 NA
ATOM     55  C   UNL A   1      43.016  31.341  29.518  1.00  0.00     0.031 C 
ATOM     56  C   UNL A   1      39.468  28.373  32.835  1.00  0.00     0.029 A 
ATOM     57  C   UNL A   1      40.632  28.853  32.232  1.00  0.00     0.049 A 
ATOM     58  H   UNL A   1      41.729  27.742  30.810  1.00  0.00     0.167 HD
ATOM     59  C   UNL A   1      42.305  30.594  31.601  1.00  0.00     0.074 A 
ATOM     60  C   UNL A   1      42.584  30.273  30.200  1.00  0.00     0.031 C 
ATOM     61  C   UNL A   1      41.463  30.013  32.510  1.00  0.00     0.034 A 
BRANCH  48  62
ATOM     62  C   UNL A   1      40.140  26.642  28.417  1.00  0.00     0.023 A 
ATOM     63  C   UNL A   1      41.256  27.279  27.840  1.00  0.00     0.031 A 
ATOM     64  C   UNL A   1      39.763  25.418  27.822  1.00  0.00     0.131 A 
ATOM     65  C   UNL A   1      41.859  26.775  26.678  1.00  0.00     0.055 A 
ATOM     66  C   UNL A   1      40.412  24.881  26.706  1.00  0.00     0.041 A 
ATOM     67  F   UNL A   1      38.698  24.712  28.216  1.00  0.00    -0.206 F 
ATOM     68  C   UNL A   1      41.445  25.577  26.104  1.00  0.00     0.022 A 
BRANCH  65  69
ATOM     69  S   UNL A   1      43.073  27.813  25.825  1.00  0.00     0.124 S 
ATOM     70  O   UNL A   1      42.331  28.213  24.635  1.00  0.00    -0.237 OA
ATOM     71  O   UNL A   1      43.318  28.858  26.813  1.00  0.00    -0.237 OA
ATOM     72  O   UNL A   1      44.189  26.902  25.588  1.00  0.00    -0.744 OA
ENDBRANCH  65  69
ENDBRANCH  48  62
BRANCH  49  73
ATOM     73  C   UNL A   1      43.247  34.680  29.366  1.00  0.00     0.023 A 
ATOM     74  C   UNL A   1      42.730  35.827  28.713  1.00  0.00     0.031 A 
ATOM     75  C   UNL A   1      44.654  34.603  29.470  1.00  0.00     0.131 A 
ATOM     76  C   UNL A   1      43.608  36.818  28.197  1.00  0.00     0.055 A 
ATOM     77  C   UNL A   1      45.508  35.594  28.983  1.00  0.00     0.041 A 
ATOM     78  F   UNL A   1      45.251  33.595  30.124  1.00  0.00    -0.206 F 
ATOM     79  C   UNL A   1      44.992  36.703  28.338  1.00  0.00     0.022 A 
BRANCH  76  80
ATOM     80  S   UNL A   1      42.973  38.331  27.391  1.00  0.00     0.124 S 
ATOM     81  O   UNL A   1      41.871  37.822  26.585  1.00  0.00    -0.237 OA
ATOM     82  O   UNL A   1      42.614  39.164  28.533  1.00  0.00    -0.237 OA
ATOM     83  O   UNL A   1      44.119  38.816  26.620  1.00  0.00    -0.744 OA
ENDBRANCH  76  80
ENDBRANCH  49  73
BRANCH  61  84
ATOM     84  C   UNL A   1      41.205  30.735  33.824  1.00  0.00     0.023 A 
ATOM     85  C   UNL A   1      40.127  31.621  34.069  1.00  0.00     0.031 A 
ATOM     86  C   UNL A   1      42.013  30.385  34.920  1.00  0.00     0.131 A 
ATOM     87  C   UNL A   1      39.901  32.124  35.366  1.00  0.00     0.055 A 
ATOM     88  C   UNL A   1      41.769  30.862  36.208  1.00  0.00     0.041 A 
ATOM     89  F   UNL A   1      43.036  29.530  34.764  1.00  0.00    -0.206 F 
ATOM     90  C   UNL A   1      40.715  31.738  36.435  1.00  0.00     0.022 A 
BRANCH  87  91
ATOM     91  S   UNL A   1      38.551  33.309  35.687  1.00  0.00     0.124 S 
ATOM     92  O   UNL A   1      37.428  32.453  36.053  1.00  0.00    -0.237 OA
ATOM     93  O   UNL A   1      39.101  34.135  36.758  1.00  0.00    -0.237 OA
ATOM     94  O   UNL A   1      38.397  34.001  34.406  1.00  0.00    -0.744 OA
ENDBRANCH  87  91
ENDBRANCH  61  84
ENDBRANCH  35  36
ENDBRANCH  27  30
ENDBRANCH  25  26
ENDBRANCH   1  25
TORSDOF 16
ENDMDL
MODEL 3
REMARK VINA RESULT:     -12.7      3.432      8.645
REMARK SMILES O=C(Cn1cnc(-c2ccccc2)c1-c1ccccc1)NCCCNC(=O)c1ccc(-c2c3nc(c(-c4cc(S(=O)(=O)[O-])ccc4F)c4ccc([nH]4)c(-c4cc(S(=O)(=O)[O-])ccc4F)c4nc(c(-c5cc(S(=O)(=O)[O-])ccc5F)c5ccc2[nH]5)C=C4)C=C3)cc1
REMARK SMILES IDX 23 1 22 2 21 3 1 4 2 5 3 7 4 8 5 9 14 10 6 11 7 12 15 13
REMARK SMILES IDX 16 14 20 15 17 16 19 17 18 18 8 19 9 20 13 21 10 22 12 23
REMARK SMILES IDX 11 24 24 25 25 26 26 27 27 29 28 30 29 31 90 32 30 33 89 34
REMARK SMILES IDX 31 35 32 36 33 37 83 38 34 39 88 40 82 41 84 42 35 43 87 44
REMARK SMILES IDX 81 45 80 46 36 48 68 49 48 50 67 51 49 52 52 53 66 54 85 55
REMARK SMILES IDX 50 56 51 57 65 59 86 60 53 61 37 62 38 63 46 64 39 65 45 66
REMARK SMILES IDX 47 67 44 68 40 69 41 70 42 71 43 72 69 73 70 74 78 75 71 76
REMARK SMILES IDX 77 77 79 78 76 79 72 80 73 81 74 82 75 83 54 84 55 85 63 86
REMARK SMILES IDX 56 87 62 88 64 89 61 90 57 91 58 92 59 93 60 94
REMARK H PARENT 21 6 25 28 84 47 52 58
REMARK Flexibility Score: inf
ROOT
ATOM      1  C   UNL A   1      35.889  21.519  25.516  1.00  0.00     0.042 C 
ENDROOT
BRANCH   1   2
ATOM      2  C   UNL A   1      34.780  21.780  24.494  1.00  0.00     0.117 C 
BRANCH   2   3
ATOM      3  N   UNL A   1      34.693  23.166  24.047  1.00  0.00    -0.354 N 
ATOM      4  O   UNL A   1      33.158  23.826  25.618  1.00  0.00    -0.273 OA
ATOM      5  C   UNL A   1      33.929  24.113  24.705  1.00  0.00     0.239 C 
ATOM      6  H   UNL A   1      35.199  23.438  23.247  1.00  0.00     0.163 HD
BRANCH   5   7
ATOM      7  C   UNL A   1      34.096  25.547  24.224  1.00  0.00     0.223 C 
BRANCH   7   8
ATOM      8  N   UNL A   1      32.973  26.074  23.455  1.00  0.00    -0.321 N 
ATOM      9  C   UNL A   1      32.545  25.632  22.231  1.00  0.00     0.201 A 
ATOM     10  C   UNL A   1      32.129  27.102  23.844  1.00  0.00     0.076 A 
ATOM     11  N   UNL A   1      31.456  26.247  21.836  1.00  0.00    -0.236 NA
ATOM     12  C   UNL A   1      31.200  27.177  22.809  1.00  0.00     0.096 A 
BRANCH  10  13
ATOM     13  C   UNL A   1      32.225  27.909  25.062  1.00  0.00     0.000 A 
ATOM     14  C   UNL A   1      31.628  27.451  26.245  1.00  0.00     0.010 A 
ATOM     15  C   UNL A   1      32.762  29.202  25.034  1.00  0.00     0.010 A 
ATOM     16  C   UNL A   1      31.523  28.287  27.356  1.00  0.00     0.001 A 
ATOM     17  C   UNL A   1      32.692  30.024  26.163  1.00  0.00     0.001 A 
ATOM     18  C   UNL A   1      32.059  29.571  27.318  1.00  0.00     0.000 A 
ENDBRANCH  10  13
BRANCH  12  19
ATOM     19  C   UNL A   1      30.110  28.132  22.720  1.00  0.00     0.002 A 
ATOM     20  C   UNL A   1      30.321  29.393  22.152  1.00  0.00     0.010 A 
ATOM     21  C   UNL A   1      28.828  27.787  23.170  1.00  0.00     0.010 A 
ATOM     22  C   UNL A   1      29.256  30.288  22.017  1.00  0.00     0.001 A 
ATOM     23  C   UNL A   1      27.766  28.683  23.039  1.00  0.00     0.001 A 
ATOM     24  C   UNL A   1      27.981  29.933  22.460  1.00  0.00     0.000 A 
ENDBRANCH  12  19
ENDBRANCH   7   8
ENDBRANCH   5   7
ENDBRANCH   2   3
ENDBRANCH   1   2
BRANCH   1  25
ATOM     25  C   UNL A   1      37.268  21.388  24.888  1.00  0.00     0.118 C 
BRANCH  25  26
ATOM     26  N   UNL A   1      37.934  20.102  25.147  1.00  0.00    -0.352 N 
ATOM     27  C   UNL A   1      39.210  19.875  25.672  1.00  0.00     0.251 C 
ATOM     28  H   UNL A   1      37.415  19.297  24.920  1.00  0.00     0.163 HD
ATOM     29  O   UNL A   1      39.775  18.813  25.491  1.00  0.00    -0.269 OA
BRANCH  27  30
ATOM     30  C   UNL A   1      39.846  20.956  26.457  1.00  0.00     0.039 A 
ATOM     31  C   UNL A   1      40.808  20.747  27.451  1.00  0.00     0.014 A 
ATOM     32  C   UNL A   1      39.465  22.244  26.123  1.00  0.00     0.014 A 
ATOM     33  C   UNL A   1      41.398  21.865  28.053  1.00  0.00     0.010 A 
ATOM     34  C   UNL A   1      40.272  23.286  26.450  1.00  0.00     0.010 A 
ATOM     35  C   UNL A   1      41.113  23.136  27.535  1.00  0.00    -0.014 A 
BRANCH  35  36
ATOM     36  C   UNL A   1      41.695  24.382  28.011  1.00  0.00     0.031 A 
ATOM     37  C   UNL A   1      40.717  25.487  28.132  1.00  0.00     0.074 A 
ATOM     38  C   UNL A   1      42.913  24.401  28.608  1.00  0.00     0.049 A 
ATOM     39  N   UNL A   1      40.660  26.558  27.417  1.00  0.00    -0.248 NA
ATOM     40  C   UNL A   1      39.549  25.304  29.011  1.00  0.00     0.031 C 
ATOM     41  C   UNL A   1      43.834  23.276  28.838  1.00  0.00     0.029 A 
ATOM     42  N   UNL A   1      43.534  25.412  29.272  1.00  0.00    -0.354 N 
ATOM     43  C   UNL A   1      39.611  27.306  27.939  1.00  0.00     0.074 A 
ATOM     44  C   UNL A   1      38.823  26.382  28.706  1.00  0.00     0.031 C 
ATOM     45  C   UNL A   1      44.748  23.614  29.777  1.00  0.00     0.029 A 
ATOM     46  C   UNL A   1      44.578  25.018  30.112  1.00  0.00     0.049 A 
ATOM     47  H   UNL A   1      43.268  26.354  29.168  1.00  0.00     0.167 HD
ATOM     48  C   UNL A   1      39.643  28.668  27.917  1.00  0.00     0.034 A 
ATOM     49  C   UNL A   1      45.224  25.781  31.042  1.00  0.00     0.034 A 
ATOM     50  C   UNL A   1      40.727  29.132  27.073  1.00  0.00     0.049 A 
ATOM     51  C   UNL A   1      44.975  27.196  30.664  1.00  0.00     0.074 A 
ATOM     52  C   UNL A   1      41.056  28.945  25.743  1.00  0.00     0.029 A 
ATOM     53  N   UNL A   1      41.891  29.541  27.691  1.00  0.00    -0.354 N 
ATOM     54  N   UNL A   1      45.431  27.721  29.558  1.00  0.00    -0.248 NA
ATOM     55  C   UNL A   1      43.793  27.852  31.211  1.00  0.00     0.031 C 
ATOM     56  C   UNL A   1      42.467  28.737  25.746  1.00  0.00     0.029 A 
ATOM     57  C   UNL A   1      42.941  28.930  27.046  1.00  0.00     0.049 A 
ATOM     58  H   UNL A   1      41.958  30.158  28.455  1.00  0.00     0.167 HD
ATOM     59  C   UNL A   1      44.365  28.436  29.035  1.00  0.00     0.074 A 
ATOM     60  C   UNL A   1      43.417  28.567  30.143  1.00  0.00     0.031 C 
ATOM     61  C   UNL A   1      44.198  28.574  27.683  1.00  0.00     0.034 A 
BRANCH  48  62
ATOM     62  C   UNL A   1      38.970  29.588  28.911  1.00  0.00     0.023 A 
ATOM     63  C   UNL A   1      39.475  29.577  30.225  1.00  0.00     0.031 A 
ATOM     64  C   UNL A   1      37.736  30.255  28.738  1.00  0.00     0.131 A 
ATOM     65  C   UNL A   1      38.727  30.092  31.295  1.00  0.00     0.055 A 
ATOM     66  C   UNL A   1      37.027  30.830  29.796  1.00  0.00     0.041 A 
ATOM     67  F   UNL A   1      37.096  30.314  27.566  1.00  0.00    -0.206 F 
ATOM     68  C   UNL A   1      37.503  30.721  31.091  1.00  0.00     0.022 A 
BRANCH  65  69
ATOM     69  S   UNL A   1      39.301  29.757  32.979  1.00  0.00     0.124 S 
ATOM     70  O   UNL A   1      40.204  30.878  33.210  1.00  0.00    -0.237 OA
ATOM     71  O   UNL A   1      38.049  29.771  33.729  1.00  0.00    -0.237 OA
ATOM     72  O   UNL A   1      39.944  28.451  32.862  1.00  0.00    -0.744 OA
ENDBRANCH  65  69
ENDBRANCH  48  62
BRANCH  49  73
ATOM     73  C   UNL A   1      45.681  25.355  32.404  1.00  0.00     0.023 A 
ATOM     74  C   UNL A   1      44.848  24.737  33.370  1.00  0.00     0.031 A 
ATOM     75  C   UNL A   1      47.067  25.337  32.674  1.00  0.00     0.131 A 
ATOM     76  C   UNL A   1      45.411  24.150  34.536  1.00  0.00     0.055 A 
ATOM     77  C   UNL A   1      47.614  24.736  33.808  1.00  0.00     0.041 A 
ATOM     78  F   UNL A   1      47.955  25.836  31.799  1.00  0.00    -0.206 F 
ATOM     79  C   UNL A   1      46.790  24.146  34.749  1.00  0.00     0.022 A 
BRANCH  76  80
ATOM     80  S   UNL A   1      44.370  23.305  35.778  1.00  0.00     0.124 S 
ATOM     81  O   UNL A   1      45.111  22.075  36.030  1.00  0.00    -0.237 OA
ATOM     82  O   UNL A   1      44.333  24.277  36.865  1.00  0.00    -0.237 OA
ATOM     83  O   UNL A   1      43.094  23.117  35.086  1.00  0.00    -0.744 OA
ENDBRANCH  76  80
ENDBRANCH  49  73
BRANCH  61  84
ATOM     84  C   UNL A   1      45.324  28.125  26.764  1.00  0.00     0.023 A 
ATOM     85  C   UNL A   1      45.545  26.793  26.338  1.00  0.00     0.031 A 
ATOM     86  C   UNL A   1      46.117  29.128  26.180  1.00  0.00     0.131 A 
ATOM     87  C   UNL A   1      46.532  26.511  25.372  1.00  0.00     0.055 A 
ATOM     88  C   UNL A   1      47.073  28.849  25.204  1.00  0.00     0.041 A 
ATOM     89  F   UNL A   1      45.942  30.416  26.520  1.00  0.00    -0.206 F 
ATOM     90  C   UNL A   1      47.289  27.538  24.799  1.00  0.00     0.022 A 
BRANCH  87  91
ATOM     91  S   UNL A   1      46.868  24.794  24.852  1.00  0.00     0.124 S 
ATOM     92  O   UNL A   1      45.547  24.279  24.508  1.00  0.00    -0.237 OA
ATOM     93  O   UNL A   1      47.795  24.973  23.739  1.00  0.00    -0.237 OA
ATOM     94  O   UNL A   1      47.464  24.190  26.046  1.00  0.00    -0.744 OA
ENDBRANCH  87  91
ENDBRANCH  61  84
ENDBRANCH  35  36
ENDBRANCH  27  30
ENDBRANCH  25  26
ENDBRANCH   1  25
TORSDOF 16
ENDMDL
