MODEL 1
REMARK VINA RESULT:     -11.9      0.000      0.000
REMARK SMILES CC[C@@H]1CCC[C@@](CC[NH+]2CCOCC2)(C(=O)NCCCNC(=O)c2ccc(-c3c4nc(c(-c5cc(S(=O)(=O)[O-])ccc5F)c5ccc([nH]5)c(-c5cc(S(=O)(=O)[O-])ccc5F)c5nc(c(-c6cc(S(=O)(=O)[O-])ccc6F)c6ccc3[nH]6)C=C5)C=C4)cc2)C1
REMARK SMILES IDX 20 1 19 2 18 3 16 4 17 5 7 7 3 8 4 9 88 10 5 11 6 12 2 13
REMARK SMILES IDX 1 14 8 15 9 16 10 17 11 18 15 19 12 21 14 22 13 23 21 24
REMARK SMILES IDX 22 25 23 26 24 28 25 29 26 30 87 31 27 32 86 33 28 34 29 35
REMARK SMILES IDX 30 36 80 37 31 38 85 39 79 40 81 41 32 42 84 43 78 44 77 45
REMARK SMILES IDX 33 47 65 48 45 49 64 50 46 51 49 52 63 53 82 54 47 55 48 56
REMARK SMILES IDX 62 58 83 59 50 60 34 61 35 62 43 63 36 64 42 65 44 66 41 67
REMARK SMILES IDX 37 68 38 69 39 70 40 71 66 72 67 73 75 74 68 75 74 76 76 77
REMARK SMILES IDX 73 78 69 79 70 80 71 81 72 82 51 83 52 84 60 85 53 86 59 87
REMARK SMILES IDX 61 88 58 89 54 90 55 91 56 92 57 93
REMARK H PARENT 18 6 10 20 22 27 81 46 49 57
REMARK Flexibility Score: inf
ROOT
ATOM      1  C   UNL A   1      31.474  32.139  26.561  1.00  0.00     0.042 C 
ENDROOT
BRANCH   1   2
ATOM      2  C   UNL A   1      31.571  30.628  26.487  1.00  0.00     0.117 C 
BRANCH   2   3
ATOM      3  N   UNL A   1      32.619  30.172  25.592  1.00  0.00    -0.356 N 
ATOM      4  C   UNL A   1      32.613  29.273  24.574  1.00  0.00     0.226 C 
ATOM      5  O   UNL A   1      33.565  29.353  23.786  1.00  0.00    -0.274 OA
ATOM      6  H   UNL A   1      33.496  30.592  25.753  1.00  0.00     0.163 HD
BRANCH   4   7
ATOM      7  C   UNL A   1      31.511  28.205  24.387  1.00  0.00     0.055 C 
ATOM      8  C   UNL A   1      33.192  26.356  23.530  1.00  0.00    -0.010 C 
ATOM      9  C   UNL A   1      33.062  25.618  24.867  1.00  0.00     0.003 C 
ATOM     10  C   UNL A   1      31.959  27.231  23.230  1.00  0.00     0.020 C 
ATOM     11  C   UNL A   1      32.630  26.549  25.993  1.00  0.00     0.001 C 
ATOM     12  C   UNL A   1      31.338  27.288  25.626  1.00  0.00     0.017 C 
BRANCH   8  13
ATOM     13  C   UNL A   1      33.504  25.397  22.360  1.00  0.00     0.000 C 
ATOM     14  C   UNL A   1      32.656  25.576  21.106  1.00  0.00     0.004 C 
ENDBRANCH   8  13
BRANCH   7  15
ATOM     15  C   UNL A   1      30.158  28.807  23.866  1.00  0.00     0.078 C 
BRANCH  15  16
ATOM     16  C   UNL A   1      29.968  29.378  22.448  1.00  0.00     0.263 C 
BRANCH  16  17
ATOM     17  N   UNL A   1      28.603  29.693  22.021  1.00  0.00    -0.331 N 
ATOM     18  C   UNL A   1      28.556  30.809  21.049  1.00  0.00     0.291 C 
ATOM     19  C   UNL A   1      27.621  29.953  23.087  1.00  0.00     0.291 C 
ATOM     20  H   UNL A   1      28.319  28.817  21.582  1.00  0.00     0.348 HD
ATOM     21  C   UNL A   1      28.625  32.203  21.691  1.00  0.00     0.221 C 
ATOM     22  C   UNL A   1      27.728  31.355  23.700  1.00  0.00     0.221 C 
ATOM     23  O   UNL A   1      27.620  32.373  22.698  1.00  0.00    -0.370 OA
ENDBRANCH  16  17
ENDBRANCH  15  16
ENDBRANCH   7  15
ENDBRANCH   4   7
ENDBRANCH   2   3
ENDBRANCH   1   2
BRANCH   1  24
ATOM     24  C   UNL A   1      32.794  32.786  26.959  1.00  0.00     0.118 C 
BRANCH  24  25
ATOM     25  N   UNL A   1      32.619  34.036  27.698  1.00  0.00    -0.352 N 
ATOM     26  C   UNL A   1      33.268  34.506  28.820  1.00  0.00     0.251 C 
ATOM     27  H   UNL A   1      31.929  34.638  27.337  1.00  0.00     0.163 HD
ATOM     28  O   UNL A   1      32.838  35.482  29.414  1.00  0.00    -0.269 OA
BRANCH  26  29
ATOM     29  C   UNL A   1      34.466  33.789  29.307  1.00  0.00     0.039 A 
ATOM     30  C   UNL A   1      35.736  34.242  28.944  1.00  0.00     0.014 A 
ATOM     31  C   UNL A   1      34.326  32.701  30.168  1.00  0.00     0.014 A 
ATOM     32  C   UNL A   1      36.864  33.667  29.536  1.00  0.00     0.010 A 
ATOM     33  C   UNL A   1      35.435  32.215  30.843  1.00  0.00     0.010 A 
ATOM     34  C   UNL A   1      36.718  32.691  30.536  1.00  0.00    -0.014 A 
BRANCH  34  35
ATOM     35  C   UNL A   1      37.881  32.130  31.274  1.00  0.00     0.031 A 
ATOM     36  C   UNL A   1      38.686  31.021  30.648  1.00  0.00     0.074 A 
ATOM     37  C   UNL A   1      38.147  32.540  32.532  1.00  0.00     0.049 A 
ATOM     38  N   UNL A   1      39.611  30.265  31.179  1.00  0.00    -0.248 NA
ATOM     39  C   UNL A   1      38.367  30.686  29.251  1.00  0.00     0.031 C 
ATOM     40  C   UNL A   1      37.406  33.570  33.266  1.00  0.00     0.029 A 
ATOM     41  N   UNL A   1      39.105  32.128  33.424  1.00  0.00    -0.354 N 
ATOM     42  C   UNL A   1      39.958  29.347  30.194  1.00  0.00     0.074 A 
ATOM     43  C   UNL A   1      39.094  29.596  29.061  1.00  0.00     0.031 C 
ATOM     44  C   UNL A   1      37.957  33.729  34.480  1.00  0.00     0.029 A 
ATOM     45  C   UNL A   1      39.053  32.779  34.636  1.00  0.00     0.049 A 
ATOM     46  H   UNL A   1      39.769  31.431  33.217  1.00  0.00     0.167 HD
ATOM     47  C   UNL A   1      40.931  28.403  30.218  1.00  0.00     0.034 A 
ATOM     48  C   UNL A   1      39.796  32.617  35.748  1.00  0.00     0.034 A 
ATOM     49  C   UNL A   1      41.815  28.198  31.337  1.00  0.00     0.049 A 
ATOM     50  C   UNL A   1      40.886  31.572  35.743  1.00  0.00     0.074 A 
ATOM     51  C   UNL A   1      42.862  27.301  31.459  1.00  0.00     0.029 A 
ATOM     52  N   UNL A   1      41.763  28.914  32.526  1.00  0.00    -0.354 N 
ATOM     53  N   UNL A   1      41.217  30.729  34.791  1.00  0.00    -0.248 NA
ATOM     54  C   UNL A   1      41.708  31.464  36.955  1.00  0.00     0.031 C 
ATOM     55  C   UNL A   1      43.418  27.448  32.734  1.00  0.00     0.029 A 
ATOM     56  C   UNL A   1      42.757  28.476  33.386  1.00  0.00     0.049 A 
ATOM     57  H   UNL A   1      41.116  29.628  32.728  1.00  0.00     0.167 HD
ATOM     58  C   UNL A   1      42.311  30.020  35.279  1.00  0.00     0.074 A 
ATOM     59  C   UNL A   1      42.591  30.545  36.599  1.00  0.00     0.031 C 
ATOM     60  C   UNL A   1      43.024  29.026  34.692  1.00  0.00     0.034 A 
BRANCH  47  61
ATOM     61  C   UNL A   1      41.080  27.529  28.996  1.00  0.00     0.023 A 
ATOM     62  C   UNL A   1      42.072  27.782  28.033  1.00  0.00     0.031 A 
ATOM     63  C   UNL A   1      40.209  26.449  28.777  1.00  0.00     0.131 A 
ATOM     64  C   UNL A   1      42.118  27.017  26.858  1.00  0.00     0.055 A 
ATOM     65  C   UNL A   1      40.313  25.639  27.644  1.00  0.00     0.041 A 
ATOM     66  F   UNL A   1      39.230  26.171  29.653  1.00  0.00    -0.206 F 
ATOM     67  C   UNL A   1      41.263  25.930  26.669  1.00  0.00     0.022 A 
BRANCH  64  68
ATOM     68  S   UNL A   1      43.228  27.547  25.526  1.00  0.00     0.124 S 
ATOM     69  O   UNL A   1      42.300  28.226  24.625  1.00  0.00    -0.237 OA
ATOM     70  O   UNL A   1      44.180  28.402  26.226  1.00  0.00    -0.237 OA
ATOM     71  O   UNL A   1      43.776  26.292  25.017  1.00  0.00    -0.744 OA
ENDBRANCH  64  68
ENDBRANCH  47  61
BRANCH  48  72
ATOM     72  C   UNL A   1      39.551  33.446  36.964  1.00  0.00     0.023 A 
ATOM     73  C   UNL A   1      38.846  32.923  38.060  1.00  0.00     0.031 A 
ATOM     74  C   UNL A   1      39.954  34.792  37.024  1.00  0.00     0.131 A 
ATOM     75  C   UNL A   1      38.504  33.755  39.137  1.00  0.00     0.055 A 
ATOM     76  C   UNL A   1      39.664  35.601  38.125  1.00  0.00     0.041 A 
ATOM     77  F   UNL A   1      40.640  35.342  36.009  1.00  0.00    -0.206 F 
ATOM     78  C   UNL A   1      38.917  35.088  39.182  1.00  0.00     0.022 A 
BRANCH  75  79
ATOM     79  S   UNL A   1      37.406  33.099  40.424  1.00  0.00     0.124 S 
ATOM     80  O   UNL A   1      37.371  34.202  41.376  1.00  0.00    -0.237 OA
ATOM     81  O   UNL A   1      36.177  32.857  39.675  1.00  0.00    -0.237 OA
ATOM     82  O   UNL A   1      38.101  31.898  40.883  1.00  0.00    -0.744 OA
ENDBRANCH  75  79
ENDBRANCH  48  72
BRANCH  60  83
ATOM     83  C   UNL A   1      44.211  28.496  35.455  1.00  0.00     0.023 A 
ATOM     84  C   UNL A   1      44.081  27.465  36.399  1.00  0.00     0.031 A 
ATOM     85  C   UNL A   1      45.487  29.042  35.233  1.00  0.00     0.131 A 
ATOM     86  C   UNL A   1      45.204  27.046  37.129  1.00  0.00     0.055 A 
ATOM     87  C   UNL A   1      46.610  28.583  35.923  1.00  0.00     0.041 A 
ATOM     88  F   UNL A   1      45.663  30.029  34.340  1.00  0.00    -0.206 F 
ATOM     89  C   UNL A   1      46.468  27.589  36.887  1.00  0.00     0.022 A 
BRANCH  86  90
ATOM     90  S   UNL A   1      44.972  25.838  38.462  1.00  0.00     0.124 S 
ATOM     91  O   UNL A   1      44.111  26.566  39.388  1.00  0.00    -0.237 OA
ATOM     92  O   UNL A   1      44.350  24.718  37.762  1.00  0.00    -0.237 OA
ATOM     93  O   UNL A   1      46.330  25.591  38.941  1.00  0.00    -0.744 OA
ENDBRANCH  86  90
ENDBRANCH  60  83
ENDBRANCH  34  35
ENDBRANCH  26  29
ENDBRANCH  24  25
ENDBRANCH   1  24
TORSDOF 17
ENDMDL
MODEL 2
REMARK VINA RESULT:     -11.7      1.450      7.752
REMARK SMILES CC[C@@H]1CCC[C@@](CC[NH+]2CCOCC2)(C(=O)NCCCNC(=O)c2ccc(-c3c4nc(c(-c5cc(S(=O)(=O)[O-])ccc5F)c5ccc([nH]5)c(-c5cc(S(=O)(=O)[O-])ccc5F)c5nc(c(-c6cc(S(=O)(=O)[O-])ccc6F)c6ccc3[nH]6)C=C5)C=C4)cc2)C1
REMARK SMILES IDX 20 1 19 2 18 3 16 4 17 5 7 7 3 8 4 9 88 10 5 11 6 12 2 13
REMARK SMILES IDX 1 14 8 15 9 16 10 17 11 18 15 19 12 21 14 22 13 23 21 24
REMARK SMILES IDX 22 25 23 26 24 28 25 29 26 30 87 31 27 32 86 33 28 34 29 35
REMARK SMILES IDX 30 36 80 37 31 38 85 39 79 40 81 41 32 42 84 43 78 44 77 45
REMARK SMILES IDX 33 47 65 48 45 49 64 50 46 51 49 52 63 53 82 54 47 55 48 56
REMARK SMILES IDX 62 58 83 59 50 60 34 61 35 62 43 63 36 64 42 65 44 66 41 67
REMARK SMILES IDX 37 68 38 69 39 70 40 71 66 72 67 73 75 74 68 75 74 76 76 77
REMARK SMILES IDX 73 78 69 79 70 80 71 81 72 82 51 83 52 84 60 85 53 86 59 87
REMARK SMILES IDX 61 88 58 89 54 90 55 91 56 92 57 93
REMARK H PARENT 18 6 10 20 22 27 81 46 49 57
REMARK Flexibility Score: inf
ROOT
ATOM      1  C   UNL A   1      31.561  31.845  26.499  1.00  0.00     0.042 C 
ENDROOT
BRANCH   1   2
ATOM      2  C   UNL A   1      31.650  30.348  26.281  1.00  0.00     0.117 C 
BRANCH   2   3
ATOM      3  N   UNL A   1      32.588  29.983  25.235  1.00  0.00    -0.356 N 
ATOM      4  C   UNL A   1      32.504  29.092  24.213  1.00  0.00     0.226 C 
ATOM      5  O   UNL A   1      33.320  29.254  23.296  1.00  0.00    -0.274 OA
ATOM      6  H   UNL A   1      33.442  30.472  25.273  1.00  0.00     0.163 HD
BRANCH   4   7
ATOM      7  C   UNL A   1      31.476  27.939  24.171  1.00  0.00     0.055 C 
ATOM      8  C   UNL A   1      33.288  26.096  23.626  1.00  0.00    -0.010 C 
ATOM      9  C   UNL A   1      33.170  25.558  25.056  1.00  0.00     0.003 C 
ATOM     10  C   UNL A   1      32.011  26.835  23.179  1.00  0.00     0.020 C 
ATOM     11  C   UNL A   1      32.654  26.616  26.024  1.00  0.00     0.001 C 
ATOM     12  C   UNL A   1      31.328  27.206  25.530  1.00  0.00     0.017 C 
BRANCH   8  13
ATOM     13  C   UNL A   1      33.688  24.997  22.618  1.00  0.00     0.000 C 
ATOM     14  C   UNL A   1      33.964  23.618  23.209  1.00  0.00     0.004 C 
ENDBRANCH   8  13
BRANCH   7  15
ATOM     15  C   UNL A   1      30.101  28.368  23.545  1.00  0.00     0.078 C 
BRANCH  15  16
ATOM     16  C   UNL A   1      29.967  29.388  22.399  1.00  0.00     0.263 C 
BRANCH  16  17
ATOM     17  N   UNL A   1      28.616  29.731  21.951  1.00  0.00    -0.331 N 
ATOM     18  C   UNL A   1      28.593  30.929  21.081  1.00  0.00     0.291 C 
ATOM     19  C   UNL A   1      27.592  29.890  22.999  1.00  0.00     0.291 C 
ATOM     20  H   UNL A   1      28.355  28.896  21.426  1.00  0.00     0.348 HD
ATOM     21  C   UNL A   1      28.625  32.260  21.846  1.00  0.00     0.221 C 
ATOM     22  C   UNL A   1      27.664  31.231  23.737  1.00  0.00     0.221 C 
ATOM     23  O   UNL A   1      27.582  32.335  22.826  1.00  0.00    -0.370 OA
ENDBRANCH  16  17
ENDBRANCH  15  16
ENDBRANCH   7  15
ENDBRANCH   4   7
ENDBRANCH   2   3
ENDBRANCH   1   2
BRANCH   1  24
ATOM     24  C   UNL A   1      32.785  32.401  27.214  1.00  0.00     0.118 C 
BRANCH  24  25
ATOM     25  N   UNL A   1      32.664  33.823  27.536  1.00  0.00    -0.352 N 
ATOM     26  C   UNL A   1      33.269  34.567  28.526  1.00  0.00     0.251 C 
ATOM     27  H   UNL A   1      32.053  34.329  26.952  1.00  0.00     0.163 HD
ATOM     28  O   UNL A   1      32.881  35.700  28.765  1.00  0.00    -0.269 OA
BRANCH  26  29
ATOM     29  C   UNL A   1      34.365  33.960  29.309  1.00  0.00     0.039 A 
ATOM     30  C   UNL A   1      34.066  33.037  30.313  1.00  0.00     0.014 A 
ATOM     31  C   UNL A   1      35.691  34.268  29.008  1.00  0.00     0.014 A 
ATOM     32  C   UNL A   1      35.107  32.344  30.939  1.00  0.00     0.010 A 
ATOM     33  C   UNL A   1      36.712  33.495  29.540  1.00  0.00     0.010 A 
ATOM     34  C   UNL A   1      36.433  32.523  30.512  1.00  0.00    -0.014 A 
BRANCH  34  35
ATOM     35  C   UNL A   1      37.560  31.729  31.068  1.00  0.00     0.031 A 
ATOM     36  C   UNL A   1      38.031  31.999  32.473  1.00  0.00     0.074 A 
ATOM     37  C   UNL A   1      38.219  30.849  30.285  1.00  0.00     0.049 A 
ATOM     38  N   UNL A   1      39.100  31.565  33.089  1.00  0.00    -0.248 NA
ATOM     39  C   UNL A   1      37.213  32.924  33.274  1.00  0.00     0.031 C 
ATOM     40  C   UNL A   1      37.891  30.538  28.891  1.00  0.00     0.029 A 
ATOM     41  N   UNL A   1      39.314  30.063  30.546  1.00  0.00    -0.354 N 
ATOM     42  C   UNL A   1      39.098  32.190  34.332  1.00  0.00     0.074 A 
ATOM     43  C   UNL A   1      37.963  33.085  34.353  1.00  0.00     0.031 C 
ATOM     44  C   UNL A   1      38.745  29.608  28.433  1.00  0.00     0.029 A 
ATOM     45  C   UNL A   1      39.714  29.295  29.477  1.00  0.00     0.049 A 
ATOM     46  H   UNL A   1      39.772  30.050  31.418  1.00  0.00     0.167 HD
ATOM     47  C   UNL A   1      39.947  32.009  35.373  1.00  0.00     0.034 A 
ATOM     48  C   UNL A   1      40.753  28.446  29.350  1.00  0.00     0.034 A 
ATOM     49  C   UNL A   1      41.046  31.079  35.354  1.00  0.00     0.049 A 
ATOM     50  C   UNL A   1      41.673  28.248  30.532  1.00  0.00     0.074 A 
ATOM     51  C   UNL A   1      41.946  30.782  36.362  1.00  0.00     0.029 A 
ATOM     52  N   UNL A   1      41.387  30.280  34.269  1.00  0.00    -0.354 N 
ATOM     53  N   UNL A   1      41.640  28.829  31.709  1.00  0.00    -0.248 NA
ATOM     54  C   UNL A   1      42.759  27.272  30.371  1.00  0.00     0.031 C 
ATOM     55  C   UNL A   1      42.853  29.834  35.876  1.00  0.00     0.029 A 
ATOM     56  C   UNL A   1      42.483  29.495  34.584  1.00  0.00     0.049 A 
ATOM     57  H   UNL A   1      40.917  30.273  33.404  1.00  0.00     0.167 HD
ATOM     58  C   UNL A   1      42.679  28.258  32.440  1.00  0.00     0.074 A 
ATOM     59  C   UNL A   1      43.306  27.280  31.576  1.00  0.00     0.031 C 
ATOM     60  C   UNL A   1      43.081  28.517  33.710  1.00  0.00     0.034 A 
BRANCH  47  61
ATOM     61  C   UNL A   1      39.711  32.838  36.612  1.00  0.00     0.023 A 
ATOM     62  C   UNL A   1      38.873  32.386  37.646  1.00  0.00     0.031 A 
ATOM     63  C   UNL A   1      40.305  34.103  36.752  1.00  0.00     0.131 A 
ATOM     64  C   UNL A   1      38.590  33.223  38.735  1.00  0.00     0.055 A 
ATOM     65  C   UNL A   1      40.085  34.899  37.880  1.00  0.00     0.041 A 
ATOM     66  F   UNL A   1      41.100  34.596  35.789  1.00  0.00    -0.206 F 
ATOM     67  C   UNL A   1      39.211  34.466  38.873  1.00  0.00     0.022 A 
BRANCH  64  68
ATOM     68  S   UNL A   1      37.298  32.715  39.902  1.00  0.00     0.124 S 
ATOM     69  O   UNL A   1      36.119  32.691  39.040  1.00  0.00    -0.237 OA
ATOM     70  O   UNL A   1      37.779  31.419  40.364  1.00  0.00    -0.237 OA
ATOM     71  O   UNL A   1      37.307  33.777  40.905  1.00  0.00    -0.744 OA
ENDBRANCH  64  68
ENDBRANCH  47  61
BRANCH  48  72
ATOM     72  C   UNL A   1      40.997  27.714  28.073  1.00  0.00     0.023 A 
ATOM     73  C   UNL A   1      40.723  26.341  27.969  1.00  0.00     0.031 A 
ATOM     74  C   UNL A   1      41.572  28.355  26.962  1.00  0.00     0.131 A 
ATOM     75  C   UNL A   1      41.086  25.638  26.809  1.00  0.00     0.055 A 
ATOM     76  C   UNL A   1      41.877  27.663  25.786  1.00  0.00     0.041 A 
ATOM     77  F   UNL A   1      41.847  29.669  27.001  1.00  0.00    -0.206 F 
ATOM     78  C   UNL A   1      41.652  26.292  25.713  1.00  0.00     0.022 A 
BRANCH  75  79
ATOM     79  S   UNL A   1      40.917  23.831  26.803  1.00  0.00     0.124 S 
ATOM     80  O   UNL A   1      41.886  23.445  25.784  1.00  0.00    -0.237 OA
ATOM     81  O   UNL A   1      41.263  23.493  28.180  1.00  0.00    -0.237 OA
ATOM     82  O   UNL A   1      39.515  23.623  26.445  1.00  0.00    -0.744 OA
ENDBRANCH  75  79
ENDBRANCH  48  72
BRANCH  60  83
ATOM     83  C   UNL A   1      44.209  27.677  34.252  1.00  0.00     0.023 A 
ATOM     84  C   UNL A   1      43.972  26.466  34.921  1.00  0.00     0.031 A 
ATOM     85  C   UNL A   1      45.539  28.107  34.100  1.00  0.00     0.131 A 
ATOM     86  C   UNL A   1      45.049  25.749  35.463  1.00  0.00     0.055 A 
ATOM     87  C   UNL A   1      46.610  27.362  34.594  1.00  0.00     0.041 A 
ATOM     88  F   UNL A   1      45.817  29.259  33.468  1.00  0.00    -0.206 F 
ATOM     89  C   UNL A   1      46.366  26.182  35.292  1.00  0.00     0.022 A 
BRANCH  86  90
ATOM     90  S   UNL A   1      44.697  24.282  36.469  1.00  0.00     0.124 S 
ATOM     91  O   UNL A   1      44.151  24.871  37.687  1.00  0.00    -0.237 OA
ATOM     92  O   UNL A   1      43.748  23.552  35.634  1.00  0.00    -0.237 OA
ATOM     93  O   UNL A   1      46.005  23.647  36.618  1.00  0.00    -0.744 OA
ENDBRANCH  86  90
ENDBRANCH  60  83
ENDBRANCH  34  35
ENDBRANCH  26  29
ENDBRANCH  24  25
ENDBRANCH   1  24
TORSDOF 17
ENDMDL
MODEL 3
REMARK VINA RESULT:     -11.6      6.822     10.504
REMARK SMILES CC[C@@H]1CCC[C@@](CC[NH+]2CCOCC2)(C(=O)NCCCNC(=O)c2ccc(-c3c4nc(c(-c5cc(S(=O)(=O)[O-])ccc5F)c5ccc([nH]5)c(-c5cc(S(=O)(=O)[O-])ccc5F)c5nc(c(-c6cc(S(=O)(=O)[O-])ccc6F)c6ccc3[nH]6)C=C5)C=C4)cc2)C1
REMARK SMILES IDX 20 1 19 2 18 3 16 4 17 5 7 7 3 8 4 9 88 10 5 11 6 12 2 13
REMARK SMILES IDX 1 14 8 15 9 16 10 17 11 18 15 19 12 21 14 22 13 23 21 24
REMARK SMILES IDX 22 25 23 26 24 28 25 29 26 30 87 31 27 32 86 33 28 34 29 35
REMARK SMILES IDX 30 36 80 37 31 38 85 39 79 40 81 41 32 42 84 43 78 44 77 45
REMARK SMILES IDX 33 47 65 48 45 49 64 50 46 51 49 52 63 53 82 54 47 55 48 56
REMARK SMILES IDX 62 58 83 59 50 60 34 61 35 62 43 63 36 64 42 65 44 66 41 67
REMARK SMILES IDX 37 68 38 69 39 70 40 71 66 72 67 73 75 74 68 75 74 76 76 77
REMARK SMILES IDX 73 78 69 79 70 80 71 81 72 82 51 83 52 84 60 85 53 86 59 87
REMARK SMILES IDX 61 88 58 89 54 90 55 91 56 92 57 93
REMARK H PARENT 18 6 10 20 22 27 81 46 49 57
REMARK Flexibility Score: inf
ROOT
ATOM      1  C   UNL A   1      38.007  19.901  24.998  1.00  0.00     0.042 C 
ENDROOT
BRANCH   1   2
ATOM      2  C   UNL A   1      37.003  21.000  24.715  1.00  0.00     0.117 C 
BRANCH   2   3
ATOM      3  N   UNL A   1      36.226  21.370  25.884  1.00  0.00    -0.356 N 
ATOM      4  C   UNL A   1      34.886  21.449  26.093  1.00  0.00     0.226 C 
ATOM      5  O   UNL A   1      34.531  21.458  27.279  1.00  0.00    -0.274 OA
ATOM      6  H   UNL A   1      36.770  21.607  26.670  1.00  0.00     0.163 HD
BRANCH   4   7
ATOM      7  C   UNL A   1      33.848  21.529  24.950  1.00  0.00     0.055 C 
ATOM      8  C   UNL A   1      32.535  23.548  26.035  1.00  0.00    -0.010 C 
ATOM      9  C   UNL A   1      33.116  24.494  24.979  1.00  0.00     0.003 C 
ATOM     10  C   UNL A   1      32.498  22.086  25.545  1.00  0.00     0.020 C 
ATOM     11  C   UNL A   1      34.421  23.966  24.396  1.00  0.00     0.001 C 
ATOM     12  C   UNL A   1      34.239  22.547  23.846  1.00  0.00     0.017 C 
BRANCH   8  13
ATOM     13  C   UNL A   1      31.150  24.011  26.538  1.00  0.00     0.000 C 
ATOM     14  C   UNL A   1      30.185  22.904  26.951  1.00  0.00     0.004 C 
ENDBRANCH   8  13
BRANCH   7  15
ATOM     15  C   UNL A   1      33.453  20.120  24.382  1.00  0.00     0.078 C 
BRANCH  15  16
ATOM     16  C   UNL A   1      32.636  19.081  25.173  1.00  0.00     0.263 C 
BRANCH  16  17
ATOM     17  N   UNL A   1      32.245  17.853  24.477  1.00  0.00    -0.331 N 
ATOM     18  C   UNL A   1      32.374  16.651  25.331  1.00  0.00     0.291 C 
ATOM     19  C   UNL A   1      32.903  17.588  23.186  1.00  0.00     0.291 C 
ATOM     20  H   UNL A   1      31.266  18.041  24.261  1.00  0.00     0.348 HD
ATOM     21  C   UNL A   1      33.803  16.092  25.415  1.00  0.00     0.221 C 
ATOM     22  C   UNL A   1      34.327  17.034  23.318  1.00  0.00     0.221 C 
ATOM     23  O   UNL A   1      34.353  15.843  24.115  1.00  0.00    -0.370 OA
ENDBRANCH  16  17
ENDBRANCH  15  16
ENDBRANCH   7  15
ENDBRANCH   4   7
ENDBRANCH   2   3
ENDBRANCH   1   2
BRANCH   1  24
ATOM     24  C   UNL A   1      39.155  20.376  25.879  1.00  0.00     0.118 C 
BRANCH  24  25
ATOM     25  N   UNL A   1      40.207  19.372  26.039  1.00  0.00    -0.352 N 
ATOM     26  C   UNL A   1      41.568  19.526  26.198  1.00  0.00     0.251 C 
ATOM     27  H   UNL A   1      39.894  18.439  26.033  1.00  0.00     0.163 HD
ATOM     28  O   UNL A   1      42.308  18.559  26.107  1.00  0.00    -0.269 OA
BRANCH  26  29
ATOM     29  C   UNL A   1      42.112  20.878  26.444  1.00  0.00     0.039 A 
ATOM     30  C   UNL A   1      42.367  21.726  25.365  1.00  0.00     0.014 A 
ATOM     31  C   UNL A   1      42.317  21.319  27.750  1.00  0.00     0.014 A 
ATOM     32  C   UNL A   1      42.724  23.055  25.607  1.00  0.00     0.010 A 
ATOM     33  C   UNL A   1      42.551  22.665  27.989  1.00  0.00     0.010 A 
ATOM     34  C   UNL A   1      42.758  23.551  26.921  1.00  0.00    -0.014 A 
BRANCH  34  35
ATOM     35  C   UNL A   1      43.022  24.982  27.224  1.00  0.00     0.031 A 
ATOM     36  C   UNL A   1      44.399  25.544  26.989  1.00  0.00     0.074 A 
ATOM     37  C   UNL A   1      42.065  25.740  27.800  1.00  0.00     0.049 A 
ATOM     38  N   UNL A   1      44.899  26.696  27.352  1.00  0.00    -0.248 NA
ATOM     39  C   UNL A   1      45.358  24.667  26.297  1.00  0.00     0.031 C 
ATOM     40  C   UNL A   1      40.708  25.295  28.126  1.00  0.00     0.029 A 
ATOM     41  N   UNL A   1      42.093  27.044  28.229  1.00  0.00    -0.354 N 
ATOM     42  C   UNL A   1      46.235  26.667  26.963  1.00  0.00     0.074 A 
ATOM     43  C   UNL A   1      46.482  25.357  26.402  1.00  0.00     0.031 C 
ATOM     44  C   UNL A   1      40.027  26.315  28.672  1.00  0.00     0.029 A 
ATOM     45  C   UNL A   1      40.910  27.470  28.789  1.00  0.00     0.049 A 
ATOM     46  H   UNL A   1      42.886  27.621  28.145  1.00  0.00     0.167 HD
ATOM     47  C   UNL A   1      47.162  27.653  27.036  1.00  0.00     0.034 A 
ATOM     48  C   UNL A   1      40.581  28.653  29.344  1.00  0.00     0.034 A 
ATOM     49  C   UNL A   1      46.887  28.969  27.554  1.00  0.00     0.049 A 
ATOM     50  C   UNL A   1      41.627  29.742  29.395  1.00  0.00     0.074 A 
ATOM     51  C   UNL A   1      47.735  30.059  27.640  1.00  0.00     0.029 A 
ATOM     52  N   UNL A   1      45.661  29.377  28.063  1.00  0.00    -0.354 N 
ATOM     53  N   UNL A   1      42.879  29.704  28.999  1.00  0.00    -0.248 NA
ATOM     54  C   UNL A   1      41.212  31.034  29.957  1.00  0.00     0.031 C 
ATOM     55  C   UNL A   1      47.035  31.113  28.235  1.00  0.00     0.029 A 
ATOM     56  C   UNL A   1      45.732  30.701  28.466  1.00  0.00     0.049 A 
ATOM     57  H   UNL A   1      44.859  28.810  28.127  1.00  0.00     0.167 HD
ATOM     58  C   UNL A   1      43.385  30.980  29.229  1.00  0.00     0.074 A 
ATOM     59  C   UNL A   1      42.302  31.764  29.783  1.00  0.00     0.031 C 
ATOM     60  C   UNL A   1      44.633  31.464  29.004  1.00  0.00     0.034 A 
BRANCH  47  61
ATOM     61  C   UNL A   1      48.552  27.336  26.542  1.00  0.00     0.023 A 
ATOM     62  C   UNL A   1      48.952  27.648  25.231  1.00  0.00     0.031 A 
ATOM     63  C   UNL A   1      49.480  26.692  27.377  1.00  0.00     0.131 A 
ATOM     64  C   UNL A   1      50.214  27.246  24.769  1.00  0.00     0.055 A 
ATOM     65  C   UNL A   1      50.766  26.368  26.937  1.00  0.00     0.041 A 
ATOM     66  F   UNL A   1      49.148  26.351  28.634  1.00  0.00    -0.206 F 
ATOM     67  C   UNL A   1      51.134  26.632  25.621  1.00  0.00     0.022 A 
BRANCH  64  68
ATOM     68  S   UNL A   1      50.583  27.423  23.003  1.00  0.00     0.124 S 
ATOM     69  O   UNL A   1      49.432  26.760  22.396  1.00  0.00    -0.237 OA
ATOM     70  O   UNL A   1      50.650  28.871  22.836  1.00  0.00    -0.237 OA
ATOM     71  O   UNL A   1      51.854  26.719  22.847  1.00  0.00    -0.744 OA
ENDBRANCH  64  68
ENDBRANCH  47  61
BRANCH  48  72
ATOM     72  C   UNL A   1      39.217  28.890  29.899  1.00  0.00     0.023 A 
ATOM     73  C   UNL A   1      38.233  29.537  29.134  1.00  0.00     0.031 A 
ATOM     74  C   UNL A   1      38.896  28.540  31.222  1.00  0.00     0.131 A 
ATOM     75  C   UNL A   1      37.002  29.876  29.716  1.00  0.00     0.055 A 
ATOM     76  C   UNL A   1      37.646  28.826  31.779  1.00  0.00     0.041 A 
ATOM     77  F   UNL A   1      39.794  27.911  31.997  1.00  0.00    -0.206 F 
ATOM     78  C   UNL A   1      36.698  29.515  31.030  1.00  0.00     0.022 A 
BRANCH  75  79
ATOM     79  S   UNL A   1      35.848  30.903  28.764  1.00  0.00     0.124 S 
ATOM     80  O   UNL A   1      36.760  31.726  27.979  1.00  0.00    -0.237 OA
ATOM     81  O   UNL A   1      35.091  29.898  28.024  1.00  0.00    -0.237 OA
ATOM     82  O   UNL A   1      35.095  31.613  29.796  1.00  0.00    -0.744 OA
ENDBRANCH  75  79
ENDBRANCH  48  72
BRANCH  60  83
ATOM     83  C   UNL A   1      44.862  32.924  29.297  1.00  0.00     0.023 A 
ATOM     84  C   UNL A   1      44.593  33.919  28.344  1.00  0.00     0.031 A 
ATOM     85  C   UNL A   1      45.364  33.317  30.550  1.00  0.00     0.131 A 
ATOM     86  C   UNL A   1      44.879  35.260  28.639  1.00  0.00     0.055 A 
ATOM     87  C   UNL A   1      45.596  34.659  30.858  1.00  0.00     0.041 A 
ATOM     88  F   UNL A   1      45.636  32.403  31.495  1.00  0.00    -0.206 F 
ATOM     89  C   UNL A   1      45.366  35.637  29.894  1.00  0.00     0.022 A 
BRANCH  86  90
ATOM     90  S   UNL A   1      44.686  36.499  27.329  1.00  0.00     0.124 S 
ATOM     91  O   UNL A   1      45.936  36.359  26.589  1.00  0.00    -0.237 OA
ATOM     92  O   UNL A   1      43.484  36.039  26.641  1.00  0.00    -0.237 OA
ATOM     93  O   UNL A   1      44.537  37.754  28.064  1.00  0.00    -0.744 OA
ENDBRANCH  86  90
ENDBRANCH  60  83
ENDBRANCH  34  35
ENDBRANCH  26  29
ENDBRANCH  24  25
ENDBRANCH   1  24
TORSDOF 17
ENDMDL
