MODEL 1
REMARK VINA RESULT:     -12.9      0.000      0.000
REMARK SMILES O=C(NCCCNC(=O)c1ccc(-c2c3nc(c(-c4cc(S(=O)(=O)[O-])ccc4F)c4ccc([nH]4)c(-c4cc(S(=O)(=O)[O-])ccc4F)c4nc(c(-c5cc(S(=O)(=O)[O-])ccc5F)c5ccc2[nH]5)C=C4)C=C3)cc1)C1=Cc2cc(Cl)c(Cl)c(Cl)c2O[C@@H]1C(F)(F)F
REMARK SMILES IDX 6 1 5 2 4 3 3 4 1 5 2 6 73 8 74 9 85 10 75 11 84 12 76 13
REMARK SMILES IDX 83 14 77 15 81 16 78 17 79 18 82 19 80 20 86 21 87 22 88 23
REMARK SMILES IDX 89 24 7 25 8 26 9 28 10 29 11 30 72 31 12 32 71 33 13 34
REMARK SMILES IDX 14 35 15 36 65 37 16 38 70 39 64 40 66 41 17 42 69 43 63 44
REMARK SMILES IDX 62 45 18 47 50 48 30 49 49 50 31 51 34 52 48 53 67 54 32 55
REMARK SMILES IDX 33 56 47 58 68 59 35 60 19 61 20 62 28 63 21 64 27 65 29 66
REMARK SMILES IDX 26 67 22 68 23 69 24 70 25 71 51 72 52 73 60 74 53 75 59 76
REMARK SMILES IDX 61 77 58 78 54 79 55 80 56 81 57 82 36 83 37 84 45 85 38 86
REMARK SMILES IDX 44 87 46 88 43 89 39 90 40 91 41 92 42 93
REMARK H PARENT 3 7 7 27 66 46 34 57
REMARK Flexibility Score: inf
ROOT
ATOM      1  C   UNL A   1      37.346  21.552  25.012  1.00  0.00     0.118 C 
ENDROOT
BRANCH   1   2
ATOM      2  C   UNL A   1      36.077  21.573  25.855  1.00  0.00     0.042 C 
BRANCH   2   3
ATOM      3  C   UNL A   1      34.839  21.208  25.044  1.00  0.00     0.118 C 
BRANCH   3   4
ATOM      4  N   UNL A   1      34.714  21.975  23.800  1.00  0.00    -0.352 N 
ATOM      5  O   UNL A   1      34.261  23.804  22.529  1.00  0.00    -0.270 OA
ATOM      6  C   UNL A   1      34.085  23.173  23.562  1.00  0.00     0.251 C 
ATOM      7  H   UNL A   1      35.148  21.568  23.016  1.00  0.00     0.163 HD
BRANCH   6   8
ATOM      8  C   UNL A   1      33.233  23.699  24.642  1.00  0.00     0.067 C 
ATOM      9  C   UNL A   1      33.733  24.714  25.357  1.00  0.00     0.025 C 
ATOM     10  C   UNL A   1      31.777  23.367  24.587  1.00  0.00     0.314 C 
ATOM     11  C   UNL A   1      32.785  25.815  25.557  1.00  0.00     0.020 A 
ATOM     12  O   UNL A   1      30.946  24.553  24.563  1.00  0.00    -0.474 OA
ATOM     13  C   UNL A   1      33.323  27.058  25.898  1.00  0.00     0.034 A 
ATOM     14  C   UNL A   1      31.495  25.739  25.001  1.00  0.00     0.148 A 
ATOM     15  C   UNL A   1      32.639  28.230  25.566  1.00  0.00     0.062 A 
ATOM     16  C   UNL A   1      30.795  26.920  24.693  1.00  0.00     0.103 A 
ATOM     17  Cl  UNL A   1      33.472  29.719  25.852  1.00  0.00    -0.083 Cl
ATOM     18  C   UNL A   1      31.384  28.172  24.940  1.00  0.00     0.082 A 
ATOM     19  Cl  UNL A   1      29.273  26.792  23.860  1.00  0.00    -0.079 Cl
ATOM     20  Cl  UNL A   1      30.615  29.631  24.399  1.00  0.00    -0.081 Cl
BRANCH  10  21
ATOM     21  C   UNL A   1      31.360  22.435  25.734  1.00  0.00     0.429 C 
ATOM     22  F   UNL A   1      32.145  22.623  26.824  1.00  0.00    -0.167 F 
ATOM     23  F   UNL A   1      30.085  22.656  26.132  1.00  0.00    -0.167 F 
ATOM     24  F   UNL A   1      31.456  21.128  25.394  1.00  0.00    -0.167 F 
ENDBRANCH  10  21
ENDBRANCH   6   8
ENDBRANCH   3   4
ENDBRANCH   2   3
ENDBRANCH   1   2
BRANCH   1  25
ATOM     25  N   UNL A   1      38.282  20.495  25.384  1.00  0.00    -0.352 N 
ATOM     26  C   UNL A   1      39.477  20.553  26.078  1.00  0.00     0.251 C 
ATOM     27  H   UNL A   1      38.018  19.592  25.094  1.00  0.00     0.163 HD
ATOM     28  O   UNL A   1      40.145  19.542  26.202  1.00  0.00    -0.269 OA
BRANCH  26  29
ATOM     29  C   UNL A   1      39.961  21.845  26.625  1.00  0.00     0.039 A 
ATOM     30  C   UNL A   1      40.939  21.841  27.626  1.00  0.00     0.014 A 
ATOM     31  C   UNL A   1      39.477  23.056  26.139  1.00  0.00     0.014 A 
ATOM     32  C   UNL A   1      41.504  23.049  28.052  1.00  0.00     0.010 A 
ATOM     33  C   UNL A   1      40.123  24.241  26.470  1.00  0.00     0.010 A 
ATOM     34  C   UNL A   1      41.146  24.256  27.432  1.00  0.00    -0.014 A 
BRANCH  34  35
ATOM     35  C   UNL A   1      41.794  25.555  27.766  1.00  0.00     0.031 A 
ATOM     36  C   UNL A   1      41.017  26.594  28.534  1.00  0.00     0.074 A 
ATOM     37  C   UNL A   1      43.018  25.850  27.283  1.00  0.00     0.049 A 
ATOM     38  N   UNL A   1      41.287  27.858  28.736  1.00  0.00    -0.248 NA
ATOM     39  C   UNL A   1      39.727  26.161  29.095  1.00  0.00     0.031 C 
ATOM     40  C   UNL A   1      43.857  24.954  26.483  1.00  0.00     0.029 A 
ATOM     41  N   UNL A   1      43.766  26.999  27.376  1.00  0.00    -0.354 N 
ATOM     42  C   UNL A   1      40.180  28.380  29.399  1.00  0.00     0.074 A 
ATOM     43  C   UNL A   1      39.211  27.311  29.499  1.00  0.00     0.031 C 
ATOM     44  C   UNL A   1      45.010  25.575  26.185  1.00  0.00     0.029 A 
ATOM     45  C   UNL A   1      44.973  26.932  26.719  1.00  0.00     0.049 A 
ATOM     46  H   UNL A   1      43.465  27.797  27.868  1.00  0.00     0.167 HD
ATOM     47  C   UNL A   1      40.000  29.628  29.902  1.00  0.00     0.034 A 
ATOM     48  C   UNL A   1      45.934  27.862  26.552  1.00  0.00     0.034 A 
ATOM     49  C   UNL A   1      41.004  30.660  29.846  1.00  0.00     0.049 A 
ATOM     50  C   UNL A   1      45.730  29.231  27.150  1.00  0.00     0.074 A 
ATOM     51  C   UNL A   1      40.967  31.932  30.389  1.00  0.00     0.029 A 
ATOM     52  N   UNL A   1      42.237  30.533  29.218  1.00  0.00    -0.354 N 
ATOM     53  N   UNL A   1      44.691  29.701  27.800  1.00  0.00    -0.248 NA
ATOM     54  C   UNL A   1      46.830  30.193  26.996  1.00  0.00     0.031 C 
ATOM     55  C   UNL A   1      42.153  32.590  30.047  1.00  0.00     0.029 A 
ATOM     56  C   UNL A   1      42.960  31.708  29.346  1.00  0.00     0.049 A 
ATOM     57  H   UNL A   1      42.551  29.726  28.749  1.00  0.00     0.167 HD
ATOM     58  C   UNL A   1      45.027  31.003  28.161  1.00  0.00     0.074 A 
ATOM     59  C   UNL A   1      46.367  31.239  27.665  1.00  0.00     0.031 C 
ATOM     60  C   UNL A   1      44.296  31.921  28.842  1.00  0.00     0.034 A 
BRANCH  47  61
ATOM     61  C   UNL A   1      38.663  29.934  30.539  1.00  0.00     0.023 A 
ATOM     62  C   UNL A   1      37.648  30.609  29.840  1.00  0.00     0.031 A 
ATOM     63  C   UNL A   1      38.416  29.587  31.880  1.00  0.00     0.131 A 
ATOM     64  C   UNL A   1      36.480  31.007  30.508  1.00  0.00     0.055 A 
ATOM     65  C   UNL A   1      37.211  29.902  32.512  1.00  0.00     0.041 A 
ATOM     66  F   UNL A   1      39.352  28.956  32.607  1.00  0.00    -0.206 F 
ATOM     67  C   UNL A   1      36.242  30.634  31.832  1.00  0.00     0.022 A 
BRANCH  64  68
ATOM     68  S   UNL A   1      35.359  32.160  29.671  1.00  0.00     0.124 S 
ATOM     69  O   UNL A   1      34.817  31.318  28.605  1.00  0.00    -0.237 OA
ATOM     70  O   UNL A   1      34.429  32.524  30.733  1.00  0.00    -0.237 OA
ATOM     71  O   UNL A   1      36.243  33.231  29.219  1.00  0.00    -0.744 OA
ENDBRANCH  64  68
ENDBRANCH  47  61
BRANCH  48  72
ATOM     72  C   UNL A   1      47.175  27.543  25.787  1.00  0.00     0.023 A 
ATOM     73  C   UNL A   1      47.265  27.824  24.414  1.00  0.00     0.031 A 
ATOM     74  C   UNL A   1      48.273  26.921  26.405  1.00  0.00     0.131 A 
ATOM     75  C   UNL A   1      48.408  27.444  23.693  1.00  0.00     0.055 A 
ATOM     76  C   UNL A   1      49.429  26.589  25.694  1.00  0.00     0.041 A 
ATOM     77  F   UNL A   1      48.244  26.637  27.717  1.00  0.00    -0.206 F 
ATOM     78  C   UNL A   1      49.495  26.838  24.327  1.00  0.00     0.022 A 
BRANCH  75  79
ATOM     79  S   UNL A   1      48.419  27.679  21.895  1.00  0.00     0.124 S 
ATOM     80  O   UNL A   1      47.095  28.247  21.661  1.00  0.00    -0.237 OA
ATOM     81  O   UNL A   1      49.547  28.585  21.716  1.00  0.00    -0.237 OA
ATOM     82  O   UNL A   1      48.618  26.327  21.377  1.00  0.00    -0.744 OA
ENDBRANCH  75  79
ENDBRANCH  48  72
BRANCH  60  83
ATOM     83  C   UNL A   1      44.959  33.243  29.134  1.00  0.00     0.023 A 
ATOM     84  C   UNL A   1      44.855  34.333  28.254  1.00  0.00     0.031 A 
ATOM     85  C   UNL A   1      45.707  33.410  30.313  1.00  0.00     0.131 A 
ATOM     86  C   UNL A   1      45.529  35.528  28.541  1.00  0.00     0.055 A 
ATOM     87  C   UNL A   1      46.330  34.620  30.621  1.00  0.00     0.041 A 
ATOM     88  F   UNL A   1      45.837  32.400  31.188  1.00  0.00    -0.206 F 
ATOM     89  C   UNL A   1      46.252  35.684  29.727  1.00  0.00     0.022 A 
BRANCH  86  90
ATOM     90  S   UNL A   1      45.513  36.857  27.307  1.00  0.00     0.124 S 
ATOM     91  O   UNL A   1      46.220  37.926  28.005  1.00  0.00    -0.237 OA
ATOM     92  O   UNL A   1      46.221  36.251  26.185  1.00  0.00    -0.237 OA
ATOM     93  O   UNL A   1      44.089  37.099  27.082  1.00  0.00    -0.744 OA
ENDBRANCH  86  90
ENDBRANCH  60  83
ENDBRANCH  34  35
ENDBRANCH  26  29
ENDBRANCH   1  25
TORSDOF 14
ENDMDL
MODEL 2
REMARK VINA RESULT:     -12.8      5.539     10.461
REMARK SMILES O=C(NCCCNC(=O)c1ccc(-c2c3nc(c(-c4cc(S(=O)(=O)[O-])ccc4F)c4ccc([nH]4)c(-c4cc(S(=O)(=O)[O-])ccc4F)c4nc(c(-c5cc(S(=O)(=O)[O-])ccc5F)c5ccc2[nH]5)C=C4)C=C3)cc1)C1=Cc2cc(Cl)c(Cl)c(Cl)c2O[C@@H]1C(F)(F)F
REMARK SMILES IDX 6 1 5 2 4 3 3 4 1 5 2 6 73 8 74 9 85 10 75 11 84 12 76 13
REMARK SMILES IDX 83 14 77 15 81 16 78 17 79 18 82 19 80 20 86 21 87 22 88 23
REMARK SMILES IDX 89 24 7 25 8 26 9 28 10 29 11 30 72 31 12 32 71 33 13 34
REMARK SMILES IDX 14 35 15 36 65 37 16 38 70 39 64 40 66 41 17 42 69 43 63 44
REMARK SMILES IDX 62 45 18 47 50 48 30 49 49 50 31 51 34 52 48 53 67 54 32 55
REMARK SMILES IDX 33 56 47 58 68 59 35 60 19 61 20 62 28 63 21 64 27 65 29 66
REMARK SMILES IDX 26 67 22 68 23 69 24 70 25 71 51 72 52 73 60 74 53 75 59 76
REMARK SMILES IDX 61 77 58 78 54 79 55 80 56 81 57 82 36 83 37 84 45 85 38 86
REMARK SMILES IDX 44 87 46 88 43 89 39 90 40 91 41 92 42 93
REMARK H PARENT 3 7 7 27 66 46 34 57
REMARK Flexibility Score: inf
ROOT
ATOM      1  C   UNL A   1      32.083  30.330  26.725  1.00  0.00     0.118 C 
ENDROOT
BRANCH   1   2
ATOM      2  C   UNL A   1      32.581  29.911  25.347  1.00  0.00     0.042 C 
BRANCH   2   3
ATOM      3  C   UNL A   1      31.591  29.002  24.628  1.00  0.00     0.118 C 
BRANCH   3   4
ATOM      4  N   UNL A   1      31.041  27.948  25.486  1.00  0.00    -0.352 N 
ATOM      5  O   UNL A   1      30.981  25.903  26.476  1.00  0.00    -0.270 OA
ATOM      6  C   UNL A   1      31.356  26.612  25.554  1.00  0.00     0.251 C 
ATOM      7  H   UNL A   1      30.340  28.243  26.109  1.00  0.00     0.163 HD
BRANCH   6   8
ATOM      8  C   UNL A   1      32.228  26.083  24.490  1.00  0.00     0.067 C 
ATOM      9  C   UNL A   1      33.497  25.830  24.829  1.00  0.00     0.025 C 
ATOM     10  C   UNL A   1      31.560  25.492  23.291  1.00  0.00     0.314 C 
ATOM     11  C   UNL A   1      33.981  24.525  24.366  1.00  0.00     0.020 A 
ATOM     12  O   UNL A   1      31.953  24.116  23.068  1.00  0.00    -0.474 OA
ATOM     13  C   UNL A   1      35.101  24.000  25.015  1.00  0.00     0.034 A 
ATOM     14  C   UNL A   1      33.119  23.671  23.654  1.00  0.00     0.148 A 
ATOM     15  C   UNL A   1      35.291  22.617  25.068  1.00  0.00     0.062 A 
ATOM     16  C   UNL A   1      33.329  22.281  23.686  1.00  0.00     0.103 A 
ATOM     17  Cl  UNL A   1      36.594  22.053  26.057  1.00  0.00    -0.083 Cl
ATOM     18  C   UNL A   1      34.396  21.746  24.428  1.00  0.00     0.082 A 
ATOM     19  Cl  UNL A   1      32.154  21.245  22.928  1.00  0.00    -0.079 Cl
ATOM     20  Cl  UNL A   1      34.560  20.030  24.627  1.00  0.00    -0.081 Cl
BRANCH  10  21
ATOM     21  C   UNL A   1      31.801  26.336  22.029  1.00  0.00     0.429 C 
ATOM     22  F   UNL A   1      30.858  27.302  21.902  1.00  0.00    -0.167 F 
ATOM     23  F   UNL A   1      32.999  26.965  22.059  1.00  0.00    -0.167 F 
ATOM     24  F   UNL A   1      31.764  25.590  20.900  1.00  0.00    -0.167 F 
ENDBRANCH  10  21
ENDBRANCH   6   8
ENDBRANCH   3   4
ENDBRANCH   2   3
ENDBRANCH   1   2
BRANCH   1  25
ATOM     25  N   UNL A   1      31.989  31.776  26.901  1.00  0.00    -0.352 N 
ATOM     26  C   UNL A   1      32.871  32.672  27.478  1.00  0.00     0.251 C 
ATOM     27  H   UNL A   1      31.162  32.180  26.552  1.00  0.00     0.163 HD
ATOM     28  O   UNL A   1      32.545  33.840  27.595  1.00  0.00    -0.269 OA
BRANCH  26  29
ATOM     29  C   UNL A   1      34.183  32.204  27.991  1.00  0.00     0.039 A 
ATOM     30  C   UNL A   1      35.237  33.116  28.106  1.00  0.00     0.014 A 
ATOM     31  C   UNL A   1      34.369  30.881  28.382  1.00  0.00     0.014 A 
ATOM     32  C   UNL A   1      36.434  32.723  28.717  1.00  0.00     0.010 A 
ATOM     33  C   UNL A   1      35.506  30.527  29.098  1.00  0.00     0.010 A 
ATOM     34  C   UNL A   1      36.557  31.442  29.276  1.00  0.00    -0.014 A 
BRANCH  34  35
ATOM     35  C   UNL A   1      37.763  31.006  30.034  1.00  0.00     0.031 A 
ATOM     36  C   UNL A   1      38.737  30.051  29.391  1.00  0.00     0.074 A 
ATOM     37  C   UNL A   1      37.922  31.363  31.325  1.00  0.00     0.049 A 
ATOM     38  N   UNL A   1      39.715  29.369  29.929  1.00  0.00    -0.248 NA
ATOM     39  C   UNL A   1      38.535  29.781  27.958  1.00  0.00     0.031 C 
ATOM     40  C   UNL A   1      37.027  32.241  32.083  1.00  0.00     0.029 A 
ATOM     41  N   UNL A   1      38.886  31.014  32.239  1.00  0.00    -0.354 N 
ATOM     42  C   UNL A   1      40.209  28.554  28.915  1.00  0.00     0.074 A 
ATOM     43  C   UNL A   1      39.375  28.778  27.754  1.00  0.00     0.031 C 
ATOM     44  C   UNL A   1      37.498  32.382  33.332  1.00  0.00     0.029 A 
ATOM     45  C   UNL A   1      38.695  31.563  33.486  1.00  0.00     0.049 A 
ATOM     46  H   UNL A   1      39.644  30.424  32.022  1.00  0.00     0.167 HD
ATOM     47  C   UNL A   1      41.276  27.716  28.941  1.00  0.00     0.034 A 
ATOM     48  C   UNL A   1      39.393  31.411  34.629  1.00  0.00     0.034 A 
ATOM     49  C   UNL A   1      42.132  27.554  30.089  1.00  0.00     0.049 A 
ATOM     50  C   UNL A   1      40.598  30.504  34.627  1.00  0.00     0.074 A 
ATOM     51  C   UNL A   1      43.285  26.798  30.207  1.00  0.00     0.029 A 
ATOM     52  N   UNL A   1      41.934  28.172  31.318  1.00  0.00    -0.354 N 
ATOM     53  N   UNL A   1      41.071  29.762  33.652  1.00  0.00    -0.248 NA
ATOM     54  C   UNL A   1      41.365  30.416  35.876  1.00  0.00     0.031 C 
ATOM     55  C   UNL A   1      43.755  26.918  31.520  1.00  0.00     0.029 A 
ATOM     56  C   UNL A   1      42.933  27.801  32.204  1.00  0.00     0.049 A 
ATOM     57  H   UNL A   1      41.192  28.783  31.529  1.00  0.00     0.167 HD
ATOM     58  C   UNL A   1      42.210  29.146  34.163  1.00  0.00     0.074 A 
ATOM     59  C   UNL A   1      42.357  29.612  35.527  1.00  0.00     0.031 C 
ATOM     60  C   UNL A   1      43.060  28.277  33.560  1.00  0.00     0.034 A 
BRANCH  47  61
ATOM     61  C   UNL A   1      41.558  26.910  27.692  1.00  0.00     0.023 A 
ATOM     62  C   UNL A   1      41.242  25.543  27.608  1.00  0.00     0.031 A 
ATOM     63  C   UNL A   1      42.194  27.505  26.588  1.00  0.00     0.131 A 
ATOM     64  C   UNL A   1      41.652  24.795  26.494  1.00  0.00     0.055 A 
ATOM     65  C   UNL A   1      42.514  26.774  25.441  1.00  0.00     0.041 A 
ATOM     66  F   UNL A   1      42.537  28.802  26.612  1.00  0.00    -0.206 F 
ATOM     67  C   UNL A   1      42.261  25.405  25.397  1.00  0.00     0.022 A 
BRANCH  64  68
ATOM     68  S   UNL A   1      41.527  22.988  26.577  1.00  0.00     0.124 S 
ATOM     69  O   UNL A   1      42.280  22.587  25.390  1.00  0.00    -0.237 OA
ATOM     70  O   UNL A   1      42.151  22.686  27.861  1.00  0.00    -0.237 OA
ATOM     71  O   UNL A   1      40.090  22.739  26.507  1.00  0.00    -0.744 OA
ENDBRANCH  64  68
ENDBRANCH  47  61
BRANCH  48  72
ATOM     72  C   UNL A   1      38.981  32.125  35.872  1.00  0.00     0.023 A 
ATOM     73  C   UNL A   1      38.229  31.470  36.861  1.00  0.00     0.031 A 
ATOM     74  C   UNL A   1      39.299  33.479  36.075  1.00  0.00     0.131 A 
ATOM     75  C   UNL A   1      37.780  32.179  37.986  1.00  0.00     0.055 A 
ATOM     76  C   UNL A   1      38.893  34.168  37.221  1.00  0.00     0.041 A 
ATOM     77  F   UNL A   1      40.023  34.151  35.166  1.00  0.00    -0.206 F 
ATOM     78  C   UNL A   1      38.118  33.521  38.178  1.00  0.00     0.022 A 
BRANCH  75  79
ATOM     79  S   UNL A   1      36.679  31.342  39.159  1.00  0.00     0.124 S 
ATOM     80  O   UNL A   1      37.516  31.265  40.350  1.00  0.00    -0.237 OA
ATOM     81  O   UNL A   1      35.551  32.265  39.225  1.00  0.00    -0.237 OA
ATOM     82  O   UNL A   1      36.399  30.063  38.508  1.00  0.00    -0.744 OA
ENDBRANCH  75  79
ENDBRANCH  48  72
BRANCH  60  83
ATOM     83  C   UNL A   1      44.252  27.819  34.361  1.00  0.00     0.023 A 
ATOM     84  C   UNL A   1      44.206  26.667  35.163  1.00  0.00     0.031 A 
ATOM     85  C   UNL A   1      45.451  28.553  34.320  1.00  0.00     0.131 A 
ATOM     86  C   UNL A   1      45.323  26.306  35.930  1.00  0.00     0.055 A 
ATOM     87  C   UNL A   1      46.577  28.158  35.042  1.00  0.00     0.041 A 
ATOM     88  F   UNL A   1      45.547  29.662  33.569  1.00  0.00    -0.206 F 
ATOM     89  C   UNL A   1      46.514  27.035  35.862  1.00  0.00     0.022 A 
BRANCH  86  90
ATOM     90  S   UNL A   1      45.177  24.912  37.081  1.00  0.00     0.124 S 
ATOM     91  O   UNL A   1      43.912  25.202  37.749  1.00  0.00    -0.237 OA
ATOM     92  O   UNL A   1      45.174  23.763  36.181  1.00  0.00    -0.237 OA
ATOM     93  O   UNL A   1      46.365  25.036  37.923  1.00  0.00    -0.744 OA
ENDBRANCH  86  90
ENDBRANCH  60  83
ENDBRANCH  34  35
ENDBRANCH  26  29
ENDBRANCH   1  25
TORSDOF 14
ENDMDL
MODEL 3
REMARK VINA RESULT:     -12.6      5.293      7.901
REMARK SMILES O=C(NCCCNC(=O)c1ccc(-c2c3nc(c(-c4cc(S(=O)(=O)[O-])ccc4F)c4ccc([nH]4)c(-c4cc(S(=O)(=O)[O-])ccc4F)c4nc(c(-c5cc(S(=O)(=O)[O-])ccc5F)c5ccc2[nH]5)C=C4)C=C3)cc1)C1=Cc2cc(Cl)c(Cl)c(Cl)c2O[C@@H]1C(F)(F)F
REMARK SMILES IDX 6 1 5 2 4 3 3 4 1 5 2 6 73 8 74 9 85 10 75 11 84 12 76 13
REMARK SMILES IDX 83 14 77 15 81 16 78 17 79 18 82 19 80 20 86 21 87 22 88 23
REMARK SMILES IDX 89 24 7 25 8 26 9 28 10 29 11 30 72 31 12 32 71 33 13 34
REMARK SMILES IDX 14 35 15 36 65 37 16 38 70 39 64 40 66 41 17 42 69 43 63 44
REMARK SMILES IDX 62 45 18 47 50 48 30 49 49 50 31 51 34 52 48 53 67 54 32 55
REMARK SMILES IDX 33 56 47 58 68 59 35 60 19 61 20 62 28 63 21 64 27 65 29 66
REMARK SMILES IDX 26 67 22 68 23 69 24 70 25 71 51 72 52 73 60 74 53 75 59 76
REMARK SMILES IDX 61 77 58 78 54 79 55 80 56 81 57 82 36 83 37 84 45 85 38 86
REMARK SMILES IDX 44 87 46 88 43 89 39 90 40 91 41 92 42 93
REMARK H PARENT 3 7 7 27 66 46 34 57
REMARK Flexibility Score: inf
ROOT
ATOM      1  C   UNL A   1      32.728  30.074  26.823  1.00  0.00     0.118 C 
ENDROOT
BRANCH   1   2
ATOM      2  C   UNL A   1      32.809  29.723  25.342  1.00  0.00     0.042 C 
BRANCH   2   3
ATOM      3  C   UNL A   1      31.587  28.947  24.865  1.00  0.00     0.118 C 
BRANCH   3   4
ATOM      4  N   UNL A   1      31.183  27.878  25.784  1.00  0.00    -0.352 N 
ATOM      5  O   UNL A   1      31.345  25.858  26.812  1.00  0.00    -0.270 OA
ATOM      6  C   UNL A   1      31.594  26.569  25.849  1.00  0.00     0.251 C 
ATOM      7  H   UNL A   1      30.515  28.140  26.457  1.00  0.00     0.163 HD
BRANCH   6   8
ATOM      8  C   UNL A   1      32.413  26.076  24.727  1.00  0.00     0.067 C 
ATOM      9  C   UNL A   1      33.718  25.908  24.968  1.00  0.00     0.025 C 
ATOM     10  C   UNL A   1      31.692  25.423  23.592  1.00  0.00     0.314 C 
ATOM     11  C   UNL A   1      34.245  24.627  24.487  1.00  0.00     0.020 A 
ATOM     12  O   UNL A   1      32.152  24.070  23.358  1.00  0.00    -0.474 OA
ATOM     13  C   UNL A   1      35.443  24.184  25.052  1.00  0.00     0.034 A 
ATOM     14  C   UNL A   1      33.386  23.709  23.855  1.00  0.00     0.148 A 
ATOM     15  C   UNL A   1      35.724  22.817  25.108  1.00  0.00     0.062 A 
ATOM     16  C   UNL A   1      33.685  22.335  23.889  1.00  0.00     0.103 A 
ATOM     17  Cl  UNL A   1      37.133  22.353  25.999  1.00  0.00    -0.083 Cl
ATOM     18  C   UNL A   1      34.839  21.881  24.551  1.00  0.00     0.082 A 
ATOM     19  Cl  UNL A   1      32.522  21.215  23.239  1.00  0.00    -0.079 Cl
ATOM     20  Cl  UNL A   1      35.125  20.182  24.759  1.00  0.00    -0.081 Cl
BRANCH  10  21
ATOM     21  C   UNL A   1      31.781  26.257  22.305  1.00  0.00     0.429 C 
ATOM     22  F   UNL A   1      31.894  25.458  21.214  1.00  0.00    -0.167 F 
ATOM     23  F   UNL A   1      30.679  27.020  22.115  1.00  0.00    -0.167 F 
ATOM     24  F   UNL A   1      32.851  27.086  22.305  1.00  0.00    -0.167 F 
ENDBRANCH  10  21
ENDBRANCH   6   8
ENDBRANCH   3   4
ENDBRANCH   2   3
ENDBRANCH   1   2
BRANCH   1  25
ATOM     25  N   UNL A   1      32.843  31.503  27.095  1.00  0.00    -0.352 N 
ATOM     26  C   UNL A   1      33.864  32.230  27.682  1.00  0.00     0.251 C 
ATOM     27  H   UNL A   1      32.066  32.039  26.814  1.00  0.00     0.163 HD
ATOM     28  O   UNL A   1      33.707  33.420  27.889  1.00  0.00    -0.269 OA
BRANCH  26  29
ATOM     29  C   UNL A   1      35.119  31.554  28.097  1.00  0.00     0.039 A 
ATOM     30  C   UNL A   1      36.299  32.299  28.187  1.00  0.00     0.014 A 
ATOM     31  C   UNL A   1      35.130  30.200  28.421  1.00  0.00     0.014 A 
ATOM     32  C   UNL A   1      37.456  31.709  28.709  1.00  0.00     0.010 A 
ATOM     33  C   UNL A   1      36.239  29.652  29.054  1.00  0.00     0.010 A 
ATOM     34  C   UNL A   1      37.420  30.397  29.206  1.00  0.00    -0.014 A 
BRANCH  34  35
ATOM     35  C   UNL A   1      38.588  29.757  29.873  1.00  0.00     0.031 A 
ATOM     36  C   UNL A   1      38.991  30.208  31.255  1.00  0.00     0.074 A 
ATOM     37  C   UNL A   1      39.353  28.870  29.204  1.00  0.00     0.049 A 
ATOM     38  N   UNL A   1      40.087  29.962  31.926  1.00  0.00    -0.248 NA
ATOM     39  C   UNL A   1      38.057  31.112  31.944  1.00  0.00     0.031 C 
ATOM     40  C   UNL A   1      39.104  28.386  27.844  1.00  0.00     0.029 A 
ATOM     41  N   UNL A   1      40.512  28.230  29.570  1.00  0.00    -0.354 N 
ATOM     42  C   UNL A   1      39.995  30.721  33.089  1.00  0.00     0.074 A 
ATOM     43  C   UNL A   1      38.771  31.486  32.993  1.00  0.00     0.031 C 
ATOM     44  C   UNL A   1      40.062  27.508  27.504  1.00  0.00     0.029 A 
ATOM     45  C   UNL A   1      41.026  27.407  28.594  1.00  0.00     0.049 A 
ATOM     46  H   UNL A   1      40.937  28.350  30.450  1.00  0.00     0.167 HD
ATOM     47  C   UNL A   1      40.840  30.757  34.150  1.00  0.00     0.034 A 
ATOM     48  C   UNL A   1      42.153  26.669  28.571  1.00  0.00     0.034 A 
ATOM     49  C   UNL A   1      42.023  29.939  34.253  1.00  0.00     0.049 A 
ATOM     50  C   UNL A   1      43.060  26.694  29.776  1.00  0.00     0.074 A 
ATOM     51  C   UNL A   1      42.908  29.830  35.310  1.00  0.00     0.029 A 
ATOM     52  N   UNL A   1      42.478  29.077  33.262  1.00  0.00    -0.354 N 
ATOM     53  N   UNL A   1      42.945  27.394  30.881  1.00  0.00    -0.248 NA
ATOM     54  C   UNL A   1      44.244  25.827  29.733  1.00  0.00     0.031 C 
ATOM     55  C   UNL A   1      43.925  28.943  34.940  1.00  0.00     0.029 A 
ATOM     56  C   UNL A   1      43.641  28.447  33.677  1.00  0.00     0.049 A 
ATOM     57  H   UNL A   1      42.040  28.936  32.392  1.00  0.00     0.167 HD
ATOM     58  C   UNL A   1      44.026  27.025  31.677  1.00  0.00     0.074 A 
ATOM     59  C   UNL A   1      44.773  26.035  30.930  1.00  0.00     0.031 C 
ATOM     60  C   UNL A   1      44.370  27.463  32.915  1.00  0.00     0.034 A 
BRANCH  47  61
ATOM     61  C   UNL A   1      40.511  31.720  35.268  1.00  0.00     0.023 A 
ATOM     62  C   UNL A   1      39.538  31.423  36.238  1.00  0.00     0.031 A 
ATOM     63  C   UNL A   1      41.146  32.973  35.340  1.00  0.00     0.131 A 
ATOM     64  C   UNL A   1      39.155  32.400  37.170  1.00  0.00     0.055 A 
ATOM     65  C   UNL A   1      40.827  33.906  36.330  1.00  0.00     0.041 A 
ATOM     66  F   UNL A   1      42.072  33.325  34.433  1.00  0.00    -0.206 F 
ATOM     67  C   UNL A   1      39.811  33.629  37.241  1.00  0.00     0.022 A 
BRANCH  64  68
ATOM     68  S   UNL A   1      37.674  32.098  38.173  1.00  0.00     0.124 S 
ATOM     69  O   UNL A   1      37.346  30.723  37.804  1.00  0.00    -0.237 OA
ATOM     70  O   UNL A   1      38.167  32.295  39.531  1.00  0.00    -0.237 OA
ATOM     71  O   UNL A   1      36.728  33.105  37.699  1.00  0.00    -0.744 OA
ENDBRANCH  64  68
ENDBRANCH  47  61
BRANCH  48  72
ATOM     72  C   UNL A   1      42.498  25.845  27.377  1.00  0.00     0.023 A 
ATOM     73  C   UNL A   1      42.113  24.496  27.298  1.00  0.00     0.031 A 
ATOM     74  C   UNL A   1      43.246  26.379  26.314  1.00  0.00     0.131 A 
ATOM     75  C   UNL A   1      42.515  23.714  26.205  1.00  0.00     0.055 A 
ATOM     76  C   UNL A   1      43.602  25.610  25.203  1.00  0.00     0.041 A 
ATOM     77  F   UNL A   1      43.633  27.665  26.333  1.00  0.00    -0.206 F 
ATOM     78  C   UNL A   1      43.248  24.266  25.151  1.00  0.00     0.022 A 
BRANCH  75  79
ATOM     79  S   UNL A   1      42.136  21.941  26.219  1.00  0.00     0.124 S 
ATOM     80  O   UNL A   1      42.974  21.449  25.130  1.00  0.00    -0.237 OA
ATOM     81  O   UNL A   1      42.542  21.556  27.565  1.00  0.00    -0.237 OA
ATOM     82  O   UNL A   1      40.697  21.899  25.967  1.00  0.00    -0.744 OA
ENDBRANCH  75  79
ENDBRANCH  48  72
BRANCH  60  83
ATOM     83  C   UNL A   1      45.579  26.828  33.553  1.00  0.00     0.023 A 
ATOM     84  C   UNL A   1      45.489  25.628  34.279  1.00  0.00     0.031 A 
ATOM     85  C   UNL A   1      46.840  27.438  33.431  1.00  0.00     0.131 A 
ATOM     86  C   UNL A   1      46.631  25.100  34.897  1.00  0.00     0.055 A 
ATOM     87  C   UNL A   1      47.983  26.878  34.002  1.00  0.00     0.041 A 
ATOM     88  F   UNL A   1      46.981  28.586  32.748  1.00  0.00    -0.206 F 
ATOM     89  C   UNL A   1      47.880  25.709  34.750  1.00  0.00     0.022 A 
BRANCH  86  90
ATOM     90  S   UNL A   1      46.450  23.644  35.963  1.00  0.00     0.124 S 
ATOM     91  O   UNL A   1      47.090  24.092  37.197  1.00  0.00    -0.237 OA
ATOM     92  O   UNL A   1      45.002  23.477  36.022  1.00  0.00    -0.237 OA
ATOM     93  O   UNL A   1      47.166  22.597  35.238  1.00  0.00    -0.744 OA
ENDBRANCH  86  90
ENDBRANCH  60  83
ENDBRANCH  34  35
ENDBRANCH  26  29
ENDBRANCH   1  25
TORSDOF 14
ENDMDL
