MODEL 1
REMARK VINA RESULT:     -11.1      0.000      0.000
REMARK SMILES Cc1cc(C)c(C#N)c(NC[C@H](CC(C)C)C(=O)NCCCNC(=O)c2ccc(-c3c4nc(c(-c5cc(S(=O)(=O)[O-])ccc5F)c5ccc([nH]5)c(-c5cc(S(=O)(=O)[O-])ccc5F)c5nc(c(-c6cc(S(=O)(=O)[O-])ccc6F)c6ccc3[nH]6)C=C5)C=C4)cc2)n1
REMARK SMILES IDX 20 1 19 2 17 3 18 4 12 6 11 7 10 8 9 10 1 11 2 12 3 13 89 14
REMARK SMILES IDX 4 15 5 16 6 17 7 18 8 19 13 20 14 21 15 22 16 23 21 24 22 25
REMARK SMILES IDX 23 26 24 27 25 29 26 30 27 31 88 32 28 33 87 34 29 35 30 36
REMARK SMILES IDX 31 37 81 38 32 39 86 40 80 41 82 42 33 43 85 44 79 45 78 46
REMARK SMILES IDX 34 48 66 49 46 50 65 51 47 52 50 53 64 54 83 55 48 56 49 57
REMARK SMILES IDX 63 59 84 60 51 61 35 62 36 63 44 64 37 65 43 66 45 67 42 68
REMARK SMILES IDX 38 69 39 70 40 71 41 72 67 73 68 74 76 75 69 76 75 77 77 78
REMARK SMILES IDX 74 79 70 80 71 81 72 82 73 83 52 84 53 85 61 86 54 87 60 88
REMARK SMILES IDX 62 89 59 90 55 91 56 92 57 93 58 94
REMARK H PARENT 19 5 10 9 23 28 82 47 50 58
REMARK Flexibility Score: inf
ROOT
ATOM      1  C   UNL A   1      32.664  26.810  26.253  1.00  0.00     0.117 C 
ENDROOT
BRANCH   1   2
ATOM      2  N   UNL A   1      31.590  25.969  26.735  1.00  0.00    -0.356 N 
ATOM      3  C   UNL A   1      30.857  24.999  26.137  1.00  0.00     0.224 C 
ATOM      4  O   UNL A   1      30.038  24.426  26.872  1.00  0.00    -0.275 OA
ATOM      5  H   UNL A   1      31.347  26.131  27.675  1.00  0.00     0.163 HD
BRANCH   3   6
ATOM      6  C   UNL A   1      30.965  24.574  24.664  1.00  0.00     0.098 C 
BRANCH   6   7
ATOM      7  C   UNL A   1      32.217  23.780  24.262  1.00  0.00     0.128 C 
BRANCH   7   8
ATOM      8  N   UNL A   1      32.886  22.994  25.274  1.00  0.00    -0.368 N 
ATOM      9  H   UNL A   1      32.426  22.949  26.143  1.00  0.00     0.162 HD
BRANCH   8  10
ATOM     10  C   UNL A   1      34.067  22.301  25.198  1.00  0.00     0.144 A 
ATOM     11  C   UNL A   1      37.511  23.605  25.598  1.00  0.00     0.067 C 
ATOM     12  C   UNL A   1      36.387  22.631  25.390  1.00  0.00     0.040 A 
ATOM     13  C   UNL A   1      36.651  21.284  25.210  1.00  0.00     0.028 A 
ATOM     14  N   UNL A   1      35.126  23.129  25.389  1.00  0.00    -0.235 NA
ATOM     15  C   UNL A   1      35.580  20.413  25.008  1.00  0.00    -0.028 A 
ATOM     16  C   UNL A   1      35.849  18.944  24.813  1.00  0.00     0.046 C 
ATOM     17  C   UNL A   1      34.264  20.931  24.993  1.00  0.00     0.097 A 
BRANCH  17  18
ATOM     18  C   UNL A   1      33.197  20.012  24.744  1.00  0.00     0.103 C 
ATOM     19  N   UNL A   1      32.284  19.307  24.586  1.00  0.00    -0.192 NA
ENDBRANCH  17  18
ENDBRANCH   8  10
ENDBRANCH   7   8
ENDBRANCH   6   7
BRANCH   6  20
ATOM     20  C   UNL A   1      30.203  25.382  23.586  1.00  0.00     0.018 C 
BRANCH  20  21
ATOM     21  C   UNL A   1      29.535  26.711  23.928  1.00  0.00    -0.017 C 
ATOM     22  C   UNL A   1      29.925  27.871  23.025  1.00  0.00     0.007 C 
ATOM     23  C   UNL A   1      28.008  26.588  23.968  1.00  0.00     0.007 C 
ENDBRANCH  20  21
ENDBRANCH   6  20
ENDBRANCH   3   6
ENDBRANCH   1   2
BRANCH   1  24
ATOM     24  C   UNL A   1      32.415  28.280  26.549  1.00  0.00     0.042 C 
BRANCH  24  25
ATOM     25  C   UNL A   1      33.455  29.230  26.014  1.00  0.00     0.118 C 
BRANCH  25  26
ATOM     26  N   UNL A   1      33.211  30.603  26.413  1.00  0.00    -0.352 N 
ATOM     27  C   UNL A   1      33.850  31.400  27.330  1.00  0.00     0.251 C 
ATOM     28  H   UNL A   1      32.458  31.036  25.949  1.00  0.00     0.163 HD
ATOM     29  O   UNL A   1      33.317  32.462  27.648  1.00  0.00    -0.269 OA
BRANCH  27  30
ATOM     30  C   UNL A   1      35.136  30.997  27.952  1.00  0.00     0.039 A 
ATOM     31  C   UNL A   1      35.238  29.713  28.494  1.00  0.00     0.014 A 
ATOM     32  C   UNL A   1      36.228  31.862  28.051  1.00  0.00     0.014 A 
ATOM     33  C   UNL A   1      36.429  29.303  29.093  1.00  0.00     0.010 A 
ATOM     34  C   UNL A   1      37.461  31.397  28.494  1.00  0.00     0.010 A 
ATOM     35  C   UNL A   1      37.566  30.128  29.067  1.00  0.00    -0.014 A 
BRANCH  35  36
ATOM     36  C   UNL A   1      38.841  29.686  29.689  1.00  0.00     0.031 A 
ATOM     37  C   UNL A   1      39.246  30.197  31.049  1.00  0.00     0.074 A 
ATOM     38  C   UNL A   1      39.627  28.815  29.025  1.00  0.00     0.049 A 
ATOM     39  N   UNL A   1      40.287  29.879  31.774  1.00  0.00    -0.248 NA
ATOM     40  C   UNL A   1      38.390  31.225  31.664  1.00  0.00     0.031 C 
ATOM     41  C   UNL A   1      39.364  28.303  27.677  1.00  0.00     0.029 A 
ATOM     42  N   UNL A   1      40.787  28.186  29.397  1.00  0.00    -0.354 N 
ATOM     43  C   UNL A   1      40.209  30.663  32.921  1.00  0.00     0.074 A 
ATOM     44  C   UNL A   1      39.071  31.537  32.755  1.00  0.00     0.031 C 
ATOM     45  C   UNL A   1      40.291  27.384  27.368  1.00  0.00     0.029 A 
ATOM     46  C   UNL A   1      41.248  27.286  28.464  1.00  0.00     0.049 A 
ATOM     47  H   UNL A   1      41.246  28.361  30.249  1.00  0.00     0.167 HD
ATOM     48  C   UNL A   1      40.992  30.632  34.027  1.00  0.00     0.034 A 
ATOM     49  C   UNL A   1      42.320  26.470  28.490  1.00  0.00     0.034 A 
ATOM     50  C   UNL A   1      42.120  29.748  34.174  1.00  0.00     0.049 A 
ATOM     51  C   UNL A   1      43.189  26.472  29.721  1.00  0.00     0.074 A 
ATOM     52  C   UNL A   1      42.960  29.596  35.263  1.00  0.00     0.029 A 
ATOM     53  N   UNL A   1      42.577  28.872  33.196  1.00  0.00    -0.354 N 
ATOM     54  N   UNL A   1      43.061  27.175  30.825  1.00  0.00    -0.248 NA
ATOM     55  C   UNL A   1      44.334  25.558  29.717  1.00  0.00     0.031 C 
ATOM     56  C   UNL A   1      43.974  28.699  34.912  1.00  0.00     0.029 A 
ATOM     57  C   UNL A   1      43.709  28.208  33.642  1.00  0.00     0.049 A 
ATOM     58  H   UNL A   1      42.158  28.742  32.315  1.00  0.00     0.167 HD
ATOM     59  C   UNL A   1      44.097  26.762  31.658  1.00  0.00     0.074 A 
ATOM     60  C   UNL A   1      44.814  25.728  30.939  1.00  0.00     0.031 C 
ATOM     61  C   UNL A   1      44.427  27.194  32.903  1.00  0.00     0.034 A 
BRANCH  48  62
ATOM     62  C   UNL A   1      40.665  31.600  35.143  1.00  0.00     0.023 A 
ATOM     63  C   UNL A   1      39.643  31.342  36.076  1.00  0.00     0.031 A 
ATOM     64  C   UNL A   1      41.371  32.811  35.266  1.00  0.00     0.131 A 
ATOM     65  C   UNL A   1      39.305  32.310  37.035  1.00  0.00     0.055 A 
ATOM     66  C   UNL A   1      41.092  33.728  36.281  1.00  0.00     0.041 A 
ATOM     67  F   UNL A   1      42.338  33.129  34.391  1.00  0.00    -0.206 F 
ATOM     68  C   UNL A   1      40.045  33.488  37.163  1.00  0.00     0.022 A 
BRANCH  65  69
ATOM     69  S   UNL A   1      37.790  32.079  38.004  1.00  0.00     0.124 S 
ATOM     70  O   UNL A   1      36.905  33.078  37.411  1.00  0.00    -0.237 OA
ATOM     71  O   UNL A   1      37.452  30.686  37.736  1.00  0.00    -0.237 OA
ATOM     72  O   UNL A   1      38.211  32.367  39.374  1.00  0.00    -0.744 OA
ENDBRANCH  65  69
ENDBRANCH  48  62
BRANCH  49  73
ATOM     73  C   UNL A   1      42.635  25.592  27.325  1.00  0.00     0.023 A 
ATOM     74  C   UNL A   1      42.181  24.266  27.267  1.00  0.00     0.031 A 
ATOM     75  C   UNL A   1      43.438  26.058  26.267  1.00  0.00     0.131 A 
ATOM     76  C   UNL A   1      42.578  23.435  26.208  1.00  0.00     0.055 A 
ATOM     77  C   UNL A   1      43.774  25.249  25.181  1.00  0.00     0.041 A 
ATOM     78  F   UNL A   1      43.902  27.319  26.269  1.00  0.00    -0.206 F 
ATOM     79  C   UNL A   1      43.357  23.923  25.156  1.00  0.00     0.022 A 
BRANCH  76  80
ATOM     80  S   UNL A   1      42.159  21.671  26.282  1.00  0.00     0.124 S 
ATOM     81  O   UNL A   1      40.769  21.679  25.842  1.00  0.00    -0.237 OA
ATOM     82  O   UNL A   1      43.123  21.091  25.355  1.00  0.00    -0.237 OA
ATOM     83  O   UNL A   1      42.366  21.332  27.689  1.00  0.00    -0.744 OA
ENDBRANCH  76  80
ENDBRANCH  49  73
BRANCH  61  84
ATOM     84  C   UNL A   1      45.596  26.511  33.573  1.00  0.00     0.023 A 
ATOM     85  C   UNL A   1      45.441  25.309  34.284  1.00  0.00     0.031 A 
ATOM     86  C   UNL A   1      46.874  27.100  33.543  1.00  0.00     0.131 A 
ATOM     87  C   UNL A   1      46.517  24.788  35.017  1.00  0.00     0.055 A 
ATOM     88  C   UNL A   1      47.964  26.525  34.197  1.00  0.00     0.041 A 
ATOM     89  F   UNL A   1      47.083  28.250  32.884  1.00  0.00    -0.206 F 
ATOM     90  C   UNL A   1      47.783  25.375  34.960  1.00  0.00     0.022 A 
BRANCH  87  91
ATOM     91  S   UNL A   1      46.194  23.432  36.177  1.00  0.00     0.124 S 
ATOM     92  O   UNL A   1      47.106  22.400  35.695  1.00  0.00    -0.237 OA
ATOM     93  O   UNL A   1      46.535  24.034  37.462  1.00  0.00    -0.237 OA
ATOM     94  O   UNL A   1      44.774  23.147  35.983  1.00  0.00    -0.744 OA
ENDBRANCH  87  91
ENDBRANCH  61  84
ENDBRANCH  35  36
ENDBRANCH  27  30
ENDBRANCH  25  26
ENDBRANCH  24  25
ENDBRANCH   1  24
TORSDOF 19
ENDMDL
MODEL 2
REMARK VINA RESULT:     -11.1      1.926      3.609
REMARK SMILES Cc1cc(C)c(C#N)c(NC[C@H](CC(C)C)C(=O)NCCCNC(=O)c2ccc(-c3c4nc(c(-c5cc(S(=O)(=O)[O-])ccc5F)c5ccc([nH]5)c(-c5cc(S(=O)(=O)[O-])ccc5F)c5nc(c(-c6cc(S(=O)(=O)[O-])ccc6F)c6ccc3[nH]6)C=C5)C=C4)cc2)n1
REMARK SMILES IDX 20 1 19 2 17 3 18 4 12 6 11 7 10 8 9 10 1 11 2 12 3 13 89 14
REMARK SMILES IDX 4 15 5 16 6 17 7 18 8 19 13 20 14 21 15 22 16 23 21 24 22 25
REMARK SMILES IDX 23 26 24 27 25 29 26 30 27 31 88 32 28 33 87 34 29 35 30 36
REMARK SMILES IDX 31 37 81 38 32 39 86 40 80 41 82 42 33 43 85 44 79 45 78 46
REMARK SMILES IDX 34 48 66 49 46 50 65 51 47 52 50 53 64 54 83 55 48 56 49 57
REMARK SMILES IDX 63 59 84 60 51 61 35 62 36 63 44 64 37 65 43 66 45 67 42 68
REMARK SMILES IDX 38 69 39 70 40 71 41 72 67 73 68 74 76 75 69 76 75 77 77 78
REMARK SMILES IDX 74 79 70 80 71 81 72 82 73 83 52 84 53 85 61 86 54 87 60 88
REMARK SMILES IDX 62 89 59 90 55 91 56 92 57 93 58 94
REMARK H PARENT 19 5 10 9 23 28 82 47 50 58
REMARK Flexibility Score: inf
ROOT
ATOM      1  C   UNL A   1      32.489  26.838  26.046  1.00  0.00     0.117 C 
ENDROOT
BRANCH   1   2
ATOM      2  N   UNL A   1      31.554  25.904  26.635  1.00  0.00    -0.356 N 
ATOM      3  C   UNL A   1      31.168  24.657  26.277  1.00  0.00     0.224 C 
ATOM      4  O   UNL A   1      30.373  24.105  27.053  1.00  0.00    -0.275 OA
ATOM      5  H   UNL A   1      31.116  26.239  27.450  1.00  0.00     0.163 HD
BRANCH   3   6
ATOM      6  C   UNL A   1      31.628  23.902  25.019  1.00  0.00     0.098 C 
BRANCH   6   7
ATOM      7  C   UNL A   1      30.658  23.883  23.828  1.00  0.00     0.128 C 
BRANCH   7   8
ATOM      8  N   UNL A   1      30.873  24.824  22.752  1.00  0.00    -0.368 N 
ATOM      9  H   UNL A   1      30.900  24.430  21.850  1.00  0.00     0.162 HD
BRANCH   8  10
ATOM     10  C   UNL A   1      31.045  26.183  22.805  1.00  0.00     0.144 A 
ATOM     11  C   UNL A   1      34.088  28.134  21.997  1.00  0.00     0.067 C 
ATOM     12  C   UNL A   1      32.672  27.830  22.395  1.00  0.00     0.040 A 
ATOM     13  C   UNL A   1      31.791  28.855  22.693  1.00  0.00     0.028 A 
ATOM     14  N   UNL A   1      32.309  26.524  22.445  1.00  0.00    -0.235 NA
ATOM     15  C   UNL A   1      30.488  28.530  23.070  1.00  0.00    -0.028 A 
ATOM     16  C   UNL A   1      29.516  29.634  23.396  1.00  0.00     0.046 C 
ATOM     17  C   UNL A   1      30.109  27.169  23.136  1.00  0.00     0.097 A 
BRANCH  17  18
ATOM     18  C   UNL A   1      28.776  26.876  23.564  1.00  0.00     0.103 C 
ATOM     19  N   UNL A   1      27.669  26.698  23.875  1.00  0.00    -0.192 NA
ENDBRANCH  17  18
ENDBRANCH   8  10
ENDBRANCH   7   8
ENDBRANCH   6   7
BRANCH   6  20
ATOM     20  C   UNL A   1      32.678  22.773  25.157  1.00  0.00     0.018 C 
BRANCH  20  21
ATOM     21  C   UNL A   1      34.122  22.987  24.711  1.00  0.00    -0.017 C 
ATOM     22  C   UNL A   1      34.280  23.507  23.289  1.00  0.00     0.007 C 
ATOM     23  C   UNL A   1      34.887  23.902  25.674  1.00  0.00     0.007 C 
ENDBRANCH  20  21
ENDBRANCH   6  20
ENDBRANCH   3   6
ENDBRANCH   1   2
BRANCH   1  24
ATOM     24  C   UNL A   1      32.138  28.281  26.371  1.00  0.00     0.042 C 
BRANCH  24  25
ATOM     25  C   UNL A   1      32.991  29.320  25.689  1.00  0.00     0.118 C 
BRANCH  25  26
ATOM     26  N   UNL A   1      32.660  30.669  26.107  1.00  0.00    -0.352 N 
ATOM     27  C   UNL A   1      33.197  31.464  27.089  1.00  0.00     0.251 C 
ATOM     28  H   UNL A   1      31.925  31.085  25.600  1.00  0.00     0.163 HD
ATOM     29  O   UNL A   1      32.598  32.493  27.396  1.00  0.00    -0.269 OA
BRANCH  27  30
ATOM     30  C   UNL A   1      34.451  31.094  27.793  1.00  0.00     0.039 A 
ATOM     31  C   UNL A   1      35.413  32.086  28.001  1.00  0.00     0.014 A 
ATOM     32  C   UNL A   1      34.719  29.791  28.218  1.00  0.00     0.014 A 
ATOM     33  C   UNL A   1      36.606  31.771  28.653  1.00  0.00     0.010 A 
ATOM     34  C   UNL A   1      35.827  29.519  29.012  1.00  0.00     0.010 A 
ATOM     35  C   UNL A   1      36.810  30.493  29.198  1.00  0.00    -0.014 A 
BRANCH  35  36
ATOM     36  C   UNL A   1      38.072  30.163  29.909  1.00  0.00     0.031 A 
ATOM     37  C   UNL A   1      38.311  30.658  31.314  1.00  0.00     0.074 A 
ATOM     38  C   UNL A   1      38.998  29.407  29.285  1.00  0.00     0.049 A 
ATOM     39  N   UNL A   1      39.320  30.421  32.112  1.00  0.00    -0.248 NA
ATOM     40  C   UNL A   1      37.303  31.563  31.889  1.00  0.00     0.031 C 
ATOM     41  C   UNL A   1      38.899  28.926  27.903  1.00  0.00     0.029 A 
ATOM     42  N   UNL A   1      40.186  28.889  29.731  1.00  0.00    -0.354 N 
ATOM     43  C   UNL A   1      39.067  31.145  33.273  1.00  0.00     0.074 A 
ATOM     44  C   UNL A   1      37.858  31.900  33.041  1.00  0.00     0.031 C 
ATOM     45  C   UNL A   1      39.942  28.124  27.642  1.00  0.00     0.029 A 
ATOM     46  C   UNL A   1      40.814  28.082  28.810  1.00  0.00     0.049 A 
ATOM     47  H   UNL A   1      40.555  29.077  30.623  1.00  0.00     0.167 HD
ATOM     48  C   UNL A   1      39.759  31.151  34.438  1.00  0.00     0.034 A 
ATOM     49  C   UNL A   1      41.963  27.383  28.899  1.00  0.00     0.034 A 
ATOM     50  C   UNL A   1      40.961  30.386  34.650  1.00  0.00     0.049 A 
ATOM     51  C   UNL A   1      42.727  27.426  30.197  1.00  0.00     0.074 A 
ATOM     52  C   UNL A   1      41.724  30.278  35.799  1.00  0.00     0.029 A 
ATOM     53  N   UNL A   1      41.586  29.604  33.685  1.00  0.00    -0.354 N 
ATOM     54  N   UNL A   1      42.437  28.066  31.308  1.00  0.00    -0.248 NA
ATOM     55  C   UNL A   1      43.961  26.638  30.258  1.00  0.00     0.031 C 
ATOM     56  C   UNL A   1      42.854  29.509  35.504  1.00  0.00     0.029 A 
ATOM     57  C   UNL A   1      42.745  29.045  34.202  1.00  0.00     0.049 A 
ATOM     58  H   UNL A   1      41.254  29.467  32.769  1.00  0.00     0.167 HD
ATOM     59  C   UNL A   1      43.442  27.730  32.211  1.00  0.00     0.074 A 
ATOM     60  C   UNL A   1      44.322  26.808  31.520  1.00  0.00     0.031 C 
ATOM     61  C   UNL A   1      43.624  28.144  33.492  1.00  0.00     0.034 A 
BRANCH  48  62
ATOM     62  C   UNL A   1      39.243  32.033  35.555  1.00  0.00     0.023 A 
ATOM     63  C   UNL A   1      39.641  33.377  35.686  1.00  0.00     0.031 A 
ATOM     64  C   UNL A   1      38.356  31.518  36.518  1.00  0.00     0.131 A 
ATOM     65  C   UNL A   1      39.218  34.131  36.791  1.00  0.00     0.055 A 
ATOM     66  C   UNL A   1      37.865  32.302  37.564  1.00  0.00     0.041 A 
ATOM     67  F   UNL A   1      37.961  30.236  36.466  1.00  0.00    -0.206 F 
ATOM     68  C   UNL A   1      38.307  33.612  37.714  1.00  0.00     0.022 A 
BRANCH  65  69
ATOM     69  S   UNL A   1      39.998  35.741  37.092  1.00  0.00     0.124 S 
ATOM     70  O   UNL A   1      39.653  36.468  35.872  1.00  0.00    -0.237 OA
ATOM     71  O   UNL A   1      39.337  36.190  38.311  1.00  0.00    -0.237 OA
ATOM     72  O   UNL A   1      41.416  35.414  37.232  1.00  0.00    -0.744 OA
ENDBRANCH  65  69
ENDBRANCH  48  62
BRANCH  49  73
ATOM     73  C   UNL A   1      42.462  26.592  27.736  1.00  0.00     0.023 A 
ATOM     74  C   UNL A   1      42.028  25.277  27.508  1.00  0.00     0.031 A 
ATOM     75  C   UNL A   1      43.420  27.128  26.856  1.00  0.00     0.131 A 
ATOM     76  C   UNL A   1      42.592  24.524  26.466  1.00  0.00     0.055 A 
ATOM     77  C   UNL A   1      43.927  26.400  25.779  1.00  0.00     0.041 A 
ATOM     78  F   UNL A   1      43.872  28.382  27.025  1.00  0.00    -0.206 F 
ATOM     79  C   UNL A   1      43.524  25.082  25.590  1.00  0.00     0.022 A 
BRANCH  76  80
ATOM     80  S   UNL A   1      42.173  22.763  26.342  1.00  0.00     0.124 S 
ATOM     81  O   UNL A   1      40.725  22.790  26.511  1.00  0.00    -0.237 OA
ATOM     82  O   UNL A   1      42.659  22.429  25.008  1.00  0.00    -0.237 OA
ATOM     83  O   UNL A   1      42.919  22.158  27.445  1.00  0.00    -0.744 OA
ENDBRANCH  76  80
ENDBRANCH  49  73
BRANCH  61  84
ATOM     84  C   UNL A   1      44.804  27.561  34.234  1.00  0.00     0.023 A 
ATOM     85  C   UNL A   1      44.714  26.339  34.923  1.00  0.00     0.031 A 
ATOM     86  C   UNL A   1      46.022  28.264  34.295  1.00  0.00     0.131 A 
ATOM     87  C   UNL A   1      45.782  25.908  35.723  1.00  0.00     0.055 A 
ATOM     88  C   UNL A   1      47.114  27.782  35.017  1.00  0.00     0.041 A 
ATOM     89  F   UNL A   1      46.167  29.438  33.662  1.00  0.00    -0.206 F 
ATOM     90  C   UNL A   1      46.989  26.609  35.757  1.00  0.00     0.022 A 
BRANCH  87  91
ATOM     91  S   UNL A   1      45.509  24.512  36.847  1.00  0.00     0.124 S 
ATOM     92  O   UNL A   1      44.097  24.665  37.180  1.00  0.00    -0.237 OA
ATOM     93  O   UNL A   1      45.846  23.366  36.008  1.00  0.00    -0.237 OA
ATOM     94  O   UNL A   1      46.437  24.771  37.946  1.00  0.00    -0.744 OA
ENDBRANCH  87  91
ENDBRANCH  61  84
ENDBRANCH  35  36
ENDBRANCH  27  30
ENDBRANCH  25  26
ENDBRANCH  24  25
ENDBRANCH   1  24
TORSDOF 19
ENDMDL
MODEL 3
REMARK VINA RESULT:     -11.0      1.915      3.608
REMARK SMILES Cc1cc(C)c(C#N)c(NC[C@H](CC(C)C)C(=O)NCCCNC(=O)c2ccc(-c3c4nc(c(-c5cc(S(=O)(=O)[O-])ccc5F)c5ccc([nH]5)c(-c5cc(S(=O)(=O)[O-])ccc5F)c5nc(c(-c6cc(S(=O)(=O)[O-])ccc6F)c6ccc3[nH]6)C=C5)C=C4)cc2)n1
REMARK SMILES IDX 20 1 19 2 17 3 18 4 12 6 11 7 10 8 9 10 1 11 2 12 3 13 89 14
REMARK SMILES IDX 4 15 5 16 6 17 7 18 8 19 13 20 14 21 15 22 16 23 21 24 22 25
REMARK SMILES IDX 23 26 24 27 25 29 26 30 27 31 88 32 28 33 87 34 29 35 30 36
REMARK SMILES IDX 31 37 81 38 32 39 86 40 80 41 82 42 33 43 85 44 79 45 78 46
REMARK SMILES IDX 34 48 66 49 46 50 65 51 47 52 50 53 64 54 83 55 48 56 49 57
REMARK SMILES IDX 63 59 84 60 51 61 35 62 36 63 44 64 37 65 43 66 45 67 42 68
REMARK SMILES IDX 38 69 39 70 40 71 41 72 67 73 68 74 76 75 69 76 75 77 77 78
REMARK SMILES IDX 74 79 70 80 71 81 72 82 73 83 52 84 53 85 61 86 54 87 60 88
REMARK SMILES IDX 62 89 59 90 55 91 56 92 57 93 58 94
REMARK H PARENT 19 5 10 9 23 28 82 47 50 58
REMARK Flexibility Score: inf
ROOT
ATOM      1  C   UNL A   1      32.851  26.843  26.195  1.00  0.00     0.117 C 
ENDROOT
BRANCH   1   2
ATOM      2  N   UNL A   1      31.762  25.999  26.636  1.00  0.00    -0.356 N 
ATOM      3  C   UNL A   1      31.322  24.789  26.216  1.00  0.00     0.224 C 
ATOM      4  O   UNL A   1      30.378  24.313  26.866  1.00  0.00    -0.275 OA
ATOM      5  H   UNL A   1      31.243  26.375  27.383  1.00  0.00     0.163 HD
BRANCH   3   6
ATOM      6  C   UNL A   1      31.889  23.990  25.031  1.00  0.00     0.098 C 
BRANCH   6   7
ATOM      7  C   UNL A   1      30.974  23.820  23.809  1.00  0.00     0.128 C 
BRANCH   7   8
ATOM      8  N   UNL A   1      31.007  24.835  22.780  1.00  0.00    -0.368 N 
ATOM      9  H   UNL A   1      30.884  24.505  21.861  1.00  0.00     0.162 HD
BRANCH   8  10
ATOM     10  C   UNL A   1      31.182  26.190  22.899  1.00  0.00     0.144 A 
ATOM     11  C   UNL A   1      34.230  28.171  22.188  1.00  0.00     0.067 C 
ATOM     12  C   UNL A   1      32.813  27.851  22.569  1.00  0.00     0.040 A 
ATOM     13  C   UNL A   1      31.934  28.863  22.917  1.00  0.00     0.028 A 
ATOM     14  N   UNL A   1      32.447  26.545  22.556  1.00  0.00    -0.235 NA
ATOM     15  C   UNL A   1      30.630  28.523  23.277  1.00  0.00    -0.028 A 
ATOM     16  C   UNL A   1      29.661  29.612  23.655  1.00  0.00     0.046 C 
ATOM     17  C   UNL A   1      30.248  27.162  23.276  1.00  0.00     0.097 A 
BRANCH  17  18
ATOM     18  C   UNL A   1      28.915  26.851  23.690  1.00  0.00     0.103 C 
ATOM     19  N   UNL A   1      27.825  26.549  23.969  1.00  0.00    -0.192 NA
ENDBRANCH  17  18
ENDBRANCH   8  10
ENDBRANCH   7   8
ENDBRANCH   6   7
BRANCH   6  20
ATOM     20  C   UNL A   1      33.012  22.956  25.285  1.00  0.00     0.018 C 
BRANCH  20  21
ATOM     21  C   UNL A   1      33.865  23.019  26.549  1.00  0.00    -0.017 C 
ATOM     22  C   UNL A   1      34.009  21.696  27.287  1.00  0.00     0.007 C 
ATOM     23  C   UNL A   1      35.255  23.600  26.271  1.00  0.00     0.007 C 
ENDBRANCH  20  21
ENDBRANCH   6  20
ENDBRANCH   3   6
ENDBRANCH   1   2
BRANCH   1  24
ATOM     24  C   UNL A   1      32.604  28.308  26.514  1.00  0.00     0.042 C 
BRANCH  24  25
ATOM     25  C   UNL A   1      33.689  29.256  26.071  1.00  0.00     0.118 C 
BRANCH  25  26
ATOM     26  N   UNL A   1      33.505  30.595  26.596  1.00  0.00    -0.352 N 
ATOM     27  C   UNL A   1      34.182  31.279  27.574  1.00  0.00     0.251 C 
ATOM     28  H   UNL A   1      32.767  31.098  26.181  1.00  0.00     0.163 HD
ATOM     29  O   UNL A   1      33.696  32.328  27.993  1.00  0.00    -0.269 OA
BRANCH  27  30
ATOM     30  C   UNL A   1      35.455  30.769  28.144  1.00  0.00     0.039 A 
ATOM     31  C   UNL A   1      36.647  31.399  27.778  1.00  0.00     0.014 A 
ATOM     32  C   UNL A   1      35.508  29.664  28.997  1.00  0.00     0.014 A 
ATOM     33  C   UNL A   1      37.861  30.941  28.289  1.00  0.00     0.010 A 
ATOM     34  C   UNL A   1      36.694  29.318  29.634  1.00  0.00     0.010 A 
ATOM     35  C   UNL A   1      37.895  29.919  29.252  1.00  0.00    -0.014 A 
BRANCH  35  36
ATOM     36  C   UNL A   1      39.186  29.443  29.811  1.00  0.00     0.031 A 
ATOM     37  C   UNL A   1      39.691  29.975  31.130  1.00  0.00     0.074 A 
ATOM     38  C   UNL A   1      39.897  28.523  29.129  1.00  0.00     0.049 A 
ATOM     39  N   UNL A   1      40.761  29.634  31.801  1.00  0.00    -0.248 NA
ATOM     40  C   UNL A   1      38.914  31.052  31.763  1.00  0.00     0.031 C 
ATOM     41  C   UNL A   1      39.535  27.985  27.814  1.00  0.00     0.029 A 
ATOM     42  N   UNL A   1      41.051  27.858  29.450  1.00  0.00    -0.354 N 
ATOM     43  C   UNL A   1      40.782  30.451  32.927  1.00  0.00     0.074 A 
ATOM     44  C   UNL A   1      39.671  31.366  32.801  1.00  0.00     0.031 C 
ATOM     45  C   UNL A   1      40.405  27.022  27.478  1.00  0.00     0.029 A 
ATOM     46  C   UNL A   1      41.421  26.915  28.519  1.00  0.00     0.049 A 
ATOM     47  H   UNL A   1      41.567  28.038  30.268  1.00  0.00     0.167 HD
ATOM     48  C   UNL A   1      41.627  30.419  33.986  1.00  0.00     0.034 A 
ATOM     49  C   UNL A   1      42.461  26.057  28.507  1.00  0.00     0.034 A 
ATOM     50  C   UNL A   1      42.727  29.495  34.093  1.00  0.00     0.049 A 
ATOM     51  C   UNL A   1      43.401  26.058  29.684  1.00  0.00     0.074 A 
ATOM     52  C   UNL A   1      43.624  29.339  35.134  1.00  0.00     0.029 A 
ATOM     53  N   UNL A   1      43.090  28.575  33.116  1.00  0.00    -0.354 N 
ATOM     54  N   UNL A   1      43.366  26.795  30.772  1.00  0.00    -0.248 NA
ATOM     55  C   UNL A   1      44.507  25.098  29.640  1.00  0.00     0.031 C 
ATOM     56  C   UNL A   1      44.580  28.393  34.751  1.00  0.00     0.029 A 
ATOM     57  C   UNL A   1      44.221  27.878  33.515  1.00  0.00     0.049 A 
ATOM     58  H   UNL A   1      42.615  28.438  32.265  1.00  0.00     0.167 HD
ATOM     59  C   UNL A   1      44.433  26.363  31.555  1.00  0.00     0.074 A 
ATOM     60  C   UNL A   1      45.066  25.282  30.826  1.00  0.00     0.031 C 
ATOM     61  C   UNL A   1      44.853  26.816  32.765  1.00  0.00     0.034 A 
BRANCH  48  62
ATOM     62  C   UNL A   1      41.406  31.430  35.090  1.00  0.00     0.023 A 
ATOM     63  C   UNL A   1      40.308  31.345  35.967  1.00  0.00     0.031 A 
ATOM     64  C   UNL A   1      42.293  32.509  35.257  1.00  0.00     0.131 A 
ATOM     65  C   UNL A   1      40.084  32.357  36.913  1.00  0.00     0.055 A 
ATOM     66  C   UNL A   1      42.116  33.462  36.262  1.00  0.00     0.041 A 
ATOM     67  F   UNL A   1      43.344  32.662  34.436  1.00  0.00    -0.206 F 
ATOM     68  C   UNL A   1      40.998  33.398  37.087  1.00  0.00     0.022 A 
BRANCH  65  69
ATOM     69  S   UNL A   1      38.502  32.380  37.800  1.00  0.00     0.124 S 
ATOM     70  O   UNL A   1      37.950  33.668  37.387  1.00  0.00    -0.237 OA
ATOM     71  O   UNL A   1      37.828  31.198  37.276  1.00  0.00    -0.237 OA
ATOM     72  O   UNL A   1      38.896  32.303  39.206  1.00  0.00    -0.744 OA
ENDBRANCH  65  69
ENDBRANCH  48  62
BRANCH  49  73
ATOM     73  C   UNL A   1      42.671  25.136  27.351  1.00  0.00     0.023 A 
ATOM     74  C   UNL A   1      42.124  23.843  27.340  1.00  0.00     0.031 A 
ATOM     75  C   UNL A   1      43.465  25.522  26.256  1.00  0.00     0.131 A 
ATOM     76  C   UNL A   1      42.424  22.965  26.287  1.00  0.00     0.055 A 
ATOM     77  C   UNL A   1      43.703  24.670  25.177  1.00  0.00     0.041 A 
ATOM     78  F   UNL A   1      44.014  26.748  26.212  1.00  0.00    -0.206 F 
ATOM     79  C   UNL A   1      43.195  23.376  25.197  1.00  0.00     0.022 A 
BRANCH  76  80
ATOM     80  S   UNL A   1      41.887  21.237  26.417  1.00  0.00     0.124 S 
ATOM     81  O   UNL A   1      42.713  20.593  25.402  1.00  0.00    -0.237 OA
ATOM     82  O   UNL A   1      42.210  20.922  27.803  1.00  0.00    -0.237 OA
ATOM     83  O   UNL A   1      40.459  21.302  26.110  1.00  0.00    -0.744 OA
ENDBRANCH  76  80
ENDBRANCH  49  73
BRANCH  61  84
ATOM     84  C   UNL A   1      46.033  26.105  33.385  1.00  0.00     0.023 A 
ATOM     85  C   UNL A   1      47.357  26.434  33.044  1.00  0.00     0.031 A 
ATOM     86  C   UNL A   1      45.829  25.049  34.292  1.00  0.00     0.131 A 
ATOM     87  C   UNL A   1      48.416  25.652  33.525  1.00  0.00     0.055 A 
ATOM     88  C   UNL A   1      46.894  24.335  34.842  1.00  0.00     0.041 A 
ATOM     89  F   UNL A   1      44.588  24.686  34.653  1.00  0.00    -0.206 F 
ATOM     90  C   UNL A   1      48.196  24.619  34.439  1.00  0.00     0.022 A 
BRANCH  87  91
ATOM     91  S   UNL A   1      50.064  25.896  32.809  1.00  0.00     0.124 S 
ATOM     92  O   UNL A   1      50.285  24.628  32.123  1.00  0.00    -0.237 OA
ATOM     93  O   UNL A   1      49.860  27.058  31.950  1.00  0.00    -0.237 OA
ATOM     94  O   UNL A   1      50.913  26.128  33.975  1.00  0.00    -0.744 OA
ENDBRANCH  87  91
ENDBRANCH  61  84
ENDBRANCH  35  36
ENDBRANCH  27  30
ENDBRANCH  25  26
ENDBRANCH  24  25
ENDBRANCH   1  24
TORSDOF 19
ENDMDL
