MODEL 1
REMARK VINA RESULT:     -13.7      0.000      0.000
REMARK SMILES Cc1ccccc1NC(=O)CSc1nc(C(=O)NCCCNC(=O)c2ccc(-c3c4nc(c(-c5cc(S(=O)(=O)[O-])ccc5F)c5ccc([nH]5)c(-c5cc(S(=O)(=O)[O-])ccc5F)c5nc(c(-c6cc(S(=O)(=O)[O-])ccc6F)c6ccc3[nH]6)C=C5)C=C4)cc2)c2ccccc2n1
REMARK SMILES IDX 19 1 18 2 16 3 17 4 15 6 13 7 14 8 94 9 93 10 88 11 92 12
REMARK SMILES IDX 89 13 91 14 90 15 12 16 11 17 9 18 8 19 10 21 7 22 1 23 2 24
REMARK SMILES IDX 3 25 4 26 6 27 5 28 20 29 21 30 22 31 23 32 24 34 25 35
REMARK SMILES IDX 26 36 87 37 27 38 86 39 28 40 29 41 30 42 80 43 31 44 85 45
REMARK SMILES IDX 79 46 81 47 32 48 84 49 78 50 77 51 33 53 65 54 45 55 64 56
REMARK SMILES IDX 46 57 49 58 63 59 82 60 47 61 48 62 62 64 83 65 50 66 34 67
REMARK SMILES IDX 35 68 43 69 36 70 42 71 44 72 41 73 37 74 38 75 39 76 40 77
REMARK SMILES IDX 66 78 67 79 75 80 68 81 74 82 76 83 73 84 69 85 70 86 71 87
REMARK SMILES IDX 72 88 51 89 52 90 60 91 53 92 59 93 61 94 58 95 54 96 55 97
REMARK SMILES IDX 56 98 57 99
REMARK H PARENT 18 5 8 20 22 33 81 52 49 63
REMARK Flexibility Score: inf
ROOT
ATOM      1  C   UNL A   1      31.937  29.905  25.798  1.00  0.00     0.118 C 
ENDROOT
BRANCH   1   2
ATOM      2  N   UNL A   1      32.837  29.717  24.668  1.00  0.00    -0.351 N 
ATOM      3  C   UNL A   1      32.677  28.935  23.536  1.00  0.00     0.270 C 
ATOM      4  O   UNL A   1      33.580  28.856  22.704  1.00  0.00    -0.267 OA
ATOM      5  H   UNL A   1      33.683  30.220  24.716  1.00  0.00     0.163 HD
BRANCH   3   6
ATOM      6  C   UNL A   1      31.444  28.101  23.345  1.00  0.00     0.140 A 
ATOM      7  C   UNL A   1      30.482  26.110  23.851  1.00  0.00     0.189 A 
ATOM      8  N   UNL A   1      31.595  26.826  23.774  1.00  0.00    -0.217 NA
ATOM      9  N   UNL A   1      29.242  26.585  23.673  1.00  0.00    -0.222 NA
ATOM     10  C   UNL A   1      29.126  27.843  23.234  1.00  0.00     0.076 A 
ATOM     11  C   UNL A   1      30.224  28.637  22.916  1.00  0.00     0.032 A 
ATOM     12  C   UNL A   1      27.857  28.402  23.130  1.00  0.00     0.029 A 
ATOM     13  C   UNL A   1      30.018  29.894  22.287  1.00  0.00     0.013 A 
ATOM     14  C   UNL A   1      27.659  29.705  22.661  1.00  0.00     0.002 A 
ATOM     15  C   UNL A   1      28.742  30.440  22.200  1.00  0.00     0.001 A 
BRANCH   7  16
ATOM     16  S   UNL A   1      30.629  24.407  24.295  1.00  0.00    -0.076 SA
BRANCH  16  17
ATOM     17  C   UNL A   1      30.857  24.594  26.090  1.00  0.00     0.178 C 
BRANCH  17  18
ATOM     18  C   UNL A   1      30.816  23.290  26.860  1.00  0.00     0.234 C 
ATOM     19  N   UNL A   1      31.804  22.354  26.886  1.00  0.00    -0.325 N 
ATOM     20  H   UNL A   1      31.568  21.582  27.449  1.00  0.00     0.169 HD
ATOM     21  O   UNL A   1      29.802  22.992  27.506  1.00  0.00    -0.274 OA
BRANCH  19  22
ATOM     22  C   UNL A   1      33.081  22.212  26.308  1.00  0.00     0.044 A 
ATOM     23  C   UNL A   1      32.158  20.474  24.615  1.00  0.00     0.046 C 
ATOM     24  C   UNL A   1      33.260  21.277  25.260  1.00  0.00    -0.027 A 
ATOM     25  C   UNL A   1      34.560  21.029  24.770  1.00  0.00     0.005 A 
ATOM     26  C   UNL A   1      35.661  21.717  25.266  1.00  0.00     0.000 A 
ATOM     27  C   UNL A   1      34.191  22.951  26.726  1.00  0.00     0.026 A 
ATOM     28  C   UNL A   1      35.472  22.695  26.228  1.00  0.00     0.002 A 
ENDBRANCH  19  22
ENDBRANCH  17  18
ENDBRANCH  16  17
ENDBRANCH   7  16
ENDBRANCH   3   6
ENDBRANCH   1   2
BRANCH   1  29
ATOM     29  C   UNL A   1      32.429  30.851  26.871  1.00  0.00     0.042 C 
BRANCH  29  30
ATOM     30  C   UNL A   1      33.630  30.306  27.627  1.00  0.00     0.118 C 
BRANCH  30  31
ATOM     31  N   UNL A   1      34.376  31.341  28.360  1.00  0.00    -0.352 N 
ATOM     32  C   UNL A   1      35.672  31.302  28.856  1.00  0.00     0.251 C 
ATOM     33  H   UNL A   1      33.886  32.180  28.520  1.00  0.00     0.163 HD
ATOM     34  O   UNL A   1      36.207  32.233  29.421  1.00  0.00    -0.269 OA
BRANCH  32  35
ATOM     35  C   UNL A   1      36.439  30.071  28.572  1.00  0.00     0.039 A 
ATOM     36  C   UNL A   1      36.650  29.228  29.667  1.00  0.00     0.014 A 
ATOM     37  C   UNL A   1      37.282  30.070  27.463  1.00  0.00     0.014 A 
ATOM     38  C   UNL A   1      37.875  28.590  29.785  1.00  0.00     0.010 A 
ATOM     39  C   UNL A   1      38.528  29.484  27.616  1.00  0.00     0.010 A 
ATOM     40  C   UNL A   1      38.855  28.846  28.826  1.00  0.00    -0.014 A 
BRANCH  40  41
ATOM     41  C   UNL A   1      40.278  28.682  29.127  1.00  0.00     0.031 A 
ATOM     42  C   UNL A   1      41.000  27.483  28.665  1.00  0.00     0.074 A 
ATOM     43  C   UNL A   1      40.947  29.618  29.843  1.00  0.00     0.049 A 
ATOM     44  N   UNL A   1      42.084  27.042  29.208  1.00  0.00    -0.248 NA
ATOM     45  C   UNL A   1      40.492  26.608  27.611  1.00  0.00     0.031 C 
ATOM     46  C   UNL A   1      42.392  29.716  30.046  1.00  0.00     0.029 A 
ATOM     47  N   UNL A   1      40.409  30.516  30.770  1.00  0.00    -0.354 N 
ATOM     48  C   UNL A   1      42.579  26.052  28.397  1.00  0.00     0.074 A 
ATOM     49  C   UNL A   1      41.482  25.714  27.530  1.00  0.00     0.031 C 
ATOM     50  C   UNL A   1      42.627  30.375  31.189  1.00  0.00     0.029 A 
ATOM     51  C   UNL A   1      41.346  30.628  31.818  1.00  0.00     0.049 A 
ATOM     52  H   UNL A   1      39.544  30.981  30.703  1.00  0.00     0.167 HD
ATOM     53  C   UNL A   1      43.907  25.759  28.459  1.00  0.00     0.034 A 
ATOM     54  C   UNL A   1      41.019  30.330  33.107  1.00  0.00     0.034 A 
ATOM     55  C   UNL A   1      44.508  26.283  29.695  1.00  0.00     0.049 A 
ATOM     56  C   UNL A   1      41.856  29.218  33.699  1.00  0.00     0.074 A 
ATOM     57  C   UNL A   1      45.429  27.278  29.977  1.00  0.00     0.029 A 
ATOM     58  N   UNL A   1      43.965  25.903  30.926  1.00  0.00    -0.354 N 
ATOM     59  N   UNL A   1      42.646  28.442  33.005  1.00  0.00    -0.248 NA
ATOM     60  C   UNL A   1      41.848  28.874  35.116  1.00  0.00     0.031 C 
ATOM     61  C   UNL A   1      45.372  27.548  31.375  1.00  0.00     0.029 A 
ATOM     62  C   UNL A   1      44.450  26.690  31.953  1.00  0.00     0.049 A 
ATOM     63  H   UNL A   1      43.321  25.168  31.046  1.00  0.00     0.167 HD
ATOM     64  C   UNL A   1      43.198  27.487  33.824  1.00  0.00     0.074 A 
ATOM     65  C   UNL A   1      42.696  27.831  35.145  1.00  0.00     0.031 C 
ATOM     66  C   UNL A   1      43.995  26.487  33.331  1.00  0.00     0.034 A 
BRANCH  53  67
ATOM     67  C   UNL A   1      44.719  25.192  27.298  1.00  0.00     0.023 A 
ATOM     68  C   UNL A   1      44.319  23.969  26.713  1.00  0.00     0.031 A 
ATOM     69  C   UNL A   1      45.949  25.700  26.810  1.00  0.00     0.131 A 
ATOM     70  C   UNL A   1      45.115  23.316  25.744  1.00  0.00     0.055 A 
ATOM     71  C   UNL A   1      46.710  25.077  25.813  1.00  0.00     0.041 A 
ATOM     72  F   UNL A   1      46.534  26.796  27.298  1.00  0.00    -0.206 F 
ATOM     73  C   UNL A   1      46.303  23.872  25.281  1.00  0.00     0.022 A 
BRANCH  70  74
ATOM     74  S   UNL A   1      44.628  21.676  25.139  1.00  0.00     0.124 S 
ATOM     75  O   UNL A   1      43.574  21.304  26.076  1.00  0.00    -0.237 OA
ATOM     76  O   UNL A   1      44.212  21.961  23.770  1.00  0.00    -0.237 OA
ATOM     77  O   UNL A   1      45.858  20.891  25.256  1.00  0.00    -0.744 OA
ENDBRANCH  70  74
ENDBRANCH  53  67
BRANCH  54  78
ATOM     78  C   UNL A   1      39.600  30.649  33.439  1.00  0.00     0.023 A 
ATOM     79  C   UNL A   1      39.290  32.008  33.678  1.00  0.00     0.031 A 
ATOM     80  C   UNL A   1      38.545  29.782  33.137  1.00  0.00     0.131 A 
ATOM     81  C   UNL A   1      38.001  32.497  33.428  1.00  0.00     0.055 A 
ATOM     82  C   UNL A   1      37.239  30.261  32.970  1.00  0.00     0.041 A 
ATOM     83  F   UNL A   1      38.778  28.489  32.867  1.00  0.00    -0.206 F 
ATOM     84  C   UNL A   1      36.970  31.628  33.067  1.00  0.00     0.022 A 
BRANCH  81  85
ATOM     85  S   UNL A   1      37.750  34.293  33.283  1.00  0.00     0.124 S 
ATOM     86  O   UNL A   1      38.962  34.828  33.890  1.00  0.00    -0.237 OA
ATOM     87  O   UNL A   1      37.603  34.491  31.843  1.00  0.00    -0.237 OA
ATOM     88  O   UNL A   1      36.513  34.534  34.024  1.00  0.00    -0.744 OA
ENDBRANCH  81  85
ENDBRANCH  54  78
BRANCH  66  89
ATOM     89  C   UNL A   1      44.481  25.265  34.103  1.00  0.00     0.023 A 
ATOM     90  C   UNL A   1      45.833  24.980  34.360  1.00  0.00     0.031 A 
ATOM     91  C   UNL A   1      43.560  24.350  34.674  1.00  0.00     0.131 A 
ATOM     92  C   UNL A   1      46.226  23.815  35.050  1.00  0.00     0.055 A 
ATOM     93  C   UNL A   1      43.948  23.233  35.423  1.00  0.00     0.041 A 
ATOM     94  F   UNL A   1      42.235  24.504  34.541  1.00  0.00    -0.206 F 
ATOM     95  C   UNL A   1      45.292  22.946  35.601  1.00  0.00     0.022 A 
BRANCH  92  96
ATOM     96  S   UNL A   1      47.997  23.433  35.157  1.00  0.00     0.124 S 
ATOM     97  O   UNL A   1      48.572  24.404  34.230  1.00  0.00    -0.237 OA
ATOM     98  O   UNL A   1      48.282  23.660  36.570  1.00  0.00    -0.237 OA
ATOM     99  O   UNL A   1      48.077  22.039  34.723  1.00  0.00    -0.744 OA
ENDBRANCH  92  96
ENDBRANCH  66  89
ENDBRANCH  40  41
ENDBRANCH  32  35
ENDBRANCH  30  31
ENDBRANCH  29  30
ENDBRANCH   1  29
TORSDOF 17
ENDMDL
MODEL 2
REMARK VINA RESULT:     -13.4      1.962      2.541
REMARK SMILES Cc1ccccc1NC(=O)CSc1nc(C(=O)NCCCNC(=O)c2ccc(-c3c4nc(c(-c5cc(S(=O)(=O)[O-])ccc5F)c5ccc([nH]5)c(-c5cc(S(=O)(=O)[O-])ccc5F)c5nc(c(-c6cc(S(=O)(=O)[O-])ccc6F)c6ccc3[nH]6)C=C5)C=C4)cc2)c2ccccc2n1
REMARK SMILES IDX 19 1 18 2 16 3 17 4 15 6 13 7 14 8 94 9 93 10 88 11 92 12
REMARK SMILES IDX 89 13 91 14 90 15 12 16 11 17 9 18 8 19 10 21 7 22 1 23 2 24
REMARK SMILES IDX 3 25 4 26 6 27 5 28 20 29 21 30 22 31 23 32 24 34 25 35
REMARK SMILES IDX 26 36 87 37 27 38 86 39 28 40 29 41 30 42 80 43 31 44 85 45
REMARK SMILES IDX 79 46 81 47 32 48 84 49 78 50 77 51 33 53 65 54 45 55 64 56
REMARK SMILES IDX 46 57 49 58 63 59 82 60 47 61 48 62 62 64 83 65 50 66 34 67
REMARK SMILES IDX 35 68 43 69 36 70 42 71 44 72 41 73 37 74 38 75 39 76 40 77
REMARK SMILES IDX 66 78 67 79 75 80 68 81 74 82 76 83 73 84 69 85 70 86 71 87
REMARK SMILES IDX 72 88 51 89 52 90 60 91 53 92 59 93 61 94 58 95 54 96 55 97
REMARK SMILES IDX 56 98 57 99
REMARK H PARENT 18 5 8 20 22 33 81 52 49 63
REMARK Flexibility Score: inf
ROOT
ATOM      1  C   UNL A   1      33.011  30.733  26.813  1.00  0.00     0.118 C 
ENDROOT
BRANCH   1   2
ATOM      2  N   UNL A   1      32.224  29.753  27.549  1.00  0.00    -0.351 N 
ATOM      3  C   UNL A   1      31.807  28.490  27.163  1.00  0.00     0.270 C 
ATOM      4  O   UNL A   1      31.091  27.819  27.906  1.00  0.00    -0.267 OA
ATOM      5  H   UNL A   1      31.948  30.029  28.454  1.00  0.00     0.163 HD
BRANCH   3   6
ATOM      6  C   UNL A   1      32.140  27.952  25.802  1.00  0.00     0.140 A 
ATOM      7  C   UNL A   1      33.156  26.247  24.704  1.00  0.00     0.189 A 
ATOM      8  N   UNL A   1      33.006  26.913  25.840  1.00  0.00    -0.217 NA
ATOM      9  N   UNL A   1      32.430  26.438  23.594  1.00  0.00    -0.222 NA
ATOM     10  C   UNL A   1      31.595  27.481  23.581  1.00  0.00     0.076 A 
ATOM     11  C   UNL A   1      31.493  28.383  24.638  1.00  0.00     0.032 A 
ATOM     12  C   UNL A   1      30.755  27.655  22.487  1.00  0.00     0.029 A 
ATOM     13  C   UNL A   1      30.719  29.562  24.477  1.00  0.00     0.013 A 
ATOM     14  C   UNL A   1      29.869  28.733  22.397  1.00  0.00     0.002 A 
ATOM     15  C   UNL A   1      29.879  29.713  23.378  1.00  0.00     0.001 A 
BRANCH   7  16
ATOM     16  S   UNL A   1      34.358  24.955  24.661  1.00  0.00    -0.076 SA
BRANCH  16  17
ATOM     17  C   UNL A   1      33.367  23.663  23.848  1.00  0.00     0.178 C 
BRANCH  17  18
ATOM     18  C   UNL A   1      32.608  22.769  24.806  1.00  0.00     0.234 C 
ATOM     19  N   UNL A   1      33.012  21.540  25.231  1.00  0.00    -0.325 N 
ATOM     20  H   UNL A   1      32.365  21.133  25.851  1.00  0.00     0.169 HD
ATOM     21  O   UNL A   1      31.503  23.130  25.236  1.00  0.00    -0.274 OA
BRANCH  19  22
ATOM     22  C   UNL A   1      34.123  20.705  25.007  1.00  0.00     0.044 A 
ATOM     23  C   UNL A   1      32.556  18.726  24.401  1.00  0.00     0.046 C 
ATOM     24  C   UNL A   1      33.905  19.349  24.663  1.00  0.00    -0.027 A 
ATOM     25  C   UNL A   1      35.007  18.473  24.571  1.00  0.00     0.005 A 
ATOM     26  C   UNL A   1      36.306  18.926  24.770  1.00  0.00     0.000 A 
ATOM     27  C   UNL A   1      35.443  21.151  25.115  1.00  0.00     0.026 A 
ATOM     28  C   UNL A   1      36.525  20.271  25.018  1.00  0.00     0.002 A 
ENDBRANCH  19  22
ENDBRANCH  17  18
ENDBRANCH  16  17
ENDBRANCH   7  16
ENDBRANCH   3   6
ENDBRANCH   1   2
BRANCH   1  29
ATOM     29  C   UNL A   1      34.450  30.876  27.256  1.00  0.00     0.042 C 
BRANCH  29  30
ATOM     30  C   UNL A   1      34.595  30.921  28.769  1.00  0.00     0.118 C 
BRANCH  30  31
ATOM     31  N   UNL A   1      35.722  31.752  29.221  1.00  0.00    -0.352 N 
ATOM     32  C   UNL A   1      37.056  31.402  29.391  1.00  0.00     0.251 C 
ATOM     33  H   UNL A   1      35.500  32.688  29.432  1.00  0.00     0.163 HD
ATOM     34  O   UNL A   1      37.918  32.181  29.739  1.00  0.00    -0.269 OA
BRANCH  32  35
ATOM     35  C   UNL A   1      37.416  30.017  29.022  1.00  0.00     0.039 A 
ATOM     36  C   UNL A   1      37.595  29.137  30.094  1.00  0.00     0.014 A 
ATOM     37  C   UNL A   1      38.017  29.808  27.783  1.00  0.00     0.014 A 
ATOM     38  C   UNL A   1      38.615  28.201  30.019  1.00  0.00     0.010 A 
ATOM     39  C   UNL A   1      39.076  28.916  27.737  1.00  0.00     0.010 A 
ATOM     40  C   UNL A   1      39.439  28.203  28.893  1.00  0.00    -0.014 A 
BRANCH  40  41
ATOM     41  C   UNL A   1      40.802  27.671  28.945  1.00  0.00     0.031 A 
ATOM     42  C   UNL A   1      41.062  26.264  28.594  1.00  0.00     0.074 A 
ATOM     43  C   UNL A   1      41.838  28.456  29.329  1.00  0.00     0.049 A 
ATOM     44  N   UNL A   1      42.094  25.600  28.997  1.00  0.00    -0.248 NA
ATOM     45  C   UNL A   1      40.114  25.445  27.844  1.00  0.00     0.031 C 
ATOM     46  C   UNL A   1      43.266  28.154  29.232  1.00  0.00     0.029 A 
ATOM     47  N   UNL A   1      41.782  29.587  30.151  1.00  0.00    -0.354 N 
ATOM     48  C   UNL A   1      42.112  24.412  28.312  1.00  0.00     0.074 A 
ATOM     49  C   UNL A   1      40.793  24.298  27.749  1.00  0.00     0.031 C 
ATOM     50  C   UNL A   1      43.924  28.860  30.162  1.00  0.00     0.029 A 
ATOM     51  C   UNL A   1      42.936  29.557  30.961  1.00  0.00     0.049 A 
ATOM     52  H   UNL A   1      41.074  30.270  30.161  1.00  0.00     0.167 HD
ATOM     53  C   UNL A   1      43.297  23.754  28.177  1.00  0.00     0.034 A 
ATOM     54  C   UNL A   1      42.856  29.540  32.322  1.00  0.00     0.034 A 
ATOM     55  C   UNL A   1      44.285  24.237  29.153  1.00  0.00     0.049 A 
ATOM     56  C   UNL A   1      43.495  28.319  32.946  1.00  0.00     0.074 A 
ATOM     57  C   UNL A   1      45.470  24.948  29.058  1.00  0.00     0.029 A 
ATOM     58  N   UNL A   1      43.969  24.198  30.514  1.00  0.00    -0.354 N 
ATOM     59  N   UNL A   1      43.873  27.262  32.278  1.00  0.00    -0.248 NA
ATOM     60  C   UNL A   1      43.733  28.181  34.379  1.00  0.00     0.031 C 
ATOM     61  C   UNL A   1      45.815  25.404  30.363  1.00  0.00     0.029 A 
ATOM     62  C   UNL A   1      44.867  24.936  31.260  1.00  0.00     0.049 A 
ATOM     63  H   UNL A   1      43.205  23.706  30.892  1.00  0.00     0.167 HD
ATOM     64  C   UNL A   1      44.339  26.303  33.146  1.00  0.00     0.074 A 
ATOM     65  C   UNL A   1      44.267  26.949  34.446  1.00  0.00     0.031 C 
ATOM     66  C   UNL A   1      44.714  25.059  32.712  1.00  0.00     0.034 A 
BRANCH  53  67
ATOM     67  C   UNL A   1      43.640  22.828  27.013  1.00  0.00     0.023 A 
ATOM     68  C   UNL A   1      42.994  21.573  26.922  1.00  0.00     0.031 A 
ATOM     69  C   UNL A   1      44.664  23.029  26.056  1.00  0.00     0.131 A 
ATOM     70  C   UNL A   1      43.381  20.609  25.963  1.00  0.00     0.055 A 
ATOM     71  C   UNL A   1      45.011  22.093  25.074  1.00  0.00     0.041 A 
ATOM     72  F   UNL A   1      45.444  24.113  26.035  1.00  0.00    -0.206 F 
ATOM     73  C   UNL A   1      44.377  20.870  25.028  1.00  0.00     0.022 A 
BRANCH  70  74
ATOM     74  S   UNL A   1      42.621  18.961  25.988  1.00  0.00     0.124 S 
ATOM     75  O   UNL A   1      43.536  18.190  25.154  1.00  0.00    -0.237 OA
ATOM     76  O   UNL A   1      42.613  18.644  27.412  1.00  0.00    -0.237 OA
ATOM     77  O   UNL A   1      41.299  19.187  25.402  1.00  0.00    -0.744 OA
ENDBRANCH  70  74
ENDBRANCH  53  67
BRANCH  54  78
ATOM     78  C   UNL A   1      41.686  30.300  32.849  1.00  0.00     0.023 A 
ATOM     79  C   UNL A   1      41.746  31.710  32.755  1.00  0.00     0.031 A 
ATOM     80  C   UNL A   1      40.432  29.710  33.040  1.00  0.00     0.131 A 
ATOM     81  C   UNL A   1      40.569  32.466  32.662  1.00  0.00     0.055 A 
ATOM     82  C   UNL A   1      39.261  30.480  33.031  1.00  0.00     0.041 A 
ATOM     83  F   UNL A   1      40.305  28.377  33.102  1.00  0.00    -0.206 F 
ATOM     84  C   UNL A   1      39.322  31.855  32.793  1.00  0.00     0.022 A 
BRANCH  81  85
ATOM     85  S   UNL A   1      40.668  34.184  32.072  1.00  0.00     0.124 S 
ATOM     86  O   UNL A   1      39.267  34.525  31.867  1.00  0.00    -0.237 OA
ATOM     87  O   UNL A   1      41.351  34.870  33.167  1.00  0.00    -0.237 OA
ATOM     88  O   UNL A   1      41.479  34.090  30.860  1.00  0.00    -0.744 OA
ENDBRANCH  81  85
ENDBRANCH  54  78
BRANCH  66  89
ATOM     89  C   UNL A   1      45.037  23.861  33.598  1.00  0.00     0.023 A 
ATOM     90  C   UNL A   1      46.340  23.420  33.884  1.00  0.00     0.031 A 
ATOM     91  C   UNL A   1      44.007  23.137  34.251  1.00  0.00     0.131 A 
ATOM     92  C   UNL A   1      46.579  22.283  34.683  1.00  0.00     0.055 A 
ATOM     93  C   UNL A   1      44.248  22.054  35.104  1.00  0.00     0.041 A 
ATOM     94  F   UNL A   1      42.713  23.457  34.101  1.00  0.00    -0.206 F 
ATOM     95  C   UNL A   1      45.542  21.605  35.311  1.00  0.00     0.022 A 
BRANCH  92  96
ATOM     96  S   UNL A   1      48.283  21.675  34.829  1.00  0.00     0.124 S 
ATOM     97  O   UNL A   1      48.259  20.499  33.964  1.00  0.00    -0.237 OA
ATOM     98  O   UNL A   1      49.063  22.806  34.340  1.00  0.00    -0.237 OA
ATOM     99  O   UNL A   1      48.427  21.391  36.257  1.00  0.00    -0.744 OA
ENDBRANCH  92  96
ENDBRANCH  66  89
ENDBRANCH  40  41
ENDBRANCH  32  35
ENDBRANCH  30  31
ENDBRANCH  29  30
ENDBRANCH   1  29
TORSDOF 17
ENDMDL
MODEL 3
REMARK VINA RESULT:     -13.3      3.904      9.722
REMARK SMILES Cc1ccccc1NC(=O)CSc1nc(C(=O)NCCCNC(=O)c2ccc(-c3c4nc(c(-c5cc(S(=O)(=O)[O-])ccc5F)c5ccc([nH]5)c(-c5cc(S(=O)(=O)[O-])ccc5F)c5nc(c(-c6cc(S(=O)(=O)[O-])ccc6F)c6ccc3[nH]6)C=C5)C=C4)cc2)c2ccccc2n1
REMARK SMILES IDX 19 1 18 2 16 3 17 4 15 6 13 7 14 8 94 9 93 10 88 11 92 12
REMARK SMILES IDX 89 13 91 14 90 15 12 16 11 17 9 18 8 19 10 21 7 22 1 23 2 24
REMARK SMILES IDX 3 25 4 26 6 27 5 28 20 29 21 30 22 31 23 32 24 34 25 35
REMARK SMILES IDX 26 36 87 37 27 38 86 39 28 40 29 41 30 42 80 43 31 44 85 45
REMARK SMILES IDX 79 46 81 47 32 48 84 49 78 50 77 51 33 53 65 54 45 55 64 56
REMARK SMILES IDX 46 57 49 58 63 59 82 60 47 61 48 62 62 64 83 65 50 66 34 67
REMARK SMILES IDX 35 68 43 69 36 70 42 71 44 72 41 73 37 74 38 75 39 76 40 77
REMARK SMILES IDX 66 78 67 79 75 80 68 81 74 82 76 83 73 84 69 85 70 86 71 87
REMARK SMILES IDX 72 88 51 89 52 90 60 91 53 92 59 93 61 94 58 95 54 96 55 97
REMARK SMILES IDX 56 98 57 99
REMARK H PARENT 18 5 8 20 22 33 81 52 49 63
REMARK Flexibility Score: inf
ROOT
ATOM      1  C   UNL A   1      36.958  24.019  25.739  1.00  0.00     0.118 C 
ENDROOT
BRANCH   1   2
ATOM      2  N   UNL A   1      37.340  23.467  24.446  1.00  0.00    -0.351 N 
ATOM      3  C   UNL A   1      36.540  23.091  23.379  1.00  0.00     0.270 C 
ATOM      4  O   UNL A   1      37.043  22.585  22.376  1.00  0.00    -0.267 OA
ATOM      5  H   UNL A   1      38.307  23.343  24.311  1.00  0.00     0.163 HD
BRANCH   3   6
ATOM      6  C   UNL A   1      35.046  23.207  23.458  1.00  0.00     0.140 A 
ATOM      7  C   UNL A   1      33.255  24.368  22.691  1.00  0.00     0.189 A 
ATOM      8  N   UNL A   1      34.569  24.324  22.861  1.00  0.00    -0.217 NA
ATOM      9  N   UNL A   1      32.409  23.358  22.934  1.00  0.00    -0.222 NA
ATOM     10  C   UNL A   1      32.907  22.274  23.538  1.00  0.00     0.076 A 
ATOM     11  C   UNL A   1      34.232  22.184  23.958  1.00  0.00     0.032 A 
ATOM     12  C   UNL A   1      32.083  21.169  23.719  1.00  0.00     0.029 A 
ATOM     13  C   UNL A   1      34.639  21.077  24.749  1.00  0.00     0.013 A 
ATOM     14  C   UNL A   1      32.531  20.009  24.358  1.00  0.00     0.002 A 
ATOM     15  C   UNL A   1      33.803  19.978  24.912  1.00  0.00     0.001 A 
BRANCH   7  16
ATOM     16  S   UNL A   1      32.562  25.848  22.023  1.00  0.00    -0.076 SA
BRANCH  16  17
ATOM     17  C   UNL A   1      30.861  25.680  22.646  1.00  0.00     0.178 C 
BRANCH  17  18
ATOM     18  C   UNL A   1      30.538  26.579  23.821  1.00  0.00     0.234 C 
ATOM     19  N   UNL A   1      30.769  26.285  25.130  1.00  0.00    -0.325 N 
ATOM     20  H   UNL A   1      30.481  27.012  25.728  1.00  0.00     0.169 HD
ATOM     21  O   UNL A   1      29.983  27.669  23.624  1.00  0.00    -0.274 OA
BRANCH  19  22
ATOM     22  C   UNL A   1      31.317  25.203  25.845  1.00  0.00     0.044 A 
ATOM     23  C   UNL A   1      33.658  26.324  25.818  1.00  0.00     0.046 C 
ATOM     24  C   UNL A   1      32.704  25.197  26.127  1.00  0.00    -0.027 A 
ATOM     25  C   UNL A   1      33.285  24.056  26.720  1.00  0.00     0.005 A 
ATOM     26  C   UNL A   1      32.512  22.956  27.073  1.00  0.00     0.000 A 
ATOM     27  C   UNL A   1      30.552  24.121  26.290  1.00  0.00     0.026 A 
ATOM     28  C   UNL A   1      31.142  22.999  26.880  1.00  0.00     0.002 A 
ENDBRANCH  19  22
ENDBRANCH  17  18
ENDBRANCH  16  17
ENDBRANCH   7  16
ENDBRANCH   3   6
ENDBRANCH   1   2
BRANCH   1  29
ATOM     29  C   UNL A   1      37.914  23.736  26.875  1.00  0.00     0.042 C 
BRANCH  29  30
ATOM     30  C   UNL A   1      39.333  23.472  26.395  1.00  0.00     0.118 C 
BRANCH  30  31
ATOM     31  N   UNL A   1      39.598  22.052  26.116  1.00  0.00    -0.352 N 
ATOM     32  C   UNL A   1      40.792  21.348  26.213  1.00  0.00     0.251 C 
ATOM     33  H   UNL A   1      38.820  21.527  25.820  1.00  0.00     0.163 HD
ATOM     34  O   UNL A   1      40.894  20.160  25.990  1.00  0.00    -0.269 OA
BRANCH  32  35
ATOM     35  C   UNL A   1      41.955  22.109  26.712  1.00  0.00     0.039 A 
ATOM     36  C   UNL A   1      42.215  21.980  28.080  1.00  0.00     0.014 A 
ATOM     37  C   UNL A   1      42.372  23.218  25.980  1.00  0.00     0.014 A 
ATOM     38  C   UNL A   1      42.634  23.100  28.783  1.00  0.00     0.010 A 
ATOM     39  C   UNL A   1      42.728  24.350  26.695  1.00  0.00     0.010 A 
ATOM     40  C   UNL A   1      42.744  24.312  28.101  1.00  0.00    -0.014 A 
BRANCH  40  41
ATOM     41  C   UNL A   1      42.643  25.592  28.802  1.00  0.00     0.031 A 
ATOM     42  C   UNL A   1      41.491  26.480  28.561  1.00  0.00     0.074 A 
ATOM     43  C   UNL A   1      43.607  25.986  29.669  1.00  0.00     0.049 A 
ATOM     44  N   UNL A   1      41.507  27.753  28.775  1.00  0.00    -0.248 NA
ATOM     45  C   UNL A   1      40.250  26.020  27.945  1.00  0.00     0.031 C 
ATOM     46  C   UNL A   1      43.560  27.114  30.599  1.00  0.00     0.029 A 
ATOM     47  N   UNL A   1      44.950  25.596  29.672  1.00  0.00    -0.354 N 
ATOM     48  C   UNL A   1      40.219  28.208  28.644  1.00  0.00     0.074 A 
ATOM     49  C   UNL A   1      39.526  27.142  27.972  1.00  0.00     0.031 C 
ATOM     50  C   UNL A   1      44.812  27.515  30.861  1.00  0.00     0.029 A 
ATOM     51  C   UNL A   1      45.704  26.734  30.027  1.00  0.00     0.049 A 
ATOM     52  H   UNL A   1      45.301  24.699  29.467  1.00  0.00     0.167 HD
ATOM     53  C   UNL A   1      39.869  29.368  29.266  1.00  0.00     0.034 A 
ATOM     54  C   UNL A   1      46.673  27.235  29.210  1.00  0.00     0.034 A 
ATOM     55  C   UNL A   1      41.059  30.149  29.639  1.00  0.00     0.049 A 
ATOM     56  C   UNL A   1      46.419  28.662  28.780  1.00  0.00     0.074 A 
ATOM     57  C   UNL A   1      41.648  30.499  30.841  1.00  0.00     0.029 A 
ATOM     58  N   UNL A   1      41.977  30.500  28.645  1.00  0.00    -0.354 N 
ATOM     59  N   UNL A   1      45.287  29.293  28.951  1.00  0.00    -0.248 NA
ATOM     60  C   UNL A   1      47.411  29.484  28.095  1.00  0.00     0.031 C 
ATOM     61  C   UNL A   1      42.959  30.985  30.565  1.00  0.00     0.029 A 
ATOM     62  C   UNL A   1      43.154  30.973  29.193  1.00  0.00     0.049 A 
ATOM     63  H   UNL A   1      41.806  30.422  27.679  1.00  0.00     0.167 HD
ATOM     64  C   UNL A   1      45.357  30.540  28.378  1.00  0.00     0.074 A 
ATOM     65  C   UNL A   1      46.725  30.622  27.892  1.00  0.00     0.031 C 
ATOM     66  C   UNL A   1      44.271  31.375  28.335  1.00  0.00     0.034 A 
BRANCH  53  67
ATOM     67  C   UNL A   1      38.457  29.696  29.744  1.00  0.00     0.023 A 
ATOM     68  C   UNL A   1      37.791  30.816  29.195  1.00  0.00     0.031 A 
ATOM     69  C   UNL A   1      37.767  29.067  30.809  1.00  0.00     0.131 A 
ATOM     70  C   UNL A   1      36.552  31.264  29.708  1.00  0.00     0.055 A 
ATOM     71  C   UNL A   1      36.514  29.482  31.280  1.00  0.00     0.041 A 
ATOM     72  F   UNL A   1      38.271  28.050  31.510  1.00  0.00    -0.206 F 
ATOM     73  C   UNL A   1      35.903  30.592  30.739  1.00  0.00     0.022 A 
BRANCH  70  74
ATOM     74  S   UNL A   1      35.815  32.793  29.066  1.00  0.00     0.124 S 
ATOM     75  O   UNL A   1      35.882  32.585  27.624  1.00  0.00    -0.237 OA
ATOM     76  O   UNL A   1      34.485  32.773  29.665  1.00  0.00    -0.237 OA
ATOM     77  O   UNL A   1      36.703  33.839  29.577  1.00  0.00    -0.744 OA
ENDBRANCH  70  74
ENDBRANCH  53  67
BRANCH  54  78
ATOM     78  C   UNL A   1      47.380  26.181  28.426  1.00  0.00     0.023 A 
ATOM     79  C   UNL A   1      47.090  26.112  27.044  1.00  0.00     0.031 A 
ATOM     80  C   UNL A   1      48.552  25.567  28.880  1.00  0.00     0.131 A 
ATOM     81  C   UNL A   1      48.041  25.615  26.143  1.00  0.00     0.055 A 
ATOM     82  C   UNL A   1      49.464  24.995  27.982  1.00  0.00     0.041 A 
ATOM     83  F   UNL A   1      48.900  25.628  30.173  1.00  0.00    -0.206 F 
ATOM     84  C   UNL A   1      49.235  25.060  26.605  1.00  0.00     0.022 A 
BRANCH  81  85
ATOM     85  S   UNL A   1      47.847  25.970  24.369  1.00  0.00     0.124 S 
ATOM     86  O   UNL A   1      46.761  26.941  24.361  1.00  0.00    -0.237 OA
ATOM     87  O   UNL A   1      49.166  26.467  23.984  1.00  0.00    -0.237 OA
ATOM     88  O   UNL A   1      47.533  24.667  23.785  1.00  0.00    -0.744 OA
ENDBRANCH  81  85
ENDBRANCH  54  78
BRANCH  66  89
ATOM     89  C   UNL A   1      44.173  32.677  27.546  1.00  0.00     0.023 A 
ATOM     90  C   UNL A   1      43.868  33.924  28.116  1.00  0.00     0.031 A 
ATOM     91  C   UNL A   1      44.450  32.709  26.155  1.00  0.00     0.131 A 
ATOM     92  C   UNL A   1      43.756  35.090  27.332  1.00  0.00     0.055 A 
ATOM     93  C   UNL A   1      44.412  33.880  25.389  1.00  0.00     0.041 A 
ATOM     94  F   UNL A   1      44.785  31.603  25.475  1.00  0.00    -0.206 F 
ATOM     95  C   UNL A   1      44.044  35.081  25.972  1.00  0.00     0.022 A 
BRANCH  92  96
ATOM     96  S   UNL A   1      43.164  36.610  28.126  1.00  0.00     0.124 S 
ATOM     97  O   UNL A   1      43.012  36.186  29.515  1.00  0.00    -0.237 OA
ATOM     98  O   UNL A   1      44.252  37.546  27.865  1.00  0.00    -0.237 OA
ATOM     99  O   UNL A   1      41.913  36.901  27.427  1.00  0.00    -0.744 OA
ENDBRANCH  92  96
ENDBRANCH  66  89
ENDBRANCH  40  41
ENDBRANCH  32  35
ENDBRANCH  30  31
ENDBRANCH  29  30
ENDBRANCH   1  29
TORSDOF 17
ENDMDL
