MODEL 1
REMARK VINA RESULT:     -13.9      0.000      0.000
REMARK SMILES Cc1ccccc1C(=O)Nc1ccc(OCC(=O)NCCCNC(=O)c2ccc(-c3c4nc(c(-c5cc(S(=O)(=O)[O-])ccc5F)c5ccc([nH]5)c(-c5cc(S(=O)(=O)[O-])ccc5F)c5nc(c(-c6cc(S(=O)(=O)[O-])ccc6F)c6ccc3[nH]6)C=C5)C=C4)cc2)c(-c2nc3ccccc3s2)c1
REMARK SMILES IDX 20 1 19 2 17 3 18 4 16 6 15 7 14 8 11 9 12 10 99 11 13 12
REMARK SMILES IDX 89 13 10 14 8 15 9 16 7 18 1 19 2 20 3 21 4 22 6 23 5 24
REMARK SMILES IDX 90 25 91 26 98 27 92 28 97 29 93 30 96 31 94 32 95 33 21 34
REMARK SMILES IDX 22 35 23 36 24 37 25 39 26 40 27 41 88 42 28 43 87 44 29 45
REMARK SMILES IDX 30 46 31 47 81 48 32 49 86 50 80 51 82 52 33 53 85 54 79 55
REMARK SMILES IDX 78 56 34 58 66 59 46 60 65 61 47 62 50 63 64 64 83 65 48 66
REMARK SMILES IDX 49 67 63 69 84 70 51 71 35 72 36 73 44 74 37 75 43 76 45 77
REMARK SMILES IDX 42 78 38 79 39 80 40 81 41 82 67 83 68 84 76 85 69 86 75 87
REMARK SMILES IDX 77 88 74 89 70 90 71 91 72 92 73 93 52 94 53 95 61 96 54 97
REMARK SMILES IDX 60 98 62 99 59 100 55 101 56 102 57 103 58 104
REMARK H PARENT 19 5 10 17 23 38 82 57 50 68
REMARK Flexibility Score: inf
ROOT
ATOM      1  C   UNL A   1      32.318  30.274  26.222  1.00  0.00     0.117 C 
ENDROOT
BRANCH   1   2
ATOM      2  N   UNL A   1      32.926  29.376  25.257  1.00  0.00    -0.353 N 
ATOM      3  C   UNL A   1      33.236  28.052  25.413  1.00  0.00     0.257 C 
ATOM      4  O   UNL A   1      33.944  27.512  24.566  1.00  0.00    -0.271 OA
ATOM      5  H   UNL A   1      33.143  29.770  24.381  1.00  0.00     0.163 HD
BRANCH   3   6
ATOM      6  C   UNL A   1      32.657  27.311  26.653  1.00  0.00     0.329 C 
BRANCH   6   7
ATOM      7  O   UNL A   1      31.335  26.767  26.685  1.00  0.00    -0.483 OA
BRANCH   7   8
ATOM      8  C   UNL A   1      31.268  25.492  26.191  1.00  0.00     0.130 A 
ATOM      9  C   UNL A   1      31.412  22.890  25.210  1.00  0.00     0.042 A 
ATOM     10  C   UNL A   1      31.794  23.152  26.525  1.00  0.00     0.030 A 
ATOM     11  C   UNL A   1      30.814  23.897  24.448  1.00  0.00     0.041 A 
ATOM     12  C   UNL A   1      31.756  24.458  27.003  1.00  0.00     0.049 A 
ATOM     13  C   UNL A   1      30.687  25.218  24.937  1.00  0.00     0.055 A 
BRANCH   9  14
ATOM     14  N   UNL A   1      31.695  21.612  24.710  1.00  0.00    -0.322 N 
ATOM     15  C   UNL A   1      32.843  21.098  24.146  1.00  0.00     0.255 C 
ATOM     16  O   UNL A   1      32.768  20.000  23.587  1.00  0.00    -0.269 OA
ATOM     17  H   UNL A   1      30.949  20.974  24.774  1.00  0.00     0.170 HD
BRANCH  15  18
ATOM     18  C   UNL A   1      34.178  21.757  24.261  1.00  0.00     0.043 A 
ATOM     19  C   UNL A   1      33.815  23.523  22.408  1.00  0.00     0.045 C 
ATOM     20  C   UNL A   1      34.628  22.835  23.466  1.00  0.00    -0.038 A 
ATOM     21  C   UNL A   1      35.924  23.343  23.685  1.00  0.00     0.004 A 
ATOM     22  C   UNL A   1      36.711  22.885  24.739  1.00  0.00     0.000 A 
ATOM     23  C   UNL A   1      34.973  21.326  25.339  1.00  0.00     0.014 A 
ATOM     24  C   UNL A   1      36.224  21.895  25.585  1.00  0.00     0.001 A 
ENDBRANCH  15  18
ENDBRANCH   9  14
BRANCH  13  25
ATOM     25  C   UNL A   1      30.032  26.213  24.051  1.00  0.00     0.128 A 
ATOM     26  N   UNL A   1      30.701  27.028  23.252  1.00  0.00    -0.236 NA
ATOM     27  S   UNL A   1      28.322  26.427  23.955  1.00  0.00    -0.114 S 
ATOM     28  C   UNL A   1      29.879  28.064  22.837  1.00  0.00     0.082 A 
ATOM     29  C   UNL A   1      28.545  27.952  23.221  1.00  0.00     0.055 A 
ATOM     30  C   UNL A   1      30.279  29.208  22.121  1.00  0.00     0.030 A 
ATOM     31  C   UNL A   1      27.609  28.971  22.994  1.00  0.00     0.021 A 
ATOM     32  C   UNL A   1      29.356  30.234  21.886  1.00  0.00     0.002 A 
ATOM     33  C   UNL A   1      28.044  30.124  22.338  1.00  0.00     0.002 A 
ENDBRANCH  13  25
ENDBRANCH   7   8
ENDBRANCH   6   7
ENDBRANCH   3   6
ENDBRANCH   1   2
BRANCH   1  34
ATOM     34  C   UNL A   1      33.368  31.175  26.862  1.00  0.00     0.042 C 
BRANCH  34  35
ATOM     35  C   UNL A   1      34.186  30.460  27.932  1.00  0.00     0.118 C 
BRANCH  35  36
ATOM     36  N   UNL A   1      34.847  31.369  28.859  1.00  0.00    -0.352 N 
ATOM     37  C   UNL A   1      36.032  31.204  29.552  1.00  0.00     0.251 C 
ATOM     38  H   UNL A   1      34.383  32.225  29.013  1.00  0.00     0.163 HD
ATOM     39  O   UNL A   1      36.404  32.034  30.369  1.00  0.00    -0.269 OA
BRANCH  37  40
ATOM     40  C   UNL A   1      36.922  30.075  29.188  1.00  0.00     0.039 A 
ATOM     41  C   UNL A   1      37.148  29.104  30.171  1.00  0.00     0.014 A 
ATOM     42  C   UNL A   1      37.679  30.084  28.020  1.00  0.00     0.014 A 
ATOM     43  C   UNL A   1      38.274  28.291  30.084  1.00  0.00     0.010 A 
ATOM     44  C   UNL A   1      38.842  29.342  27.973  1.00  0.00     0.010 A 
ATOM     45  C   UNL A   1      39.169  28.491  29.033  1.00  0.00    -0.014 A 
BRANCH  45  46
ATOM     46  C   UNL A   1      40.524  27.954  29.037  1.00  0.00     0.031 A 
ATOM     47  C   UNL A   1      40.802  26.592  28.547  1.00  0.00     0.074 A 
ATOM     48  C   UNL A   1      41.545  28.717  29.482  1.00  0.00     0.049 A 
ATOM     49  N   UNL A   1      41.761  25.850  28.988  1.00  0.00    -0.248 NA
ATOM     50  C   UNL A   1      39.983  25.938  27.534  1.00  0.00     0.031 C 
ATOM     51  C   UNL A   1      42.973  28.442  29.372  1.00  0.00     0.029 A 
ATOM     52  N   UNL A   1      41.464  29.796  30.356  1.00  0.00    -0.354 N 
ATOM     53  C   UNL A   1      41.874  24.773  28.140  1.00  0.00     0.074 A 
ATOM     54  C   UNL A   1      40.700  24.834  27.300  1.00  0.00     0.031 C 
ATOM     55  C   UNL A   1      43.621  29.135  30.322  1.00  0.00     0.029 A 
ATOM     56  C   UNL A   1      42.620  29.776  31.154  1.00  0.00     0.049 A 
ATOM     57  H   UNL A   1      40.733  30.453  30.407  1.00  0.00     0.167 HD
ATOM     58  C   UNL A   1      43.019  24.033  28.136  1.00  0.00     0.034 A 
ATOM     59  C   UNL A   1      42.536  29.677  32.513  1.00  0.00     0.034 A 
ATOM     60  C   UNL A   1      43.993  24.534  29.105  1.00  0.00     0.049 A 
ATOM     61  C   UNL A   1      43.227  28.450  33.065  1.00  0.00     0.074 A 
ATOM     62  C   UNL A   1      45.115  25.334  28.970  1.00  0.00     0.029 A 
ATOM     63  N   UNL A   1      43.727  24.454  30.466  1.00  0.00    -0.354 N 
ATOM     64  N   UNL A   1      43.557  27.411  32.348  1.00  0.00    -0.248 NA
ATOM     65  C   UNL A   1      43.594  28.294  34.468  1.00  0.00     0.031 C 
ATOM     66  C   UNL A   1      45.502  25.770  30.263  1.00  0.00     0.029 A 
ATOM     67  C   UNL A   1      44.632  25.212  31.184  1.00  0.00     0.049 A 
ATOM     68  H   UNL A   1      42.994  23.929  30.865  1.00  0.00     0.167 HD
ATOM     69  C   UNL A   1      44.155  26.465  33.146  1.00  0.00     0.074 A 
ATOM     70  C   UNL A   1      44.168  27.078  34.463  1.00  0.00     0.031 C 
ATOM     71  C   UNL A   1      44.580  25.265  32.641  1.00  0.00     0.034 A 
BRANCH  58  72
ATOM     72  C   UNL A   1      43.380  23.065  27.032  1.00  0.00     0.023 A 
ATOM     73  C   UNL A   1      42.876  21.747  27.073  1.00  0.00     0.031 A 
ATOM     74  C   UNL A   1      44.229  23.353  25.947  1.00  0.00     0.131 A 
ATOM     75  C   UNL A   1      43.301  20.767  26.159  1.00  0.00     0.055 A 
ATOM     76  C   UNL A   1      44.702  22.365  25.072  1.00  0.00     0.041 A 
ATOM     77  F   UNL A   1      44.598  24.609  25.661  1.00  0.00    -0.206 F 
ATOM     78  C   UNL A   1      44.251  21.058  25.185  1.00  0.00     0.022 A 
BRANCH  75  79
ATOM     79  S   UNL A   1      42.582  19.105  26.255  1.00  0.00     0.124 S 
ATOM     80  O   UNL A   1      41.441  19.205  25.349  1.00  0.00    -0.237 OA
ATOM     81  O   UNL A   1      43.687  18.263  25.810  1.00  0.00    -0.237 OA
ATOM     82  O   UNL A   1      42.234  18.966  27.669  1.00  0.00    -0.744 OA
ENDBRANCH  75  79
ENDBRANCH  58  72
BRANCH  59  83
ATOM     83  C   UNL A   1      41.310  30.323  33.070  1.00  0.00     0.023 A 
ATOM     84  C   UNL A   1      41.307  31.736  33.140  1.00  0.00     0.031 A 
ATOM     85  C   UNL A   1      40.077  29.663  33.126  1.00  0.00     0.131 A 
ATOM     86  C   UNL A   1      40.101  32.447  33.067  1.00  0.00     0.055 A 
ATOM     87  C   UNL A   1      38.871  30.380  33.144  1.00  0.00     0.041 A 
ATOM     88  F   UNL A   1      40.010  28.327  33.035  1.00  0.00    -0.206 F 
ATOM     89  C   UNL A   1      38.879  31.775  33.067  1.00  0.00     0.022 A 
BRANCH  86  90
ATOM     90  S   UNL A   1      40.169  34.221  32.664  1.00  0.00     0.124 S 
ATOM     91  O   UNL A   1      41.110  34.727  33.656  1.00  0.00    -0.237 OA
ATOM     92  O   UNL A   1      40.635  34.224  31.277  1.00  0.00    -0.237 OA
ATOM     93  O   UNL A   1      38.787  34.672  32.819  1.00  0.00    -0.744 OA
ENDBRANCH  86  90
ENDBRANCH  59  83
BRANCH  71  94
ATOM     94  C   UNL A   1      45.081  24.064  33.429  1.00  0.00     0.023 A 
ATOM     95  C   UNL A   1      46.400  23.916  33.877  1.00  0.00     0.031 A 
ATOM     96  C   UNL A   1      44.194  23.024  33.817  1.00  0.00     0.131 A 
ATOM     97  C   UNL A   1      46.812  22.773  34.591  1.00  0.00     0.055 A 
ATOM     98  C   UNL A   1      44.587  21.924  34.588  1.00  0.00     0.041 A 
ATOM     99  F   UNL A   1      42.896  23.032  33.479  1.00  0.00    -0.206 F 
ATOM    100  C   UNL A   1      45.909  21.783  34.968  1.00  0.00     0.022 A 
BRANCH  97 101
ATOM    101  S   UNL A   1      48.574  22.586  34.969  1.00  0.00     0.124 S 
ATOM    102  O   UNL A   1      48.908  21.361  34.247  1.00  0.00    -0.237 OA
ATOM    103  O   UNL A   1      49.144  23.815  34.425  1.00  0.00    -0.237 OA
ATOM    104  O   UNL A   1      48.607  22.477  36.426  1.00  0.00    -0.744 OA
ENDBRANCH  97 101
ENDBRANCH  71  94
ENDBRANCH  45  46
ENDBRANCH  37  40
ENDBRANCH  35  36
ENDBRANCH  34  35
ENDBRANCH   1  34
TORSDOF 18
ENDMDL
MODEL 2
REMARK VINA RESULT:     -13.6      1.797      2.138
REMARK SMILES Cc1ccccc1C(=O)Nc1ccc(OCC(=O)NCCCNC(=O)c2ccc(-c3c4nc(c(-c5cc(S(=O)(=O)[O-])ccc5F)c5ccc([nH]5)c(-c5cc(S(=O)(=O)[O-])ccc5F)c5nc(c(-c6cc(S(=O)(=O)[O-])ccc6F)c6ccc3[nH]6)C=C5)C=C4)cc2)c(-c2nc3ccccc3s2)c1
REMARK SMILES IDX 20 1 19 2 17 3 18 4 16 6 15 7 14 8 11 9 12 10 99 11 13 12
REMARK SMILES IDX 89 13 10 14 8 15 9 16 7 18 1 19 2 20 3 21 4 22 6 23 5 24
REMARK SMILES IDX 90 25 91 26 98 27 92 28 97 29 93 30 96 31 94 32 95 33 21 34
REMARK SMILES IDX 22 35 23 36 24 37 25 39 26 40 27 41 88 42 28 43 87 44 29 45
REMARK SMILES IDX 30 46 31 47 81 48 32 49 86 50 80 51 82 52 33 53 85 54 79 55
REMARK SMILES IDX 78 56 34 58 66 59 46 60 65 61 47 62 50 63 64 64 83 65 48 66
REMARK SMILES IDX 49 67 63 69 84 70 51 71 35 72 36 73 44 74 37 75 43 76 45 77
REMARK SMILES IDX 42 78 38 79 39 80 40 81 41 82 67 83 68 84 76 85 69 86 75 87
REMARK SMILES IDX 77 88 74 89 70 90 71 91 72 92 73 93 52 94 53 95 61 96 54 97
REMARK SMILES IDX 60 98 62 99 59 100 55 101 56 102 57 103 58 104
REMARK H PARENT 19 5 10 17 23 38 82 57 50 68
REMARK Flexibility Score: inf
ROOT
ATOM      1  C   UNL A   1      31.649  30.246  26.142  1.00  0.00     0.117 C 
ENDROOT
BRANCH   1   2
ATOM      2  N   UNL A   1      32.440  29.802  25.009  1.00  0.00    -0.353 N 
ATOM      3  C   UNL A   1      33.206  28.673  24.903  1.00  0.00     0.257 C 
ATOM      4  O   UNL A   1      33.976  28.573  23.951  1.00  0.00    -0.271 OA
ATOM      5  H   UNL A   1      32.422  30.386  24.216  1.00  0.00     0.163 HD
BRANCH   3   6
ATOM      6  C   UNL A   1      33.042  27.578  25.998  1.00  0.00     0.329 C 
BRANCH   6   7
ATOM      7  O   UNL A   1      31.769  27.070  26.403  1.00  0.00    -0.483 OA
BRANCH   7   8
ATOM      8  C   UNL A   1      31.566  25.770  26.025  1.00  0.00     0.130 A 
ATOM      9  C   UNL A   1      31.434  23.099  25.247  1.00  0.00     0.042 A 
ATOM     10  C   UNL A   1      31.997  23.431  26.479  1.00  0.00     0.030 A 
ATOM     11  C   UNL A   1      30.801  24.087  24.486  1.00  0.00     0.041 A 
ATOM     12  C   UNL A   1      32.095  24.768  26.851  1.00  0.00     0.049 A 
ATOM     13  C   UNL A   1      30.813  25.445  24.879  1.00  0.00     0.055 A 
BRANCH   9  14
ATOM     14  N   UNL A   1      31.577  21.773  24.820  1.00  0.00    -0.322 N 
ATOM     15  C   UNL A   1      32.630  21.132  24.206  1.00  0.00     0.255 C 
ATOM     16  O   UNL A   1      32.426  20.009  23.736  1.00  0.00    -0.269 OA
ATOM     17  H   UNL A   1      30.793  21.203  24.990  1.00  0.00     0.170 HD
BRANCH  15  18
ATOM     18  C   UNL A   1      34.016  21.687  24.165  1.00  0.00     0.043 A 
ATOM     19  C   UNL A   1      33.603  23.421  22.293  1.00  0.00     0.045 C 
ATOM     20  C   UNL A   1      34.464  22.702  23.291  1.00  0.00    -0.038 A 
ATOM     21  C   UNL A   1      35.810  23.114  23.365  1.00  0.00     0.004 A 
ATOM     22  C   UNL A   1      36.662  22.625  24.353  1.00  0.00     0.000 A 
ATOM     23  C   UNL A   1      34.880  21.226  25.176  1.00  0.00     0.014 A 
ATOM     24  C   UNL A   1      36.189  21.701  25.277  1.00  0.00     0.001 A 
ENDBRANCH  15  18
ENDBRANCH   9  14
BRANCH  13  25
ATOM     25  C   UNL A   1      30.108  26.414  24.004  1.00  0.00     0.128 A 
ATOM     26  N   UNL A   1      30.733  27.291  23.235  1.00  0.00    -0.236 NA
ATOM     27  S   UNL A   1      28.389  26.517  23.883  1.00  0.00    -0.114 S 
ATOM     28  C   UNL A   1      29.851  28.279  22.829  1.00  0.00     0.082 A 
ATOM     29  C   UNL A   1      28.521  28.070  23.186  1.00  0.00     0.055 A 
ATOM     30  C   UNL A   1      30.185  29.463  22.146  1.00  0.00     0.030 A 
ATOM     31  C   UNL A   1      27.522  29.029  22.966  1.00  0.00     0.021 A 
ATOM     32  C   UNL A   1      29.199  30.431  21.917  1.00  0.00     0.002 A 
ATOM     33  C   UNL A   1      27.890  30.223  22.344  1.00  0.00     0.002 A 
ENDBRANCH  13  25
ENDBRANCH   7   8
ENDBRANCH   6   7
ENDBRANCH   3   6
ENDBRANCH   1   2
BRANCH   1  34
ATOM     34  C   UNL A   1      32.398  31.304  26.945  1.00  0.00     0.042 C 
BRANCH  34  35
ATOM     35  C   UNL A   1      33.710  30.786  27.525  1.00  0.00     0.118 C 
BRANCH  35  36
ATOM     36  N   UNL A   1      34.298  31.680  28.513  1.00  0.00    -0.352 N 
ATOM     37  C   UNL A   1      35.430  31.504  29.288  1.00  0.00     0.251 C 
ATOM     38  H   UNL A   1      33.823  32.532  28.647  1.00  0.00     0.163 HD
ATOM     39  O   UNL A   1      35.739  32.320  30.144  1.00  0.00    -0.269 OA
BRANCH  37  40
ATOM     40  C   UNL A   1      36.347  30.382  28.971  1.00  0.00     0.039 A 
ATOM     41  C   UNL A   1      36.783  29.598  30.046  1.00  0.00     0.014 A 
ATOM     42  C   UNL A   1      36.930  30.244  27.716  1.00  0.00     0.014 A 
ATOM     43  C   UNL A   1      37.947  28.846  29.917  1.00  0.00     0.010 A 
ATOM     44  C   UNL A   1      38.131  29.569  27.608  1.00  0.00     0.010 A 
ATOM     45  C   UNL A   1      38.668  28.921  28.724  1.00  0.00    -0.014 A 
BRANCH  45  46
ATOM     46  C   UNL A   1      40.048  28.469  28.608  1.00  0.00     0.031 A 
ATOM     47  C   UNL A   1      40.363  27.050  28.360  1.00  0.00     0.074 A 
ATOM     48  C   UNL A   1      41.056  29.360  28.712  1.00  0.00     0.049 A 
ATOM     49  N   UNL A   1      41.439  26.469  28.772  1.00  0.00    -0.248 NA
ATOM     50  C   UNL A   1      39.457  26.155  27.652  1.00  0.00     0.031 C 
ATOM     51  C   UNL A   1      42.469  29.143  28.419  1.00  0.00     0.029 A 
ATOM     52  N   UNL A   1      41.019  30.594  29.353  1.00  0.00    -0.354 N 
ATOM     53  C   UNL A   1      41.512  25.245  28.151  1.00  0.00     0.074 A 
ATOM     54  C   UNL A   1      40.221  25.065  27.526  1.00  0.00     0.031 C 
ATOM     55  C   UNL A   1      43.194  30.054  29.088  1.00  0.00     0.029 A 
ATOM     56  C   UNL A   1      42.281  30.804  29.932  1.00  0.00     0.049 A 
ATOM     57  H   UNL A   1      40.251  31.208  29.394  1.00  0.00     0.167 HD
ATOM     58  C   UNL A   1      42.701  24.581  28.101  1.00  0.00     0.034 A 
ATOM     59  C   UNL A   1      42.418  30.991  31.277  1.00  0.00     0.034 A 
ATOM     60  C   UNL A   1      43.767  25.325  28.772  1.00  0.00     0.049 A 
ATOM     61  C   UNL A   1      43.288  29.945  31.939  1.00  0.00     0.074 A 
ATOM     62  C   UNL A   1      44.782  26.136  28.292  1.00  0.00     0.029 A 
ATOM     63  N   UNL A   1      43.722  25.522  30.146  1.00  0.00    -0.354 N 
ATOM     64  N   UNL A   1      43.592  28.797  31.399  1.00  0.00    -0.248 NA
ATOM     65  C   UNL A   1      43.879  30.109  33.262  1.00  0.00     0.031 C 
ATOM     66  C   UNL A   1      45.325  26.855  29.387  1.00  0.00     0.029 A 
ATOM     67  C   UNL A   1      44.659  26.460  30.535  1.00  0.00     0.049 A 
ATOM     68  H   UNL A   1      43.107  25.056  30.760  1.00  0.00     0.167 HD
ATOM     69  C   UNL A   1      44.385  28.074  32.258  1.00  0.00     0.074 A 
ATOM     70  C   UNL A   1      44.548  28.951  33.404  1.00  0.00     0.031 C 
ATOM     71  C   UNL A   1      44.828  26.817  31.939  1.00  0.00     0.034 A 
BRANCH  58  72
ATOM     72  C   UNL A   1      42.969  23.421  27.169  1.00  0.00     0.023 A 
ATOM     73  C   UNL A   1      42.324  22.186  27.395  1.00  0.00     0.031 A 
ATOM     74  C   UNL A   1      43.858  23.447  26.079  1.00  0.00     0.131 A 
ATOM     75  C   UNL A   1      42.653  21.038  26.654  1.00  0.00     0.055 A 
ATOM     76  C   UNL A   1      44.233  22.292  25.378  1.00  0.00     0.041 A 
ATOM     77  F   UNL A   1      44.366  24.598  25.615  1.00  0.00    -0.206 F 
ATOM     78  C   UNL A   1      43.641  21.072  25.675  1.00  0.00     0.022 A 
BRANCH  75  79
ATOM     79  S   UNL A   1      41.756  19.495  26.981  1.00  0.00     0.124 S 
ATOM     80  O   UNL A   1      40.865  19.877  28.072  1.00  0.00    -0.237 OA
ATOM     81  O   UNL A   1      41.123  19.227  25.694  1.00  0.00    -0.237 OA
ATOM     82  O   UNL A   1      42.816  18.558  27.352  1.00  0.00    -0.744 OA
ENDBRANCH  75  79
ENDBRANCH  58  72
BRANCH  59  83
ATOM     83  C   UNL A   1      41.242  31.675  31.893  1.00  0.00     0.023 A 
ATOM     84  C   UNL A   1      40.322  30.861  32.593  1.00  0.00     0.031 A 
ATOM     85  C   UNL A   1      41.232  33.050  32.157  1.00  0.00     0.131 A 
ATOM     86  C   UNL A   1      39.570  31.390  33.652  1.00  0.00     0.055 A 
ATOM     87  C   UNL A   1      40.410  33.590  33.159  1.00  0.00     0.041 A 
ATOM     88  F   UNL A   1      42.099  33.871  31.549  1.00  0.00    -0.206 F 
ATOM     89  C   UNL A   1      39.611  32.753  33.942  1.00  0.00     0.022 A 
BRANCH  86  90
ATOM     90  S   UNL A   1      38.794  30.230  34.821  1.00  0.00     0.124 S 
ATOM     91  O   UNL A   1      38.186  29.251  33.927  1.00  0.00    -0.237 OA
ATOM     92  O   UNL A   1      39.928  29.757  35.615  1.00  0.00    -0.237 OA
ATOM     93  O   UNL A   1      37.857  31.061  35.574  1.00  0.00    -0.744 OA
ENDBRANCH  86  90
ENDBRANCH  59  83
BRANCH  71  94
ATOM     94  C   UNL A   1      45.546  25.838  32.855  1.00  0.00     0.023 A 
ATOM     95  C   UNL A   1      44.901  24.828  33.582  1.00  0.00     0.031 A 
ATOM     96  C   UNL A   1      46.961  25.859  32.980  1.00  0.00     0.131 A 
ATOM     97  C   UNL A   1      45.617  23.959  34.430  1.00  0.00     0.055 A 
ATOM     98  C   UNL A   1      47.678  24.950  33.765  1.00  0.00     0.041 A 
ATOM     99  F   UNL A   1      47.719  26.756  32.333  1.00  0.00    -0.206 F 
ATOM    100  C   UNL A   1      47.006  23.999  34.511  1.00  0.00     0.022 A 
BRANCH  97 101
ATOM    101  S   UNL A   1      44.679  22.807  35.467  1.00  0.00     0.124 S 
ATOM    102  O   UNL A   1      45.580  22.623  36.601  1.00  0.00    -0.237 OA
ATOM    103  O   UNL A   1      43.458  23.557  35.744  1.00  0.00    -0.237 OA
ATOM    104  O   UNL A   1      44.507  21.634  34.613  1.00  0.00    -0.744 OA
ENDBRANCH  97 101
ENDBRANCH  71  94
ENDBRANCH  45  46
ENDBRANCH  37  40
ENDBRANCH  35  36
ENDBRANCH  34  35
ENDBRANCH   1  34
TORSDOF 18
ENDMDL
MODEL 3
REMARK VINA RESULT:     -13.5      1.054      1.876
REMARK SMILES Cc1ccccc1C(=O)Nc1ccc(OCC(=O)NCCCNC(=O)c2ccc(-c3c4nc(c(-c5cc(S(=O)(=O)[O-])ccc5F)c5ccc([nH]5)c(-c5cc(S(=O)(=O)[O-])ccc5F)c5nc(c(-c6cc(S(=O)(=O)[O-])ccc6F)c6ccc3[nH]6)C=C5)C=C4)cc2)c(-c2nc3ccccc3s2)c1
REMARK SMILES IDX 20 1 19 2 17 3 18 4 16 6 15 7 14 8 11 9 12 10 99 11 13 12
REMARK SMILES IDX 89 13 10 14 8 15 9 16 7 18 1 19 2 20 3 21 4 22 6 23 5 24
REMARK SMILES IDX 90 25 91 26 98 27 92 28 97 29 93 30 96 31 94 32 95 33 21 34
REMARK SMILES IDX 22 35 23 36 24 37 25 39 26 40 27 41 88 42 28 43 87 44 29 45
REMARK SMILES IDX 30 46 31 47 81 48 32 49 86 50 80 51 82 52 33 53 85 54 79 55
REMARK SMILES IDX 78 56 34 58 66 59 46 60 65 61 47 62 50 63 64 64 83 65 48 66
REMARK SMILES IDX 49 67 63 69 84 70 51 71 35 72 36 73 44 74 37 75 43 76 45 77
REMARK SMILES IDX 42 78 38 79 39 80 40 81 41 82 67 83 68 84 76 85 69 86 75 87
REMARK SMILES IDX 77 88 74 89 70 90 71 91 72 92 73 93 52 94 53 95 61 96 54 97
REMARK SMILES IDX 60 98 62 99 59 100 55 101 56 102 57 103 58 104
REMARK H PARENT 19 5 10 17 23 38 82 57 50 68
REMARK Flexibility Score: inf
ROOT
ATOM      1  C   UNL A   1      33.795  28.332  26.817  1.00  0.00     0.117 C 
ENDROOT
BRANCH   1   2
ATOM      2  N   UNL A   1      32.567  28.875  26.265  1.00  0.00    -0.353 N 
ATOM      3  C   UNL A   1      32.360  29.402  25.020  1.00  0.00     0.257 C 
ATOM      4  O   UNL A   1      31.315  30.010  24.806  1.00  0.00    -0.271 OA
ATOM      5  H   UNL A   1      31.784  28.861  26.863  1.00  0.00     0.163 HD
BRANCH   3   6
ATOM      6  C   UNL A   1      33.466  29.184  23.945  1.00  0.00     0.329 C 
BRANCH   6   7
ATOM      7  O   UNL A   1      33.202  28.606  22.665  1.00  0.00    -0.483 OA
BRANCH   7   8
ATOM      8  C   UNL A   1      32.795  27.301  22.739  1.00  0.00     0.130 A 
ATOM      9  C   UNL A   1      32.141  24.595  22.673  1.00  0.00     0.042 A 
ATOM     10  C   UNL A   1      33.442  24.982  22.991  1.00  0.00     0.030 A 
ATOM     11  C   UNL A   1      31.141  25.565  22.547  1.00  0.00     0.041 A 
ATOM     12  C   UNL A   1      33.777  26.332  22.988  1.00  0.00     0.049 A 
ATOM     13  C   UNL A   1      31.437  26.945  22.620  1.00  0.00     0.055 A 
BRANCH   9  14
ATOM     14  N   UNL A   1      31.920  23.230  22.456  1.00  0.00    -0.322 N 
ATOM     15  C   UNL A   1      32.171  22.137  23.257  1.00  0.00     0.255 C 
ATOM     16  O   UNL A   1      32.083  21.016  22.747  1.00  0.00    -0.269 OA
ATOM     17  H   UNL A   1      31.515  23.014  21.585  1.00  0.00     0.170 HD
BRANCH  15  18
ATOM     18  C   UNL A   1      32.451  22.240  24.721  1.00  0.00     0.043 A 
ATOM     19  C   UNL A   1      34.999  21.825  24.581  1.00  0.00     0.045 C 
ATOM     20  C   UNL A   1      33.719  22.080  25.323  1.00  0.00    -0.038 A 
ATOM     21  C   UNL A   1      33.822  22.195  26.724  1.00  0.00     0.004 A 
ATOM     22  C   UNL A   1      32.730  22.578  27.499  1.00  0.00     0.000 A 
ATOM     23  C   UNL A   1      31.366  22.657  25.514  1.00  0.00     0.014 A 
ATOM     24  C   UNL A   1      31.507  22.837  26.891  1.00  0.00     0.001 A 
ENDBRANCH  15  18
ENDBRANCH   9  14
BRANCH  13  25
ATOM     25  C   UNL A   1      30.303  27.893  22.478  1.00  0.00     0.128 A 
ATOM     26  N   UNL A   1      30.310  28.916  21.639  1.00  0.00    -0.236 NA
ATOM     27  S   UNL A   1      28.840  27.777  23.388  1.00  0.00    -0.114 S 
ATOM     28  C   UNL A   1      29.310  29.813  21.978  1.00  0.00     0.082 A 
ATOM     29  C   UNL A   1      28.459  29.395  22.997  1.00  0.00     0.055 A 
ATOM     30  C   UNL A   1      29.116  31.093  21.424  1.00  0.00     0.030 A 
ATOM     31  C   UNL A   1      27.475  30.229  23.548  1.00  0.00     0.021 A 
ATOM     32  C   UNL A   1      28.138  31.938  21.961  1.00  0.00     0.002 A 
ATOM     33  C   UNL A   1      27.345  31.517  23.025  1.00  0.00     0.002 A 
ENDBRANCH  13  25
ENDBRANCH   7   8
ENDBRANCH   6   7
ENDBRANCH   3   6
ENDBRANCH   1   2
BRANCH   1  34
ATOM     34  C   UNL A   1      34.325  29.219  27.938  1.00  0.00     0.042 C 
BRANCH  34  35
ATOM     35  C   UNL A   1      34.627  30.640  27.474  1.00  0.00     0.118 C 
BRANCH  35  36
ATOM     36  N   UNL A   1      35.238  31.467  28.505  1.00  0.00    -0.352 N 
ATOM     37  C   UNL A   1      36.341  31.205  29.299  1.00  0.00     0.251 C 
ATOM     38  H   UNL A   1      34.804  32.338  28.659  1.00  0.00     0.163 HD
ATOM     39  O   UNL A   1      36.671  31.974  30.189  1.00  0.00    -0.269 OA
BRANCH  37  40
ATOM     40  C   UNL A   1      37.205  30.048  28.962  1.00  0.00     0.039 A 
ATOM     41  C   UNL A   1      37.391  29.085  29.961  1.00  0.00     0.014 A 
ATOM     42  C   UNL A   1      37.979  30.022  27.806  1.00  0.00     0.014 A 
ATOM     43  C   UNL A   1      38.496  28.241  29.902  1.00  0.00     0.010 A 
ATOM     44  C   UNL A   1      39.123  29.248  27.786  1.00  0.00     0.010 A 
ATOM     45  C   UNL A   1      39.411  28.403  28.861  1.00  0.00    -0.014 A 
BRANCH  45  46
ATOM     46  C   UNL A   1      40.750  27.830  28.893  1.00  0.00     0.031 A 
ATOM     47  C   UNL A   1      40.996  26.450  28.439  1.00  0.00     0.074 A 
ATOM     48  C   UNL A   1      41.787  28.576  29.331  1.00  0.00     0.049 A 
ATOM     49  N   UNL A   1      41.931  25.693  28.907  1.00  0.00    -0.248 NA
ATOM     50  C   UNL A   1      40.171  25.793  27.433  1.00  0.00     0.031 C 
ATOM     51  C   UNL A   1      43.209  28.261  29.242  1.00  0.00     0.029 A 
ATOM     52  N   UNL A   1      41.727  29.678  30.177  1.00  0.00    -0.354 N 
ATOM     53  C   UNL A   1      42.023  24.593  28.087  1.00  0.00     0.074 A 
ATOM     54  C   UNL A   1      40.859  24.665  27.233  1.00  0.00     0.031 C 
ATOM     55  C   UNL A   1      43.866  28.958  30.181  1.00  0.00     0.029 A 
ATOM     56  C   UNL A   1      42.874  29.647  30.987  1.00  0.00     0.049 A 
ATOM     57  H   UNL A   1      41.013  30.355  30.204  1.00  0.00     0.167 HD
ATOM     58  C   UNL A   1      43.147  23.823  28.113  1.00  0.00     0.034 A 
ATOM     59  C   UNL A   1      42.774  29.583  32.348  1.00  0.00     0.034 A 
ATOM     60  C   UNL A   1      44.125  24.321  29.079  1.00  0.00     0.049 A 
ATOM     61  C   UNL A   1      43.426  28.351  32.936  1.00  0.00     0.074 A 
ATOM     62  C   UNL A   1      45.270  25.088  28.938  1.00  0.00     0.029 A 
ATOM     63  N   UNL A   1      43.843  24.281  30.439  1.00  0.00    -0.354 N 
ATOM     64  N   UNL A   1      43.735  27.287  32.247  1.00  0.00    -0.248 NA
ATOM     65  C   UNL A   1      43.774  28.220  34.346  1.00  0.00     0.031 C 
ATOM     66  C   UNL A   1      45.655  25.544  30.223  1.00  0.00     0.029 A 
ATOM     67  C   UNL A   1      44.762  25.032  31.149  1.00  0.00     0.049 A 
ATOM     68  H   UNL A   1      43.093  23.787  30.843  1.00  0.00     0.167 HD
ATOM     69  C   UNL A   1      44.299  26.345  33.075  1.00  0.00     0.074 A 
ATOM     70  C   UNL A   1      44.316  26.989  34.377  1.00  0.00     0.031 C 
ATOM     71  C   UNL A   1      44.696  25.122  32.603  1.00  0.00     0.034 A 
BRANCH  58  72
ATOM     72  C   UNL A   1      43.493  22.819  27.036  1.00  0.00     0.023 A 
ATOM     73  C   UNL A   1      42.880  21.548  27.051  1.00  0.00     0.031 A 
ATOM     74  C   UNL A   1      44.427  23.027  26.004  1.00  0.00     0.131 A 
ATOM     75  C   UNL A   1      43.277  20.529  26.168  1.00  0.00     0.055 A 
ATOM     76  C   UNL A   1      44.869  21.996  25.163  1.00  0.00     0.041 A 
ATOM     77  F   UNL A   1      44.915  24.246  25.736  1.00  0.00    -0.206 F 
ATOM     78  C   UNL A   1      44.305  20.731  25.253  1.00  0.00     0.022 A 
BRANCH  75  79
ATOM     79  S   UNL A   1      42.418  18.932  26.226  1.00  0.00     0.124 S 
ATOM     80  O   UNL A   1      43.208  18.119  25.305  1.00  0.00    -0.237 OA
ATOM     81  O   UNL A   1      42.512  18.581  27.639  1.00  0.00    -0.237 OA
ATOM     82  O   UNL A   1      41.069  19.255  25.760  1.00  0.00    -0.744 OA
ENDBRANCH  75  79
ENDBRANCH  58  72
BRANCH  59  83
ATOM     83  C   UNL A   1      41.561  30.275  32.876  1.00  0.00     0.023 A 
ATOM     84  C   UNL A   1      41.587  31.689  32.892  1.00  0.00     0.031 A 
ATOM     85  C   UNL A   1      40.314  29.643  32.953  1.00  0.00     0.131 A 
ATOM     86  C   UNL A   1      40.396  32.421  32.789  1.00  0.00     0.055 A 
ATOM     87  C   UNL A   1      39.123  30.384  32.941  1.00  0.00     0.041 A 
ATOM     88  F   UNL A   1      40.220  28.306  32.913  1.00  0.00    -0.206 F 
ATOM     89  C   UNL A   1      39.160  31.776  32.811  1.00  0.00     0.022 A 
BRANCH  86  90
ATOM     90  S   UNL A   1      40.501  34.177  32.318  1.00  0.00     0.124 S 
ATOM     91  O   UNL A   1      41.255  34.118  31.071  1.00  0.00    -0.237 OA
ATOM     92  O   UNL A   1      39.097  34.570  32.201  1.00  0.00    -0.237 OA
ATOM     93  O   UNL A   1      41.194  34.803  33.443  1.00  0.00    -0.744 OA
ENDBRANCH  86  90
ENDBRANCH  59  83
BRANCH  71  94
ATOM     94  C   UNL A   1      45.157  23.928  33.425  1.00  0.00     0.023 A 
ATOM     95  C   UNL A   1      46.466  23.760  33.898  1.00  0.00     0.031 A 
ATOM     96  C   UNL A   1      44.241  22.917  33.821  1.00  0.00     0.131 A 
ATOM     97  C   UNL A   1      46.839  22.623  34.642  1.00  0.00     0.055 A 
ATOM     98  C   UNL A   1      44.596  21.826  34.622  1.00  0.00     0.041 A 
ATOM     99  F   UNL A   1      42.949  22.947  33.461  1.00  0.00    -0.206 F 
ATOM    100  C   UNL A   1      45.908  21.663  35.026  1.00  0.00     0.022 A 
BRANCH  97 101
ATOM    101  S   UNL A   1      48.591  22.404  35.052  1.00  0.00     0.124 S 
ATOM    102  O   UNL A   1      48.584  22.581  36.501  1.00  0.00    -0.237 OA
ATOM    103  O   UNL A   1      48.856  21.048  34.581  1.00  0.00    -0.237 OA
ATOM    104  O   UNL A   1      49.258  23.465  34.300  1.00  0.00    -0.744 OA
ENDBRANCH  97 101
ENDBRANCH  71  94
ENDBRANCH  45  46
ENDBRANCH  37  40
ENDBRANCH  35  36
ENDBRANCH  34  35
ENDBRANCH   1  34
TORSDOF 18
ENDMDL
