MODEL 1
REMARK VINA RESULT:     -12.7      0.000      0.000
REMARK SMILES Cc1cc(OC(F)(F)F)cc2c1O[C@H](C(F)(F)F)C(C(=O)NCCCNC(=O)c1ccc(-c3c4nc(c(-c5cc(S(=O)(=O)[O-])ccc5F)c5ccc([nH]5)c(-c5cc(S(=O)(=O)[O-])ccc5F)c5nc(c(-c6cc(S(=O)(=O)[O-])ccc6F)c6ccc3[nH]6)C=C5)C=C4)cc1)=C2
REMARK SMILES IDX 24 1 23 2 22 3 20 4 21 5 19 7 1 8 2 9 3 10 12 11 4 12 11 13
REMARK SMILES IDX 13 14 10 15 92 16 14 17 5 18 6 19 7 20 8 21 9 22 15 23 16 24
REMARK SMILES IDX 17 25 18 26 25 27 26 28 27 29 28 31 29 32 30 33 91 34 31 35
REMARK SMILES IDX 90 36 32 37 33 38 34 39 84 40 35 41 89 42 83 43 85 44 36 45
REMARK SMILES IDX 88 46 82 47 81 48 37 50 69 51 49 52 68 53 50 54 53 55 67 56
REMARK SMILES IDX 86 57 51 58 52 59 66 61 87 62 54 63 38 64 39 65 47 66 40 67
REMARK SMILES IDX 46 68 48 69 45 70 41 71 42 72 43 73 44 74 70 75 71 76 79 77
REMARK SMILES IDX 72 78 78 79 80 80 77 81 73 82 74 83 75 84 76 85 55 86 56 87
REMARK SMILES IDX 64 88 57 89 63 90 65 91 62 92 58 93 59 94 60 95 61 96
REMARK H PARENT 22 6 26 30 85 49 53 60
REMARK Flexibility Score: inf
ROOT
ATOM      1  C   UNL A   1      31.474  31.950  26.575  1.00  0.00     0.042 C 
ENDROOT
BRANCH   1   2
ATOM      2  C   UNL A   1      31.497  30.452  26.303  1.00  0.00     0.118 C 
BRANCH   2   3
ATOM      3  N   UNL A   1      32.315  30.119  25.145  1.00  0.00    -0.352 N 
ATOM      4  C   UNL A   1      32.758  28.996  24.533  1.00  0.00     0.251 C 
ATOM      5  O   UNL A   1      33.440  29.182  23.520  1.00  0.00    -0.270 OA
ATOM      6  H   UNL A   1      32.629  30.929  24.683  1.00  0.00     0.163 HD
BRANCH   4   7
ATOM      7  C   UNL A   1      32.468  27.604  24.983  1.00  0.00     0.067 C 
ATOM      8  C   UNL A   1      30.444  23.269  26.884  1.00  0.00     0.048 C 
ATOM      9  C   UNL A   1      31.800  23.712  26.411  1.00  0.00    -0.005 A 
ATOM     10  C   UNL A   1      32.862  22.795  26.416  1.00  0.00     0.054 A 
ATOM     11  C   UNL A   1      32.045  25.026  26.000  1.00  0.00     0.131 A 
ATOM     12  C   UNL A   1      34.143  23.180  26.008  1.00  0.00     0.130 A 
ATOM     13  C   UNL A   1      33.318  25.426  25.586  1.00  0.00     0.021 A 
ATOM     14  O   UNL A   1      31.005  25.909  26.063  1.00  0.00    -0.475 OA
ATOM     15  C   UNL A   1      34.362  24.499  25.592  1.00  0.00     0.058 A 
ATOM     16  C   UNL A   1      33.538  26.812  25.184  1.00  0.00     0.025 C 
ATOM     17  C   UNL A   1      31.085  27.056  25.178  1.00  0.00     0.314 C 
BRANCH  12  18
ATOM     18  O   UNL A   1      35.252  22.383  25.972  1.00  0.00    -0.406 OA
BRANCH  18  19
ATOM     19  C   UNL A   1      35.537  21.710  24.758  1.00  0.00     0.573 C 
ATOM     20  F   UNL A   1      36.471  22.367  24.038  1.00  0.00    -0.132 F 
ATOM     21  F   UNL A   1      35.948  20.444  24.986  1.00  0.00    -0.132 F 
ATOM     22  F   UNL A   1      34.405  21.652  24.019  1.00  0.00    -0.132 F 
ENDBRANCH  18  19
ENDBRANCH  12  18
BRANCH  17  23
ATOM     23  C   UNL A   1      30.390  26.718  23.845  1.00  0.00     0.429 C 
ATOM     24  F   UNL A   1      29.792  27.817  23.325  1.00  0.00    -0.167 F 
ATOM     25  F   UNL A   1      31.256  26.272  22.903  1.00  0.00    -0.167 F 
ATOM     26  F   UNL A   1      29.439  25.764  23.976  1.00  0.00    -0.167 F 
ENDBRANCH  17  23
ENDBRANCH   4   7
ENDBRANCH   2   3
ENDBRANCH   1   2
BRANCH   1  27
ATOM     27  C   UNL A   1      32.750  32.421  27.260  1.00  0.00     0.118 C 
BRANCH  27  28
ATOM     28  N   UNL A   1      32.655  33.825  27.655  1.00  0.00    -0.352 N 
ATOM     29  C   UNL A   1      33.271  34.479  28.692  1.00  0.00     0.251 C 
ATOM     30  H   UNL A   1      32.063  34.381  27.097  1.00  0.00     0.163 HD
ATOM     31  O   UNL A   1      32.849  35.572  29.067  1.00  0.00    -0.269 OA
BRANCH  29  32
ATOM     32  C   UNL A   1      34.443  33.867  29.341  1.00  0.00     0.039 A 
ATOM     33  C   UNL A   1      35.728  34.290  28.995  1.00  0.00     0.014 A 
ATOM     34  C   UNL A   1      34.257  32.856  30.288  1.00  0.00     0.014 A 
ATOM     35  C   UNL A   1      36.830  33.728  29.642  1.00  0.00     0.010 A 
ATOM     36  C   UNL A   1      35.347  32.357  30.985  1.00  0.00     0.010 A 
ATOM     37  C   UNL A   1      36.643  32.774  30.655  1.00  0.00    -0.014 A 
BRANCH  37  38
ATOM     38  C   UNL A   1      37.790  32.155  31.356  1.00  0.00     0.031 A 
ATOM     39  C   UNL A   1      38.515  31.007  30.713  1.00  0.00     0.074 A 
ATOM     40  C   UNL A   1      38.121  32.571  32.593  1.00  0.00     0.049 A 
ATOM     41  N   UNL A   1      39.500  30.290  31.184  1.00  0.00    -0.248 NA
ATOM     42  C   UNL A   1      38.054  30.591  29.377  1.00  0.00     0.031 C 
ATOM     43  C   UNL A   1      37.443  33.636  33.332  1.00  0.00     0.029 A 
ATOM     44  N   UNL A   1      39.098  32.137  33.452  1.00  0.00    -0.354 N 
ATOM     45  C   UNL A   1      39.769  29.337  30.210  1.00  0.00     0.074 A 
ATOM     46  C   UNL A   1      38.805  29.524  29.151  1.00  0.00     0.031 C 
ATOM     47  C   UNL A   1      38.035  33.783  34.528  1.00  0.00     0.029 A 
ATOM     48  C   UNL A   1      39.113  32.805  34.653  1.00  0.00     0.049 A 
ATOM     49  H   UNL A   1      39.729  31.415  33.229  1.00  0.00     0.167 HD
ATOM     50  C   UNL A   1      40.754  28.410  30.189  1.00  0.00     0.034 A 
ATOM     51  C   UNL A   1      39.907  32.648  35.732  1.00  0.00     0.034 A 
ATOM     52  C   UNL A   1      41.724  28.257  31.238  1.00  0.00     0.049 A 
ATOM     53  C   UNL A   1      41.010  31.623  35.679  1.00  0.00     0.074 A 
ATOM     54  C   UNL A   1      42.804  27.395  31.283  1.00  0.00     0.029 A 
ATOM     55  N   UNL A   1      41.739  28.985  32.419  1.00  0.00    -0.354 N 
ATOM     56  N   UNL A   1      41.317  30.794  34.708  1.00  0.00    -0.248 NA
ATOM     57  C   UNL A   1      41.888  31.518  36.853  1.00  0.00     0.031 C 
ATOM     58  C   UNL A   1      43.444  27.566  32.509  1.00  0.00     0.029 A 
ATOM     59  C   UNL A   1      42.800  28.577  33.208  1.00  0.00     0.049 A 
ATOM     60  H   UNL A   1      41.091  29.685  32.660  1.00  0.00     0.167 HD
ATOM     61  C   UNL A   1      42.438  30.093  35.140  1.00  0.00     0.074 A 
ATOM     62  C   UNL A   1      42.764  30.604  36.456  1.00  0.00     0.031 C 
ATOM     63  C   UNL A   1      43.130  29.114  34.506  1.00  0.00     0.034 A 
BRANCH  50  64
ATOM     64  C   UNL A   1      40.865  27.511  28.988  1.00  0.00     0.023 A 
ATOM     65  C   UNL A   1      41.833  27.768  28.002  1.00  0.00     0.031 A 
ATOM     66  C   UNL A   1      39.942  26.473  28.765  1.00  0.00     0.131 A 
ATOM     67  C   UNL A   1      41.837  27.014  26.822  1.00  0.00     0.055 A 
ATOM     68  C   UNL A   1      39.975  25.700  27.606  1.00  0.00     0.041 A 
ATOM     69  F   UNL A   1      39.003  26.189  29.682  1.00  0.00    -0.206 F 
ATOM     70  C   UNL A   1      40.920  25.977  26.622  1.00  0.00     0.022 A 
BRANCH  67  71
ATOM     71  S   UNL A   1      43.010  27.373  25.488  1.00  0.00     0.124 S 
ATOM     72  O   UNL A   1      44.135  27.952  26.220  1.00  0.00    -0.237 OA
ATOM     73  O   UNL A   1      43.246  26.046  24.927  1.00  0.00    -0.237 OA
ATOM     74  O   UNL A   1      42.289  28.306  24.628  1.00  0.00    -0.744 OA
ENDBRANCH  67  71
ENDBRANCH  50  64
BRANCH  51  75
ATOM     75  C   UNL A   1      39.718  33.544  36.907  1.00  0.00     0.023 A 
ATOM     76  C   UNL A   1      39.090  33.084  38.078  1.00  0.00     0.031 A 
ATOM     77  C   UNL A   1      40.069  34.903  36.832  1.00  0.00     0.131 A 
ATOM     78  C   UNL A   1      38.783  33.990  39.103  1.00  0.00     0.055 A 
ATOM     79  C   UNL A   1      39.815  35.788  37.880  1.00  0.00     0.041 A 
ATOM     80  F   UNL A   1      40.656  35.388  35.726  1.00  0.00    -0.206 F 
ATOM     81  C   UNL A   1      39.157  35.335  39.018  1.00  0.00     0.022 A 
BRANCH  78  82
ATOM     82  S   UNL A   1      37.800  33.472  40.538  1.00  0.00     0.124 S 
ATOM     83  O   UNL A   1      37.632  34.726  41.264  1.00  0.00    -0.237 OA
ATOM     84  O   UNL A   1      36.597  32.947  39.896  1.00  0.00    -0.237 OA
ATOM     85  O   UNL A   1      38.642  32.476  41.191  1.00  0.00    -0.744 OA
ENDBRANCH  78  82
ENDBRANCH  51  75
BRANCH  63  86
ATOM     86  C   UNL A   1      44.335  28.520  35.190  1.00  0.00     0.023 A 
ATOM     87  C   UNL A   1      44.159  27.516  36.161  1.00  0.00     0.031 A 
ATOM     88  C   UNL A   1      45.617  29.063  35.013  1.00  0.00     0.131 A 
ATOM     89  C   UNL A   1      45.242  27.118  36.954  1.00  0.00     0.055 A 
ATOM     90  C   UNL A   1      46.703  28.632  35.775  1.00  0.00     0.041 A 
ATOM     91  F   UNL A   1      45.828  30.031  34.107  1.00  0.00    -0.206 F 
ATOM     92  C   UNL A   1      46.515  27.665  36.760  1.00  0.00     0.022 A 
BRANCH  89  93
ATOM     93  S   UNL A   1      45.022  25.939  38.313  1.00  0.00     0.124 S 
ATOM     94  O   UNL A   1      44.118  26.667  39.203  1.00  0.00    -0.237 OA
ATOM     95  O   UNL A   1      44.433  24.790  37.629  1.00  0.00    -0.237 OA
ATOM     96  O   UNL A   1      46.371  25.739  38.830  1.00  0.00    -0.744 OA
ENDBRANCH  89  93
ENDBRANCH  63  86
ENDBRANCH  37  38
ENDBRANCH  29  32
ENDBRANCH  27  28
ENDBRANCH   1  27
TORSDOF 16
ENDMDL
MODEL 2
REMARK VINA RESULT:     -12.6      5.478      8.425
REMARK SMILES Cc1cc(OC(F)(F)F)cc2c1O[C@H](C(F)(F)F)C(C(=O)NCCCNC(=O)c1ccc(-c3c4nc(c(-c5cc(S(=O)(=O)[O-])ccc5F)c5ccc([nH]5)c(-c5cc(S(=O)(=O)[O-])ccc5F)c5nc(c(-c6cc(S(=O)(=O)[O-])ccc6F)c6ccc3[nH]6)C=C5)C=C4)cc1)=C2
REMARK SMILES IDX 24 1 23 2 22 3 20 4 21 5 19 7 1 8 2 9 3 10 12 11 4 12 11 13
REMARK SMILES IDX 13 14 10 15 92 16 14 17 5 18 6 19 7 20 8 21 9 22 15 23 16 24
REMARK SMILES IDX 17 25 18 26 25 27 26 28 27 29 28 31 29 32 30 33 91 34 31 35
REMARK SMILES IDX 90 36 32 37 33 38 34 39 84 40 35 41 89 42 83 43 85 44 36 45
REMARK SMILES IDX 88 46 82 47 81 48 37 50 69 51 49 52 68 53 50 54 53 55 67 56
REMARK SMILES IDX 86 57 51 58 52 59 66 61 87 62 54 63 38 64 39 65 47 66 40 67
REMARK SMILES IDX 46 68 48 69 45 70 41 71 42 72 43 73 44 74 70 75 71 76 79 77
REMARK SMILES IDX 72 78 78 79 80 80 77 81 73 82 74 83 75 84 76 85 55 86 56 87
REMARK SMILES IDX 64 88 57 89 63 90 65 91 62 92 58 93 59 94 60 95 61 96
REMARK H PARENT 22 6 26 30 85 49 53 60
REMARK Flexibility Score: inf
ROOT
ATOM      1  C   UNL A   1      34.883  22.357  26.623  1.00  0.00     0.042 C 
ENDROOT
BRANCH   1   2
ATOM      2  C   UNL A   1      33.753  22.086  25.640  1.00  0.00     0.118 C 
BRANCH   2   3
ATOM      3  N   UNL A   1      34.125  22.421  24.273  1.00  0.00    -0.352 N 
ATOM      4  C   UNL A   1      34.005  23.485  23.444  1.00  0.00     0.251 C 
ATOM      5  O   UNL A   1      34.505  23.339  22.324  1.00  0.00    -0.270 OA
ATOM      6  H   UNL A   1      34.590  21.674  23.834  1.00  0.00     0.163 HD
BRANCH   4   7
ATOM      7  C   UNL A   1      33.346  24.776  23.796  1.00  0.00     0.067 C 
ATOM      8  C   UNL A   1      30.590  29.121  23.941  1.00  0.00     0.048 C 
ATOM      9  C   UNL A   1      31.686  28.508  24.767  1.00  0.00    -0.005 A 
ATOM     10  C   UNL A   1      32.144  29.183  25.908  1.00  0.00     0.054 A 
ATOM     11  C   UNL A   1      32.290  27.299  24.410  1.00  0.00     0.131 A 
ATOM     12  C   UNL A   1      33.180  28.656  26.684  1.00  0.00     0.130 A 
ATOM     13  C   UNL A   1      33.324  26.756  25.176  1.00  0.00     0.021 A 
ATOM     14  O   UNL A   1      31.862  26.697  23.261  1.00  0.00    -0.475 OA
ATOM     15  C   UNL A   1      33.764  27.439  26.313  1.00  0.00     0.058 A 
ATOM     16  C   UNL A   1      33.944  25.502  24.759  1.00  0.00     0.025 C 
ATOM     17  C   UNL A   1      32.071  25.264  23.174  1.00  0.00     0.314 C 
BRANCH  12  18
ATOM     18  O   UNL A   1      33.712  29.219  27.810  1.00  0.00    -0.406 OA
BRANCH  18  19
ATOM     19  C   UNL A   1      34.937  29.919  27.677  1.00  0.00     0.573 C 
ATOM     20  F   UNL A   1      35.684  29.420  26.670  1.00  0.00    -0.132 F 
ATOM     21  F   UNL A   1      34.726  31.237  27.474  1.00  0.00    -0.132 F 
ATOM     22  F   UNL A   1      35.640  29.784  28.825  1.00  0.00    -0.132 F 
ENDBRANCH  18  19
ENDBRANCH  12  18
BRANCH  17  23
ATOM     23  C   UNL A   1      30.829  24.536  23.723  1.00  0.00     0.429 C 
ATOM     24  F   UNL A   1      29.722  25.307  23.584  1.00  0.00    -0.167 F 
ATOM     25  F   UNL A   1      30.571  23.376  23.072  1.00  0.00    -0.167 F 
ATOM     26  F   UNL A   1      30.941  24.224  25.035  1.00  0.00    -0.167 F 
ENDBRANCH  17  23
ENDBRANCH   4   7
ENDBRANCH   2   3
ENDBRANCH   1   2
BRANCH   1  27
ATOM     27  C   UNL A   1      36.187  22.694  25.909  1.00  0.00     0.118 C 
BRANCH  27  28
ATOM     28  N   UNL A   1      37.133  21.583  25.976  1.00  0.00    -0.352 N 
ATOM     29  C   UNL A   1      38.503  21.612  26.045  1.00  0.00     0.251 C 
ATOM     30  H   UNL A   1      36.730  20.684  25.969  1.00  0.00     0.163 HD
ATOM     31  O   UNL A   1      39.154  20.601  25.785  1.00  0.00    -0.269 OA
BRANCH  29  32
ATOM     32  C   UNL A   1      39.183  22.857  26.441  1.00  0.00     0.039 A 
ATOM     33  C   UNL A   1      40.155  22.829  27.443  1.00  0.00     0.014 A 
ATOM     34  C   UNL A   1      38.835  24.060  25.821  1.00  0.00     0.014 A 
ATOM     35  C   UNL A   1      40.818  24.008  27.786  1.00  0.00     0.010 A 
ATOM     36  C   UNL A   1      39.550  25.214  26.106  1.00  0.00     0.010 A 
ATOM     37  C   UNL A   1      40.533  25.202  27.104  1.00  0.00    -0.014 A 
BRANCH  37  38
ATOM     38  C   UNL A   1      41.213  26.471  27.447  1.00  0.00     0.031 A 
ATOM     39  C   UNL A   1      42.623  26.701  26.982  1.00  0.00     0.074 A 
ATOM     40  C   UNL A   1      40.594  27.370  28.235  1.00  0.00     0.049 A 
ATOM     41  N   UNL A   1      43.413  27.712  27.224  1.00  0.00    -0.248 NA
ATOM     42  C   UNL A   1      43.235  25.642  26.160  1.00  0.00     0.031 C 
ATOM     43  C   UNL A   1      39.249  27.217  28.790  1.00  0.00     0.029 A 
ATOM     44  N   UNL A   1      41.021  28.580  28.720  1.00  0.00    -0.354 N 
ATOM     45  C   UNL A   1      44.614  27.408  26.595  1.00  0.00     0.074 A 
ATOM     46  C   UNL A   1      44.472  26.093  26.015  1.00  0.00     0.031 C 
ATOM     47  C   UNL A   1      38.955  28.300  29.528  1.00  0.00     0.029 A 
ATOM     48  C   UNL A   1      40.099  29.208  29.522  1.00  0.00     0.049 A 
ATOM     49  H   UNL A   1      41.904  28.962  28.512  1.00  0.00     0.167 HD
ATOM     50  C   UNL A   1      45.724  28.174  26.485  1.00  0.00     0.034 A 
ATOM     51  C   UNL A   1      40.167  30.385  30.178  1.00  0.00     0.034 A 
ATOM     52  C   UNL A   1      45.838  29.494  27.043  1.00  0.00     0.049 A 
ATOM     53  C   UNL A   1      41.405  31.231  30.025  1.00  0.00     0.074 A 
ATOM     54  C   UNL A   1      46.893  30.379  26.930  1.00  0.00     0.029 A 
ATOM     55  N   UNL A   1      44.865  30.120  27.809  1.00  0.00    -0.354 N 
ATOM     56  N   UNL A   1      42.498  30.974  29.343  1.00  0.00    -0.248 NA
ATOM     57  C   UNL A   1      41.421  32.531  30.711  1.00  0.00     0.031 C 
ATOM     58  C   UNL A   1      46.580  31.522  27.666  1.00  0.00     0.029 A 
ATOM     59  C   UNL A   1      45.304  31.375  28.191  1.00  0.00     0.049 A 
ATOM     60  H   UNL A   1      43.993  29.729  28.046  1.00  0.00     0.167 HD
ATOM     61  C   UNL A   1      43.315  32.090  29.492  1.00  0.00     0.074 A 
ATOM     62  C   UNL A   1      42.587  33.030  30.319  1.00  0.00     0.031 C 
ATOM     63  C   UNL A   1      44.556  32.313  28.992  1.00  0.00     0.034 A 
BRANCH  50  64
ATOM     64  C   UNL A   1      46.892  27.633  25.707  1.00  0.00     0.023 A 
ATOM     65  C   UNL A   1      47.072  27.993  24.361  1.00  0.00     0.031 A 
ATOM     66  C   UNL A   1      47.759  26.675  26.265  1.00  0.00     0.131 A 
ATOM     67  C   UNL A   1      48.077  27.376  23.607  1.00  0.00     0.055 A 
ATOM     68  C   UNL A   1      48.784  26.093  25.520  1.00  0.00     0.041 A 
ATOM     69  F   UNL A   1      47.628  26.304  27.549  1.00  0.00    -0.206 F 
ATOM     70  C   UNL A   1      48.938  26.435  24.180  1.00  0.00     0.022 A 
BRANCH  67  71
ATOM     71  S   UNL A   1      48.282  27.745  21.844  1.00  0.00     0.124 S 
ATOM     72  O   UNL A   1      48.549  26.421  21.286  1.00  0.00    -0.237 OA
ATOM     73  O   UNL A   1      46.985  28.318  21.501  1.00  0.00    -0.237 OA
ATOM     74  O   UNL A   1      49.412  28.668  21.809  1.00  0.00    -0.744 OA
ENDBRANCH  67  71
ENDBRANCH  50  64
BRANCH  51  75
ATOM     75  C   UNL A   1      38.989  30.846  30.964  1.00  0.00     0.023 A 
ATOM     76  C   UNL A   1      37.946  31.567  30.356  1.00  0.00     0.031 A 
ATOM     77  C   UNL A   1      38.945  30.663  32.357  1.00  0.00     0.131 A 
ATOM     78  C   UNL A   1      36.933  32.125  31.149  1.00  0.00     0.055 A 
ATOM     79  C   UNL A   1      37.903  31.169  33.134  1.00  0.00     0.041 A 
ATOM     80  F   UNL A   1      39.928  29.994  32.981  1.00  0.00    -0.206 F 
ATOM     81  C   UNL A   1      36.896  31.916  32.531  1.00  0.00     0.022 A 
BRANCH  78  82
ATOM     82  S   UNL A   1      35.685  33.224  30.424  1.00  0.00     0.124 S 
ATOM     83  O   UNL A   1      34.482  32.399  30.475  1.00  0.00    -0.237 OA
ATOM     84  O   UNL A   1      35.715  34.354  31.349  1.00  0.00    -0.237 OA
ATOM     85  O   UNL A   1      36.202  33.500  29.088  1.00  0.00    -0.744 OA
ENDBRANCH  78  82
ENDBRANCH  51  75
BRANCH  63  86
ATOM     86  C   UNL A   1      45.231  33.628  29.289  1.00  0.00     0.023 A 
ATOM     87  C   UNL A   1      45.137  34.683  28.362  1.00  0.00     0.031 A 
ATOM     88  C   UNL A   1      46.099  33.772  30.383  1.00  0.00     0.131 A 
ATOM     89  C   UNL A   1      45.936  35.821  28.522  1.00  0.00     0.055 A 
ATOM     90  C   UNL A   1      46.859  34.928  30.563  1.00  0.00     0.041 A 
ATOM     91  F   UNL A   1      46.228  32.786  31.284  1.00  0.00    -0.206 F 
ATOM     92  C   UNL A   1      46.790  35.952  29.622  1.00  0.00     0.022 A 
BRANCH  89  93
ATOM     93  S   UNL A   1      45.954  37.134  27.271  1.00  0.00     0.124 S 
ATOM     94  O   UNL A   1      44.527  37.371  27.060  1.00  0.00    -0.237 OA
ATOM     95  O   UNL A   1      46.669  38.204  27.960  1.00  0.00    -0.237 OA
ATOM     96  O   UNL A   1      46.655  36.534  26.140  1.00  0.00    -0.744 OA
ENDBRANCH  89  93
ENDBRANCH  63  86
ENDBRANCH  37  38
ENDBRANCH  29  32
ENDBRANCH  27  28
ENDBRANCH   1  27
TORSDOF 16
ENDMDL
MODEL 3
REMARK VINA RESULT:     -12.5      3.557      8.320
REMARK SMILES Cc1cc(OC(F)(F)F)cc2c1O[C@H](C(F)(F)F)C(C(=O)NCCCNC(=O)c1ccc(-c3c4nc(c(-c5cc(S(=O)(=O)[O-])ccc5F)c5ccc([nH]5)c(-c5cc(S(=O)(=O)[O-])ccc5F)c5nc(c(-c6cc(S(=O)(=O)[O-])ccc6F)c6ccc3[nH]6)C=C5)C=C4)cc1)=C2
REMARK SMILES IDX 24 1 23 2 22 3 20 4 21 5 19 7 1 8 2 9 3 10 12 11 4 12 11 13
REMARK SMILES IDX 13 14 10 15 92 16 14 17 5 18 6 19 7 20 8 21 9 22 15 23 16 24
REMARK SMILES IDX 17 25 18 26 25 27 26 28 27 29 28 31 29 32 30 33 91 34 31 35
REMARK SMILES IDX 90 36 32 37 33 38 34 39 84 40 35 41 89 42 83 43 85 44 36 45
REMARK SMILES IDX 88 46 82 47 81 48 37 50 69 51 49 52 68 53 50 54 53 55 67 56
REMARK SMILES IDX 86 57 51 58 52 59 66 61 87 62 54 63 38 64 39 65 47 66 40 67
REMARK SMILES IDX 46 68 48 69 45 70 41 71 42 72 43 73 44 74 70 75 71 76 79 77
REMARK SMILES IDX 72 78 78 79 80 80 77 81 73 82 74 83 75 84 76 85 55 86 56 87
REMARK SMILES IDX 64 88 57 89 63 90 65 91 62 92 58 93 59 94 60 95 61 96
REMARK H PARENT 22 6 26 30 85 49 53 60
REMARK Flexibility Score: inf
ROOT
ATOM      1  C   UNL A   1      33.843  28.611  24.735  1.00  0.00     0.042 C 
ENDROOT
BRANCH   1   2
ATOM      2  C   UNL A   1      32.708  27.713  24.263  1.00  0.00     0.118 C 
BRANCH   2   3
ATOM      3  N   UNL A   1      31.777  27.398  25.337  1.00  0.00    -0.352 N 
ATOM      4  C   UNL A   1      31.373  26.294  26.008  1.00  0.00     0.251 C 
ATOM      5  O   UNL A   1      30.541  26.495  26.899  1.00  0.00    -0.270 OA
ATOM      6  H   UNL A   1      31.318  28.205  25.662  1.00  0.00     0.163 HD
BRANCH   4   7
ATOM      7  C   UNL A   1      31.866  24.910  25.756  1.00  0.00     0.067 C 
ATOM      8  C   UNL A   1      32.419  19.873  24.846  1.00  0.00     0.048 C 
ATOM      9  C   UNL A   1      33.321  21.003  25.257  1.00  0.00    -0.005 A 
ATOM     10  C   UNL A   1      34.689  20.754  25.447  1.00  0.00     0.054 A 
ATOM     11  C   UNL A   1      32.831  22.291  25.492  1.00  0.00     0.131 A 
ATOM     12  C   UNL A   1      35.553  21.774  25.855  1.00  0.00     0.130 A 
ATOM     13  C   UNL A   1      33.680  23.323  25.897  1.00  0.00     0.021 A 
ATOM     14  O   UNL A   1      31.485  22.486  25.356  1.00  0.00    -0.475 OA
ATOM     15  C   UNL A   1      35.041  23.059  26.075  1.00  0.00     0.058 A 
ATOM     16  C   UNL A   1      33.126  24.649  26.152  1.00  0.00     0.025 C 
ATOM     17  C   UNL A   1      31.062  23.844  25.071  1.00  0.00     0.314 C 
BRANCH  12  18
ATOM     18  O   UNL A   1      36.896  21.656  26.075  1.00  0.00    -0.406 OA
BRANCH  18  19
ATOM     19  C   UNL A   1      37.734  21.492  24.944  1.00  0.00     0.573 C 
ATOM     20  F   UNL A   1      37.242  22.139  23.868  1.00  0.00    -0.132 F 
ATOM     21  F   UNL A   1      38.988  21.926  25.200  1.00  0.00    -0.132 F 
ATOM     22  F   UNL A   1      37.805  20.175  24.644  1.00  0.00    -0.132 F 
ENDBRANCH  18  19
ENDBRANCH  12  18
BRANCH  17  23
ATOM     23  C   UNL A   1      30.994  24.045  23.545  1.00  0.00     0.429 C 
ATOM     24  F   UNL A   1      29.868  24.718  23.201  1.00  0.00    -0.167 F 
ATOM     25  F   UNL A   1      32.034  24.769  23.066  1.00  0.00    -0.167 F 
ATOM     26  F   UNL A   1      30.990  22.877  22.862  1.00  0.00    -0.167 F 
ENDBRANCH  17  23
ENDBRANCH   4   7
ENDBRANCH   2   3
ENDBRANCH   1   2
BRANCH   1  27
ATOM     27  C   UNL A   1      33.836  28.784  26.249  1.00  0.00     0.118 C 
BRANCH  27  28
ATOM     28  N   UNL A   1      33.807  30.197  26.622  1.00  0.00    -0.352 N 
ATOM     29  C   UNL A   1      34.563  30.865  27.552  1.00  0.00     0.251 C 
ATOM     30  H   UNL A   1      33.149  30.748  26.139  1.00  0.00     0.163 HD
ATOM     31  O   UNL A   1      34.205  31.969  27.958  1.00  0.00    -0.269 OA
BRANCH  29  32
ATOM     32  C   UNL A   1      35.808  30.253  28.048  1.00  0.00     0.039 A 
ATOM     33  C   UNL A   1      36.967  30.311  27.271  1.00  0.00     0.014 A 
ATOM     34  C   UNL A   1      35.813  29.605  29.287  1.00  0.00     0.014 A 
ATOM     35  C   UNL A   1      38.150  29.759  27.767  1.00  0.00     0.010 A 
ATOM     36  C   UNL A   1      37.005  29.130  29.811  1.00  0.00     0.010 A 
ATOM     37  C   UNL A   1      38.179  29.184  29.048  1.00  0.00    -0.014 A 
BRANCH  37  38
ATOM     38  C   UNL A   1      39.414  28.585  29.600  1.00  0.00     0.031 A 
ATOM     39  C   UNL A   1      40.074  29.222  30.790  1.00  0.00     0.074 A 
ATOM     40  C   UNL A   1      39.977  27.528  28.987  1.00  0.00     0.049 A 
ATOM     41  N   UNL A   1      41.188  28.892  31.387  1.00  0.00    -0.248 NA
ATOM     42  C   UNL A   1      39.409  30.403  31.369  1.00  0.00     0.031 C 
ATOM     43  C   UNL A   1      39.451  26.872  27.790  1.00  0.00     0.029 A 
ATOM     44  N   UNL A   1      41.123  26.831  29.275  1.00  0.00    -0.354 N 
ATOM     45  C   UNL A   1      41.361  29.826  32.401  1.00  0.00     0.074 A 
ATOM     46  C   UNL A   1      40.276  30.773  32.300  1.00  0.00     0.031 C 
ATOM     47  C   UNL A   1      40.264  25.857  27.454  1.00  0.00     0.029 A 
ATOM     48  C   UNL A   1      41.383  25.810  28.392  1.00  0.00     0.049 A 
ATOM     49  H   UNL A   1      41.704  27.042  30.041  1.00  0.00     0.167 HD
ATOM     50  C   UNL A   1      42.325  29.868  33.349  1.00  0.00     0.034 A 
ATOM     51  C   UNL A   1      42.407  24.933  28.346  1.00  0.00     0.034 A 
ATOM     52  C   UNL A   1      43.382  28.900  33.453  1.00  0.00     0.049 A 
ATOM     53  C   UNL A   1      43.458  24.986  29.425  1.00  0.00     0.074 A 
ATOM     54  C   UNL A   1      44.368  28.814  34.418  1.00  0.00     0.029 A 
ATOM     55  N   UNL A   1      43.587  27.850  32.571  1.00  0.00    -0.354 N 
ATOM     56  N   UNL A   1      43.555  25.815  30.438  1.00  0.00    -0.248 NA
ATOM     57  C   UNL A   1      44.529  23.981  29.371  1.00  0.00     0.031 C 
ATOM     58  C   UNL A   1      45.197  27.741  34.095  1.00  0.00     0.029 A 
ATOM     59  C   UNL A   1      44.696  27.120  32.961  1.00  0.00     0.049 A 
ATOM     60  H   UNL A   1      43.028  27.653  31.786  1.00  0.00     0.167 HD
ATOM     61  C   UNL A   1      44.676  25.414  31.158  1.00  0.00     0.074 A 
ATOM     62  C   UNL A   1      45.218  24.259  30.471  1.00  0.00     0.031 C 
ATOM     63  C   UNL A   1      45.208  25.954  32.282  1.00  0.00     0.034 A 
BRANCH  50  64
ATOM     64  C   UNL A   1      42.270  30.968  34.375  1.00  0.00     0.023 A 
ATOM     65  C   UNL A   1      42.985  32.160  34.170  1.00  0.00     0.031 A 
ATOM     66  C   UNL A   1      41.605  30.788  35.602  1.00  0.00     0.131 A 
ATOM     67  C   UNL A   1      43.043  33.116  35.191  1.00  0.00     0.055 A 
ATOM     68  C   UNL A   1      41.634  31.762  36.600  1.00  0.00     0.041 A 
ATOM     69  F   UNL A   1      40.905  29.667  35.840  1.00  0.00    -0.206 F 
ATOM     70  C   UNL A   1      42.366  32.928  36.400  1.00  0.00     0.022 A 
BRANCH  67  71
ATOM     71  S   UNL A   1      44.029  34.626  35.001  1.00  0.00     0.124 S 
ATOM     72  O   UNL A   1      43.480  35.194  33.770  1.00  0.00    -0.237 OA
ATOM     73  O   UNL A   1      43.705  35.355  36.223  1.00  0.00    -0.237 OA
ATOM     74  O   UNL A   1      45.400  34.139  34.897  1.00  0.00    -0.744 OA
ENDBRANCH  67  71
ENDBRANCH  50  64
BRANCH  51  75
ATOM     75  C   UNL A   1      42.423  23.893  27.279  1.00  0.00     0.023 A 
ATOM     76  C   UNL A   1      41.873  22.618  27.499  1.00  0.00     0.031 A 
ATOM     77  C   UNL A   1      43.086  24.129  26.063  1.00  0.00     0.131 A 
ATOM     78  C   UNL A   1      42.045  21.612  26.539  1.00  0.00     0.055 A 
ATOM     79  C   UNL A   1      43.203  23.142  25.084  1.00  0.00     0.041 A 
ATOM     80  F   UNL A   1      43.639  25.327  25.818  1.00  0.00    -0.206 F 
ATOM     81  C   UNL A   1      42.692  21.871  25.325  1.00  0.00     0.022 A 
BRANCH  78  82
ATOM     82  S   UNL A   1      41.523  19.907  26.874  1.00  0.00     0.124 S 
ATOM     83  O   UNL A   1      40.699  20.067  28.067  1.00  0.00    -0.237 OA
ATOM     84  O   UNL A   1      40.802  19.574  25.647  1.00  0.00    -0.237 OA
ATOM     85  O   UNL A   1      42.780  19.193  27.069  1.00  0.00    -0.744 OA
ENDBRANCH  78  82
ENDBRANCH  51  75
BRANCH  63  86
ATOM     86  C   UNL A   1      46.433  25.314  32.884  1.00  0.00     0.023 A 
ATOM     87  C   UNL A   1      46.288  24.359  33.909  1.00  0.00     0.031 A 
ATOM     88  C   UNL A   1      47.724  25.771  32.572  1.00  0.00     0.131 A 
ATOM     89  C   UNL A   1      47.413  23.927  34.620  1.00  0.00     0.055 A 
ATOM     90  C   UNL A   1      48.847  25.303  33.254  1.00  0.00     0.041 A 
ATOM     91  F   UNL A   1      47.907  26.689  31.610  1.00  0.00    -0.206 F 
ATOM     92  C   UNL A   1      48.692  24.387  34.292  1.00  0.00     0.022 A 
BRANCH  89  93
ATOM     93  S   UNL A   1      47.248  22.815  36.043  1.00  0.00     0.124 S 
ATOM     94  O   UNL A   1      46.620  21.641  35.439  1.00  0.00    -0.237 OA
ATOM     95  O   UNL A   1      48.638  22.637  36.455  1.00  0.00    -0.237 OA
ATOM     96  O   UNL A   1      46.406  23.557  36.975  1.00  0.00    -0.744 OA
ENDBRANCH  89  93
ENDBRANCH  63  86
ENDBRANCH  37  38
ENDBRANCH  29  32
ENDBRANCH  27  28
ENDBRANCH   1  27
TORSDOF 16
ENDMDL
