MODEL 1
REMARK VINA RESULT:     -12.1      0.000      0.000
REMARK SMILES CC[C@](C)(NC(=O)[C@H]1CNc2ccccc2O1)C(=O)NCCCNC(=O)c1ccc(-c2c3nc(c(-c4cc(S(=O)(=O)[O-])ccc4F)c4ccc([nH]4)c(-c4cc(S(=O)(=O)[O-])ccc4F)c4nc(c(-c5cc(S(=O)(=O)[O-])ccc5F)c5ccc2[nH]5)C=C4)C=C3)cc1
REMARK SMILES IDX 22 1 21 2 20 3 18 4 19 5 3 7 4 8 2 9 1 10 5 11 6 12 7 14
REMARK SMILES IDX 8 15 9 16 17 17 10 18 16 19 11 20 15 22 12 23 14 24 13 25
REMARK SMILES IDX 23 26 24 27 25 28 26 30 27 31 28 32 89 33 29 34 88 35 30 36
REMARK SMILES IDX 31 37 32 38 82 39 33 40 87 41 81 42 83 43 34 44 86 45 80 46
REMARK SMILES IDX 79 47 35 49 67 50 47 51 66 52 48 53 51 54 65 55 84 56 49 57
REMARK SMILES IDX 50 58 64 60 85 61 52 62 36 63 37 64 45 65 38 66 44 67 46 68
REMARK SMILES IDX 43 69 39 70 40 71 41 72 42 73 68 74 69 75 77 76 70 77 76 78
REMARK SMILES IDX 78 79 75 80 71 81 72 82 73 83 74 84 53 85 54 86 62 87 55 88
REMARK SMILES IDX 61 89 63 90 60 91 56 92 57 93 58 94 59 95
REMARK H PARENT 20 6 5 13 10 21 24 29 83 48 51 59
REMARK Flexibility Score: inf
ROOT
ATOM      1  C   UNL A   1      32.968  29.495  24.856  1.00  0.00     0.042 C 
ENDROOT
BRANCH   1   2
ATOM      2  C   UNL A   1      33.754  28.197  24.680  1.00  0.00     0.117 C 
BRANCH   2   3
ATOM      3  N   UNL A   1      33.770  27.572  23.366  1.00  0.00    -0.354 N 
ATOM      4  C   UNL A   1      33.376  26.329  22.943  1.00  0.00     0.245 C 
ATOM      5  O   UNL A   1      33.086  26.219  21.748  1.00  0.00    -0.272 OA
ATOM      6  H   UNL A   1      34.129  28.146  22.650  1.00  0.00     0.163 HD
BRANCH   4   7
ATOM      7  C   UNL A   1      33.203  25.128  23.922  1.00  0.00     0.116 C 
ATOM      8  C   UNL A   1      34.545  24.747  24.573  1.00  0.00     0.045 C 
BRANCH   7   9
ATOM      9  C   UNL A   1      32.631  23.956  23.037  1.00  0.00     0.035 C 
ATOM     10  C   UNL A   1      32.438  22.590  23.687  1.00  0.00     0.007 C 
ENDBRANCH   7   9
BRANCH   7  11
ATOM     11  N   UNL A   1      32.245  25.446  25.009  1.00  0.00    -0.339 N 
ATOM     12  C   UNL A   1      31.013  26.021  25.106  1.00  0.00     0.263 C 
ATOM     13  H   UNL A   1      32.588  25.169  25.890  1.00  0.00     0.164 HD
ATOM     14  O   UNL A   1      30.739  26.326  26.278  1.00  0.00    -0.271 OA
BRANCH  12  15
ATOM     15  C   UNL A   1      30.006  26.320  23.954  1.00  0.00     0.281 C 
ATOM     16  C   UNL A   1      28.542  26.328  24.380  1.00  0.00     0.168 C 
ATOM     17  O   UNL A   1      30.467  27.585  23.410  1.00  0.00    -0.477 OA
ATOM     18  N   UNL A   1      27.652  27.062  23.504  1.00  0.00    -0.378 N 
ATOM     19  C   UNL A   1      29.532  28.526  23.071  1.00  0.00     0.143 A 
ATOM     20  C   UNL A   1      28.153  28.301  23.124  1.00  0.00     0.077 A 
ATOM     21  H   UNL A   1      26.779  26.718  23.209  1.00  0.00     0.160 HD
ATOM     22  C   UNL A   1      30.028  29.765  22.662  1.00  0.00     0.049 A 
ATOM     23  C   UNL A   1      27.281  29.331  22.752  1.00  0.00     0.029 A 
ATOM     24  C   UNL A   1      29.151  30.792  22.312  1.00  0.00     0.004 A 
ATOM     25  C   UNL A   1      27.776  30.576  22.362  1.00  0.00     0.002 A 
ENDBRANCH  12  15
ENDBRANCH   7  11
ENDBRANCH   4   7
ENDBRANCH   2   3
ENDBRANCH   1   2
BRANCH   1  26
ATOM     26  C   UNL A   1      32.298  29.786  26.197  1.00  0.00     0.118 C 
BRANCH  26  27
ATOM     27  N   UNL A   1      32.161  31.188  26.525  1.00  0.00    -0.352 N 
ATOM     28  C   UNL A   1      33.030  32.009  27.211  1.00  0.00     0.251 C 
ATOM     29  H   UNL A   1      31.330  31.616  26.214  1.00  0.00     0.163 HD
ATOM     30  O   UNL A   1      32.726  33.182  27.376  1.00  0.00    -0.269 OA
BRANCH  28  31
ATOM     31  C   UNL A   1      34.286  31.473  27.799  1.00  0.00     0.039 A 
ATOM     32  C   UNL A   1      35.338  32.372  28.002  1.00  0.00     0.014 A 
ATOM     33  C   UNL A   1      34.452  30.126  28.138  1.00  0.00     0.014 A 
ATOM     34  C   UNL A   1      36.525  31.939  28.602  1.00  0.00     0.010 A 
ATOM     35  C   UNL A   1      35.625  29.704  28.778  1.00  0.00     0.010 A 
ATOM     36  C   UNL A   1      36.670  30.609  29.028  1.00  0.00    -0.014 A 
BRANCH  36  37
ATOM     37  C   UNL A   1      37.895  30.197  29.772  1.00  0.00     0.031 A 
ATOM     38  C   UNL A   1      38.160  30.684  31.170  1.00  0.00     0.074 A 
ATOM     39  C   UNL A   1      38.780  29.371  29.177  1.00  0.00     0.049 A 
ATOM     40  N   UNL A   1      39.143  30.376  31.980  1.00  0.00    -0.248 NA
ATOM     41  C   UNL A   1      37.206  31.653  31.724  1.00  0.00     0.031 C 
ATOM     42  C   UNL A   1      38.665  28.858  27.810  1.00  0.00     0.029 A 
ATOM     43  N   UNL A   1      39.945  28.811  29.643  1.00  0.00    -0.354 N 
ATOM     44  C   UNL A   1      38.924  31.106  33.144  1.00  0.00     0.074 A 
ATOM     45  C   UNL A   1      37.744  31.914  32.907  1.00  0.00     0.031 C 
ATOM     46  C   UNL A   1      39.698  28.039  27.559  1.00  0.00     0.029 A 
ATOM     47  C   UNL A   1      40.569  27.991  28.731  1.00  0.00     0.049 A 
ATOM     48  H   UNL A   1      40.301  28.981  30.546  1.00  0.00     0.167 HD
ATOM     49  C   UNL A   1      39.627  31.088  34.305  1.00  0.00     0.034 A 
ATOM     50  C   UNL A   1      41.710  27.279  28.822  1.00  0.00     0.034 A 
ATOM     51  C   UNL A   1      40.808  30.286  34.529  1.00  0.00     0.049 A 
ATOM     52  C   UNL A   1      42.487  27.296  30.113  1.00  0.00     0.074 A 
ATOM     53  C   UNL A   1      41.562  30.163  35.685  1.00  0.00     0.029 A 
ATOM     54  N   UNL A   1      41.422  29.482  33.576  1.00  0.00    -0.354 N 
ATOM     55  N   UNL A   1      42.227  27.939  31.228  1.00  0.00    -0.248 NA
ATOM     56  C   UNL A   1      43.704  26.473  30.163  1.00  0.00     0.031 C 
ATOM     57  C   UNL A   1      42.665  29.345  35.412  1.00  0.00     0.029 A 
ATOM     58  C   UNL A   1      42.559  28.890  34.109  1.00  0.00     0.049 A 
ATOM     59  H   UNL A   1      41.096  29.351  32.656  1.00  0.00     0.167 HD
ATOM     60  C   UNL A   1      43.233  27.574  32.119  1.00  0.00     0.074 A 
ATOM     61  C   UNL A   1      44.090  26.640  31.419  1.00  0.00     0.031 C 
ATOM     62  C   UNL A   1      43.426  27.973  33.403  1.00  0.00     0.034 A 
BRANCH  49  63
ATOM     63  C   UNL A   1      39.146  31.990  35.420  1.00  0.00     0.023 A 
ATOM     64  C   UNL A   1      39.586  33.321  35.535  1.00  0.00     0.031 A 
ATOM     65  C   UNL A   1      38.246  31.511  36.389  1.00  0.00     0.131 A 
ATOM     66  C   UNL A   1      39.182  34.102  36.628  1.00  0.00     0.055 A 
ATOM     67  C   UNL A   1      37.786  32.318  37.431  1.00  0.00     0.041 A 
ATOM     68  F   UNL A   1      37.804  30.244  36.344  1.00  0.00    -0.206 F 
ATOM     69  C   UNL A   1      38.266  33.618  37.563  1.00  0.00     0.022 A 
BRANCH  66  70
ATOM     70  S   UNL A   1      39.979  35.711  36.886  1.00  0.00     0.124 S 
ATOM     71  O   UNL A   1      39.306  36.184  38.094  1.00  0.00    -0.237 OA
ATOM     72  O   UNL A   1      41.383  35.346  37.037  1.00  0.00    -0.237 OA
ATOM     73  O   UNL A   1      39.653  36.454  35.671  1.00  0.00    -0.744 OA
ENDBRANCH  66  70
ENDBRANCH  49  63
BRANCH  50  74
ATOM     74  C   UNL A   1      42.199  26.488  27.656  1.00  0.00     0.023 A 
ATOM     75  C   UNL A   1      41.836  25.141  27.487  1.00  0.00     0.031 A 
ATOM     76  C   UNL A   1      43.079  27.057  26.719  1.00  0.00     0.131 A 
ATOM     77  C   UNL A   1      42.387  24.396  26.433  1.00  0.00     0.055 A 
ATOM     78  C   UNL A   1      43.583  26.326  25.642  1.00  0.00     0.041 A 
ATOM     79  F   UNL A   1      43.454  28.340  26.833  1.00  0.00    -0.206 F 
ATOM     80  C   UNL A   1      43.248  24.982  25.503  1.00  0.00     0.022 A 
BRANCH  77  81
ATOM     81  S   UNL A   1      42.027  22.620  26.343  1.00  0.00     0.124 S 
ATOM     82  O   UNL A   1      42.653  22.251  25.080  1.00  0.00    -0.237 OA
ATOM     83  O   UNL A   1      42.673  22.119  27.552  1.00  0.00    -0.237 OA
ATOM     84  O   UNL A   1      40.565  22.570  26.355  1.00  0.00    -0.744 OA
ENDBRANCH  77  81
ENDBRANCH  50  74
BRANCH  62  85
ATOM     85  C   UNL A   1      44.594  27.361  34.142  1.00  0.00     0.023 A 
ATOM     86  C   UNL A   1      44.476  26.146  34.842  1.00  0.00     0.031 A 
ATOM     87  C   UNL A   1      45.834  28.023  34.178  1.00  0.00     0.131 A 
ATOM     88  C   UNL A   1      45.555  25.666  35.600  1.00  0.00     0.055 A 
ATOM     89  C   UNL A   1      46.925  27.509  34.882  1.00  0.00     0.041 A 
ATOM     90  F   UNL A   1      46.006  29.188  33.533  1.00  0.00    -0.206 F 
ATOM     91  C   UNL A   1      46.784  26.332  35.613  1.00  0.00     0.022 A 
BRANCH  88  92
ATOM     92  S   UNL A   1      45.301  24.217  36.662  1.00  0.00     0.124 S 
ATOM     93  O   UNL A   1      44.372  23.418  35.870  1.00  0.00    -0.237 OA
ATOM     94  O   UNL A   1      46.653  23.683  36.790  1.00  0.00    -0.237 OA
ATOM     95  O   UNL A   1      44.741  24.783  37.888  1.00  0.00    -0.744 OA
ENDBRANCH  88  92
ENDBRANCH  62  85
ENDBRANCH  36  37
ENDBRANCH  28  31
ENDBRANCH  26  27
ENDBRANCH   1  26
TORSDOF 16
ENDMDL
MODEL 2
REMARK VINA RESULT:     -12.0      4.827      9.731
REMARK SMILES CC[C@](C)(NC(=O)[C@H]1CNc2ccccc2O1)C(=O)NCCCNC(=O)c1ccc(-c2c3nc(c(-c4cc(S(=O)(=O)[O-])ccc4F)c4ccc([nH]4)c(-c4cc(S(=O)(=O)[O-])ccc4F)c4nc(c(-c5cc(S(=O)(=O)[O-])ccc5F)c5ccc2[nH]5)C=C4)C=C3)cc1
REMARK SMILES IDX 22 1 21 2 20 3 18 4 19 5 3 7 4 8 2 9 1 10 5 11 6 12 7 14
REMARK SMILES IDX 8 15 9 16 17 17 10 18 16 19 11 20 15 22 12 23 14 24 13 25
REMARK SMILES IDX 23 26 24 27 25 28 26 30 27 31 28 32 89 33 29 34 88 35 30 36
REMARK SMILES IDX 31 37 32 38 82 39 33 40 87 41 81 42 83 43 34 44 86 45 80 46
REMARK SMILES IDX 79 47 35 49 67 50 47 51 66 52 48 53 51 54 65 55 84 56 49 57
REMARK SMILES IDX 50 58 64 60 85 61 52 62 36 63 37 64 45 65 38 66 44 67 46 68
REMARK SMILES IDX 43 69 39 70 40 71 41 72 42 73 68 74 69 75 77 76 70 77 76 78
REMARK SMILES IDX 78 79 75 80 71 81 72 82 73 83 74 84 53 85 54 86 62 87 55 88
REMARK SMILES IDX 61 89 63 90 60 91 56 92 57 93 58 94 59 95
REMARK H PARENT 20 6 5 13 10 21 24 29 83 48 51 59
REMARK Flexibility Score: inf
ROOT
ATOM      1  C   UNL A   1      36.573  22.458  23.879  1.00  0.00     0.042 C 
ENDROOT
BRANCH   1   2
ATOM      2  C   UNL A   1      35.449  23.442  23.559  1.00  0.00     0.117 C 
BRANCH   2   3
ATOM      3  N   UNL A   1      34.793  24.124  24.664  1.00  0.00    -0.354 N 
ATOM      4  C   UNL A   1      33.486  24.139  25.079  1.00  0.00     0.245 C 
ATOM      5  O   UNL A   1      33.287  24.425  26.264  1.00  0.00    -0.272 OA
ATOM      6  H   UNL A   1      35.397  24.676  25.214  1.00  0.00     0.163 HD
BRANCH   4   7
ATOM      7  C   UNL A   1      32.307  23.727  24.146  1.00  0.00     0.116 C 
ATOM      8  C   UNL A   1      30.952  23.903  24.856  1.00  0.00     0.045 C 
BRANCH   7   9
ATOM      9  C   UNL A   1      32.581  22.220  23.779  1.00  0.00     0.035 C 
ATOM     10  C   UNL A   1      32.179  21.732  22.390  1.00  0.00     0.007 C 
ENDBRANCH   7   9
BRANCH   7  11
ATOM     11  N   UNL A   1      32.281  24.546  22.909  1.00  0.00    -0.339 N 
ATOM     12  C   UNL A   1      31.851  25.789  22.553  1.00  0.00     0.263 C 
ATOM     13  H   UNL A   1      32.680  24.066  22.147  1.00  0.00     0.164 HD
ATOM     14  O   UNL A   1      31.790  25.919  21.319  1.00  0.00    -0.271 OA
BRANCH  12  15
ATOM     15  C   UNL A   1      31.443  26.964  23.494  1.00  0.00     0.281 C 
ATOM     16  C   UNL A   1      32.110  28.295  23.168  1.00  0.00     0.168 C 
ATOM     17  O   UNL A   1      29.994  26.993  23.404  1.00  0.00    -0.477 OA
ATOM     18  N   UNL A   1      31.416  29.466  23.664  1.00  0.00    -0.378 N 
ATOM     19  C   UNL A   1      29.373  28.210  23.330  1.00  0.00     0.143 A 
ATOM     20  C   UNL A   1      30.046  29.431  23.437  1.00  0.00     0.077 A 
ATOM     21  H   UNL A   1      31.870  30.213  24.116  1.00  0.00     0.160 HD
ATOM     22  C   UNL A   1      27.991  28.183  23.130  1.00  0.00     0.049 A 
ATOM     23  C   UNL A   1      29.314  30.621  23.351  1.00  0.00     0.029 A 
ATOM     24  C   UNL A   1      27.273  29.375  23.025  1.00  0.00     0.004 A 
ATOM     25  C   UNL A   1      27.936  30.595  23.131  1.00  0.00     0.002 A 
ENDBRANCH  12  15
ENDBRANCH   7  11
ENDBRANCH   4   7
ENDBRANCH   2   3
ENDBRANCH   1   2
BRANCH   1  26
ATOM     26  C   UNL A   1      36.882  22.130  25.338  1.00  0.00     0.118 C 
BRANCH  26  27
ATOM     27  N   UNL A   1      37.966  21.193  25.541  1.00  0.00    -0.352 N 
ATOM     28  C   UNL A   1      39.197  21.401  26.125  1.00  0.00     0.251 C 
ATOM     29  H   UNL A   1      37.800  20.277  25.216  1.00  0.00     0.163 HD
ATOM     30  O   UNL A   1      39.977  20.462  26.207  1.00  0.00    -0.269 OA
BRANCH  28  31
ATOM     31  C   UNL A   1      39.604  22.753  26.591  1.00  0.00     0.039 A 
ATOM     32  C   UNL A   1      40.562  22.824  27.608  1.00  0.00     0.014 A 
ATOM     33  C   UNL A   1      39.063  23.932  26.068  1.00  0.00     0.014 A 
ATOM     34  C   UNL A   1      41.025  24.067  28.050  1.00  0.00     0.010 A 
ATOM     35  C   UNL A   1      39.560  25.175  26.483  1.00  0.00     0.010 A 
ATOM     36  C   UNL A   1      40.555  25.256  27.470  1.00  0.00    -0.014 A 
BRANCH  36  37
ATOM     37  C   UNL A   1      41.148  26.564  27.873  1.00  0.00     0.031 A 
ATOM     38  C   UNL A   1      42.575  26.907  27.545  1.00  0.00     0.074 A 
ATOM     39  C   UNL A   1      40.387  27.452  28.543  1.00  0.00     0.049 A 
ATOM     40  N   UNL A   1      43.228  28.021  27.768  1.00  0.00    -0.248 NA
ATOM     41  C   UNL A   1      43.376  25.860  26.898  1.00  0.00     0.031 C 
ATOM     42  C   UNL A   1      39.001  27.229  28.959  1.00  0.00     0.029 A 
ATOM     43  N   UNL A   1      40.664  28.724  28.986  1.00  0.00    -0.354 N 
ATOM     44  C   UNL A   1      44.515  27.815  27.281  1.00  0.00     0.074 A 
ATOM     45  C   UNL A   1      44.561  26.447  26.804  1.00  0.00     0.031 C 
ATOM     46  C   UNL A   1      38.542  28.333  29.570  1.00  0.00     0.029 A 
ATOM     47  C   UNL A   1      39.605  29.332  29.620  1.00  0.00     0.049 A 
ATOM     48  H   UNL A   1      41.539  29.159  28.861  1.00  0.00     0.167 HD
ATOM     49  C   UNL A   1      45.553  28.688  27.219  1.00  0.00     0.034 A 
ATOM     50  C   UNL A   1      39.497  30.555  30.178  1.00  0.00     0.034 A 
ATOM     51  C   UNL A   1      45.502  30.048  27.706  1.00  0.00     0.049 A 
ATOM     52  C   UNL A   1      40.672  31.498  30.120  1.00  0.00     0.074 A 
ATOM     53  C   UNL A   1      46.483  31.024  27.645  1.00  0.00     0.029 A 
ATOM     54  N   UNL A   1      44.419  30.624  28.359  1.00  0.00    -0.354 N 
ATOM     55  N   UNL A   1      41.860  31.308  29.594  1.00  0.00    -0.248 NA
ATOM     56  C   UNL A   1      40.481  32.828  30.715  1.00  0.00     0.031 C 
ATOM     57  C   UNL A   1      46.023  32.161  28.320  1.00  0.00     0.029 A 
ATOM     58  C   UNL A   1      44.722  31.926  28.734  1.00  0.00     0.049 A 
ATOM     59  H   UNL A   1      43.560  30.173  28.531  1.00  0.00     0.167 HD
ATOM     60  C   UNL A   1      42.546  32.507  29.770  1.00  0.00     0.074 A 
ATOM     61  C   UNL A   1      41.634  33.416  30.431  1.00  0.00     0.031 C 
ATOM     62  C   UNL A   1      43.817  32.826  29.412  1.00  0.00     0.034 A 
BRANCH  49  63
ATOM     63  C   UNL A   1      46.848  28.185  26.622  1.00  0.00     0.023 A 
ATOM     64  C   UNL A   1      47.078  28.202  25.235  1.00  0.00     0.031 A 
ATOM     65  C   UNL A   1      47.863  27.670  27.449  1.00  0.00     0.131 A 
ATOM     66  C   UNL A   1      48.258  27.653  24.712  1.00  0.00     0.055 A 
ATOM     67  C   UNL A   1      49.069  27.196  26.928  1.00  0.00     0.041 A 
ATOM     68  F   UNL A   1      47.696  27.610  28.779  1.00  0.00    -0.206 F 
ATOM     69  C   UNL A   1      49.266  27.172  25.550  1.00  0.00     0.022 A 
BRANCH  66  70
ATOM     70  S   UNL A   1      48.397  27.447  22.915  1.00  0.00     0.124 S 
ATOM     71  O   UNL A   1      49.709  28.036  22.651  1.00  0.00    -0.237 OA
ATOM     72  O   UNL A   1      48.301  26.001  22.755  1.00  0.00    -0.237 OA
ATOM     73  O   UNL A   1      47.265  28.211  22.394  1.00  0.00    -0.744 OA
ENDBRANCH  66  70
ENDBRANCH  49  63
BRANCH  50  74
ATOM     74  C   UNL A   1      38.231  30.966  30.850  1.00  0.00     0.023 A 
ATOM     75  C   UNL A   1      37.223  31.649  30.148  1.00  0.00     0.031 A 
ATOM     76  C   UNL A   1      38.032  30.724  32.221  1.00  0.00     0.131 A 
ATOM     77  C   UNL A   1      36.084  32.106  30.829  1.00  0.00     0.055 A 
ATOM     78  C   UNL A   1      36.874  31.135  32.882  1.00  0.00     0.041 A 
ATOM     79  F   UNL A   1      38.963  30.073  32.936  1.00  0.00    -0.206 F 
ATOM     80  C   UNL A   1      35.898  31.844  32.188  1.00  0.00     0.022 A 
BRANCH  77  81
ATOM     81  S   UNL A   1      34.885  33.126  29.928  1.00  0.00     0.124 S 
ATOM     82  O   UNL A   1      35.751  34.100  29.277  1.00  0.00    -0.237 OA
ATOM     83  O   UNL A   1      34.249  32.145  29.055  1.00  0.00    -0.237 OA
ATOM     84  O   UNL A   1      34.030  33.660  30.987  1.00  0.00    -0.744 OA
ENDBRANCH  77  81
ENDBRANCH  50  74
BRANCH  62  85
ATOM     85  C   UNL A   1      44.274  34.239  29.697  1.00  0.00     0.023 A 
ATOM     86  C   UNL A   1      44.089  35.281  28.770  1.00  0.00     0.031 A 
ATOM     87  C   UNL A   1      44.938  34.539  30.900  1.00  0.00     0.131 A 
ATOM     88  C   UNL A   1      44.622  36.554  29.030  1.00  0.00     0.055 A 
ATOM     89  C   UNL A   1      45.410  35.823  31.182  1.00  0.00     0.041 A 
ATOM     90  F   UNL A   1      45.148  33.585  31.822  1.00  0.00    -0.206 F 
ATOM     91  C   UNL A   1      45.267  36.835  30.237  1.00  0.00     0.022 A 
BRANCH  88  92
ATOM     92  S   UNL A   1      44.558  37.811  27.723  1.00  0.00     0.124 S 
ATOM     93  O   UNL A   1      45.830  37.603  27.039  1.00  0.00    -0.237 OA
ATOM     94  O   UNL A   1      43.363  37.426  26.979  1.00  0.00    -0.237 OA
ATOM     95  O   UNL A   1      44.450  39.068  28.460  1.00  0.00    -0.744 OA
ENDBRANCH  88  92
ENDBRANCH  62  85
ENDBRANCH  36  37
ENDBRANCH  28  31
ENDBRANCH  26  27
ENDBRANCH   1  26
TORSDOF 16
ENDMDL
MODEL 3
REMARK VINA RESULT:     -11.8      4.628      9.807
REMARK SMILES CC[C@](C)(NC(=O)[C@H]1CNc2ccccc2O1)C(=O)NCCCNC(=O)c1ccc(-c2c3nc(c(-c4cc(S(=O)(=O)[O-])ccc4F)c4ccc([nH]4)c(-c4cc(S(=O)(=O)[O-])ccc4F)c4nc(c(-c5cc(S(=O)(=O)[O-])ccc5F)c5ccc2[nH]5)C=C4)C=C3)cc1
REMARK SMILES IDX 22 1 21 2 20 3 18 4 19 5 3 7 4 8 2 9 1 10 5 11 6 12 7 14
REMARK SMILES IDX 8 15 9 16 17 17 10 18 16 19 11 20 15 22 12 23 14 24 13 25
REMARK SMILES IDX 23 26 24 27 25 28 26 30 27 31 28 32 89 33 29 34 88 35 30 36
REMARK SMILES IDX 31 37 32 38 82 39 33 40 87 41 81 42 83 43 34 44 86 45 80 46
REMARK SMILES IDX 79 47 35 49 67 50 47 51 66 52 48 53 51 54 65 55 84 56 49 57
REMARK SMILES IDX 50 58 64 60 85 61 52 62 36 63 37 64 45 65 38 66 44 67 46 68
REMARK SMILES IDX 43 69 39 70 40 71 41 72 42 73 68 74 69 75 77 76 70 77 76 78
REMARK SMILES IDX 78 79 75 80 71 81 72 82 73 83 74 84 53 85 54 86 62 87 55 88
REMARK SMILES IDX 61 89 63 90 60 91 56 92 57 93 58 94 59 95
REMARK H PARENT 20 6 5 13 10 21 24 29 83 48 51 59
REMARK Flexibility Score: inf
ROOT
ATOM      1  C   UNL A   1      36.024  22.109  24.030  1.00  0.00     0.042 C 
ENDROOT
BRANCH   1   2
ATOM      2  C   UNL A   1      35.451  23.489  23.710  1.00  0.00     0.117 C 
BRANCH   2   3
ATOM      3  N   UNL A   1      34.402  24.016  24.570  1.00  0.00    -0.354 N 
ATOM      4  C   UNL A   1      33.039  23.870  24.539  1.00  0.00     0.245 C 
ATOM      5  O   UNL A   1      32.441  24.042  25.606  1.00  0.00    -0.272 OA
ATOM      6  H   UNL A   1      34.730  24.581  25.309  1.00  0.00     0.163 HD
BRANCH   4   7
ATOM      7  C   UNL A   1      32.274  23.416  23.258  1.00  0.00     0.116 C 
ATOM      8  C   UNL A   1      30.772  23.731  23.370  1.00  0.00     0.045 C 
BRANCH   7   9
ATOM      9  C   UNL A   1      32.540  21.867  23.148  1.00  0.00     0.035 C 
ATOM     10  C   UNL A   1      32.291  21.004  24.381  1.00  0.00     0.007 C 
ENDBRANCH   7   9
BRANCH   7  11
ATOM     11  N   UNL A   1      32.792  24.098  22.047  1.00  0.00    -0.339 N 
ATOM     12  C   UNL A   1      32.738  25.354  21.517  1.00  0.00     0.263 C 
ATOM     13  H   UNL A   1      33.311  23.485  21.477  1.00  0.00     0.164 HD
ATOM     14  O   UNL A   1      33.092  25.366  20.327  1.00  0.00    -0.271 OA
BRANCH  12  15
ATOM     15  C   UNL A   1      32.288  26.668  22.224  1.00  0.00     0.281 C 
ATOM     16  C   UNL A   1      30.869  26.633  22.779  1.00  0.00     0.168 C 
ATOM     17  O   UNL A   1      33.309  26.888  23.232  1.00  0.00    -0.477 OA
ATOM     18  N   UNL A   1      30.598  27.591  23.832  1.00  0.00    -0.378 N 
ATOM     19  C   UNL A   1      32.917  27.314  24.472  1.00  0.00     0.143 A 
ATOM     20  C   UNL A   1      31.597  27.647  24.795  1.00  0.00     0.077 A 
ATOM     21  H   UNL A   1      29.786  28.146  23.862  1.00  0.00     0.160 HD
ATOM     22  C   UNL A   1      33.921  27.400  25.439  1.00  0.00     0.049 A 
ATOM     23  C   UNL A   1      31.302  28.077  26.094  1.00  0.00     0.029 A 
ATOM     24  C   UNL A   1      33.613  27.809  26.737  1.00  0.00     0.004 A 
ATOM     25  C   UNL A   1      32.302  28.143  27.066  1.00  0.00     0.002 A 
ENDBRANCH  12  15
ENDBRANCH   7  11
ENDBRANCH   4   7
ENDBRANCH   2   3
ENDBRANCH   1   2
BRANCH   1  26
ATOM     26  C   UNL A   1      36.560  21.831  25.432  1.00  0.00     0.118 C 
BRANCH  26  27
ATOM     27  N   UNL A   1      37.607  20.836  25.504  1.00  0.00    -0.352 N 
ATOM     28  C   UNL A   1      38.896  20.963  25.979  1.00  0.00     0.251 C 
ATOM     29  H   UNL A   1      37.366  19.942  25.166  1.00  0.00     0.163 HD
ATOM     30  O   UNL A   1      39.630  19.985  25.958  1.00  0.00    -0.269 OA
BRANCH  28  31
ATOM     31  C   UNL A   1      39.412  22.275  26.449  1.00  0.00     0.039 A 
ATOM     32  C   UNL A   1      40.478  22.262  27.354  1.00  0.00     0.014 A 
ATOM     33  C   UNL A   1      38.871  23.497  26.036  1.00  0.00     0.014 A 
ATOM     34  C   UNL A   1      41.043  23.465  27.790  1.00  0.00     0.010 A 
ATOM     35  C   UNL A   1      39.467  24.700  26.440  1.00  0.00     0.010 A 
ATOM     36  C   UNL A   1      40.567  24.696  27.313  1.00  0.00    -0.014 A 
BRANCH  36  37
ATOM     37  C   UNL A   1      41.260  25.960  27.697  1.00  0.00     0.031 A 
ATOM     38  C   UNL A   1      42.675  26.235  27.269  1.00  0.00     0.074 A 
ATOM     39  C   UNL A   1      40.601  26.870  28.443  1.00  0.00     0.049 A 
ATOM     40  N   UNL A   1      43.403  27.307  27.465  1.00  0.00    -0.248 NA
ATOM     41  C   UNL A   1      43.365  25.164  26.539  1.00  0.00     0.031 C 
ATOM     42  C   UNL A   1      39.240  26.710  28.959  1.00  0.00     0.029 A 
ATOM     43  N   UNL A   1      40.980  28.113  28.891  1.00  0.00    -0.354 N 
ATOM     44  C   UNL A   1      44.636  27.046  26.876  1.00  0.00     0.074 A 
ATOM     45  C   UNL A   1      44.571  25.690  26.368  1.00  0.00     0.031 C 
ATOM     46  C   UNL A   1      38.890  27.820  29.628  1.00  0.00     0.029 A 
ATOM     47  C   UNL A   1      40.007  28.760  29.618  1.00  0.00     0.049 A 
ATOM     48  H   UNL A   1      41.866  28.504  28.709  1.00  0.00     0.167 HD
ATOM     49  C   UNL A   1      45.712  27.864  26.754  1.00  0.00     0.034 A 
ATOM     50  C   UNL A   1      40.008  29.972  30.209  1.00  0.00     0.034 A 
ATOM     51  C   UNL A   1      45.773  29.212  27.273  1.00  0.00     0.049 A 
ATOM     52  C   UNL A   1      41.225  30.852  30.082  1.00  0.00     0.074 A 
ATOM     53  C   UNL A   1      46.799  30.135  27.159  1.00  0.00     0.029 A 
ATOM     54  N   UNL A   1      44.776  29.827  28.020  1.00  0.00    -0.354 N 
ATOM     55  N   UNL A   1      42.358  30.614  29.462  1.00  0.00    -0.248 NA
ATOM     56  C   UNL A   1      41.154  32.174  30.718  1.00  0.00     0.031 C 
ATOM     57  C   UNL A   1      46.454  31.277  27.892  1.00  0.00     0.029 A 
ATOM     58  C   UNL A   1      45.177  31.101  28.399  1.00  0.00     0.049 A 
ATOM     59  H   UNL A   1      43.909  29.418  28.247  1.00  0.00     0.167 HD
ATOM     60  C   UNL A   1      43.121  31.769  29.611  1.00  0.00     0.074 A 
ATOM     61  C   UNL A   1      42.312  32.708  30.360  1.00  0.00     0.031 C 
ATOM     62  C   UNL A   1      44.376  32.030  29.164  1.00  0.00     0.034 A 
BRANCH  49  63
ATOM     63  C   UNL A   1      46.929  27.308  26.049  1.00  0.00     0.023 A 
ATOM     64  C   UNL A   1      47.924  26.597  26.743  1.00  0.00     0.031 A 
ATOM     65  C   UNL A   1      47.104  27.501  24.667  1.00  0.00     0.131 A 
ATOM     66  C   UNL A   1      49.078  26.167  26.070  1.00  0.00     0.055 A 
ATOM     67  C   UNL A   1      48.218  27.002  23.988  1.00  0.00     0.041 A 
ATOM     68  F   UNL A   1      46.198  28.187  23.952  1.00  0.00    -0.206 F 
ATOM     69  C   UNL A   1      49.221  26.343  24.693  1.00  0.00     0.022 A 
BRANCH  66  70
ATOM     70  S   UNL A   1      50.453  25.499  27.047  1.00  0.00     0.124 S 
ATOM     71  O   UNL A   1      50.743  26.612  27.949  1.00  0.00    -0.237 OA
ATOM     72  O   UNL A   1      49.859  24.317  27.660  1.00  0.00    -0.237 OA
ATOM     73  O   UNL A   1      51.486  25.234  26.048  1.00  0.00    -0.744 OA
ENDBRANCH  66  70
ENDBRANCH  49  63
BRANCH  50  74
ATOM     74  C   UNL A   1      38.820  30.432  30.985  1.00  0.00     0.023 A 
ATOM     75  C   UNL A   1      37.737  31.063  30.351  1.00  0.00     0.031 A 
ATOM     76  C   UNL A   1      38.776  30.290  32.383  1.00  0.00     0.131 A 
ATOM     77  C   UNL A   1      36.677  31.570  31.118  1.00  0.00     0.055 A 
ATOM     78  C   UNL A   1      37.694  30.749  33.136  1.00  0.00     0.041 A 
ATOM     79  F   UNL A   1      39.784  29.692  33.037  1.00  0.00    -0.206 F 
ATOM     80  C   UNL A   1      36.643  31.407  32.505  1.00  0.00     0.022 A 
BRANCH  77  81
ATOM     81  S   UNL A   1      35.379  32.523  30.283  1.00  0.00     0.124 S 
ATOM     82  O   UNL A   1      34.347  32.587  31.311  1.00  0.00    -0.237 OA
ATOM     83  O   UNL A   1      36.067  33.775  29.985  1.00  0.00    -0.237 OA
ATOM     84  O   UNL A   1      35.051  31.702  29.119  1.00  0.00    -0.744 OA
ENDBRANCH  77  81
ENDBRANCH  50  74
BRANCH  62  85
ATOM     85  C   UNL A   1      44.931  33.408  29.444  1.00  0.00     0.023 A 
ATOM     86  C   UNL A   1      44.772  34.472  28.536  1.00  0.00     0.031 A 
ATOM     87  C   UNL A   1      45.661  33.652  30.621  1.00  0.00     0.131 A 
ATOM     88  C   UNL A   1      45.391  35.706  28.787  1.00  0.00     0.055 A 
ATOM     89  C   UNL A   1      46.221  34.901  30.896  1.00  0.00     0.041 A 
ATOM     90  F   UNL A   1      45.849  32.676  31.524  1.00  0.00    -0.206 F 
ATOM     91  C   UNL A   1      46.102  35.933  29.969  1.00  0.00     0.022 A 
BRANCH  88  92
ATOM     92  S   UNL A   1      45.351  36.982  27.497  1.00  0.00     0.124 S 
ATOM     93  O   UNL A   1      46.247  36.424  26.489  1.00  0.00    -0.237 OA
ATOM     94  O   UNL A   1      43.936  37.020  27.141  1.00  0.00    -0.237 OA
ATOM     95  O   UNL A   1      45.850  38.175  28.177  1.00  0.00    -0.744 OA
ENDBRANCH  88  92
ENDBRANCH  62  85
ENDBRANCH  36  37
ENDBRANCH  28  31
ENDBRANCH  26  27
ENDBRANCH   1  26
TORSDOF 16
ENDMDL
