MODEL 1
REMARK VINA RESULT:     -13.2      0.000      0.000
REMARK SMILES CC(C)(C)OC(=O)N1C[C@@H](C(=O)NCCCNC(=O)c2ccc(-c3c4nc(c(-c5cc(S(=O)(=O)[O-])ccc5F)c5ccc([nH]5)c(-c5cc(S(=O)(=O)[O-])ccc5F)c5nc(c(-c6cc(S(=O)(=O)[O-])ccc6F)c6ccc3[nH]6)C=C5)C=C4)cc2)[C@@]2(C1)C(=O)Nc1ccccc12
REMARK SMILES IDX 15 1 14 2 13 3 11 4 12 5 10 7 8 8 9 9 84 10 83 11 85 12
REMARK SMILES IDX 93 13 86 14 87 15 88 16 92 17 89 19 91 20 90 21 6 22 7 23
REMARK SMILES IDX 5 24 2 25 1 26 3 27 4 28 16 29 17 30 18 31 19 33 20 34 21 35
REMARK SMILES IDX 82 36 22 37 81 38 23 39 24 40 25 41 75 42 26 43 80 44 74 45
REMARK SMILES IDX 76 46 27 47 79 48 73 49 72 50 28 52 60 53 40 54 59 55 41 56
REMARK SMILES IDX 44 57 58 58 77 59 42 60 43 61 57 63 78 64 45 65 29 66 30 67
REMARK SMILES IDX 38 68 31 69 37 70 39 71 36 72 32 73 33 74 34 75 35 76 61 77
REMARK SMILES IDX 62 78 70 79 63 80 69 81 71 82 68 83 64 84 65 85 66 86 67 87
REMARK SMILES IDX 46 88 47 89 55 90 48 91 54 92 56 93 53 94 49 95 50 96 51 97
REMARK SMILES IDX 52 98
REMARK H PARENT 13 6 87 18 17 32 76 51 44 62
REMARK Flexibility Score: inf
ROOT
ATOM      1  C   UNL A   1      31.445  31.764  26.456  1.00  0.00     0.042 C 
ENDROOT
BRANCH   1   2
ATOM      2  C   UNL A   1      31.485  30.292  26.039  1.00  0.00     0.117 C 
BRANCH   2   3
ATOM      3  N   UNL A   1      32.346  30.030  24.892  1.00  0.00    -0.356 N 
ATOM      4  C   UNL A   1      32.589  28.962  24.091  1.00  0.00     0.226 C 
ATOM      5  O   UNL A   1      33.364  29.181  23.150  1.00  0.00    -0.275 OA
ATOM      6  H   UNL A   1      32.878  30.817  24.637  1.00  0.00     0.163 HD
BRANCH   4   7
ATOM      7  C   UNL A   1      32.025  27.556  24.254  1.00  0.00     0.120 C 
ATOM      8  N   UNL A   1      32.841  25.812  22.876  1.00  0.00    -0.306 N 
ATOM      9  C   UNL A   1      33.079  26.472  24.144  1.00  0.00     0.138 C 
ATOM     10  C   UNL A   1      31.606  26.274  22.232  1.00  0.00     0.145 C 
ATOM     11  C   UNL A   1      30.890  27.095  23.325  1.00  0.00     0.107 C 
ATOM     12  C   UNL A   1      30.002  26.051  24.082  1.00  0.00     0.237 C 
ATOM     13  C   UNL A   1      29.838  28.127  22.961  1.00  0.00    -0.006 A 
ATOM     14  O   UNL A   1      30.370  25.040  24.661  1.00  0.00    -0.274 OA
ATOM     15  N   UNL A   1      28.685  26.452  23.986  1.00  0.00    -0.325 N 
ATOM     16  C   UNL A   1      28.578  27.678  23.364  1.00  0.00     0.045 A 
ATOM     17  C   UNL A   1      29.933  29.413  22.450  1.00  0.00     0.007 A 
ATOM     18  H   UNL A   1      27.919  25.929  24.318  1.00  0.00     0.169 HD
ATOM     19  C   UNL A   1      27.416  28.419  23.242  1.00  0.00     0.026 A 
ATOM     20  C   UNL A   1      28.778  30.199  22.332  1.00  0.00     0.000 A 
ATOM     21  C   UNL A   1      27.526  29.703  22.717  1.00  0.00     0.002 A 
BRANCH   8  22
ATOM     22  C   UNL A   1      33.647  24.758  22.518  1.00  0.00     0.410 C 
ATOM     23  O   UNL A   1      33.281  23.914  21.710  1.00  0.00    -0.224 OA
BRANCH  22  24
ATOM     24  O   UNL A   1      34.827  24.736  23.186  1.00  0.00    -0.444 OA
BRANCH  24  25
ATOM     25  C   UNL A   1      35.213  23.569  23.975  1.00  0.00     0.106 C 
ATOM     26  C   UNL A   1      35.719  24.128  25.314  1.00  0.00     0.056 C 
ATOM     27  C   UNL A   1      36.360  22.867  23.245  1.00  0.00     0.056 C 
ATOM     28  C   UNL A   1      34.084  22.572  24.296  1.00  0.00     0.056 C 
ENDBRANCH  24  25
ENDBRANCH  22  24
ENDBRANCH   8  22
ENDBRANCH   4   7
ENDBRANCH   2   3
ENDBRANCH   1   2
BRANCH   1  29
ATOM     29  C   UNL A   1      32.707  32.263  27.157  1.00  0.00     0.118 C 
BRANCH  29  30
ATOM     30  N   UNL A   1      32.621  33.676  27.476  1.00  0.00    -0.352 N 
ATOM     31  C   UNL A   1      33.225  34.384  28.487  1.00  0.00     0.251 C 
ATOM     32  H   UNL A   1      32.043  34.206  26.880  1.00  0.00     0.163 HD
ATOM     33  O   UNL A   1      32.802  35.504  28.760  1.00  0.00    -0.269 OA
BRANCH  31  34
ATOM     34  C   UNL A   1      34.367  33.816  29.246  1.00  0.00     0.039 A 
ATOM     35  C   UNL A   1      35.661  34.245  28.935  1.00  0.00     0.014 A 
ATOM     36  C   UNL A   1      34.183  32.814  30.204  1.00  0.00     0.014 A 
ATOM     37  C   UNL A   1      36.762  33.700  29.605  1.00  0.00     0.010 A 
ATOM     38  C   UNL A   1      35.277  32.312  30.913  1.00  0.00     0.010 A 
ATOM     39  C   UNL A   1      36.580  32.741  30.613  1.00  0.00    -0.014 A 
BRANCH  39  40
ATOM     40  C   UNL A   1      37.740  32.154  31.338  1.00  0.00     0.031 A 
ATOM     41  C   UNL A   1      38.541  31.045  30.709  1.00  0.00     0.074 A 
ATOM     42  C   UNL A   1      38.046  32.585  32.578  1.00  0.00     0.049 A 
ATOM     43  N   UNL A   1      39.529  30.346  31.208  1.00  0.00    -0.248 NA
ATOM     44  C   UNL A   1      38.160  30.654  29.343  1.00  0.00     0.031 C 
ATOM     45  C   UNL A   1      37.333  33.636  33.306  1.00  0.00     0.029 A 
ATOM     46  N   UNL A   1      39.027  32.185  33.451  1.00  0.00    -0.354 N 
ATOM     47  C   UNL A   1      39.884  29.428  30.224  1.00  0.00     0.074 A 
ATOM     48  C   UNL A   1      38.962  29.622  29.123  1.00  0.00     0.031 C 
ATOM     49  C   UNL A   1      37.906  33.805  34.508  1.00  0.00     0.029 A 
ATOM     50  C   UNL A   1      39.000  32.850  34.656  1.00  0.00     0.049 A 
ATOM     51  H   UNL A   1      39.688  31.488  33.236  1.00  0.00     0.167 HD
ATOM     52  C   UNL A   1      40.897  28.525  30.227  1.00  0.00     0.034 A 
ATOM     53  C   UNL A   1      39.759  32.696  35.760  1.00  0.00     0.034 A 
ATOM     54  C   UNL A   1      41.813  28.347  31.327  1.00  0.00     0.049 A 
ATOM     55  C   UNL A   1      40.859  31.665  35.752  1.00  0.00     0.074 A 
ATOM     56  C   UNL A   1      42.893  27.486  31.424  1.00  0.00     0.029 A 
ATOM     57  N   UNL A   1      41.758  29.044  32.529  1.00  0.00    -0.354 N 
ATOM     58  N   UNL A   1      41.200  30.826  34.800  1.00  0.00    -0.248 NA
ATOM     59  C   UNL A   1      41.685  31.567  36.964  1.00  0.00     0.031 C 
ATOM     60  C   UNL A   1      43.452  27.619  32.699  1.00  0.00     0.029 A 
ATOM     61  C   UNL A   1      42.768  28.613  33.377  1.00  0.00     0.049 A 
ATOM     62  H   UNL A   1      41.098  29.741  32.745  1.00  0.00     0.167 HD
ATOM     63  C   UNL A   1      42.299  30.126  35.288  1.00  0.00     0.074 A 
ATOM     64  C   UNL A   1      42.572  30.649  36.611  1.00  0.00     0.031 C 
ATOM     65  C   UNL A   1      43.022  29.141  34.697  1.00  0.00     0.034 A 
BRANCH  52  66
ATOM     66  C   UNL A   1      41.045  27.646  29.006  1.00  0.00     0.023 A 
ATOM     67  C   UNL A   1      42.040  27.888  28.043  1.00  0.00     0.031 A 
ATOM     68  C   UNL A   1      40.165  26.573  28.785  1.00  0.00     0.131 A 
ATOM     69  C   UNL A   1      42.080  27.122  26.868  1.00  0.00     0.055 A 
ATOM     70  C   UNL A   1      40.263  25.760  27.653  1.00  0.00     0.041 A 
ATOM     71  F   UNL A   1      39.182  26.302  29.659  1.00  0.00    -0.206 F 
ATOM     72  C   UNL A   1      41.216  26.043  26.678  1.00  0.00     0.022 A 
BRANCH  69  73
ATOM     73  S   UNL A   1      43.185  27.649  25.529  1.00  0.00     0.124 S 
ATOM     74  O   UNL A   1      42.240  28.242  24.586  1.00  0.00    -0.237 OA
ATOM     75  O   UNL A   1      44.080  28.579  26.206  1.00  0.00    -0.237 OA
ATOM     76  O   UNL A   1      43.800  26.402  25.082  1.00  0.00    -0.744 OA
ENDBRANCH  69  73
ENDBRANCH  52  66
BRANCH  53  77
ATOM     77  C   UNL A   1      39.503  33.523  36.974  1.00  0.00     0.023 A 
ATOM     78  C   UNL A   1      40.281  34.657  37.254  1.00  0.00     0.031 A 
ATOM     79  C   UNL A   1      38.510  33.160  37.900  1.00  0.00     0.131 A 
ATOM     80  C   UNL A   1      40.088  35.358  38.455  1.00  0.00     0.055 A 
ATOM     81  C   UNL A   1      38.285  33.891  39.068  1.00  0.00     0.041 A 
ATOM     82  F   UNL A   1      37.734  32.086  37.678  1.00  0.00    -0.206 F 
ATOM     83  C   UNL A   1      39.087  34.991  39.357  1.00  0.00     0.022 A 
BRANCH  80  84
ATOM     84  S   UNL A   1      41.231  36.706  38.865  1.00  0.00     0.124 S 
ATOM     85  O   UNL A   1      41.941  36.887  37.605  1.00  0.00    -0.237 OA
ATOM     86  O   UNL A   1      40.312  37.774  39.244  1.00  0.00    -0.237 OA
ATOM     87  O   UNL A   1      42.028  36.154  39.959  1.00  0.00    -0.744 OA
ENDBRANCH  80  84
ENDBRANCH  53  77
BRANCH  65  88
ATOM     88  C   UNL A   1      44.206  28.606  35.465  1.00  0.00     0.023 A 
ATOM     89  C   UNL A   1      44.073  27.564  36.399  1.00  0.00     0.031 A 
ATOM     90  C   UNL A   1      45.483  29.162  35.269  1.00  0.00     0.131 A 
ATOM     91  C   UNL A   1      45.187  27.148  37.144  1.00  0.00     0.055 A 
ATOM     92  C   UNL A   1      46.598  28.704  35.973  1.00  0.00     0.041 A 
ATOM     93  F   UNL A   1      45.667  30.160  34.391  1.00  0.00    -0.206 F 
ATOM     94  C   UNL A   1      46.451  27.701  36.926  1.00  0.00     0.022 A 
BRANCH  91  95
ATOM     95  S   UNL A   1      44.944  25.930  38.467  1.00  0.00     0.124 S 
ATOM     96  O   UNL A   1      43.967  25.025  37.871  1.00  0.00    -0.237 OA
ATOM     97  O   UNL A   1      46.289  25.388  38.643  1.00  0.00    -0.237 OA
ATOM     98  O   UNL A   1      44.448  26.730  39.584  1.00  0.00    -0.744 OA
ENDBRANCH  91  95
ENDBRANCH  65  88
ENDBRANCH  39  40
ENDBRANCH  31  34
ENDBRANCH  29  30
ENDBRANCH   1  29
TORSDOF 16
ENDMDL
MODEL 2
REMARK VINA RESULT:     -13.1      1.350      1.660
REMARK SMILES CC(C)(C)OC(=O)N1C[C@@H](C(=O)NCCCNC(=O)c2ccc(-c3c4nc(c(-c5cc(S(=O)(=O)[O-])ccc5F)c5ccc([nH]5)c(-c5cc(S(=O)(=O)[O-])ccc5F)c5nc(c(-c6cc(S(=O)(=O)[O-])ccc6F)c6ccc3[nH]6)C=C5)C=C4)cc2)[C@@]2(C1)C(=O)Nc1ccccc12
REMARK SMILES IDX 15 1 14 2 13 3 11 4 12 5 10 7 8 8 9 9 84 10 83 11 85 12
REMARK SMILES IDX 93 13 86 14 87 15 88 16 92 17 89 19 91 20 90 21 6 22 7 23
REMARK SMILES IDX 5 24 2 25 1 26 3 27 4 28 16 29 17 30 18 31 19 33 20 34 21 35
REMARK SMILES IDX 82 36 22 37 81 38 23 39 24 40 25 41 75 42 26 43 80 44 74 45
REMARK SMILES IDX 76 46 27 47 79 48 73 49 72 50 28 52 60 53 40 54 59 55 41 56
REMARK SMILES IDX 44 57 58 58 77 59 42 60 43 61 57 63 78 64 45 65 29 66 30 67
REMARK SMILES IDX 38 68 31 69 37 70 39 71 36 72 32 73 33 74 34 75 35 76 61 77
REMARK SMILES IDX 62 78 70 79 63 80 69 81 71 82 68 83 64 84 65 85 66 86 67 87
REMARK SMILES IDX 46 88 47 89 55 90 48 91 54 92 56 93 53 94 49 95 50 96 51 97
REMARK SMILES IDX 52 98
REMARK H PARENT 13 6 87 18 17 32 76 51 44 62
REMARK Flexibility Score: inf
ROOT
ATOM      1  C   UNL A   1      31.404  31.942  26.539  1.00  0.00     0.042 C 
ENDROOT
BRANCH   1   2
ATOM      2  C   UNL A   1      31.406  30.449  26.201  1.00  0.00     0.117 C 
BRANCH   2   3
ATOM      3  N   UNL A   1      32.344  30.087  25.146  1.00  0.00    -0.356 N 
ATOM      4  C   UNL A   1      32.644  28.951  24.468  1.00  0.00     0.226 C 
ATOM      5  O   UNL A   1      33.482  29.087  23.566  1.00  0.00    -0.275 OA
ATOM      6  H   UNL A   1      32.892  30.851  24.856  1.00  0.00     0.163 HD
BRANCH   4   7
ATOM      7  C   UNL A   1      32.070  27.562  24.722  1.00  0.00     0.120 C 
ATOM      8  N   UNL A   1      33.026  25.694  23.626  1.00  0.00    -0.306 N 
ATOM      9  C   UNL A   1      33.134  26.488  24.834  1.00  0.00     0.138 C 
ATOM     10  C   UNL A   1      31.861  26.068  22.817  1.00  0.00     0.145 C 
ATOM     11  C   UNL A   1      31.036  26.990  23.739  1.00  0.00     0.107 C 
ATOM     12  C   UNL A   1      30.080  26.019  24.510  1.00  0.00     0.237 C 
ATOM     13  C   UNL A   1      30.022  27.963  23.164  1.00  0.00    -0.006 A 
ATOM     14  O   UNL A   1      30.391  25.081  25.228  1.00  0.00    -0.274 OA
ATOM     15  N   UNL A   1      28.778  26.390  24.242  1.00  0.00    -0.325 N 
ATOM     16  C   UNL A   1      28.729  27.542  23.486  1.00  0.00     0.045 A 
ATOM     17  C   UNL A   1      30.164  29.188  22.531  1.00  0.00     0.007 A 
ATOM     18  H   UNL A   1      27.984  25.894  24.550  1.00  0.00     0.169 HD
ATOM     19  C   UNL A   1      27.584  28.249  23.170  1.00  0.00     0.026 A 
ATOM     20  C   UNL A   1      29.024  29.942  22.216  1.00  0.00     0.000 A 
ATOM     21  C   UNL A   1      27.741  29.471  22.525  1.00  0.00     0.002 A 
BRANCH   8  22
ATOM     22  C   UNL A   1      33.868  24.619  23.464  1.00  0.00     0.410 C 
ATOM     23  O   UNL A   1      34.360  24.347  22.376  1.00  0.00    -0.224 OA
BRANCH  22  24
ATOM     24  O   UNL A   1      34.032  23.893  24.597  1.00  0.00    -0.444 OA
BRANCH  24  25
ATOM     25  C   UNL A   1      33.342  22.617  24.769  1.00  0.00     0.106 C 
ATOM     26  C   UNL A   1      32.783  22.643  26.200  1.00  0.00     0.056 C 
ATOM     27  C   UNL A   1      34.381  21.501  24.643  1.00  0.00     0.056 C 
ATOM     28  C   UNL A   1      32.156  22.363  23.822  1.00  0.00     0.056 C 
ENDBRANCH  24  25
ENDBRANCH  22  24
ENDBRANCH   8  22
ENDBRANCH   4   7
ENDBRANCH   2   3
ENDBRANCH   1   2
BRANCH   1  29
ATOM     29  C   UNL A   1      32.670  32.440  27.232  1.00  0.00     0.118 C 
BRANCH  29  30
ATOM     30  N   UNL A   1      32.557  33.834  27.620  1.00  0.00    -0.352 N 
ATOM     31  C   UNL A   1      33.150  34.504  28.663  1.00  0.00     0.251 C 
ATOM     32  H   UNL A   1      31.967  34.381  27.052  1.00  0.00     0.163 HD
ATOM     33  O   UNL A   1      32.705  35.600  28.991  1.00  0.00    -0.269 OA
BRANCH  31  34
ATOM     34  C   UNL A   1      34.305  33.923  29.392  1.00  0.00     0.039 A 
ATOM     35  C   UNL A   1      35.597  34.202  28.935  1.00  0.00     0.014 A 
ATOM     36  C   UNL A   1      34.127  33.047  30.467  1.00  0.00     0.014 A 
ATOM     37  C   UNL A   1      36.706  33.637  29.575  1.00  0.00     0.010 A 
ATOM     38  C   UNL A   1      35.235  32.531  31.142  1.00  0.00     0.010 A 
ATOM     39  C   UNL A   1      36.537  32.810  30.696  1.00  0.00    -0.014 A 
BRANCH  39  40
ATOM     40  C   UNL A   1      37.706  32.205  31.391  1.00  0.00     0.031 A 
ATOM     41  C   UNL A   1      38.448  31.056  30.760  1.00  0.00     0.074 A 
ATOM     42  C   UNL A   1      38.073  32.656  32.608  1.00  0.00     0.049 A 
ATOM     43  N   UNL A   1      39.433  30.339  31.240  1.00  0.00    -0.248 NA
ATOM     44  C   UNL A   1      38.003  30.645  29.421  1.00  0.00     0.031 C 
ATOM     45  C   UNL A   1      37.420  33.746  33.336  1.00  0.00     0.029 A 
ATOM     46  N   UNL A   1      39.075  32.246  33.453  1.00  0.00    -0.354 N 
ATOM     47  C   UNL A   1      39.721  29.387  30.267  1.00  0.00     0.074 A 
ATOM     48  C   UNL A   1      38.763  29.583  29.197  1.00  0.00     0.031 C 
ATOM     49  C   UNL A   1      38.045  33.926  34.510  1.00  0.00     0.029 A 
ATOM     50  C   UNL A   1      39.114  32.941  34.640  1.00  0.00     0.049 A 
ATOM     51  H   UNL A   1      39.705  31.524  33.230  1.00  0.00     0.167 HD
ATOM     52  C   UNL A   1      40.705  28.453  30.254  1.00  0.00     0.034 A 
ATOM     53  C   UNL A   1      39.911  32.790  35.718  1.00  0.00     0.034 A 
ATOM     54  C   UNL A   1      41.658  28.273  31.323  1.00  0.00     0.049 A 
ATOM     55  C   UNL A   1      40.978  31.725  35.695  1.00  0.00     0.074 A 
ATOM     56  C   UNL A   1      42.714  27.380  31.399  1.00  0.00     0.029 A 
ATOM     57  N   UNL A   1      41.671  29.000  32.507  1.00  0.00    -0.354 N 
ATOM     58  N   UNL A   1      41.256  30.853  34.752  1.00  0.00    -0.248 NA
ATOM     59  C   UNL A   1      41.846  31.630  36.876  1.00  0.00     0.031 C 
ATOM     60  C   UNL A   1      43.326  27.527  32.649  1.00  0.00     0.029 A 
ATOM     61  C   UNL A   1      42.699  28.559  33.327  1.00  0.00     0.049 A 
ATOM     62  H   UNL A   1      41.041  29.723  32.731  1.00  0.00     0.167 HD
ATOM     63  C   UNL A   1      42.351  30.131  35.216  1.00  0.00     0.074 A 
ATOM     64  C   UNL A   1      42.691  30.677  36.513  1.00  0.00     0.031 C 
ATOM     65  C   UNL A   1      43.021  29.109  34.622  1.00  0.00     0.034 A 
BRANCH  52  66
ATOM     66  C   UNL A   1      40.779  27.540  29.051  1.00  0.00     0.023 A 
ATOM     67  C   UNL A   1      41.728  27.743  28.032  1.00  0.00     0.031 A 
ATOM     68  C   UNL A   1      39.874  26.476  28.903  1.00  0.00     0.131 A 
ATOM     69  C   UNL A   1      41.697  26.945  26.878  1.00  0.00     0.055 A 
ATOM     70  C   UNL A   1      39.903  25.632  27.790  1.00  0.00     0.041 A 
ATOM     71  F   UNL A   1      38.933  26.242  29.832  1.00  0.00    -0.206 F 
ATOM     72  C   UNL A   1      40.809  25.875  26.760  1.00  0.00     0.022 A 
BRANCH  69  73
ATOM     73  S   UNL A   1      42.740  27.421  25.472  1.00  0.00     0.124 S 
ATOM     74  O   UNL A   1      42.654  26.231  24.628  1.00  0.00    -0.237 OA
ATOM     75  O   UNL A   1      42.067  28.611  24.968  1.00  0.00    -0.237 OA
ATOM     76  O   UNL A   1      44.049  27.652  26.078  1.00  0.00    -0.744 OA
ENDBRANCH  69  73
ENDBRANCH  52  66
BRANCH  53  77
ATOM     77  C   UNL A   1      39.728  33.654  36.920  1.00  0.00     0.023 A 
ATOM     78  C   UNL A   1      39.057  33.179  38.057  1.00  0.00     0.031 A 
ATOM     79  C   UNL A   1      40.176  34.986  36.927  1.00  0.00     0.131 A 
ATOM     80  C   UNL A   1      38.807  34.043  39.134  1.00  0.00     0.055 A 
ATOM     81  C   UNL A   1      39.972  35.828  38.023  1.00  0.00     0.041 A 
ATOM     82  F   UNL A   1      40.828  35.491  35.867  1.00  0.00    -0.206 F 
ATOM     83  C   UNL A   1      39.271  35.360  39.130  1.00  0.00     0.022 A 
BRANCH  80  84
ATOM     84  S   UNL A   1      37.781  33.446  40.506  1.00  0.00     0.124 S 
ATOM     85  O   UNL A   1      36.686  32.795  39.797  1.00  0.00    -0.237 OA
ATOM     86  O   UNL A   1      38.705  32.563  41.210  1.00  0.00    -0.237 OA
ATOM     87  O   UNL A   1      37.424  34.670  41.221  1.00  0.00    -0.744 OA
ENDBRANCH  80  84
ENDBRANCH  53  77
BRANCH  65  88
ATOM     88  C   UNL A   1      44.216  28.556  35.358  1.00  0.00     0.023 A 
ATOM     89  C   UNL A   1      44.102  27.477  36.251  1.00  0.00     0.031 A 
ATOM     90  C   UNL A   1      45.486  29.132  35.173  1.00  0.00     0.131 A 
ATOM     91  C   UNL A   1      45.226  27.043  36.969  1.00  0.00     0.055 A 
ATOM     92  C   UNL A   1      46.612  28.658  35.849  1.00  0.00     0.041 A 
ATOM     93  F   UNL A   1      45.652  30.166  34.333  1.00  0.00    -0.206 F 
ATOM     94  C   UNL A   1      46.484  27.616  36.762  1.00  0.00     0.022 A 
BRANCH  91  95
ATOM     95  S   UNL A   1      45.008  25.771  38.245  1.00  0.00     0.124 S 
ATOM     96  O   UNL A   1      46.336  25.713  38.847  1.00  0.00    -0.237 OA
ATOM     97  O   UNL A   1      43.955  26.344  39.079  1.00  0.00    -0.237 OA
ATOM     98  O   UNL A   1      44.619  24.586  37.484  1.00  0.00    -0.744 OA
ENDBRANCH  91  95
ENDBRANCH  65  88
ENDBRANCH  39  40
ENDBRANCH  31  34
ENDBRANCH  29  30
ENDBRANCH   1  29
TORSDOF 16
ENDMDL
MODEL 3
REMARK VINA RESULT:     -12.9      5.750     11.582
REMARK SMILES CC(C)(C)OC(=O)N1C[C@@H](C(=O)NCCCNC(=O)c2ccc(-c3c4nc(c(-c5cc(S(=O)(=O)[O-])ccc5F)c5ccc([nH]5)c(-c5cc(S(=O)(=O)[O-])ccc5F)c5nc(c(-c6cc(S(=O)(=O)[O-])ccc6F)c6ccc3[nH]6)C=C5)C=C4)cc2)[C@@]2(C1)C(=O)Nc1ccccc12
REMARK SMILES IDX 15 1 14 2 13 3 11 4 12 5 10 7 8 8 9 9 84 10 83 11 85 12
REMARK SMILES IDX 93 13 86 14 87 15 88 16 92 17 89 19 91 20 90 21 6 22 7 23
REMARK SMILES IDX 5 24 2 25 1 26 3 27 4 28 16 29 17 30 18 31 19 33 20 34 21 35
REMARK SMILES IDX 82 36 22 37 81 38 23 39 24 40 25 41 75 42 26 43 80 44 74 45
REMARK SMILES IDX 76 46 27 47 79 48 73 49 72 50 28 52 60 53 40 54 59 55 41 56
REMARK SMILES IDX 44 57 58 58 77 59 42 60 43 61 57 63 78 64 45 65 29 66 30 67
REMARK SMILES IDX 38 68 31 69 37 70 39 71 36 72 32 73 33 74 34 75 35 76 61 77
REMARK SMILES IDX 62 78 70 79 63 80 69 81 71 82 68 83 64 84 65 85 66 86 67 87
REMARK SMILES IDX 46 88 47 89 55 90 48 91 54 92 56 93 53 94 49 95 50 96 51 97
REMARK SMILES IDX 52 98
REMARK H PARENT 13 6 87 18 17 32 76 51 44 62
REMARK Flexibility Score: inf
ROOT
ATOM      1  C   UNL A   1      38.113  19.784  24.952  1.00  0.00     0.042 C 
ENDROOT
BRANCH   1   2
ATOM      2  C   UNL A   1      36.971  20.774  24.710  1.00  0.00     0.117 C 
BRANCH   2   3
ATOM      3  N   UNL A   1      36.124  20.991  25.876  1.00  0.00    -0.356 N 
ATOM      4  C   UNL A   1      34.896  21.526  26.093  1.00  0.00     0.226 C 
ATOM      5  O   UNL A   1      34.492  21.452  27.261  1.00  0.00    -0.275 OA
ATOM      6  H   UNL A   1      36.544  20.672  26.707  1.00  0.00     0.163 HD
BRANCH   4   7
ATOM      7  C   UNL A   1      34.007  22.207  25.059  1.00  0.00     0.120 C 
ATOM      8  N   UNL A   1      32.181  23.526  25.789  1.00  0.00    -0.306 N 
ATOM      9  C   UNL A   1      33.590  23.608  25.460  1.00  0.00     0.138 C 
ATOM     10  C   UNL A   1      31.611  22.211  25.470  1.00  0.00     0.145 C 
ATOM     11  C   UNL A   1      32.702  21.518  24.628  1.00  0.00     0.107 C 
ATOM     12  C   UNL A   1      32.374  21.923  23.151  1.00  0.00     0.237 C 
ATOM     13  C   UNL A   1      32.736  20.007  24.489  1.00  0.00    -0.006 A 
ATOM     14  O   UNL A   1      32.309  23.050  22.684  1.00  0.00    -0.274 OA
ATOM     15  N   UNL A   1      32.151  20.770  22.425  1.00  0.00    -0.325 N 
ATOM     16  C   UNL A   1      32.392  19.645  23.184  1.00  0.00     0.045 A 
ATOM     17  C   UNL A   1      33.155  19.003  25.349  1.00  0.00     0.007 A 
ATOM     18  H   UNL A   1      31.857  20.754  21.485  1.00  0.00     0.169 HD
ATOM     19  C   UNL A   1      32.399  18.344  22.714  1.00  0.00     0.026 A 
ATOM     20  C   UNL A   1      33.195  17.675  24.898  1.00  0.00     0.000 A 
ATOM     21  C   UNL A   1      32.811  17.346  23.592  1.00  0.00     0.002 A 
BRANCH   8  22
ATOM     22  C   UNL A   1      31.523  24.670  26.173  1.00  0.00     0.410 C 
ATOM     23  O   UNL A   1      30.522  24.631  26.877  1.00  0.00    -0.224 OA
BRANCH  22  24
ATOM     24  O   UNL A   1      32.062  25.798  25.648  1.00  0.00    -0.444 OA
BRANCH  24  25
ATOM     25  C   UNL A   1      31.454  26.443  24.487  1.00  0.00     0.106 C 
ATOM     26  C   UNL A   1      32.570  26.531  23.435  1.00  0.00     0.056 C 
ATOM     27  C   UNL A   1      31.028  27.852  24.902  1.00  0.00     0.056 C 
ATOM     28  C   UNL A   1      30.277  25.689  23.841  1.00  0.00     0.056 C 
ENDBRANCH  24  25
ENDBRANCH  22  24
ENDBRANCH   8  22
ENDBRANCH   4   7
ENDBRANCH   2   3
ENDBRANCH   1   2
BRANCH   1  29
ATOM     29  C   UNL A   1      39.154  20.247  25.969  1.00  0.00     0.118 C 
BRANCH  29  30
ATOM     30  N   UNL A   1      40.247  19.301  26.088  1.00  0.00    -0.352 N 
ATOM     31  C   UNL A   1      41.602  19.527  26.122  1.00  0.00     0.251 C 
ATOM     32  H   UNL A   1      39.978  18.355  26.152  1.00  0.00     0.163 HD
ATOM     33  O   UNL A   1      42.364  18.583  25.937  1.00  0.00    -0.269 OA
BRANCH  31  34
ATOM     34  C   UNL A   1      42.148  20.884  26.374  1.00  0.00     0.039 A 
ATOM     35  C   UNL A   1      42.388  21.278  27.695  1.00  0.00     0.014 A 
ATOM     36  C   UNL A   1      42.351  21.797  25.334  1.00  0.00     0.014 A 
ATOM     37  C   UNL A   1      42.864  22.565  27.968  1.00  0.00     0.010 A 
ATOM     38  C   UNL A   1      42.882  23.060  25.602  1.00  0.00     0.010 A 
ATOM     39  C   UNL A   1      43.133  23.463  26.923  1.00  0.00    -0.014 A 
BRANCH  39  40
ATOM     40  C   UNL A   1      43.644  24.833  27.198  1.00  0.00     0.031 A 
ATOM     41  C   UNL A   1      42.714  25.895  27.725  1.00  0.00     0.074 A 
ATOM     42  C   UNL A   1      44.929  25.138  26.931  1.00  0.00     0.049 A 
ATOM     43  N   UNL A   1      42.942  27.165  27.946  1.00  0.00    -0.248 NA
ATOM     44  C   UNL A   1      41.336  25.473  28.017  1.00  0.00     0.031 C 
ATOM     45  C   UNL A   1      45.924  24.206  26.396  1.00  0.00     0.029 A 
ATOM     46  N   UNL A   1      45.618  26.319  27.060  1.00  0.00    -0.354 N 
ATOM     47  C   UNL A   1      41.737  27.697  28.395  1.00  0.00     0.074 A 
ATOM     48  C   UNL A   1      40.767  26.621  28.355  1.00  0.00     0.031 C 
ATOM     49  C   UNL A   1      47.095  24.846  26.254  1.00  0.00     0.029 A 
ATOM     50  C   UNL A   1      46.929  26.242  26.647  1.00  0.00     0.049 A 
ATOM     51  H   UNL A   1      45.213  27.142  27.415  1.00  0.00     0.167 HD
ATOM     52  C   UNL A   1      41.469  28.956  28.824  1.00  0.00     0.034 A 
ATOM     53  C   UNL A   1      47.884  27.193  26.577  1.00  0.00     0.034 A 
ATOM     54  C   UNL A   1      42.446  30.018  28.866  1.00  0.00     0.049 A 
ATOM     55  C   UNL A   1      47.555  28.593  27.029  1.00  0.00     0.074 A 
ATOM     56  C   UNL A   1      42.292  31.319  29.311  1.00  0.00     0.029 A 
ATOM     57  N   UNL A   1      43.766  29.900  28.446  1.00  0.00    -0.354 N 
ATOM     58  N   UNL A   1      46.417  29.071  27.481  1.00  0.00    -0.248 NA
ATOM     59  C   UNL A   1      48.641  29.580  26.973  1.00  0.00     0.031 C 
ATOM     60  C   UNL A   1      43.495  32.003  29.106  1.00  0.00     0.029 A 
ATOM     61  C   UNL A   1      44.425  31.111  28.598  1.00  0.00     0.049 A 
ATOM     62  H   UNL A   1      44.173  29.077  28.091  1.00  0.00     0.167 HD
ATOM     63  C   UNL A   1      46.664  30.405  27.792  1.00  0.00     0.074 A 
ATOM     64  C   UNL A   1      48.058  30.651  27.491  1.00  0.00     0.031 C 
ATOM     65  C   UNL A   1      45.815  31.343  28.286  1.00  0.00     0.034 A 
BRANCH  52  66
ATOM     66  C   UNL A   1      40.052  29.254  29.257  1.00  0.00     0.023 A 
ATOM     67  C   UNL A   1      39.697  29.319  30.617  1.00  0.00     0.031 A 
ATOM     68  C   UNL A   1      39.037  29.445  28.304  1.00  0.00     0.131 A 
ATOM     69  C   UNL A   1      38.353  29.488  30.983  1.00  0.00     0.055 A 
ATOM     70  C   UNL A   1      37.714  29.696  28.676  1.00  0.00     0.041 A 
ATOM     71  F   UNL A   1      39.309  29.376  26.991  1.00  0.00    -0.206 F 
ATOM     72  C   UNL A   1      37.363  29.703  30.024  1.00  0.00     0.022 A 
BRANCH  69  73
ATOM     73  S   UNL A   1      37.900  29.276  32.727  1.00  0.00     0.124 S 
ATOM     74  O   UNL A   1      39.052  29.870  33.402  1.00  0.00    -0.237 OA
ATOM     75  O   UNL A   1      36.651  30.021  32.821  1.00  0.00    -0.237 OA
ATOM     76  O   UNL A   1      37.778  27.828  32.876  1.00  0.00    -0.744 OA
ENDBRANCH  69  73
ENDBRANCH  52  66
BRANCH  53  77
ATOM     77  C   UNL A   1      49.238  26.866  26.046  1.00  0.00     0.023 A 
ATOM     78  C   UNL A   1      49.626  27.265  24.758  1.00  0.00     0.031 A 
ATOM     79  C   UNL A   1      50.146  26.103  26.802  1.00  0.00     0.131 A 
ATOM     80  C   UNL A   1      50.866  26.856  24.243  1.00  0.00     0.055 A 
ATOM     81  C   UNL A   1      51.401  25.743  26.306  1.00  0.00     0.041 A 
ATOM     82  F   UNL A   1      49.827  25.698  28.042  1.00  0.00    -0.206 F 
ATOM     83  C   UNL A   1      51.761  26.109  25.012  1.00  0.00     0.022 A 
BRANCH  80  84
ATOM     84  S   UNL A   1      51.255  27.238  22.512  1.00  0.00     0.124 S 
ATOM     85  O   UNL A   1      51.479  28.677  22.569  1.00  0.00    -0.237 OA
ATOM     86  O   UNL A   1      52.436  26.412  22.280  1.00  0.00    -0.237 OA
ATOM     87  O   UNL A   1      50.053  26.819  21.795  1.00  0.00    -0.744 OA
ENDBRANCH  80  84
ENDBRANCH  53  77
BRANCH  65  88
ATOM     88  C   UNL A   1      46.396  32.706  28.575  1.00  0.00     0.023 A 
ATOM     89  C   UNL A   1      46.390  33.731  27.614  1.00  0.00     0.031 A 
ATOM     90  C   UNL A   1      46.979  32.973  29.826  1.00  0.00     0.131 A 
ATOM     91  C   UNL A   1      47.006  34.959  27.899  1.00  0.00     0.055 A 
ATOM     92  C   UNL A   1      47.541  34.216  30.123  1.00  0.00     0.041 A 
ATOM     93  F   UNL A   1      47.015  32.029  30.780  1.00  0.00    -0.206 F 
ATOM     94  C   UNL A   1      47.568  35.213  29.153  1.00  0.00     0.022 A 
BRANCH  91  95
ATOM     95  S   UNL A   1      47.140  36.195  26.577  1.00  0.00     0.124 S 
ATOM     96  O   UNL A   1      47.055  35.367  25.378  1.00  0.00    -0.237 OA
ATOM     97  O   UNL A   1      45.992  37.057  26.839  1.00  0.00    -0.237 OA
ATOM     98  O   UNL A   1      48.444  36.811  26.815  1.00  0.00    -0.744 OA
ENDBRANCH  91  95
ENDBRANCH  65  88
ENDBRANCH  39  40
ENDBRANCH  31  34
ENDBRANCH  29  30
ENDBRANCH   1  29
TORSDOF 16
ENDMDL
