MODEL 1
REMARK VINA RESULT:     -11.5      0.000      0.000
REMARK SMILES CCOc1cc(/C=C(/F)C(=O)NCCCNC(=O)c2ccc(-c3c4nc(c(-c5cc(S(=O)(=O)[O-])ccc5F)c5ccc([nH]5)c(-c5cc(S(=O)(=O)[O-])ccc5F)c5nc(c(-c6cc(S(=O)(=O)[O-])ccc6F)c6ccc3[nH]6)C=C5)C=C4)cc2)ccc1O
REMARK SMILES IDX 14 1 13 2 12 3 10 4 11 5 8 7 7 8 9 9 6 10 4 11 5 12 84 13
REMARK SMILES IDX 83 14 82 15 3 16 2 17 1 18 85 19 15 21 16 22 17 23 18 25
REMARK SMILES IDX 19 26 20 27 81 28 21 29 80 30 22 31 23 32 24 33 74 34 25 35
REMARK SMILES IDX 79 36 73 37 75 38 26 39 78 40 72 41 71 42 27 44 59 45 39 46
REMARK SMILES IDX 58 47 40 48 43 49 57 50 76 51 41 52 42 53 56 55 77 56 44 57
REMARK SMILES IDX 28 58 29 59 37 60 30 61 36 62 38 63 35 64 31 65 32 66 33 67
REMARK SMILES IDX 34 68 60 69 61 70 69 71 62 72 68 73 70 74 67 75 63 76 64 77
REMARK SMILES IDX 65 78 66 79 45 80 46 81 54 82 47 83 53 84 55 85 52 86 48 87
REMARK SMILES IDX 49 88 50 89 51 90
REMARK H PARENT 12 6 85 20 16 24 75 43 43 54
REMARK Flexibility Score: inf
ROOT
ATOM      1  C   UNL A   1      32.017  30.061  25.398  1.00  0.00     0.042 C 
ENDROOT
BRANCH   1   2
ATOM      2  C   UNL A   1      33.353  29.348  25.209  1.00  0.00     0.118 C 
BRANCH   2   3
ATOM      3  N   UNL A   1      33.691  29.109  23.816  1.00  0.00    -0.350 N 
ATOM      4  C   UNL A   1      33.527  28.039  22.987  1.00  0.00     0.280 C 
ATOM      5  O   UNL A   1      33.783  28.224  21.797  1.00  0.00    -0.267 OA
ATOM      6  H   UNL A   1      34.129  29.876  23.382  1.00  0.00     0.163 HD
BRANCH   4   7
ATOM      7  C   UNL A   1      33.051  26.720  23.503  1.00  0.00     0.188 C 
ATOM      8  C   UNL A   1      31.790  26.320  23.742  1.00  0.00     0.053 C 
ATOM      9  F   UNL A   1      34.021  25.834  23.815  1.00  0.00    -0.201 F 
BRANCH   8  10
ATOM     10  C   UNL A   1      30.485  26.978  23.557  1.00  0.00    -0.019 A 
ATOM     11  C   UNL A   1      29.042  28.786  22.740  1.00  0.00     0.161 A 
ATOM     12  C   UNL A   1      30.309  28.198  22.891  1.00  0.00     0.058 A 
ATOM     13  C   UNL A   1      27.922  28.099  23.209  1.00  0.00     0.157 A 
ATOM     14  C   UNL A   1      28.069  26.857  23.825  1.00  0.00     0.051 A 
ATOM     15  C   UNL A   1      29.339  26.298  23.991  1.00  0.00     0.012 A 
BRANCH  11  16
ATOM     16  O   UNL A   1      29.059  29.966  22.046  1.00  0.00    -0.490 OA
BRANCH  16  17
ATOM     17  C   UNL A   1      29.155  31.186  22.777  1.00  0.00     0.226 C 
ATOM     18  C   UNL A   1      27.770  31.810  22.852  1.00  0.00     0.049 C 
ENDBRANCH  16  17
ENDBRANCH  11  16
BRANCH  13  19
ATOM     19  O   UNL A   1      26.637  28.529  23.056  1.00  0.00    -0.504 OA
ATOM     20  H   UNL A   1      26.301  28.708  22.199  1.00  0.00     0.293 HD
ENDBRANCH  13  19
ENDBRANCH   8  10
ENDBRANCH   4   7
ENDBRANCH   2   3
ENDBRANCH   1   2
BRANCH   1  21
ATOM     21  C   UNL A   1      31.781  30.630  26.796  1.00  0.00     0.118 C 
BRANCH  21  22
ATOM     22  N   UNL A   1      31.829  32.085  26.843  1.00  0.00    -0.352 N 
ATOM     23  C   UNL A   1      32.743  32.937  27.418  1.00  0.00     0.251 C 
ATOM     24  H   UNL A   1      31.080  32.534  26.388  1.00  0.00     0.163 HD
ATOM     25  O   UNL A   1      32.490  34.136  27.468  1.00  0.00    -0.269 OA
BRANCH  23  26
ATOM     26  C   UNL A   1      34.002  32.418  27.999  1.00  0.00     0.039 A 
ATOM     27  C   UNL A   1      35.081  33.292  28.152  1.00  0.00     0.014 A 
ATOM     28  C   UNL A   1      34.131  31.079  28.375  1.00  0.00     0.014 A 
ATOM     29  C   UNL A   1      36.259  32.844  28.756  1.00  0.00     0.010 A 
ATOM     30  C   UNL A   1      35.274  30.655  29.050  1.00  0.00     0.010 A 
ATOM     31  C   UNL A   1      36.351  31.534  29.253  1.00  0.00    -0.014 A 
BRANCH  31  32
ATOM     32  C   UNL A   1      37.557  31.071  29.991  1.00  0.00     0.031 A 
ATOM     33  C   UNL A   1      38.489  30.065  29.371  1.00  0.00     0.074 A 
ATOM     34  C   UNL A   1      37.778  31.511  31.247  1.00  0.00     0.049 A 
ATOM     35  N   UNL A   1      39.545  29.488  29.883  1.00  0.00    -0.248 NA
ATOM     36  C   UNL A   1      38.173  29.632  28.001  1.00  0.00     0.031 C 
ATOM     37  C   UNL A   1      36.929  32.460  31.972  1.00  0.00     0.029 A 
ATOM     38  N   UNL A   1      38.778  31.217  32.141  1.00  0.00    -0.354 N 
ATOM     39  C   UNL A   1      40.013  28.615  28.907  1.00  0.00     0.074 A 
ATOM     40  C   UNL A   1      39.087  28.695  27.798  1.00  0.00     0.031 C 
ATOM     41  C   UNL A   1      37.460  32.691  33.182  1.00  0.00     0.029 A 
ATOM     42  C   UNL A   1      38.655  31.869  33.346  1.00  0.00     0.049 A 
ATOM     43  H   UNL A   1      39.515  30.597  31.938  1.00  0.00     0.167 HD
ATOM     44  C   UNL A   1      41.124  27.837  28.924  1.00  0.00     0.034 A 
ATOM     45  C   UNL A   1      39.407  31.803  34.464  1.00  0.00     0.034 A 
ATOM     46  C   UNL A   1      42.042  27.774  30.038  1.00  0.00     0.049 A 
ATOM     47  C   UNL A   1      40.613  30.897  34.475  1.00  0.00     0.074 A 
ATOM     48  C   UNL A   1      43.224  27.062  30.140  1.00  0.00     0.029 A 
ATOM     49  N   UNL A   1      41.875  28.438  31.247  1.00  0.00    -0.354 N 
ATOM     50  N   UNL A   1      41.071  30.117  33.523  1.00  0.00    -0.248 NA
ATOM     51  C   UNL A   1      41.409  30.870  35.709  1.00  0.00     0.031 C 
ATOM     52  C   UNL A   1      43.728  27.230  31.434  1.00  0.00     0.029 A 
ATOM     53  C   UNL A   1      42.912  28.120  32.113  1.00  0.00     0.049 A 
ATOM     54  H   UNL A   1      41.130  29.046  31.459  1.00  0.00     0.167 HD
ATOM     55  C   UNL A   1      42.229  29.535  34.033  1.00  0.00     0.074 A 
ATOM     56  C   UNL A   1      42.405  30.066  35.369  1.00  0.00     0.031 C 
ATOM     57  C   UNL A   1      43.074  28.648  33.448  1.00  0.00     0.034 A 
BRANCH  44  58
ATOM     58  C   UNL A   1      41.389  26.969  27.715  1.00  0.00     0.023 A 
ATOM     59  C   UNL A   1      41.028  25.610  27.687  1.00  0.00     0.031 A 
ATOM     60  C   UNL A   1      42.029  27.501  26.582  1.00  0.00     0.131 A 
ATOM     61  C   UNL A   1      41.381  24.813  26.586  1.00  0.00     0.055 A 
ATOM     62  C   UNL A   1      42.298  26.724  25.453  1.00  0.00     0.041 A 
ATOM     63  F   UNL A   1      42.419  28.785  26.556  1.00  0.00    -0.206 F 
ATOM     64  C   UNL A   1      41.988  25.367  25.457  1.00  0.00     0.022 A 
BRANCH  61  65
ATOM     65  S   UNL A   1      41.173  23.017  26.717  1.00  0.00     0.124 S 
ATOM     66  O   UNL A   1      41.633  22.765  28.080  1.00  0.00    -0.237 OA
ATOM     67  O   UNL A   1      39.744  22.846  26.482  1.00  0.00    -0.237 OA
ATOM     68  O   UNL A   1      42.046  22.494  25.667  1.00  0.00    -0.744 OA
ENDBRANCH  61  65
ENDBRANCH  44  58
BRANCH  45  69
ATOM     69  C   UNL A   1      39.045  32.602  35.671  1.00  0.00     0.023 A 
ATOM     70  C   UNL A   1      39.521  33.913  35.840  1.00  0.00     0.031 A 
ATOM     71  C   UNL A   1      38.260  32.050  36.699  1.00  0.00     0.131 A 
ATOM     72  C   UNL A   1      39.252  34.608  37.029  1.00  0.00     0.055 A 
ATOM     73  C   UNL A   1      37.944  32.768  37.854  1.00  0.00     0.041 A 
ATOM     74  F   UNL A   1      37.778  30.802  36.591  1.00  0.00    -0.206 F 
ATOM     75  C   UNL A   1      38.454  34.051  38.031  1.00  0.00     0.022 A 
BRANCH  72  76
ATOM     76  S   UNL A   1      40.046  36.217  37.292  1.00  0.00     0.124 S 
ATOM     77  O   UNL A   1      41.386  35.821  37.708  1.00  0.00    -0.237 OA
ATOM     78  O   UNL A   1      39.936  36.828  35.972  1.00  0.00    -0.237 OA
ATOM     79  O   UNL A   1      39.225  36.834  38.332  1.00  0.00    -0.744 OA
ENDBRANCH  72  76
ENDBRANCH  45  69
BRANCH  57  80
ATOM     80  C   UNL A   1      44.295  28.236  34.236  1.00  0.00     0.023 A 
ATOM     81  C   UNL A   1      44.293  27.110  35.078  1.00  0.00     0.031 A 
ATOM     82  C   UNL A   1      45.478  28.992  34.148  1.00  0.00     0.131 A 
ATOM     83  C   UNL A   1      45.430  26.808  35.844  1.00  0.00     0.055 A 
ATOM     84  C   UNL A   1      46.628  28.646  34.859  1.00  0.00     0.041 A 
ATOM     85  F   UNL A   1      45.537  30.081  33.364  1.00  0.00    -0.206 F 
ATOM     86  C   UNL A   1      46.604  27.557  35.724  1.00  0.00     0.022 A 
BRANCH  83  87
ATOM     87  S   UNL A   1      45.322  25.482  37.077  1.00  0.00     0.124 S 
ATOM     88  O   UNL A   1      44.259  25.966  37.951  1.00  0.00    -0.237 OA
ATOM     89  O   UNL A   1      44.994  24.319  36.259  1.00  0.00    -0.237 OA
ATOM     90  O   UNL A   1      46.656  25.461  37.676  1.00  0.00    -0.744 OA
ENDBRANCH  83  87
ENDBRANCH  57  80
ENDBRANCH  31  32
ENDBRANCH  23  26
ENDBRANCH  21  22
ENDBRANCH   1  21
TORSDOF 17
ENDMDL
MODEL 2
REMARK VINA RESULT:     -11.5      0.622      7.934
REMARK SMILES CCOc1cc(/C=C(/F)C(=O)NCCCNC(=O)c2ccc(-c3c4nc(c(-c5cc(S(=O)(=O)[O-])ccc5F)c5ccc([nH]5)c(-c5cc(S(=O)(=O)[O-])ccc5F)c5nc(c(-c6cc(S(=O)(=O)[O-])ccc6F)c6ccc3[nH]6)C=C5)C=C4)cc2)ccc1O
REMARK SMILES IDX 14 1 13 2 12 3 10 4 11 5 8 7 7 8 9 9 6 10 4 11 5 12 84 13
REMARK SMILES IDX 83 14 82 15 3 16 2 17 1 18 85 19 15 21 16 22 17 23 18 25
REMARK SMILES IDX 19 26 20 27 81 28 21 29 80 30 22 31 23 32 24 33 74 34 25 35
REMARK SMILES IDX 79 36 73 37 75 38 26 39 78 40 72 41 71 42 27 44 59 45 39 46
REMARK SMILES IDX 58 47 40 48 43 49 57 50 76 51 41 52 42 53 56 55 77 56 44 57
REMARK SMILES IDX 28 58 29 59 37 60 30 61 36 62 38 63 35 64 31 65 32 66 33 67
REMARK SMILES IDX 34 68 60 69 61 70 69 71 62 72 68 73 70 74 67 75 63 76 64 77
REMARK SMILES IDX 65 78 66 79 45 80 46 81 54 82 47 83 53 84 55 85 52 86 48 87
REMARK SMILES IDX 49 88 50 89 51 90
REMARK H PARENT 12 6 85 20 16 24 75 43 43 54
REMARK Flexibility Score: inf
ROOT
ATOM      1  C   UNL A   1      32.050  29.824  25.376  1.00  0.00     0.042 C 
ENDROOT
BRANCH   1   2
ATOM      2  C   UNL A   1      33.398  29.154  25.128  1.00  0.00     0.118 C 
BRANCH   2   3
ATOM      3  N   UNL A   1      33.721  29.002  23.719  1.00  0.00    -0.350 N 
ATOM      4  C   UNL A   1      33.534  27.991  22.823  1.00  0.00     0.280 C 
ATOM      5  O   UNL A   1      33.782  28.250  21.646  1.00  0.00    -0.267 OA
ATOM      6  H   UNL A   1      34.165  29.790  23.332  1.00  0.00     0.163 HD
BRANCH   4   7
ATOM      7  C   UNL A   1      33.043  26.648  23.257  1.00  0.00     0.188 C 
ATOM      8  C   UNL A   1      31.779  26.250  23.479  1.00  0.00     0.053 C 
ATOM      9  F   UNL A   1      34.003  25.731  23.503  1.00  0.00    -0.201 F 
BRANCH   8  10
ATOM     10  C   UNL A   1      30.481  26.935  23.347  1.00  0.00    -0.019 A 
ATOM     11  C   UNL A   1      29.014  28.690  22.460  1.00  0.00     0.161 A 
ATOM     12  C   UNL A   1      30.272  28.071  22.553  1.00  0.00     0.058 A 
ATOM     13  C   UNL A   1      27.931  28.114  23.125  1.00  0.00     0.157 A 
ATOM     14  C   UNL A   1      28.105  26.952  23.876  1.00  0.00     0.051 A 
ATOM     15  C   UNL A   1      29.369  26.365  23.980  1.00  0.00     0.012 A 
BRANCH  11  16
ATOM     16  O   UNL A   1      28.991  29.772  21.623  1.00  0.00    -0.490 OA
BRANCH  16  17
ATOM     17  C   UNL A   1      29.285  31.059  22.163  1.00  0.00     0.226 C 
ATOM     18  C   UNL A   1      28.246  31.381  23.226  1.00  0.00     0.049 C 
ENDBRANCH  16  17
ENDBRANCH  11  16
BRANCH  13  19
ATOM     19  O   UNL A   1      26.650  28.578  23.052  1.00  0.00    -0.504 OA
ATOM     20  H   UNL A   1      26.093  28.540  23.805  1.00  0.00     0.293 HD
ENDBRANCH  13  19
ENDBRANCH   8  10
ENDBRANCH   4   7
ENDBRANCH   2   3
ENDBRANCH   1   2
BRANCH   1  21
ATOM     21  C   UNL A   1      31.848  30.365  26.790  1.00  0.00     0.118 C 
BRANCH  21  22
ATOM     22  N   UNL A   1      31.964  31.814  26.877  1.00  0.00    -0.352 N 
ATOM     23  C   UNL A   1      32.921  32.606  27.469  1.00  0.00     0.251 C 
ATOM     24  H   UNL A   1      31.235  32.310  26.439  1.00  0.00     0.163 HD
ATOM     25  O   UNL A   1      32.725  33.814  27.553  1.00  0.00    -0.269 OA
BRANCH  23  26
ATOM     26  C   UNL A   1      34.156  32.012  28.027  1.00  0.00     0.039 A 
ATOM     27  C   UNL A   1      35.267  32.837  28.226  1.00  0.00     0.014 A 
ATOM     28  C   UNL A   1      34.234  30.653  28.338  1.00  0.00     0.014 A 
ATOM     29  C   UNL A   1      36.424  32.316  28.810  1.00  0.00     0.010 A 
ATOM     30  C   UNL A   1      35.358  30.154  28.995  1.00  0.00     0.010 A 
ATOM     31  C   UNL A   1      36.465  30.981  29.242  1.00  0.00    -0.014 A 
BRANCH  31  32
ATOM     32  C   UNL A   1      37.650  30.437  29.960  1.00  0.00     0.031 A 
ATOM     33  C   UNL A   1      37.943  30.862  31.374  1.00  0.00     0.074 A 
ATOM     34  C   UNL A   1      38.497  29.608  29.316  1.00  0.00     0.049 A 
ATOM     35  N   UNL A   1      38.962  30.558  32.136  1.00  0.00    -0.248 NA
ATOM     36  C   UNL A   1      36.974  31.773  32.002  1.00  0.00     0.031 C 
ATOM     37  C   UNL A   1      38.340  29.149  27.933  1.00  0.00     0.029 A 
ATOM     38  N   UNL A   1      39.659  29.006  29.732  1.00  0.00    -0.354 N 
ATOM     39  C   UNL A   1      38.765  31.247  33.328  1.00  0.00     0.074 A 
ATOM     40  C   UNL A   1      37.562  32.034  33.160  1.00  0.00     0.031 C 
ATOM     41  C   UNL A   1      39.349  28.317  27.628  1.00  0.00     0.029 A 
ATOM     42  C   UNL A   1      40.254  28.224  28.769  1.00  0.00     0.049 A 
ATOM     43  H   UNL A   1      40.031  29.124  30.635  1.00  0.00     0.167 HD
ATOM     44  C   UNL A   1      39.506  31.210  34.464  1.00  0.00     0.034 A 
ATOM     45  C   UNL A   1      41.406  27.523  28.793  1.00  0.00     0.034 A 
ATOM     46  C   UNL A   1      40.701  30.414  34.616  1.00  0.00     0.049 A 
ATOM     47  C   UNL A   1      42.236  27.532  30.053  1.00  0.00     0.074 A 
ATOM     48  C   UNL A   1      41.496  30.260  35.738  1.00  0.00     0.029 A 
ATOM     49  N   UNL A   1      41.281  29.645  33.614  1.00  0.00    -0.354 N 
ATOM     50  N   UNL A   1      42.007  28.149  31.190  1.00  0.00    -0.248 NA
ATOM     51  C   UNL A   1      43.473  26.741  30.036  1.00  0.00     0.031 C 
ATOM     52  C   UNL A   1      42.596  29.469  35.393  1.00  0.00     0.029 A 
ATOM     53  C   UNL A   1      42.443  29.050  34.081  1.00  0.00     0.049 A 
ATOM     54  H   UNL A   1      40.919  29.540  32.704  1.00  0.00     0.167 HD
ATOM     55  C   UNL A   1      43.056  27.790  32.033  1.00  0.00     0.074 A 
ATOM     56  C   UNL A   1      43.906  26.893  31.278  1.00  0.00     0.031 C 
ATOM     57  C   UNL A   1      43.291  28.164  33.317  1.00  0.00     0.034 A 
BRANCH  44  58
ATOM     58  C   UNL A   1      39.060  32.079  35.618  1.00  0.00     0.023 A 
ATOM     59  C   UNL A   1      39.485  33.413  35.746  1.00  0.00     0.031 A 
ATOM     60  C   UNL A   1      38.215  31.562  36.616  1.00  0.00     0.131 A 
ATOM     61  C   UNL A   1      39.131  34.157  36.883  1.00  0.00     0.055 A 
ATOM     62  C   UNL A   1      37.794  32.334  37.700  1.00  0.00     0.041 A 
ATOM     63  F   UNL A   1      37.793  30.289  36.562  1.00  0.00    -0.206 F 
ATOM     64  C   UNL A   1      38.266  33.636  37.847  1.00  0.00     0.022 A 
BRANCH  61  65
ATOM     65  S   UNL A   1      39.942  35.755  37.159  1.00  0.00     0.124 S 
ATOM     66  O   UNL A   1      39.247  36.238  38.348  1.00  0.00    -0.237 OA
ATOM     67  O   UNL A   1      41.337  35.372  37.345  1.00  0.00    -0.237 OA
ATOM     68  O   UNL A   1      39.657  36.500  35.933  1.00  0.00    -0.744 OA
ENDBRANCH  61  65
ENDBRANCH  44  58
BRANCH  45  69
ATOM     69  C   UNL A   1      41.857  26.763  27.591  1.00  0.00     0.023 A 
ATOM     70  C   UNL A   1      41.630  25.381  27.482  1.00  0.00     0.031 A 
ATOM     71  C   UNL A   1      42.568  27.396  26.555  1.00  0.00     0.131 A 
ATOM     72  C   UNL A   1      42.153  24.669  26.391  1.00  0.00     0.055 A 
ATOM     73  C   UNL A   1      43.033  26.693  25.442  1.00  0.00     0.041 A 
ATOM     74  F   UNL A   1      42.814  28.715  26.607  1.00  0.00    -0.206 F 
ATOM     75  C   UNL A   1      42.839  25.318  25.363  1.00  0.00     0.022 A 
BRANCH  72  76
ATOM     76  S   UNL A   1      42.009  22.861  26.386  1.00  0.00     0.124 S 
ATOM     77  O   UNL A   1      40.563  22.680  26.440  1.00  0.00    -0.237 OA
ATOM     78  O   UNL A   1      42.655  22.510  25.126  1.00  0.00    -0.237 OA
ATOM     79  O   UNL A   1      42.735  22.460  27.589  1.00  0.00    -0.744 OA
ENDBRANCH  72  76
ENDBRANCH  45  69
BRANCH  57  80
ATOM     80  C   UNL A   1      44.493  27.558  34.002  1.00  0.00     0.023 A 
ATOM     81  C   UNL A   1      44.407  26.366  34.742  1.00  0.00     0.031 A 
ATOM     82  C   UNL A   1      45.746  28.194  33.920  1.00  0.00     0.131 A 
ATOM     83  C   UNL A   1      45.536  25.879  35.418  1.00  0.00     0.055 A 
ATOM     84  C   UNL A   1      46.881  27.667  34.538  1.00  0.00     0.041 A 
ATOM     85  F   UNL A   1      45.887  29.338  33.233  1.00  0.00    -0.206 F 
ATOM     86  C   UNL A   1      46.777  26.511  35.304  1.00  0.00     0.022 A 
BRANCH  83  87
ATOM     87  S   UNL A   1      45.340  24.463  36.535  1.00  0.00     0.124 S 
ATOM     88  O   UNL A   1      44.020  24.708  37.107  1.00  0.00    -0.237 OA
ATOM     89  O   UNL A   1      45.439  23.328  35.623  1.00  0.00    -0.237 OA
ATOM     90  O   UNL A   1      46.457  24.605  37.469  1.00  0.00    -0.744 OA
ENDBRANCH  83  87
ENDBRANCH  57  80
ENDBRANCH  31  32
ENDBRANCH  23  26
ENDBRANCH  21  22
ENDBRANCH   1  21
TORSDOF 17
ENDMDL
MODEL 3
REMARK VINA RESULT:     -11.4      1.758      2.137
REMARK SMILES CCOc1cc(/C=C(/F)C(=O)NCCCNC(=O)c2ccc(-c3c4nc(c(-c5cc(S(=O)(=O)[O-])ccc5F)c5ccc([nH]5)c(-c5cc(S(=O)(=O)[O-])ccc5F)c5nc(c(-c6cc(S(=O)(=O)[O-])ccc6F)c6ccc3[nH]6)C=C5)C=C4)cc2)ccc1O
REMARK SMILES IDX 14 1 13 2 12 3 10 4 11 5 8 7 7 8 9 9 6 10 4 11 5 12 84 13
REMARK SMILES IDX 83 14 82 15 3 16 2 17 1 18 85 19 15 21 16 22 17 23 18 25
REMARK SMILES IDX 19 26 20 27 81 28 21 29 80 30 22 31 23 32 24 33 74 34 25 35
REMARK SMILES IDX 79 36 73 37 75 38 26 39 78 40 72 41 71 42 27 44 59 45 39 46
REMARK SMILES IDX 58 47 40 48 43 49 57 50 76 51 41 52 42 53 56 55 77 56 44 57
REMARK SMILES IDX 28 58 29 59 37 60 30 61 36 62 38 63 35 64 31 65 32 66 33 67
REMARK SMILES IDX 34 68 60 69 61 70 69 71 62 72 68 73 70 74 67 75 63 76 64 77
REMARK SMILES IDX 65 78 66 79 45 80 46 81 54 82 47 83 53 84 55 85 52 86 48 87
REMARK SMILES IDX 49 88 50 89 51 90
REMARK H PARENT 12 6 85 20 16 24 75 43 43 54
REMARK Flexibility Score: inf
ROOT
ATOM      1  C   UNL A   1      31.841  31.045  26.592  1.00  0.00     0.042 C 
ENDROOT
BRANCH   1   2
ATOM      2  C   UNL A   1      32.147  29.676  25.993  1.00  0.00     0.118 C 
BRANCH   2   3
ATOM      3  N   UNL A   1      32.923  29.738  24.766  1.00  0.00    -0.350 N 
ATOM      4  C   UNL A   1      33.211  28.824  23.797  1.00  0.00     0.280 C 
ATOM      5  O   UNL A   1      33.772  29.252  22.789  1.00  0.00    -0.267 OA
ATOM      6  H   UNL A   1      33.323  30.622  24.601  1.00  0.00     0.163 HD
BRANCH   4   7
ATOM      7  C   UNL A   1      32.851  27.382  23.955  1.00  0.00     0.188 C 
ATOM      8  C   UNL A   1      31.637  26.809  23.877  1.00  0.00     0.053 C 
ATOM      9  F   UNL A   1      33.875  26.558  24.266  1.00  0.00    -0.201 F 
BRANCH   8  10
ATOM     10  C   UNL A   1      30.298  27.348  23.583  1.00  0.00    -0.019 A 
ATOM     11  C   UNL A   1      28.760  28.893  22.456  1.00  0.00     0.161 A 
ATOM     12  C   UNL A   1      30.058  28.413  22.704  1.00  0.00     0.058 A 
ATOM     13  C   UNL A   1      27.679  28.243  23.052  1.00  0.00     0.157 A 
ATOM     14  C   UNL A   1      27.891  27.146  23.886  1.00  0.00     0.051 A 
ATOM     15  C   UNL A   1      29.190  26.699  24.143  1.00  0.00     0.012 A 
BRANCH  11  16
ATOM     16  O   UNL A   1      28.714  29.922  21.556  1.00  0.00    -0.490 OA
BRANCH  16  17
ATOM     17  C   UNL A   1      29.256  31.185  21.935  1.00  0.00     0.226 C 
ATOM     18  C   UNL A   1      28.113  32.180  22.059  1.00  0.00     0.049 C 
ENDBRANCH  16  17
ENDBRANCH  11  16
BRANCH  13  19
ATOM     19  O   UNL A   1      26.372  28.567  22.831  1.00  0.00    -0.504 OA
ATOM     20  H   UNL A   1      26.085  29.453  22.932  1.00  0.00     0.293 HD
ENDBRANCH  13  19
ENDBRANCH   8  10
ENDBRANCH   4   7
ENDBRANCH   2   3
ENDBRANCH   1   2
BRANCH   1  21
ATOM     21  C   UNL A   1      33.052  31.792  27.147  1.00  0.00     0.118 C 
BRANCH  21  22
ATOM     22  N   UNL A   1      32.775  33.187  27.463  1.00  0.00    -0.352 N 
ATOM     23  C   UNL A   1      33.321  34.020  28.413  1.00  0.00     0.251 C 
ATOM     24  H   UNL A   1      32.079  33.603  26.905  1.00  0.00     0.163 HD
ATOM     25  O   UNL A   1      32.814  35.120  28.602  1.00  0.00    -0.269 OA
BRANCH  23  26
ATOM     26  C   UNL A   1      34.484  33.588  29.220  1.00  0.00     0.039 A 
ATOM     27  C   UNL A   1      34.274  32.696  30.276  1.00  0.00     0.014 A 
ATOM     28  C   UNL A   1      35.770  34.064  28.956  1.00  0.00     0.014 A 
ATOM     29  C   UNL A   1      35.362  32.223  31.013  1.00  0.00     0.010 A 
ATOM     30  C   UNL A   1      36.862  33.529  29.638  1.00  0.00     0.010 A 
ATOM     31  C   UNL A   1      36.671  32.599  30.672  1.00  0.00    -0.014 A 
BRANCH  31  32
ATOM     32  C   UNL A   1      37.849  32.024  31.378  1.00  0.00     0.031 A 
ATOM     33  C   UNL A   1      38.665  30.937  30.733  1.00  0.00     0.074 A 
ATOM     34  C   UNL A   1      38.145  32.440  32.626  1.00  0.00     0.049 A 
ATOM     35  N   UNL A   1      39.676  30.263  31.217  1.00  0.00    -0.248 NA
ATOM     36  C   UNL A   1      38.274  30.537  29.373  1.00  0.00     0.031 C 
ATOM     37  C   UNL A   1      37.408  33.463  33.373  1.00  0.00     0.029 A 
ATOM     38  N   UNL A   1      39.137  32.052  33.493  1.00  0.00    -0.354 N 
ATOM     39  C   UNL A   1      40.035  29.351  30.229  1.00  0.00     0.074 A 
ATOM     40  C   UNL A   1      39.089  29.519  29.146  1.00  0.00     0.031 C 
ATOM     41  C   UNL A   1      37.992  33.642  34.568  1.00  0.00     0.029 A 
ATOM     42  C   UNL A   1      39.108  32.711  34.700  1.00  0.00     0.049 A 
ATOM     43  H   UNL A   1      39.807  31.366  33.271  1.00  0.00     0.167 HD
ATOM     44  C   UNL A   1      41.068  28.472  30.217  1.00  0.00     0.034 A 
ATOM     45  C   UNL A   1      39.881  32.574  35.797  1.00  0.00     0.034 A 
ATOM     46  C   UNL A   1      42.006  28.322  31.306  1.00  0.00     0.049 A 
ATOM     47  C   UNL A   1      40.997  31.559  35.777  1.00  0.00     0.074 A 
ATOM     48  C   UNL A   1      43.118  27.503  31.376  1.00  0.00     0.029 A 
ATOM     49  N   UNL A   1      41.935  28.998  32.518  1.00  0.00    -0.354 N 
ATOM     50  N   UNL A   1      41.354  30.741  34.813  1.00  0.00    -0.248 NA
ATOM     51  C   UNL A   1      41.821  31.456  36.988  1.00  0.00     0.031 C 
ATOM     52  C   UNL A   1      43.671  27.621  32.655  1.00  0.00     0.029 A 
ATOM     53  C   UNL A   1      42.961  28.583  33.356  1.00  0.00     0.049 A 
ATOM     54  H   UNL A   1      41.256  29.672  32.749  1.00  0.00     0.167 HD
ATOM     55  C   UNL A   1      42.466  30.053  35.292  1.00  0.00     0.074 A 
ATOM     56  C   UNL A   1      42.727  30.563  36.622  1.00  0.00     0.031 C 
ATOM     57  C   UNL A   1      43.208  29.091  34.685  1.00  0.00     0.034 A 
BRANCH  44  58
ATOM     58  C   UNL A   1      41.217  27.585  29.002  1.00  0.00     0.023 A 
ATOM     59  C   UNL A   1      42.218  27.809  28.041  1.00  0.00     0.031 A 
ATOM     60  C   UNL A   1      40.333  26.512  28.791  1.00  0.00     0.131 A 
ATOM     61  C   UNL A   1      42.260  27.025  26.876  1.00  0.00     0.055 A 
ATOM     62  C   UNL A   1      40.435  25.680  27.674  1.00  0.00     0.041 A 
ATOM     63  F   UNL A   1      39.342  26.260  29.661  1.00  0.00    -0.206 F 
ATOM     64  C   UNL A   1      41.394  25.945  26.700  1.00  0.00     0.022 A 
BRANCH  61  65
ATOM     65  S   UNL A   1      43.362  27.537  25.530  1.00  0.00     0.124 S 
ATOM     66  O   UNL A   1      42.407  27.999  24.527  1.00  0.00    -0.237 OA
ATOM     67  O   UNL A   1      44.175  28.569  26.162  1.00  0.00    -0.237 OA
ATOM     68  O   UNL A   1      44.072  26.307  25.183  1.00  0.00    -0.744 OA
ENDBRANCH  61  65
ENDBRANCH  44  58
BRANCH  45  69
ATOM     69  C   UNL A   1      39.628  33.402  37.012  1.00  0.00     0.023 A 
ATOM     70  C   UNL A   1      40.362  34.575  37.254  1.00  0.00     0.031 A 
ATOM     71  C   UNL A   1      38.685  33.006  37.978  1.00  0.00     0.131 A 
ATOM     72  C   UNL A   1      40.179  35.281  38.453  1.00  0.00     0.055 A 
ATOM     73  C   UNL A   1      38.463  33.746  39.141  1.00  0.00     0.041 A 
ATOM     74  F   UNL A   1      37.955  31.893  37.799  1.00  0.00    -0.206 F 
ATOM     75  C   UNL A   1      39.224  34.884  39.391  1.00  0.00     0.022 A 
BRANCH  72  76
ATOM     76  S   UNL A   1      41.281  36.675  38.815  1.00  0.00     0.124 S 
ATOM     77  O   UNL A   1      41.962  36.853  37.539  1.00  0.00    -0.237 OA
ATOM     78  O   UNL A   1      40.335  37.720  39.191  1.00  0.00    -0.237 OA
ATOM     79  O   UNL A   1      42.116  36.173  39.905  1.00  0.00    -0.744 OA
ENDBRANCH  72  76
ENDBRANCH  45  69
BRANCH  57  80
ATOM     80  C   UNL A   1      44.406  28.566  35.440  1.00  0.00     0.023 A 
ATOM     81  C   UNL A   1      44.297  27.530  36.384  1.00  0.00     0.031 A 
ATOM     82  C   UNL A   1      45.679  29.122  35.216  1.00  0.00     0.131 A 
ATOM     83  C   UNL A   1      45.426  27.124  37.110  1.00  0.00     0.055 A 
ATOM     84  C   UNL A   1      46.811  28.666  35.892  1.00  0.00     0.041 A 
ATOM     85  F   UNL A   1      45.844  30.118  34.331  1.00  0.00    -0.206 F 
ATOM     86  C   UNL A   1      46.686  27.671  36.856  1.00  0.00     0.022 A 
BRANCH  83  87
ATOM     87  S   UNL A   1      45.209  25.940  38.468  1.00  0.00     0.124 S 
ATOM     88  O   UNL A   1      44.099  26.527  39.209  1.00  0.00    -0.237 OA
ATOM     89  O   UNL A   1      44.915  24.699  37.757  1.00  0.00    -0.237 OA
ATOM     90  O   UNL A   1      46.499  25.967  39.156  1.00  0.00    -0.744 OA
ENDBRANCH  83  87
ENDBRANCH  57  80
ENDBRANCH  31  32
ENDBRANCH  23  26
ENDBRANCH  21  22
ENDBRANCH   1  21
TORSDOF 17
ENDMDL
