MODEL 1
REMARK VINA RESULT:     -13.1      0.000      0.000
REMARK SMILES Cc1nsc(NC(=O)c2ccc(N)cc2)c1C(=O)NCCCNC(=O)c1ccc(-c2c3nc(c(-c4cc(S(=O)(=O)[O-])ccc4F)c4ccc([nH]4)c(-c4cc(S(=O)(=O)[O-])ccc4F)c4nc(c(-c5cc(S(=O)(=O)[O-])ccc5F)c5ccc2[nH]5)C=C4)C=C3)cc1
REMARK SMILES IDX 21 1 20 2 19 3 17 4 18 5 16 7 1 8 2 9 3 10 4 11 5 12 6 13
REMARK SMILES IDX 7 14 8 16 9 17 10 18 15 19 11 20 14 21 12 22 13 23 22 26
REMARK SMILES IDX 23 27 24 28 25 30 26 31 27 32 88 33 28 34 87 35 29 36 30 37
REMARK SMILES IDX 31 38 81 39 32 40 86 41 80 42 82 43 33 44 85 45 79 46 78 47
REMARK SMILES IDX 34 49 66 50 46 51 65 52 47 53 50 54 64 55 83 56 48 57 49 58
REMARK SMILES IDX 63 60 84 61 51 62 35 63 36 64 44 65 37 66 43 67 45 68 42 69
REMARK SMILES IDX 38 70 39 71 40 72 41 73 67 74 68 75 76 76 69 77 75 78 77 79
REMARK SMILES IDX 74 80 70 81 71 82 72 83 73 84 52 85 53 86 61 87 54 88 60 89
REMARK SMILES IDX 62 90 59 91 55 92 56 93 57 94 58 95
REMARK H PARENT 19 6 6 15 13 24 13 25 23 29 82 48 50 59
REMARK Flexibility Score: inf
ROOT
ATOM      1  C   UNL A   1      35.047  29.248  27.139  1.00  0.00     0.042 C 
ENDROOT
BRANCH   1   2
ATOM      2  C   UNL A   1      33.673  29.639  26.594  1.00  0.00     0.118 C 
BRANCH   2   3
ATOM      3  N   UNL A   1      32.570  29.103  27.351  1.00  0.00    -0.352 N 
ATOM      4  C   UNL A   1      31.600  28.169  27.126  1.00  0.00     0.256 C 
ATOM      5  O   UNL A   1      31.011  27.824  28.160  1.00  0.00    -0.269 OA
ATOM      6  H   UNL A   1      32.499  29.508  28.246  1.00  0.00     0.163 HD
BRANCH   4   7
ATOM      7  C   UNL A   1      31.167  27.625  25.826  1.00  0.00     0.097 A 
ATOM      8  C   UNL A   1      31.488  29.400  23.825  1.00  0.00     0.069 C 
ATOM      9  C   UNL A   1      31.029  28.141  24.462  1.00  0.00     0.066 A 
ATOM     10  N   UNL A   1      30.381  27.354  23.600  1.00  0.00    -0.195 NA
ATOM     11  S   UNL A   1      29.957  25.966  24.342  1.00  0.00    -0.017 S 
ATOM     12  C   UNL A   1      30.814  26.263  25.773  1.00  0.00     0.129 A 
BRANCH  12  13
ATOM     13  N   UNL A   1      30.975  25.290  26.751  1.00  0.00    -0.312 N 
ATOM     14  C   UNL A   1      31.767  24.161  26.793  1.00  0.00     0.256 C 
ATOM     15  H   UNL A   1      30.429  25.431  27.558  1.00  0.00     0.171 HD
ATOM     16  O   UNL A   1      31.638  23.331  27.691  1.00  0.00    -0.269 OA
BRANCH  14  17
ATOM     17  C   UNL A   1      32.835  23.930  25.802  1.00  0.00     0.040 A 
ATOM     18  C   UNL A   1      32.808  22.815  24.957  1.00  0.00     0.016 A 
ATOM     19  C   UNL A   1      33.903  24.827  25.752  1.00  0.00     0.016 A 
ATOM     20  C   UNL A   1      33.920  22.532  24.161  1.00  0.00     0.026 A 
ATOM     21  C   UNL A   1      35.002  24.541  24.938  1.00  0.00     0.026 A 
ATOM     22  C   UNL A   1      35.047  23.360  24.190  1.00  0.00     0.031 A 
BRANCH  22  23
ATOM     23  N   UNL A   1      36.146  23.077  23.390  1.00  0.00    -0.399 N 
ATOM     24  H   UNL A   1      36.656  23.811  22.978  1.00  0.00     0.156 HD
ATOM     25  H   UNL A   1      36.414  22.143  23.236  1.00  0.00     0.156 HD
ENDBRANCH  22  23
ENDBRANCH  14  17
ENDBRANCH  12  13
ENDBRANCH   4   7
ENDBRANCH   2   3
ENDBRANCH   1   2
BRANCH   1  26
ATOM     26  C   UNL A   1      35.815  30.436  27.688  1.00  0.00     0.118 C 
BRANCH  26  27
ATOM     27  N   UNL A   1      35.894  30.390  29.151  1.00  0.00    -0.352 N 
ATOM     28  C   UNL A   1      36.691  29.594  29.953  1.00  0.00     0.251 C 
ATOM     29  H   UNL A   1      35.297  31.011  29.628  1.00  0.00     0.163 HD
ATOM     30  O   UNL A   1      36.404  29.417  31.123  1.00  0.00    -0.269 OA
BRANCH  28  31
ATOM     31  C   UNL A   1      37.876  28.959  29.347  1.00  0.00     0.039 A 
ATOM     32  C   UNL A   1      38.533  29.551  28.268  1.00  0.00     0.014 A 
ATOM     33  C   UNL A   1      38.368  27.797  29.935  1.00  0.00     0.014 A 
ATOM     34  C   UNL A   1      39.754  29.018  27.865  1.00  0.00     0.010 A 
ATOM     35  C   UNL A   1      39.643  27.379  29.649  1.00  0.00     0.010 A 
ATOM     36  C   UNL A   1      40.331  27.957  28.590  1.00  0.00    -0.014 A 
BRANCH  36  37
ATOM     37  C   UNL A   1      41.725  27.573  28.365  1.00  0.00     0.031 A 
ATOM     38  C   UNL A   1      41.871  26.297  27.621  1.00  0.00     0.074 A 
ATOM     39  C   UNL A   1      42.796  28.360  28.623  1.00  0.00     0.049 A 
ATOM     40  N   UNL A   1      42.190  25.149  28.118  1.00  0.00    -0.248 NA
ATOM     41  C   UNL A   1      41.414  26.227  26.222  1.00  0.00     0.031 C 
ATOM     42  C   UNL A   1      42.806  29.744  29.107  1.00  0.00     0.029 A 
ATOM     43  N   UNL A   1      44.121  28.112  28.414  1.00  0.00    -0.354 N 
ATOM     44  C   UNL A   1      42.274  24.284  27.036  1.00  0.00     0.074 A 
ATOM     45  C   UNL A   1      41.550  24.922  25.970  1.00  0.00     0.031 C 
ATOM     46  C   UNL A   1      44.037  30.279  28.939  1.00  0.00     0.029 A 
ATOM     47  C   UNL A   1      44.946  29.235  28.499  1.00  0.00     0.049 A 
ATOM     48  H   UNL A   1      44.469  27.212  28.220  1.00  0.00     0.167 HD
ATOM     49  C   UNL A   1      43.189  23.275  27.035  1.00  0.00     0.034 A 
ATOM     50  C   UNL A   1      46.280  29.316  28.236  1.00  0.00     0.034 A 
ATOM     51  C   UNL A   1      43.698  23.042  28.374  1.00  0.00     0.049 A 
ATOM     52  C   UNL A   1      46.827  27.949  28.407  1.00  0.00     0.074 A 
ATOM     53  C   UNL A   1      43.111  22.774  29.598  1.00  0.00     0.029 A 
ATOM     54  N   UNL A   1      44.966  23.495  28.673  1.00  0.00    -0.354 N 
ATOM     55  N   UNL A   1      46.853  27.335  29.557  1.00  0.00    -0.248 NA
ATOM     56  C   UNL A   1      46.876  27.078  27.244  1.00  0.00     0.031 C 
ATOM     57  C   UNL A   1      43.842  23.564  30.536  1.00  0.00     0.029 A 
ATOM     58  C   UNL A   1      44.900  24.178  29.864  1.00  0.00     0.049 A 
ATOM     59  H   UNL A   1      45.775  23.354  28.130  1.00  0.00     0.167 HD
ATOM     60  C   UNL A   1      46.440  26.042  29.278  1.00  0.00     0.074 A 
ATOM     61  C   UNL A   1      46.581  25.912  27.828  1.00  0.00     0.031 C 
ATOM     62  C   UNL A   1      45.754  25.305  30.204  1.00  0.00     0.034 A 
BRANCH  49  63
ATOM     63  C   UNL A   1      43.922  22.787  25.802  1.00  0.00     0.023 A 
ATOM     64  C   UNL A   1      44.029  21.396  25.630  1.00  0.00     0.031 A 
ATOM     65  C   UNL A   1      44.751  23.573  24.966  1.00  0.00     0.131 A 
ATOM     66  C   UNL A   1      44.990  20.846  24.762  1.00  0.00     0.055 A 
ATOM     67  C   UNL A   1      45.655  23.021  24.054  1.00  0.00     0.041 A 
ATOM     68  F   UNL A   1      44.813  24.906  25.043  1.00  0.00    -0.206 F 
ATOM     69  C   UNL A   1      45.804  21.649  23.971  1.00  0.00     0.022 A 
BRANCH  66  70
ATOM     70  S   UNL A   1      45.279  19.060  24.830  1.00  0.00     0.124 S 
ATOM     71  O   UNL A   1      45.668  18.779  23.453  1.00  0.00    -0.237 OA
ATOM     72  O   UNL A   1      46.336  18.967  25.831  1.00  0.00    -0.237 OA
ATOM     73  O   UNL A   1      43.983  18.523  25.238  1.00  0.00    -0.744 OA
ENDBRANCH  66  70
ENDBRANCH  49  63
BRANCH  50  74
ATOM     74  C   UNL A   1      47.029  30.424  27.573  1.00  0.00     0.023 A 
ATOM     75  C   UNL A   1      46.393  31.532  26.966  1.00  0.00     0.031 A 
ATOM     76  C   UNL A   1      48.423  30.533  27.773  1.00  0.00     0.131 A 
ATOM     77  C   UNL A   1      47.142  32.680  26.604  1.00  0.00     0.055 A 
ATOM     78  C   UNL A   1      49.157  31.667  27.416  1.00  0.00     0.041 A 
ATOM     79  F   UNL A   1      49.111  29.572  28.411  1.00  0.00    -0.206 F 
ATOM     80  C   UNL A   1      48.516  32.752  26.841  1.00  0.00     0.022 A 
BRANCH  77  81
ATOM     81  S   UNL A   1      46.323  34.155  25.904  1.00  0.00     0.124 S 
ATOM     82  O   UNL A   1      47.397  34.774  25.136  1.00  0.00    -0.237 OA
ATOM     83  O   UNL A   1      45.226  33.576  25.138  1.00  0.00    -0.237 OA
ATOM     84  O   UNL A   1      45.907  34.908  27.089  1.00  0.00    -0.744 OA
ENDBRANCH  77  81
ENDBRANCH  50  74
BRANCH  62  85
ATOM     85  C   UNL A   1      45.734  25.800  31.644  1.00  0.00     0.023 A 
ATOM     86  C   UNL A   1      46.760  25.596  32.598  1.00  0.00     0.031 A 
ATOM     87  C   UNL A   1      44.631  26.576  32.045  1.00  0.00     0.131 A 
ATOM     88  C   UNL A   1      46.640  26.129  33.899  1.00  0.00     0.055 A 
ATOM     89  C   UNL A   1      44.528  27.126  33.323  1.00  0.00     0.041 A 
ATOM     90  F   UNL A   1      43.629  26.832  31.187  1.00  0.00    -0.206 F 
ATOM     91  C   UNL A   1      45.527  26.893  34.260  1.00  0.00     0.022 A 
BRANCH  88  92
ATOM     92  S   UNL A   1      47.905  25.797  35.170  1.00  0.00     0.124 S 
ATOM     93  O   UNL A   1      48.399  27.123  35.521  1.00  0.00    -0.237 OA
ATOM     94  O   UNL A   1      47.140  25.106  36.204  1.00  0.00    -0.237 OA
ATOM     95  O   UNL A   1      48.876  24.953  34.467  1.00  0.00    -0.744 OA
ENDBRANCH  88  92
ENDBRANCH  62  85
ENDBRANCH  36  37
ENDBRANCH  28  31
ENDBRANCH  26  27
ENDBRANCH   1  26
TORSDOF 16
ENDMDL
MODEL 2
REMARK VINA RESULT:     -12.9      1.821      2.232
REMARK SMILES Cc1nsc(NC(=O)c2ccc(N)cc2)c1C(=O)NCCCNC(=O)c1ccc(-c2c3nc(c(-c4cc(S(=O)(=O)[O-])ccc4F)c4ccc([nH]4)c(-c4cc(S(=O)(=O)[O-])ccc4F)c4nc(c(-c5cc(S(=O)(=O)[O-])ccc5F)c5ccc2[nH]5)C=C4)C=C3)cc1
REMARK SMILES IDX 21 1 20 2 19 3 17 4 18 5 16 7 1 8 2 9 3 10 4 11 5 12 6 13
REMARK SMILES IDX 7 14 8 16 9 17 10 18 15 19 11 20 14 21 12 22 13 23 22 26
REMARK SMILES IDX 23 27 24 28 25 30 26 31 27 32 88 33 28 34 87 35 29 36 30 37
REMARK SMILES IDX 31 38 81 39 32 40 86 41 80 42 82 43 33 44 85 45 79 46 78 47
REMARK SMILES IDX 34 49 66 50 46 51 65 52 47 53 50 54 64 55 83 56 48 57 49 58
REMARK SMILES IDX 63 60 84 61 51 62 35 63 36 64 44 65 37 66 43 67 45 68 42 69
REMARK SMILES IDX 38 70 39 71 40 72 41 73 67 74 68 75 76 76 69 77 75 78 77 79
REMARK SMILES IDX 74 80 70 81 71 82 72 83 73 84 52 85 53 86 61 87 54 88 60 89
REMARK SMILES IDX 62 90 59 91 55 92 56 93 57 94 58 95
REMARK H PARENT 19 6 6 15 13 24 13 25 23 29 82 48 50 59
REMARK Flexibility Score: inf
ROOT
ATOM      1  C   UNL A   1      33.778  29.152  27.304  1.00  0.00     0.042 C 
ENDROOT
BRANCH   1   2
ATOM      2  C   UNL A   1      33.289  29.906  26.068  1.00  0.00     0.118 C 
BRANCH   2   3
ATOM      3  N   UNL A   1      33.635  29.269  24.822  1.00  0.00    -0.352 N 
ATOM      4  C   UNL A   1      33.077  28.298  24.039  1.00  0.00     0.256 C 
ATOM      5  O   UNL A   1      33.574  28.246  22.906  1.00  0.00    -0.269 OA
ATOM      6  H   UNL A   1      34.475  29.618  24.444  1.00  0.00     0.163 HD
BRANCH   4   7
ATOM      7  C   UNL A   1      32.050  27.316  24.430  1.00  0.00     0.097 A 
ATOM      8  C   UNL A   1      29.647  27.873  23.347  1.00  0.00     0.069 C 
ATOM      9  C   UNL A   1      30.608  27.165  24.229  1.00  0.00     0.066 A 
ATOM     10  N   UNL A   1      30.011  26.214  24.954  1.00  0.00    -0.195 NA
ATOM     11  S   UNL A   1      31.124  25.436  25.854  1.00  0.00    -0.017 S 
ATOM     12  C   UNL A   1      32.472  26.181  25.149  1.00  0.00     0.129 A 
BRANCH  12  13
ATOM     13  N   UNL A   1      33.769  25.755  25.407  1.00  0.00    -0.312 N 
ATOM     14  C   UNL A   1      34.419  24.575  25.106  1.00  0.00     0.256 C 
ATOM     15  H   UNL A   1      34.324  26.411  25.889  1.00  0.00     0.171 HD
ATOM     16  O   UNL A   1      35.528  24.327  25.574  1.00  0.00    -0.269 OA
BRANCH  14  17
ATOM     17  C   UNL A   1      33.841  23.594  24.169  1.00  0.00     0.040 A 
ATOM     18  C   UNL A   1      33.707  23.887  22.808  1.00  0.00     0.016 A 
ATOM     19  C   UNL A   1      33.388  22.375  24.676  1.00  0.00     0.016 A 
ATOM     20  C   UNL A   1      32.995  23.011  21.985  1.00  0.00     0.026 A 
ATOM     21  C   UNL A   1      32.693  21.500  23.838  1.00  0.00     0.026 A 
ATOM     22  C   UNL A   1      32.433  21.841  22.507  1.00  0.00     0.031 A 
BRANCH  22  23
ATOM     23  N   UNL A   1      31.733  20.971  21.683  1.00  0.00    -0.399 N 
ATOM     24  H   UNL A   1      30.890  21.259  21.265  1.00  0.00     0.156 HD
ATOM     25  H   UNL A   1      32.081  20.065  21.516  1.00  0.00     0.156 HD
ENDBRANCH  22  23
ENDBRANCH  14  17
ENDBRANCH  12  13
ENDBRANCH   4   7
ENDBRANCH   2   3
ENDBRANCH   1   2
BRANCH   1  26
ATOM     26  C   UNL A   1      35.268  29.322  27.538  1.00  0.00     0.118 C 
BRANCH  26  27
ATOM     27  N   UNL A   1      35.539  29.903  28.855  1.00  0.00    -0.352 N 
ATOM     28  C   UNL A   1      36.591  29.649  29.717  1.00  0.00     0.251 C 
ATOM     29  H   UNL A   1      34.882  30.565  29.170  1.00  0.00     0.163 HD
ATOM     30  O   UNL A   1      36.501  29.933  30.898  1.00  0.00    -0.269 OA
BRANCH  28  31
ATOM     31  C   UNL A   1      37.803  29.013  29.169  1.00  0.00     0.039 A 
ATOM     32  C   UNL A   1      38.401  29.494  28.004  1.00  0.00     0.014 A 
ATOM     33  C   UNL A   1      38.380  27.974  29.894  1.00  0.00     0.014 A 
ATOM     34  C   UNL A   1      39.646  28.989  27.643  1.00  0.00     0.010 A 
ATOM     35  C   UNL A   1      39.675  27.601  29.632  1.00  0.00     0.010 A 
ATOM     36  C   UNL A   1      40.304  28.073  28.487  1.00  0.00    -0.014 A 
BRANCH  36  37
ATOM     37  C   UNL A   1      41.716  27.750  28.278  1.00  0.00     0.031 A 
ATOM     38  C   UNL A   1      41.926  26.462  27.569  1.00  0.00     0.074 A 
ATOM     39  C   UNL A   1      42.747  28.593  28.518  1.00  0.00     0.049 A 
ATOM     40  N   UNL A   1      42.296  25.345  28.098  1.00  0.00    -0.248 NA
ATOM     41  C   UNL A   1      41.480  26.334  26.171  1.00  0.00     0.031 C 
ATOM     42  C   UNL A   1      42.690  29.988  28.965  1.00  0.00     0.029 A 
ATOM     43  N   UNL A   1      44.084  28.402  28.321  1.00  0.00    -0.354 N 
ATOM     44  C   UNL A   1      42.426  24.456  27.041  1.00  0.00     0.074 A 
ATOM     45  C   UNL A   1      41.679  25.030  25.955  1.00  0.00     0.031 C 
ATOM     46  C   UNL A   1      43.894  30.576  28.788  1.00  0.00     0.029 A 
ATOM     47  C   UNL A   1      44.854  29.566  28.379  1.00  0.00     0.049 A 
ATOM     48  H   UNL A   1      44.475  27.515  28.153  1.00  0.00     0.167 HD
ATOM     49  C   UNL A   1      43.389  23.492  27.070  1.00  0.00     0.034 A 
ATOM     50  C   UNL A   1      46.184  29.702  28.119  1.00  0.00     0.034 A 
ATOM     51  C   UNL A   1      43.901  23.319  28.417  1.00  0.00     0.049 A 
ATOM     52  C   UNL A   1      46.794  28.368  28.329  1.00  0.00     0.074 A 
ATOM     53  C   UNL A   1      43.321  23.057  29.646  1.00  0.00     0.029 A 
ATOM     54  N   UNL A   1      45.144  23.840  28.709  1.00  0.00    -0.354 N 
ATOM     55  N   UNL A   1      46.843  27.787  29.495  1.00  0.00    -0.248 NA
ATOM     56  C   UNL A   1      46.890  27.469  27.190  1.00  0.00     0.031 C 
ATOM     57  C   UNL A   1      44.008  23.905  30.565  1.00  0.00     0.029 A 
ATOM     58  C   UNL A   1      45.041  24.551  29.880  1.00  0.00     0.049 A 
ATOM     59  H   UNL A   1      45.962  23.722  28.173  1.00  0.00     0.167 HD
ATOM     60  C   UNL A   1      46.493  26.469  29.250  1.00  0.00     0.074 A 
ATOM     61  C   UNL A   1      46.648  26.307  27.804  1.00  0.00     0.031 C 
ATOM     62  C   UNL A   1      45.838  25.725  30.193  1.00  0.00     0.034 A 
BRANCH  49  63
ATOM     63  C   UNL A   1      44.150  23.006  25.854  1.00  0.00     0.023 A 
ATOM     64  C   UNL A   1      44.202  21.617  25.644  1.00  0.00     0.031 A 
ATOM     65  C   UNL A   1      45.047  23.777  25.077  1.00  0.00     0.131 A 
ATOM     66  C   UNL A   1      45.173  21.048  24.800  1.00  0.00     0.055 A 
ATOM     67  C   UNL A   1      45.963  23.210  24.185  1.00  0.00     0.041 A 
ATOM     68  F   UNL A   1      45.165  25.103  25.196  1.00  0.00    -0.206 F 
ATOM     69  C   UNL A   1      46.054  21.836  24.067  1.00  0.00     0.022 A 
BRANCH  66  70
ATOM     70  S   UNL A   1      45.380  19.250  24.825  1.00  0.00     0.124 S 
ATOM     71  O   UNL A   1      44.286  18.846  25.700  1.00  0.00    -0.237 OA
ATOM     72  O   UNL A   1      45.236  18.914  23.413  1.00  0.00    -0.237 OA
ATOM     73  O   UNL A   1      46.722  19.073  25.375  1.00  0.00    -0.744 OA
ENDBRANCH  66  70
ENDBRANCH  49  63
BRANCH  50  74
ATOM     74  C   UNL A   1      46.883  30.826  27.430  1.00  0.00     0.023 A 
ATOM     75  C   UNL A   1      46.202  31.932  26.869  1.00  0.00     0.031 A 
ATOM     76  C   UNL A   1      48.284  30.950  27.556  1.00  0.00     0.131 A 
ATOM     77  C   UNL A   1      46.917  33.093  26.480  1.00  0.00     0.055 A 
ATOM     78  C   UNL A   1      48.984  32.097  27.172  1.00  0.00     0.041 A 
ATOM     79  F   UNL A   1      49.017  29.991  28.145  1.00  0.00    -0.206 F 
ATOM     80  C   UNL A   1      48.301  33.180  26.644  1.00  0.00     0.022 A 
BRANCH  77  81
ATOM     81  S   UNL A   1      46.044  34.566  25.842  1.00  0.00     0.124 S 
ATOM     82  O   UNL A   1      45.091  34.850  26.908  1.00  0.00    -0.237 OA
ATOM     83  O   UNL A   1      47.128  35.525  25.666  1.00  0.00    -0.237 OA
ATOM     84  O   UNL A   1      45.442  34.092  24.594  1.00  0.00    -0.744 OA
ENDBRANCH  77  81
ENDBRANCH  50  74
BRANCH  62  85
ATOM     85  C   UNL A   1      45.787  26.257  31.619  1.00  0.00     0.023 A 
ATOM     86  C   UNL A   1      44.691  26.936  32.204  1.00  0.00     0.031 A 
ATOM     87  C   UNL A   1      46.897  25.999  32.445  1.00  0.00     0.131 A 
ATOM     88  C   UNL A   1      44.750  27.358  33.550  1.00  0.00     0.055 A 
ATOM     89  C   UNL A   1      46.940  26.393  33.783  1.00  0.00     0.041 A 
ATOM     90  F   UNL A   1      47.964  25.339  31.967  1.00  0.00    -0.206 F 
ATOM     91  C   UNL A   1      45.872  27.085  34.337  1.00  0.00     0.022 A 
BRANCH  88  92
ATOM     92  S   UNL A   1      43.389  28.317  34.292  1.00  0.00     0.124 S 
ATOM     93  O   UNL A   1      42.901  27.455  35.362  1.00  0.00    -0.237 OA
ATOM     94  O   UNL A   1      44.061  29.542  34.717  1.00  0.00    -0.237 OA
ATOM     95  O   UNL A   1      42.453  28.494  33.179  1.00  0.00    -0.744 OA
ENDBRANCH  88  92
ENDBRANCH  62  85
ENDBRANCH  36  37
ENDBRANCH  28  31
ENDBRANCH  26  27
ENDBRANCH   1  26
TORSDOF 16
ENDMDL
MODEL 3
REMARK VINA RESULT:     -12.7      2.738      7.102
REMARK SMILES Cc1nsc(NC(=O)c2ccc(N)cc2)c1C(=O)NCCCNC(=O)c1ccc(-c2c3nc(c(-c4cc(S(=O)(=O)[O-])ccc4F)c4ccc([nH]4)c(-c4cc(S(=O)(=O)[O-])ccc4F)c4nc(c(-c5cc(S(=O)(=O)[O-])ccc5F)c5ccc2[nH]5)C=C4)C=C3)cc1
REMARK SMILES IDX 21 1 20 2 19 3 17 4 18 5 16 7 1 8 2 9 3 10 4 11 5 12 6 13
REMARK SMILES IDX 7 14 8 16 9 17 10 18 15 19 11 20 14 21 12 22 13 23 22 26
REMARK SMILES IDX 23 27 24 28 25 30 26 31 27 32 88 33 28 34 87 35 29 36 30 37
REMARK SMILES IDX 31 38 81 39 32 40 86 41 80 42 82 43 33 44 85 45 79 46 78 47
REMARK SMILES IDX 34 49 66 50 46 51 65 52 47 53 50 54 64 55 83 56 48 57 49 58
REMARK SMILES IDX 63 60 84 61 51 62 35 63 36 64 44 65 37 66 43 67 45 68 42 69
REMARK SMILES IDX 38 70 39 71 40 72 41 73 67 74 68 75 76 76 69 77 75 78 77 79
REMARK SMILES IDX 74 80 70 81 71 82 72 83 73 84 52 85 53 86 61 87 54 88 60 89
REMARK SMILES IDX 62 90 59 91 55 92 56 93 57 94 58 95
REMARK H PARENT 19 6 6 15 13 24 13 25 23 29 82 48 50 59
REMARK Flexibility Score: inf
ROOT
ATOM      1  C   UNL A   1      32.705  30.508  27.230  1.00  0.00     0.042 C 
ENDROOT
BRANCH   1   2
ATOM      2  C   UNL A   1      32.328  30.313  25.761  1.00  0.00     0.118 C 
BRANCH   2   3
ATOM      3  N   UNL A   1      33.206  29.420  25.047  1.00  0.00    -0.352 N 
ATOM      4  C   UNL A   1      33.079  28.189  24.469  1.00  0.00     0.256 C 
ATOM      5  O   UNL A   1      34.026  27.906  23.722  1.00  0.00    -0.269 OA
ATOM      6  H   UNL A   1      34.116  29.785  24.955  1.00  0.00     0.163 HD
BRANCH   4   7
ATOM      7  C   UNL A   1      32.014  27.197  24.703  1.00  0.00     0.097 A 
ATOM      8  C   UNL A   1      29.709  27.876  23.486  1.00  0.00     0.069 C 
ATOM      9  C   UNL A   1      30.590  27.086  24.381  1.00  0.00     0.066 A 
ATOM     10  N   UNL A   1      29.929  26.093  24.982  1.00  0.00    -0.195 NA
ATOM     11  S   UNL A   1      30.961  25.229  25.902  1.00  0.00    -0.017 S 
ATOM     12  C   UNL A   1      32.368  26.004  25.361  1.00  0.00     0.129 A 
BRANCH  12  13
ATOM     13  N   UNL A   1      33.636  25.537  25.684  1.00  0.00    -0.312 N 
ATOM     14  C   UNL A   1      34.284  24.361  25.366  1.00  0.00     0.256 C 
ATOM     15  H   UNL A   1      34.168  26.156  26.236  1.00  0.00     0.171 HD
ATOM     16  O   UNL A   1      35.354  24.066  25.894  1.00  0.00    -0.269 OA
BRANCH  14  17
ATOM     17  C   UNL A   1      33.755  23.442  24.341  1.00  0.00     0.040 A 
ATOM     18  C   UNL A   1      33.779  23.782  22.984  1.00  0.00     0.016 A 
ATOM     19  C   UNL A   1      33.187  22.236  24.756  1.00  0.00     0.016 A 
ATOM     20  C   UNL A   1      33.110  22.972  22.063  1.00  0.00     0.026 A 
ATOM     21  C   UNL A   1      32.537  21.427  23.822  1.00  0.00     0.026 A 
ATOM     22  C   UNL A   1      32.435  21.821  22.484  1.00  0.00     0.031 A 
BRANCH  22  23
ATOM     23  N   UNL A   1      31.779  21.017  21.563  1.00  0.00    -0.399 N 
ATOM     24  H   UNL A   1      31.620  20.067  21.764  1.00  0.00     0.156 HD
ATOM     25  H   UNL A   1      31.473  21.398  20.708  1.00  0.00     0.156 HD
ENDBRANCH  22  23
ENDBRANCH  14  17
ENDBRANCH  12  13
ENDBRANCH   4   7
ENDBRANCH   2   3
ENDBRANCH   1   2
BRANCH   1  26
ATOM     26  C   UNL A   1      34.095  31.091  27.402  1.00  0.00     0.118 C 
BRANCH  26  27
ATOM     27  N   UNL A   1      34.192  31.888  28.628  1.00  0.00    -0.352 N 
ATOM     28  C   UNL A   1      35.106  31.785  29.660  1.00  0.00     0.251 C 
ATOM     29  H   UNL A   1      33.513  32.593  28.730  1.00  0.00     0.163 HD
ATOM     30  O   UNL A   1      34.858  32.265  30.752  1.00  0.00    -0.269 OA
BRANCH  28  31
ATOM     31  C   UNL A   1      36.368  31.066  29.406  1.00  0.00     0.039 A 
ATOM     32  C   UNL A   1      37.582  31.750  29.339  1.00  0.00     0.014 A 
ATOM     33  C   UNL A   1      36.323  29.677  29.319  1.00  0.00     0.014 A 
ATOM     34  C   UNL A   1      38.758  31.008  29.297  1.00  0.00     0.010 A 
ATOM     35  C   UNL A   1      37.481  28.952  29.448  1.00  0.00     0.010 A 
ATOM     36  C   UNL A   1      38.706  29.604  29.399  1.00  0.00    -0.014 A 
BRANCH  36  37
ATOM     37  C   UNL A   1      39.923  28.830  29.643  1.00  0.00     0.031 A 
ATOM     38  C   UNL A   1      40.220  28.638  31.085  1.00  0.00     0.074 A 
ATOM     39  C   UNL A   1      40.629  28.176  28.690  1.00  0.00     0.049 A 
ATOM     40  N   UNL A   1      41.115  29.262  31.775  1.00  0.00    -0.248 NA
ATOM     41  C   UNL A   1      39.300  27.832  31.905  1.00  0.00     0.031 C 
ATOM     42  C   UNL A   1      40.318  28.046  27.264  1.00  0.00     0.029 A 
ATOM     43  N   UNL A   1      41.745  27.402  28.819  1.00  0.00    -0.354 N 
ATOM     44  C   UNL A   1      41.071  28.697  33.041  1.00  0.00     0.074 A 
ATOM     45  C   UNL A   1      39.798  28.034  33.128  1.00  0.00     0.031 C 
ATOM     46  C   UNL A   1      41.080  27.073  26.715  1.00  0.00     0.029 A 
ATOM     47  C   UNL A   1      42.050  26.626  27.699  1.00  0.00     0.049 A 
ATOM     48  H   UNL A   1      42.293  27.391  29.637  1.00  0.00     0.167 HD
ATOM     49  C   UNL A   1      42.211  28.572  33.777  1.00  0.00     0.034 A 
ATOM     50  C   UNL A   1      43.029  25.687  27.572  1.00  0.00     0.034 A 
ATOM     51  C   UNL A   1      43.264  29.414  33.239  1.00  0.00     0.049 A 
ATOM     52  C   UNL A   1      44.064  26.019  28.580  1.00  0.00     0.074 A 
ATOM     53  C   UNL A   1      43.367  30.762  32.942  1.00  0.00     0.029 A 
ATOM     54  N   UNL A   1      44.275  28.808  32.523  1.00  0.00    -0.354 N 
ATOM     55  N   UNL A   1      44.778  27.108  28.530  1.00  0.00    -0.248 NA
ATOM     56  C   UNL A   1      43.960  25.412  29.898  1.00  0.00     0.031 C 
ATOM     57  C   UNL A   1      44.062  30.811  31.696  1.00  0.00     0.029 A 
ATOM     58  C   UNL A   1      44.447  29.513  31.355  1.00  0.00     0.049 A 
ATOM     59  H   UNL A   1      44.784  28.013  32.799  1.00  0.00     0.167 HD
ATOM     60  C   UNL A   1      44.802  27.577  29.834  1.00  0.00     0.074 A 
ATOM     61  C   UNL A   1      44.383  26.435  30.646  1.00  0.00     0.031 C 
ATOM     62  C   UNL A   1      44.878  28.916  30.100  1.00  0.00     0.034 A 
BRANCH  49  63
ATOM     63  C   UNL A   1      42.507  27.412  34.704  1.00  0.00     0.023 A 
ATOM     64  C   UNL A   1      43.323  26.383  34.202  1.00  0.00     0.031 A 
ATOM     65  C   UNL A   1      41.821  27.117  35.906  1.00  0.00     0.131 A 
ATOM     66  C   UNL A   1      43.345  25.114  34.809  1.00  0.00     0.055 A 
ATOM     67  C   UNL A   1      41.902  25.876  36.545  1.00  0.00     0.041 A 
ATOM     68  F   UNL A   1      40.963  27.963  36.485  1.00  0.00    -0.206 F 
ATOM     69  C   UNL A   1      42.640  24.854  35.979  1.00  0.00     0.022 A 
BRANCH  66  70
ATOM     70  S   UNL A   1      44.166  23.761  33.931  1.00  0.00     0.124 S 
ATOM     71  O   UNL A   1      43.413  23.728  32.683  1.00  0.00    -0.237 OA
ATOM     72  O   UNL A   1      45.537  24.249  33.846  1.00  0.00    -0.237 OA
ATOM     73  O   UNL A   1      43.965  22.615  34.815  1.00  0.00    -0.744 OA
ENDBRANCH  66  70
ENDBRANCH  49  63
BRANCH  50  74
ATOM     74  C   UNL A   1      42.974  24.384  26.848  1.00  0.00     0.023 A 
ATOM     75  C   UNL A   1      43.939  23.990  25.891  1.00  0.00     0.031 A 
ATOM     76  C   UNL A   1      42.093  23.377  27.301  1.00  0.00     0.131 A 
ATOM     77  C   UNL A   1      43.999  22.646  25.444  1.00  0.00     0.055 A 
ATOM     78  C   UNL A   1      42.157  22.053  26.859  1.00  0.00     0.041 A 
ATOM     79  F   UNL A   1      41.191  23.625  28.265  1.00  0.00    -0.206 F 
ATOM     80  C   UNL A   1      43.121  21.679  25.936  1.00  0.00     0.022 A 
BRANCH  77  81
ATOM     81  S   UNL A   1      45.296  22.100  24.279  1.00  0.00     0.124 S 
ATOM     82  O   UNL A   1      44.525  21.400  23.259  1.00  0.00    -0.237 OA
ATOM     83  O   UNL A   1      45.913  23.358  23.879  1.00  0.00    -0.237 OA
ATOM     84  O   UNL A   1      46.149  21.237  25.099  1.00  0.00    -0.744 OA
ENDBRANCH  77  81
ENDBRANCH  50  74
BRANCH  62  85
ATOM     85  C   UNL A   1      45.257  29.856  28.964  1.00  0.00     0.023 A 
ATOM     86  C   UNL A   1      46.578  30.222  28.607  1.00  0.00     0.031 A 
ATOM     87  C   UNL A   1      44.214  30.354  28.162  1.00  0.00     0.131 A 
ATOM     88  C   UNL A   1      46.807  31.082  27.512  1.00  0.00     0.055 A 
ATOM     89  C   UNL A   1      44.446  31.181  27.062  1.00  0.00     0.041 A 
ATOM     90  F   UNL A   1      42.938  30.030  28.424  1.00  0.00    -0.206 F 
ATOM     91  C   UNL A   1      45.743  31.558  26.741  1.00  0.00     0.022 A 
BRANCH  88  92
ATOM     92  S   UNL A   1      48.492  31.642  27.096  1.00  0.00     0.124 S 
ATOM     93  O   UNL A   1      48.273  32.704  26.121  1.00  0.00    -0.237 OA
ATOM     94  O   UNL A   1      49.013  32.065  28.393  1.00  0.00    -0.237 OA
ATOM     95  O   UNL A   1      49.124  30.437  26.551  1.00  0.00    -0.744 OA
ENDBRANCH  88  92
ENDBRANCH  62  85
ENDBRANCH  36  37
ENDBRANCH  28  31
ENDBRANCH  26  27
ENDBRANCH   1  26
TORSDOF 16
ENDMDL
