MODEL 1
REMARK VINA RESULT:     -11.5      0.000      0.000
REMARK SMILES CN(C)S(=O)(=O)c1c[nH]c(C(=O)NCCCNC(=O)c2ccc(-c3c4nc(c(-c5cc(S(=O)(=O)[O-])ccc5F)c5ccc([nH]5)c(-c5cc(S(=O)(=O)[O-])ccc5F)c5nc(c(-c6cc(S(=O)(=O)[O-])ccc6F)c6ccc3[nH]6)C=C5)C=C4)cc2)c1
REMARK SMILES IDX 15 1 14 2 13 3 11 4 12 5 10 7 7 8 8 9 83 10 9 11 4 13 5 14
REMARK SMILES IDX 6 15 2 16 1 17 3 18 16 19 17 20 18 21 19 23 20 24 21 25
REMARK SMILES IDX 82 26 22 27 81 28 23 29 24 30 25 31 75 32 26 33 80 34 74 35
REMARK SMILES IDX 76 36 27 37 79 38 73 39 72 40 28 42 60 43 40 44 59 45 41 46
REMARK SMILES IDX 44 47 58 48 77 49 42 50 43 51 57 53 78 54 45 55 29 56 30 57
REMARK SMILES IDX 38 58 31 59 37 60 39 61 36 62 32 63 33 64 34 65 35 66 61 67
REMARK SMILES IDX 62 68 70 69 63 70 69 71 71 72 68 73 64 74 65 75 66 76 67 77
REMARK SMILES IDX 46 78 47 79 55 80 48 81 54 82 56 83 53 84 49 85 50 86 51 87
REMARK SMILES IDX 52 88
REMARK H PARENT 13 6 9 12 17 22 76 41 44 52
REMARK Flexibility Score: inf
ROOT
ATOM      1  C   UNL A   1      36.572  22.745  25.495  1.00  0.00     0.042 C 
ENDROOT
BRANCH   1   2
ATOM      2  C   UNL A   1      35.607  22.198  26.550  1.00  0.00     0.118 C 
BRANCH   2   3
ATOM      3  N   UNL A   1      34.827  21.085  26.045  1.00  0.00    -0.351 N 
ATOM      4  C   UNL A   1      33.534  21.020  25.601  1.00  0.00     0.267 C 
ATOM      5  O   UNL A   1      33.162  19.958  25.102  1.00  0.00    -0.268 OA
ATOM      6  H   UNL A   1      35.312  20.229  26.016  1.00  0.00     0.163 HD
BRANCH   4   7
ATOM      7  C   UNL A   1      32.645  22.162  25.661  1.00  0.00     0.105 A 
ATOM      8  C   UNL A   1      31.385  24.038  25.408  1.00  0.00     0.100 A 
ATOM      9  C   UNL A   1      30.867  23.320  26.465  1.00  0.00     0.104 A 
ATOM     10  C   UNL A   1      32.536  23.346  24.951  1.00  0.00     0.055 A 
ATOM     11  N   UNL A   1      31.654  22.213  26.629  1.00  0.00    -0.356 N 
ATOM     12  H   UNL A   1      31.533  21.542  27.340  1.00  0.00     0.166 HD
BRANCH   8  13
ATOM     13  S   UNL A   1      30.771  25.500  24.728  1.00  0.00     0.244 S 
ATOM     14  O   UNL A   1      29.571  25.784  25.502  1.00  0.00    -0.207 OA
ATOM     15  O   UNL A   1      30.719  25.251  23.313  1.00  0.00    -0.207 OA
BRANCH  13  16
ATOM     16  N   UNL A   1      31.878  26.771  25.022  1.00  0.00    -0.204 NA
ATOM     17  C   UNL A   1      32.378  26.758  26.416  1.00  0.00     0.124 C 
ATOM     18  C   UNL A   1      32.992  26.860  24.053  1.00  0.00     0.124 C 
ENDBRANCH  13  16
ENDBRANCH   8  13
ENDBRANCH   4   7
ENDBRANCH   2   3
ENDBRANCH   1   2
BRANCH   1  19
ATOM     19  C   UNL A   1      37.463  23.856  26.056  1.00  0.00     0.118 C 
BRANCH  19  20
ATOM     20  N   UNL A   1      38.626  23.282  26.720  1.00  0.00    -0.352 N 
ATOM     21  C   UNL A   1      39.700  23.864  27.337  1.00  0.00     0.251 C 
ATOM     22  H   UNL A   1      38.643  22.298  26.725  1.00  0.00     0.163 HD
ATOM     23  O   UNL A   1      40.676  23.153  27.578  1.00  0.00    -0.269 OA
BRANCH  21  24
ATOM     24  C   UNL A   1      39.745  25.302  27.682  1.00  0.00     0.039 A 
ATOM     25  C   UNL A   1      39.378  25.654  28.988  1.00  0.00     0.014 A 
ATOM     26  C   UNL A   1      40.054  26.302  26.755  1.00  0.00     0.014 A 
ATOM     27  C   UNL A   1      39.388  26.986  29.384  1.00  0.00     0.010 A 
ATOM     28  C   UNL A   1      40.084  27.641  27.153  1.00  0.00     0.010 A 
ATOM     29  C   UNL A   1      39.774  27.980  28.476  1.00  0.00    -0.014 A 
BRANCH  29  30
ATOM     30  C   UNL A   1      40.050  29.340  29.006  1.00  0.00     0.031 A 
ATOM     31  C   UNL A   1      38.732  30.109  29.296  1.00  0.00     0.074 A 
ATOM     32  C   UNL A   1      41.362  29.717  29.120  1.00  0.00     0.049 A 
ATOM     33  N   UNL A   1      38.466  31.381  29.288  1.00  0.00    -0.248 NA
ATOM     34  C   UNL A   1      37.490  29.318  29.547  1.00  0.00     0.031 C 
ATOM     35  C   UNL A   1      42.526  28.845  28.829  1.00  0.00     0.029 A 
ATOM     36  N   UNL A   1      41.994  30.885  29.497  1.00  0.00    -0.354 N 
ATOM     37  C   UNL A   1      37.141  31.545  29.774  1.00  0.00     0.074 A 
ATOM     38  C   UNL A   1      36.553  30.243  29.760  1.00  0.00     0.031 C 
ATOM     39  C   UNL A   1      43.692  29.521  28.966  1.00  0.00     0.029 A 
ATOM     40  C   UNL A   1      43.415  30.886  29.373  1.00  0.00     0.049 A 
ATOM     41  H   UNL A   1      41.496  31.667  29.830  1.00  0.00     0.167 HD
ATOM     42  C   UNL A   1      36.665  32.711  30.311  1.00  0.00     0.034 A 
ATOM     43  C   UNL A   1      44.302  31.918  29.554  1.00  0.00     0.034 A 
ATOM     44  C   UNL A   1      37.664  33.721  30.223  1.00  0.00     0.049 A 
ATOM     45  C   UNL A   1      43.479  33.015  30.081  1.00  0.00     0.074 A 
ATOM     46  C   UNL A   1      38.186  34.446  29.189  1.00  0.00     0.029 A 
ATOM     47  N   UNL A   1      38.446  33.910  31.339  1.00  0.00    -0.354 N 
ATOM     48  N   UNL A   1      43.031  33.080  31.296  1.00  0.00    -0.248 NA
ATOM     49  C   UNL A   1      43.085  34.104  29.178  1.00  0.00     0.031 C 
ATOM     50  C   UNL A   1      39.523  34.664  29.583  1.00  0.00     0.029 A 
ATOM     51  C   UNL A   1      39.709  34.195  30.890  1.00  0.00     0.049 A 
ATOM     52  H   UNL A   1      38.155  33.853  32.277  1.00  0.00     0.167 HD
ATOM     53  C   UNL A   1      42.060  34.042  31.205  1.00  0.00     0.074 A 
ATOM     54  C   UNL A   1      42.371  34.830  30.033  1.00  0.00     0.031 C 
ATOM     55  C   UNL A   1      40.828  33.798  31.720  1.00  0.00     0.034 A 
BRANCH  42  56
ATOM     56  C   UNL A   1      35.456  33.048  31.165  1.00  0.00     0.023 A 
ATOM     57  C   UNL A   1      34.676  34.158  30.739  1.00  0.00     0.031 A 
ATOM     58  C   UNL A   1      35.207  32.593  32.466  1.00  0.00     0.131 A 
ATOM     59  C   UNL A   1      33.833  34.854  31.614  1.00  0.00     0.055 A 
ATOM     60  C   UNL A   1      34.301  33.246  33.321  1.00  0.00     0.041 A 
ATOM     61  F   UNL A   1      35.877  31.563  32.994  1.00  0.00    -0.206 F 
ATOM     62  C   UNL A   1      33.642  34.405  32.913  1.00  0.00     0.022 A 
BRANCH  59  63
ATOM     63  S   UNL A   1      33.162  36.456  31.075  1.00  0.00     0.124 S 
ATOM     64  O   UNL A   1      31.754  36.338  31.435  1.00  0.00    -0.237 OA
ATOM     65  O   UNL A   1      33.947  37.397  31.871  1.00  0.00    -0.237 OA
ATOM     66  O   UNL A   1      33.440  36.476  29.641  1.00  0.00    -0.744 OA
ENDBRANCH  59  63
ENDBRANCH  42  56
BRANCH  43  67
ATOM     67  C   UNL A   1      45.776  32.259  29.351  1.00  0.00     0.023 A 
ATOM     68  C   UNL A   1      46.394  32.662  28.155  1.00  0.00     0.031 A 
ATOM     69  C   UNL A   1      46.655  32.231  30.485  1.00  0.00     0.131 A 
ATOM     70  C   UNL A   1      47.763  33.067  28.154  1.00  0.00     0.055 A 
ATOM     71  C   UNL A   1      47.967  32.705  30.495  1.00  0.00     0.041 A 
ATOM     72  F   UNL A   1      46.282  31.737  31.674  1.00  0.00    -0.206 F 
ATOM     73  C   UNL A   1      48.526  33.141  29.322  1.00  0.00     0.022 A 
BRANCH  70  74
ATOM     74  S   UNL A   1      48.624  33.539  26.622  1.00  0.00     0.124 S 
ATOM     75  O   UNL A   1      47.510  33.831  25.727  1.00  0.00    -0.237 OA
ATOM     76  O   UNL A   1      49.435  34.680  27.034  1.00  0.00    -0.237 OA
ATOM     77  O   UNL A   1      49.387  32.334  26.289  1.00  0.00    -0.744 OA
ENDBRANCH  70  74
ENDBRANCH  43  67
BRANCH  55  78
ATOM     78  C   UNL A   1      40.812  32.747  32.833  1.00  0.00     0.023 A 
ATOM     79  C   UNL A   1      40.707  31.378  32.522  1.00  0.00     0.031 A 
ATOM     80  C   UNL A   1      40.766  33.068  34.203  1.00  0.00     0.131 A 
ATOM     81  C   UNL A   1      40.538  30.414  33.539  1.00  0.00     0.055 A 
ATOM     82  C   UNL A   1      40.610  32.115  35.217  1.00  0.00     0.041 A 
ATOM     83  F   UNL A   1      40.853  34.330  34.613  1.00  0.00    -0.206 F 
ATOM     84  C   UNL A   1      40.489  30.776  34.886  1.00  0.00     0.022 A 
BRANCH  81  85
ATOM     85  S   UNL A   1      40.394  28.661  33.092  1.00  0.00     0.124 S 
ATOM     86  O   UNL A   1      41.479  28.484  32.134  1.00  0.00    -0.237 OA
ATOM     87  O   UNL A   1      40.563  27.993  34.380  1.00  0.00    -0.237 OA
ATOM     88  O   UNL A   1      39.049  28.561  32.525  1.00  0.00    -0.744 OA
ENDBRANCH  81  85
ENDBRANCH  55  78
ENDBRANCH  29  30
ENDBRANCH  21  24
ENDBRANCH  19  20
ENDBRANCH   1  19
TORSDOF 15
ENDMDL
MODEL 2
REMARK VINA RESULT:     -11.5      4.559     10.150
REMARK SMILES CN(C)S(=O)(=O)c1c[nH]c(C(=O)NCCCNC(=O)c2ccc(-c3c4nc(c(-c5cc(S(=O)(=O)[O-])ccc5F)c5ccc([nH]5)c(-c5cc(S(=O)(=O)[O-])ccc5F)c5nc(c(-c6cc(S(=O)(=O)[O-])ccc6F)c6ccc3[nH]6)C=C5)C=C4)cc2)c1
REMARK SMILES IDX 15 1 14 2 13 3 11 4 12 5 10 7 7 8 8 9 83 10 9 11 4 13 5 14
REMARK SMILES IDX 6 15 2 16 1 17 3 18 16 19 17 20 18 21 19 23 20 24 21 25
REMARK SMILES IDX 82 26 22 27 81 28 23 29 24 30 25 31 75 32 26 33 80 34 74 35
REMARK SMILES IDX 76 36 27 37 79 38 73 39 72 40 28 42 60 43 40 44 59 45 41 46
REMARK SMILES IDX 44 47 58 48 77 49 42 50 43 51 57 53 78 54 45 55 29 56 30 57
REMARK SMILES IDX 38 58 31 59 37 60 39 61 36 62 32 63 33 64 34 65 35 66 61 67
REMARK SMILES IDX 62 68 70 69 63 70 69 71 71 72 68 73 64 74 65 75 66 76 67 77
REMARK SMILES IDX 46 78 47 79 55 80 48 81 54 82 56 83 53 84 49 85 50 86 51 87
REMARK SMILES IDX 52 88
REMARK H PARENT 13 6 9 12 17 22 76 41 44 52
REMARK Flexibility Score: inf
ROOT
ATOM      1  C   UNL A   1      33.264  29.233  26.147  1.00  0.00     0.042 C 
ENDROOT
BRANCH   1   2
ATOM      2  C   UNL A   1      33.606  29.327  24.658  1.00  0.00     0.118 C 
BRANCH   2   3
ATOM      3  N   UNL A   1      32.417  29.407  23.833  1.00  0.00    -0.351 N 
ATOM      4  C   UNL A   1      31.812  28.476  23.033  1.00  0.00     0.267 C 
ATOM      5  O   UNL A   1      30.726  28.778  22.538  1.00  0.00    -0.268 OA
ATOM      6  H   UNL A   1      31.968  30.283  23.852  1.00  0.00     0.163 HD
BRANCH   4   7
ATOM      7  C   UNL A   1      32.387  27.165  22.812  1.00  0.00     0.105 A 
ATOM      8  C   UNL A   1      33.332  25.097  22.844  1.00  0.00     0.100 A 
ATOM      9  C   UNL A   1      32.766  25.284  21.601  1.00  0.00     0.104 A 
ATOM     10  C   UNL A   1      33.152  26.300  23.575  1.00  0.00     0.055 A 
ATOM     11  N   UNL A   1      32.233  26.544  21.582  1.00  0.00    -0.356 N 
ATOM     12  H   UNL A   1      31.798  26.955  20.800  1.00  0.00     0.166 HD
BRANCH   8  13
ATOM     13  S   UNL A   1      34.109  23.677  23.444  1.00  0.00     0.244 S 
ATOM     14  O   UNL A   1      34.528  24.036  24.792  1.00  0.00    -0.207 OA
ATOM     15  O   UNL A   1      35.058  23.323  22.424  1.00  0.00    -0.207 OA
BRANCH  13  16
ATOM     16  N   UNL A   1      32.958  22.419  23.587  1.00  0.00    -0.204 NA
ATOM     17  C   UNL A   1      33.521  21.229  24.264  1.00  0.00     0.124 C 
ATOM     18  C   UNL A   1      31.670  22.823  24.192  1.00  0.00     0.124 C 
ENDBRANCH  13  16
ENDBRANCH   8  13
ENDBRANCH   4   7
ENDBRANCH   2   3
ENDBRANCH   1   2
BRANCH   1  19
ATOM     19  C   UNL A   1      34.518  29.127  27.017  1.00  0.00     0.118 C 
BRANCH  19  20
ATOM     20  N   UNL A   1      35.088  30.448  27.243  1.00  0.00    -0.352 N 
ATOM     21  C   UNL A   1      36.237  30.848  27.869  1.00  0.00     0.251 C 
ATOM     22  H   UNL A   1      34.549  31.187  26.880  1.00  0.00     0.163 HD
ATOM     23  O   UNL A   1      36.347  32.040  28.157  1.00  0.00    -0.269 OA
BRANCH  21  24
ATOM     24  C   UNL A   1      37.316  29.907  28.243  1.00  0.00     0.039 A 
ATOM     25  C   UNL A   1      38.439  29.864  27.406  1.00  0.00     0.014 A 
ATOM     26  C   UNL A   1      37.223  29.027  29.326  1.00  0.00     0.014 A 
ATOM     27  C   UNL A   1      39.491  28.999  27.688  1.00  0.00     0.010 A 
ATOM     28  C   UNL A   1      38.285  28.170  29.625  1.00  0.00     0.010 A 
ATOM     29  C   UNL A   1      39.430  28.174  28.818  1.00  0.00    -0.014 A 
BRANCH  29  30
ATOM     30  C   UNL A   1      40.674  27.484  29.246  1.00  0.00     0.031 A 
ATOM     31  C   UNL A   1      41.010  26.294  28.306  1.00  0.00     0.074 A 
ATOM     32  C   UNL A   1      41.295  27.949  30.375  1.00  0.00     0.049 A 
ATOM     33  N   UNL A   1      41.646  25.183  28.529  1.00  0.00    -0.248 NA
ATOM     34  C   UNL A   1      40.466  26.314  26.916  1.00  0.00     0.031 C 
ATOM     35  C   UNL A   1      40.864  29.135  31.156  1.00  0.00     0.029 A 
ATOM     36  N   UNL A   1      42.398  27.543  31.099  1.00  0.00    -0.354 N 
ATOM     37  C   UNL A   1      41.799  24.519  27.283  1.00  0.00     0.074 A 
ATOM     38  C   UNL A   1      40.920  25.183  26.373  1.00  0.00     0.031 C 
ATOM     39  C   UNL A   1      41.634  29.302  32.258  1.00  0.00     0.029 A 
ATOM     40  C   UNL A   1      42.648  28.266  32.303  1.00  0.00     0.049 A 
ATOM     41  H   UNL A   1      42.976  26.802  30.803  1.00  0.00     0.167 HD
ATOM     42  C   UNL A   1      42.757  23.573  27.036  1.00  0.00     0.034 A 
ATOM     43  C   UNL A   1      43.582  28.028  33.281  1.00  0.00     0.034 A 
ATOM     44  C   UNL A   1      43.493  23.315  28.227  1.00  0.00     0.049 A 
ATOM     45  C   UNL A   1      44.409  26.944  32.736  1.00  0.00     0.074 A 
ATOM     46  C   UNL A   1      43.202  22.671  29.397  1.00  0.00     0.029 A 
ATOM     47  N   UNL A   1      44.676  24.001  28.380  1.00  0.00    -0.354 N 
ATOM     48  N   UNL A   1      45.301  27.094  31.807  1.00  0.00    -0.248 NA
ATOM     49  C   UNL A   1      44.200  25.576  33.229  1.00  0.00     0.031 C 
ATOM     50  C   UNL A   1      43.963  23.372  30.356  1.00  0.00     0.029 A 
ATOM     51  C   UNL A   1      44.787  24.304  29.711  1.00  0.00     0.049 A 
ATOM     52  H   UNL A   1      45.319  24.229  27.670  1.00  0.00     0.167 HD
ATOM     53  C   UNL A   1      45.526  25.806  31.397  1.00  0.00     0.074 A 
ATOM     54  C   UNL A   1      45.109  24.950  32.486  1.00  0.00     0.031 C 
ATOM     55  C   UNL A   1      45.499  25.513  30.073  1.00  0.00     0.034 A 
BRANCH  42  56
ATOM     56  C   UNL A   1      43.328  22.974  25.764  1.00  0.00     0.023 A 
ATOM     57  C   UNL A   1      43.440  21.557  25.731  1.00  0.00     0.031 A 
ATOM     58  C   UNL A   1      44.028  23.662  24.764  1.00  0.00     0.131 A 
ATOM     59  C   UNL A   1      44.321  20.900  24.862  1.00  0.00     0.055 A 
ATOM     60  C   UNL A   1      44.853  22.995  23.841  1.00  0.00     0.041 A 
ATOM     61  F   UNL A   1      44.015  24.998  24.685  1.00  0.00    -0.206 F 
ATOM     62  C   UNL A   1      45.036  21.615  23.913  1.00  0.00     0.022 A 
BRANCH  59  63
ATOM     63  S   UNL A   1      44.652  19.134  25.142  1.00  0.00     0.124 S 
ATOM     64  O   UNL A   1      45.982  19.161  25.739  1.00  0.00    -0.237 OA
ATOM     65  O   UNL A   1      43.559  18.758  26.035  1.00  0.00    -0.237 OA
ATOM     66  O   UNL A   1      44.582  18.559  23.800  1.00  0.00    -0.744 OA
ENDBRANCH  59  63
ENDBRANCH  42  56
BRANCH  43  67
ATOM     67  C   UNL A   1      43.970  28.493  34.682  1.00  0.00     0.023 A 
ATOM     68  C   UNL A   1      44.267  27.681  35.790  1.00  0.00     0.031 A 
ATOM     69  C   UNL A   1      44.112  29.899  34.930  1.00  0.00     0.131 A 
ATOM     70  C   UNL A   1      44.736  28.267  37.005  1.00  0.00     0.055 A 
ATOM     71  C   UNL A   1      44.648  30.459  36.089  1.00  0.00     0.041 A 
ATOM     72  F   UNL A   1      43.736  30.830  34.041  1.00  0.00    -0.206 F 
ATOM     73  C   UNL A   1      44.978  29.637  37.135  1.00  0.00     0.022 A 
BRANCH  70  74
ATOM     74  S   UNL A   1      45.076  27.266  38.486  1.00  0.00     0.124 S 
ATOM     75  O   UNL A   1      43.766  26.688  38.767  1.00  0.00    -0.237 OA
ATOM     76  O   UNL A   1      46.104  26.337  38.030  1.00  0.00    -0.237 OA
ATOM     77  O   UNL A   1      45.535  28.261  39.457  1.00  0.00    -0.744 OA
ENDBRANCH  70  74
ENDBRANCH  43  67
BRANCH  55  78
ATOM     78  C   UNL A   1      45.795  26.706  29.161  1.00  0.00     0.023 A 
ATOM     79  C   UNL A   1      44.747  27.505  28.665  1.00  0.00     0.031 A 
ATOM     80  C   UNL A   1      47.077  27.001  28.660  1.00  0.00     0.131 A 
ATOM     81  C   UNL A   1      44.992  28.510  27.705  1.00  0.00     0.055 A 
ATOM     82  C   UNL A   1      47.328  28.005  27.718  1.00  0.00     0.041 A 
ATOM     83  F   UNL A   1      48.141  26.309  29.057  1.00  0.00    -0.206 F 
ATOM     84  C   UNL A   1      46.279  28.764  27.229  1.00  0.00     0.022 A 
BRANCH  81  85
ATOM     85  S   UNL A   1      43.610  29.507  27.084  1.00  0.00     0.124 S 
ATOM     86  O   UNL A   1      42.947  29.937  28.310  1.00  0.00    -0.237 OA
ATOM     87  O   UNL A   1      44.291  30.552  26.325  1.00  0.00    -0.237 OA
ATOM     88  O   UNL A   1      42.845  28.563  26.269  1.00  0.00    -0.744 OA
ENDBRANCH  81  85
ENDBRANCH  55  78
ENDBRANCH  29  30
ENDBRANCH  21  24
ENDBRANCH  19  20
ENDBRANCH   1  19
TORSDOF 15
ENDMDL
MODEL 3
REMARK VINA RESULT:     -11.4      3.776      7.449
REMARK SMILES CN(C)S(=O)(=O)c1c[nH]c(C(=O)NCCCNC(=O)c2ccc(-c3c4nc(c(-c5cc(S(=O)(=O)[O-])ccc5F)c5ccc([nH]5)c(-c5cc(S(=O)(=O)[O-])ccc5F)c5nc(c(-c6cc(S(=O)(=O)[O-])ccc6F)c6ccc3[nH]6)C=C5)C=C4)cc2)c1
REMARK SMILES IDX 15 1 14 2 13 3 11 4 12 5 10 7 7 8 8 9 83 10 9 11 4 13 5 14
REMARK SMILES IDX 6 15 2 16 1 17 3 18 16 19 17 20 18 21 19 23 20 24 21 25
REMARK SMILES IDX 82 26 22 27 81 28 23 29 24 30 25 31 75 32 26 33 80 34 74 35
REMARK SMILES IDX 76 36 27 37 79 38 73 39 72 40 28 42 60 43 40 44 59 45 41 46
REMARK SMILES IDX 44 47 58 48 77 49 42 50 43 51 57 53 78 54 45 55 29 56 30 57
REMARK SMILES IDX 38 58 31 59 37 60 39 61 36 62 32 63 33 64 34 65 35 66 61 67
REMARK SMILES IDX 62 68 70 69 63 70 69 71 71 72 68 73 64 74 65 75 66 76 67 77
REMARK SMILES IDX 46 78 47 79 55 80 48 81 54 82 56 83 53 84 49 85 50 86 51 87
REMARK SMILES IDX 52 88
REMARK H PARENT 13 6 9 12 17 22 76 41 44 52
REMARK Flexibility Score: inf
ROOT
ATOM      1  C   UNL A   1      31.380  32.072  26.885  1.00  0.00     0.042 C 
ENDROOT
BRANCH   1   2
ATOM      2  C   UNL A   1      31.631  30.667  26.330  1.00  0.00     0.118 C 
BRANCH   2   3
ATOM      3  N   UNL A   1      32.880  30.110  26.813  1.00  0.00    -0.351 N 
ATOM      4  C   UNL A   1      33.782  29.271  26.216  1.00  0.00     0.267 C 
ATOM      5  O   UNL A   1      34.836  29.056  26.816  1.00  0.00    -0.268 OA
ATOM      6  H   UNL A   1      33.120  30.383  27.728  1.00  0.00     0.163 HD
BRANCH   4   7
ATOM      7  C   UNL A   1      33.544  28.696  24.908  1.00  0.00     0.105 A 
ATOM      8  C   UNL A   1      32.984  27.519  23.045  1.00  0.00     0.100 A 
ATOM      9  C   UNL A   1      33.409  28.767  22.644  1.00  0.00     0.104 A 
ATOM     10  C   UNL A   1      33.134  27.454  24.454  1.00  0.00     0.055 A 
ATOM     11  N   UNL A   1      33.777  29.452  23.770  1.00  0.00    -0.356 N 
ATOM     12  H   UNL A   1      34.156  30.361  23.772  1.00  0.00     0.166 HD
BRANCH   8  13
ATOM     13  S   UNL A   1      32.365  26.249  22.052  1.00  0.00     0.244 S 
ATOM     14  O   UNL A   1      33.425  25.995  21.086  1.00  0.00    -0.207 OA
ATOM     15  O   UNL A   1      31.063  26.705  21.647  1.00  0.00    -0.207 OA
BRANCH  13  16
ATOM     16  N   UNL A   1      32.184  24.832  22.993  1.00  0.00    -0.204 NA
ATOM     17  C   UNL A   1      30.760  24.495  23.219  1.00  0.00     0.124 C 
ATOM     18  C   UNL A   1      32.941  23.660  22.500  1.00  0.00     0.124 C 
ENDBRANCH  13  16
ENDBRANCH   8  13
ENDBRANCH   4   7
ENDBRANCH   2   3
ENDBRANCH   1   2
BRANCH   1  19
ATOM     19  C   UNL A   1      32.643  32.935  26.850  1.00  0.00     0.118 C 
BRANCH  19  20
ATOM     20  N   UNL A   1      32.610  33.922  27.921  1.00  0.00    -0.352 N 
ATOM     21  C   UNL A   1      33.389  34.083  29.034  1.00  0.00     0.251 C 
ATOM     22  H   UNL A   1      31.897  34.594  27.827  1.00  0.00     0.163 HD
ATOM     23  O   UNL A   1      32.978  34.837  29.916  1.00  0.00    -0.269 OA
BRANCH  21  24
ATOM     24  C   UNL A   1      34.667  33.364  29.229  1.00  0.00     0.039 A 
ATOM     25  C   UNL A   1      35.641  33.518  28.234  1.00  0.00     0.014 A 
ATOM     26  C   UNL A   1      34.901  32.496  30.301  1.00  0.00     0.014 A 
ATOM     27  C   UNL A   1      36.865  32.867  28.343  1.00  0.00     0.010 A 
ATOM     28  C   UNL A   1      36.136  31.855  30.426  1.00  0.00     0.010 A 
ATOM     29  C   UNL A   1      37.127  32.061  29.457  1.00  0.00    -0.014 A 
BRANCH  29  30
ATOM     30  C   UNL A   1      38.527  31.620  29.686  1.00  0.00     0.031 A 
ATOM     31  C   UNL A   1      39.394  32.772  30.264  1.00  0.00     0.074 A 
ATOM     32  C   UNL A   1      38.848  30.335  29.334  1.00  0.00     0.049 A 
ATOM     33  N   UNL A   1      40.666  33.015  30.167  1.00  0.00    -0.248 NA
ATOM     34  C   UNL A   1      38.705  33.879  30.993  1.00  0.00     0.031 C 
ATOM     35  C   UNL A   1      37.887  29.329  28.817  1.00  0.00     0.029 A 
ATOM     36  N   UNL A   1      40.020  29.605  29.335  1.00  0.00    -0.354 N 
ATOM     37  C   UNL A   1      40.958  34.118  31.013  1.00  0.00     0.074 A 
ATOM     38  C   UNL A   1      39.696  34.693  31.359  1.00  0.00     0.031 C 
ATOM     39  C   UNL A   1      38.515  28.174  28.493  1.00  0.00     0.029 A 
ATOM     40  C   UNL A   1      39.932  28.295  28.776  1.00  0.00     0.049 A 
ATOM     41  H   UNL A   1      40.862  29.965  29.697  1.00  0.00     0.167 HD
ATOM     42  C   UNL A   1      42.205  34.390  31.509  1.00  0.00     0.034 A 
ATOM     43  C   UNL A   1      40.932  27.387  28.532  1.00  0.00     0.034 A 
ATOM     44  C   UNL A   1      43.143  33.460  30.979  1.00  0.00     0.049 A 
ATOM     45  C   UNL A   1      42.127  27.992  29.134  1.00  0.00     0.074 A 
ATOM     46  C   UNL A   1      43.705  33.283  29.745  1.00  0.00     0.029 A 
ATOM     47  N   UNL A   1      43.431  32.364  31.760  1.00  0.00    -0.354 N 
ATOM     48  N   UNL A   1      42.367  28.035  30.408  1.00  0.00    -0.248 NA
ATOM     49  C   UNL A   1      43.113  28.640  28.260  1.00  0.00     0.031 C 
ATOM     50  C   UNL A   1      43.902  31.888  29.672  1.00  0.00     0.029 A 
ATOM     51  C   UNL A   1      43.592  31.305  30.907  1.00  0.00     0.049 A 
ATOM     52  H   UNL A   1      43.507  32.346  32.741  1.00  0.00     0.167 HD
ATOM     53  C   UNL A   1      43.359  28.976  30.494  1.00  0.00     0.074 A 
ATOM     54  C   UNL A   1      43.976  29.042  29.188  1.00  0.00     0.031 C 
ATOM     55  C   UNL A   1      43.245  29.985  31.394  1.00  0.00     0.034 A 
BRANCH  42  56
ATOM     56  C   UNL A   1      42.709  35.265  32.642  1.00  0.00     0.023 A 
ATOM     57  C   UNL A   1      42.054  35.110  33.894  1.00  0.00     0.031 A 
ATOM     58  C   UNL A   1      43.519  36.401  32.516  1.00  0.00     0.131 A 
ATOM     59  C   UNL A   1      42.084  36.107  34.878  1.00  0.00     0.055 A 
ATOM     60  C   UNL A   1      43.610  37.366  33.535  1.00  0.00     0.041 A 
ATOM     61  F   UNL A   1      44.185  36.672  31.387  1.00  0.00    -0.206 F 
ATOM     62  C   UNL A   1      42.859  37.244  34.703  1.00  0.00     0.022 A 
BRANCH  59  63
ATOM     63  S   UNL A   1      40.935  35.970  36.280  1.00  0.00     0.124 S 
ATOM     64  O   UNL A   1      39.738  36.625  35.763  1.00  0.00    -0.237 OA
ATOM     65  O   UNL A   1      40.844  34.523  36.458  1.00  0.00    -0.237 OA
ATOM     66  O   UNL A   1      41.622  36.685  37.353  1.00  0.00    -0.744 OA
ENDBRANCH  59  63
ENDBRANCH  42  56
BRANCH  43  67
ATOM     67  C   UNL A   1      41.168  26.049  27.837  1.00  0.00     0.023 A 
ATOM     68  C   UNL A   1      42.258  25.700  27.021  1.00  0.00     0.031 A 
ATOM     69  C   UNL A   1      40.232  24.983  28.051  1.00  0.00     0.131 A 
ATOM     70  C   UNL A   1      42.400  24.362  26.542  1.00  0.00     0.055 A 
ATOM     71  C   UNL A   1      40.416  23.660  27.650  1.00  0.00     0.041 A 
ATOM     72  F   UNL A   1      39.062  25.167  28.680  1.00  0.00    -0.206 F 
ATOM     73  C   UNL A   1      41.517  23.339  26.899  1.00  0.00     0.022 A 
BRANCH  70  74
ATOM     74  S   UNL A   1      43.758  23.876  25.435  1.00  0.00     0.124 S 
ATOM     75  O   UNL A   1      44.103  25.147  24.804  1.00  0.00    -0.237 OA
ATOM     76  O   UNL A   1      44.751  23.323  26.349  1.00  0.00    -0.237 OA
ATOM     77  O   UNL A   1      43.127  22.897  24.549  1.00  0.00    -0.744 OA
ENDBRANCH  70  74
ENDBRANCH  43  67
BRANCH  55  78
ATOM     78  C   UNL A   1      42.344  29.660  32.588  1.00  0.00     0.023 A 
ATOM     79  C   UNL A   1      41.075  30.258  32.711  1.00  0.00     0.031 A 
ATOM     80  C   UNL A   1      42.757  28.874  33.681  1.00  0.00     0.131 A 
ATOM     81  C   UNL A   1      40.302  30.086  33.878  1.00  0.00     0.055 A 
ATOM     82  C   UNL A   1      41.989  28.690  34.836  1.00  0.00     0.041 A 
ATOM     83  F   UNL A   1      43.939  28.263  33.675  1.00  0.00    -0.206 F 
ATOM     84  C   UNL A   1      40.753  29.304  34.943  1.00  0.00     0.022 A 
BRANCH  81  85
ATOM     85  S   UNL A   1      38.677  30.885  33.999  1.00  0.00     0.124 S 
ATOM     86  O   UNL A   1      39.011  32.303  33.937  1.00  0.00    -0.237 OA
ATOM     87  O   UNL A   1      37.973  30.342  32.840  1.00  0.00    -0.237 OA
ATOM     88  O   UNL A   1      38.166  30.428  35.292  1.00  0.00    -0.744 OA
ENDBRANCH  81  85
ENDBRANCH  55  78
ENDBRANCH  29  30
ENDBRANCH  21  24
ENDBRANCH  19  20
ENDBRANCH   1  19
TORSDOF 15
ENDMDL
