MODEL 1
REMARK VINA RESULT:     -12.2      0.000      0.000
REMARK SMILES O=C(NCCCNC(=O)[C@H]1CCCC[C@H]1C(=O)Nc1ccc(Cl)cc1F)c1ccc(-c2c3nc(c(-c4cc(S(=O)(=O)[O-])ccc4F)c4ccc([nH]4)c(-c4cc(S(=O)(=O)[O-])ccc4F)c4nc(c(-c5cc(S(=O)(=O)[O-])ccc5F)c5ccc2[nH]5)C=C4)C=C3)cc1
REMARK SMILES IDX 4 1 3 2 1 3 2 4 27 6 28 7 89 8 29 9 88 10 30 11 31 12 32 13
REMARK SMILES IDX 82 14 33 15 87 16 81 17 83 18 34 19 86 20 80 21 79 22 35 24
REMARK SMILES IDX 67 25 47 26 66 27 48 28 51 29 65 30 84 31 49 32 50 33 64 35
REMARK SMILES IDX 85 36 52 37 36 38 37 39 45 40 38 41 44 42 46 43 43 44 39 45
REMARK SMILES IDX 40 46 41 47 42 48 68 49 69 50 77 51 70 52 76 53 78 54 75 55
REMARK SMILES IDX 71 56 72 57 73 58 74 59 53 60 54 61 62 62 55 63 61 64 63 65
REMARK SMILES IDX 60 66 56 67 57 68 58 69 59 70 5 71 6 72 7 73 8 74 9 76 10 77
REMARK SMILES IDX 11 78 15 79 12 80 14 81 13 82 16 83 17 84 18 85 19 87 20 88
REMARK SMILES IDX 25 89 21 90 24 91 26 92 22 93 23 94
REMARK H PARENT 3 5 83 23 51 34 7 75 18 86
REMARK Flexibility Score: inf
ROOT
ATOM      1  C   UNL A   1      33.342  29.238  25.016  1.00  0.00     0.118 C 
ENDROOT
BRANCH   1   2
ATOM      2  N   UNL A   1      32.661  30.426  25.514  1.00  0.00    -0.352 N 
ATOM      3  O   UNL A   1      32.056  31.944  27.070  1.00  0.00    -0.269 OA
ATOM      4  C   UNL A   1      32.882  31.121  26.681  1.00  0.00     0.251 C 
ATOM      5  H   UNL A   1      31.946  30.780  24.936  1.00  0.00     0.163 HD
BRANCH   4   6
ATOM      6  C   UNL A   1      34.107  30.859  27.468  1.00  0.00     0.039 A 
ATOM      7  C   UNL A   1      34.347  29.583  27.977  1.00  0.00     0.014 A 
ATOM      8  C   UNL A   1      35.030  31.887  27.687  1.00  0.00     0.014 A 
ATOM      9  C   UNL A   1      35.418  29.369  28.832  1.00  0.00     0.010 A 
ATOM     10  C   UNL A   1      36.173  31.638  28.456  1.00  0.00     0.010 A 
ATOM     11  C   UNL A   1      36.368  30.380  29.048  1.00  0.00    -0.014 A 
BRANCH  11  12
ATOM     12  C   UNL A   1      37.610  30.040  29.789  1.00  0.00     0.031 A 
ATOM     13  C   UNL A   1      37.832  30.491  31.205  1.00  0.00     0.074 A 
ATOM     14  C   UNL A   1      38.529  29.280  29.158  1.00  0.00     0.049 A 
ATOM     15  N   UNL A   1      38.864  30.277  31.981  1.00  0.00    -0.248 NA
ATOM     16  C   UNL A   1      36.767  31.291  31.831  1.00  0.00     0.031 C 
ATOM     17  C   UNL A   1      38.410  28.794  27.777  1.00  0.00     0.029 A 
ATOM     18  N   UNL A   1      39.724  28.761  29.583  1.00  0.00    -0.354 N 
ATOM     19  C   UNL A   1      38.589  30.933  33.176  1.00  0.00     0.074 A 
ATOM     20  C   UNL A   1      37.295  31.564  33.018  1.00  0.00     0.031 C 
ATOM     21  C   UNL A   1      39.455  28.008  27.492  1.00  0.00     0.029 A 
ATOM     22  C   UNL A   1      40.367  28.008  28.627  1.00  0.00     0.049 A 
ATOM     23  H   UNL A   1      40.087  28.913  30.485  1.00  0.00     0.167 HD
ATOM     24  C   UNL A   1      39.353  30.997  34.295  1.00  0.00     0.034 A 
ATOM     25  C   UNL A   1      41.575  27.413  28.643  1.00  0.00     0.034 A 
ATOM     26  C   UNL A   1      40.635  30.344  34.430  1.00  0.00     0.049 A 
ATOM     27  C   UNL A   1      42.409  27.533  29.888  1.00  0.00     0.074 A 
ATOM     28  C   UNL A   1      41.467  30.301  35.537  1.00  0.00     0.029 A 
ATOM     29  N   UNL A   1      41.277  29.629  33.427  1.00  0.00    -0.354 N 
ATOM     30  N   UNL A   1      42.120  28.137  31.018  1.00  0.00    -0.248 NA
ATOM     31  C   UNL A   1      43.731  26.899  29.861  1.00  0.00     0.031 C 
ATOM     32  C   UNL A   1      42.639  29.626  35.180  1.00  0.00     0.029 A 
ATOM     33  C   UNL A   1      42.511  29.179  33.875  1.00  0.00     0.049 A 
ATOM     34  H   UNL A   1      40.911  29.465  32.527  1.00  0.00     0.167 HD
ATOM     35  C   UNL A   1      43.224  27.945  31.840  1.00  0.00     0.074 A 
ATOM     36  C   UNL A   1      44.165  27.140  31.088  1.00  0.00     0.031 C 
ATOM     37  C   UNL A   1      43.446  28.398  33.100  1.00  0.00     0.034 A 
BRANCH  24  38
ATOM     38  C   UNL A   1      38.861  31.843  35.445  1.00  0.00     0.023 A 
ATOM     39  C   UNL A   1      38.260  31.282  36.584  1.00  0.00     0.031 A 
ATOM     40  C   UNL A   1      39.033  33.240  35.410  1.00  0.00     0.131 A 
ATOM     41  C   UNL A   1      37.819  32.117  37.625  1.00  0.00     0.055 A 
ATOM     42  C   UNL A   1      38.650  34.057  36.473  1.00  0.00     0.041 A 
ATOM     43  F   UNL A   1      39.583  33.832  34.338  1.00  0.00    -0.206 F 
ATOM     44  C   UNL A   1      38.032  33.498  37.587  1.00  0.00     0.022 A 
BRANCH  41  45
ATOM     45  S   UNL A   1      36.883  31.386  38.996  1.00  0.00     0.124 S 
ATOM     46  O   UNL A   1      36.740  30.002  38.550  1.00  0.00    -0.237 OA
ATOM     47  O   UNL A   1      37.768  31.602  40.134  1.00  0.00    -0.237 OA
ATOM     48  O   UNL A   1      35.642  32.157  39.015  1.00  0.00    -0.744 OA
ENDBRANCH  41  45
ENDBRANCH  24  38
BRANCH  25  49
ATOM     49  C   UNL A   1      42.092  26.716  27.431  1.00  0.00     0.023 A 
ATOM     50  C   UNL A   1      41.920  25.335  27.256  1.00  0.00     0.031 A 
ATOM     51  C   UNL A   1      42.810  27.419  26.444  1.00  0.00     0.131 A 
ATOM     52  C   UNL A   1      42.501  24.692  26.152  1.00  0.00     0.055 A 
ATOM     53  C   UNL A   1      43.328  26.786  25.313  1.00  0.00     0.041 A 
ATOM     54  F   UNL A   1      43.007  28.742  26.559  1.00  0.00    -0.206 F 
ATOM     55  C   UNL A   1      43.189  25.411  25.171  1.00  0.00     0.022 A 
BRANCH  52  56
ATOM     56  S   UNL A   1      42.443  22.881  26.075  1.00  0.00     0.124 S 
ATOM     57  O   UNL A   1      42.961  22.622  24.736  1.00  0.00    -0.237 OA
ATOM     58  O   UNL A   1      43.314  22.506  27.184  1.00  0.00    -0.237 OA
ATOM     59  O   UNL A   1      41.026  22.578  26.265  1.00  0.00    -0.744 OA
ENDBRANCH  52  56
ENDBRANCH  25  49
BRANCH  37  60
ATOM     60  C   UNL A   1      44.754  28.002  33.733  1.00  0.00     0.023 A 
ATOM     61  C   UNL A   1      44.880  26.813  34.471  1.00  0.00     0.031 A 
ATOM     62  C   UNL A   1      45.875  28.844  33.631  1.00  0.00     0.131 A 
ATOM     63  C   UNL A   1      46.082  26.529  35.136  1.00  0.00     0.055 A 
ATOM     64  C   UNL A   1      47.089  28.524  34.241  1.00  0.00     0.041 A 
ATOM     65  F   UNL A   1      45.808  29.993  32.941  1.00  0.00    -0.206 F 
ATOM     66  C   UNL A   1      47.192  27.368  35.012  1.00  0.00     0.022 A 
BRANCH  63  67
ATOM     67  S   UNL A   1      46.142  25.097  36.248  1.00  0.00     0.124 S 
ATOM     68  O   UNL A   1      45.495  24.064  35.446  1.00  0.00    -0.237 OA
ATOM     69  O   UNL A   1      47.575  24.931  36.468  1.00  0.00    -0.237 OA
ATOM     70  O   UNL A   1      45.383  25.540  37.417  1.00  0.00    -0.744 OA
ENDBRANCH  63  67
ENDBRANCH  37  60
ENDBRANCH  11  12
ENDBRANCH   4   6
ENDBRANCH   1   2
BRANCH   1  71
ATOM     71  C   UNL A   1      32.496  27.986  25.201  1.00  0.00     0.042 C 
BRANCH  71  72
ATOM     72  C   UNL A   1      33.358  26.762  25.490  1.00  0.00     0.117 C 
BRANCH  72  73
ATOM     73  N   UNL A   1      32.618  25.820  26.314  1.00  0.00    -0.356 N 
ATOM     74  C   UNL A   1      31.908  24.694  26.109  1.00  0.00     0.223 C 
ATOM     75  H   UNL A   1      32.644  26.069  27.266  1.00  0.00     0.163 HD
ATOM     76  O   UNL A   1      31.231  24.322  27.076  1.00  0.00    -0.275 OA
BRANCH  74  77
ATOM     77  C   UNL A   1      31.920  23.836  24.854  1.00  0.00     0.091 C 
ATOM     78  C   UNL A   1      31.061  24.256  23.657  1.00  0.00     0.014 C 
ATOM     79  C   UNL A   1      33.333  23.345  24.437  1.00  0.00     0.091 C 
ATOM     80  C   UNL A   1      31.807  25.096  22.625  1.00  0.00     0.001 C 
ATOM     81  C   UNL A   1      33.986  24.075  23.255  1.00  0.00     0.014 C 
ATOM     82  C   UNL A   1      33.017  24.336  22.109  1.00  0.00     0.001 C 
BRANCH  79  83
ATOM     83  C   UNL A   1      34.303  22.906  25.563  1.00  0.00     0.228 C 
ATOM     84  O   UNL A   1      34.887  23.778  26.222  1.00  0.00    -0.274 OA
ATOM     85  N   UNL A   1      34.363  21.623  26.044  1.00  0.00    -0.323 N 
ATOM     86  H   UNL A   1      34.608  21.561  26.995  1.00  0.00     0.170 HD
BRANCH  85  87
ATOM     87  C   UNL A   1      34.134  20.385  25.426  1.00  0.00     0.077 A 
ATOM     88  C   UNL A   1      35.228  19.664  24.944  1.00  0.00     0.031 A 
ATOM     89  C   UNL A   1      32.856  19.868  25.204  1.00  0.00     0.148 A 
ATOM     90  C   UNL A   1      35.038  18.390  24.391  1.00  0.00     0.023 A 
ATOM     91  C   UNL A   1      32.652  18.604  24.668  1.00  0.00     0.062 A 
ATOM     92  F   UNL A   1      31.785  20.638  25.379  1.00  0.00    -0.205 F 
ATOM     93  C   UNL A   1      33.753  17.854  24.285  1.00  0.00     0.044 A 
ATOM     94  Cl  UNL A   1      33.526  16.272  23.652  1.00  0.00    -0.084 Cl
ENDBRANCH  85  87
ENDBRANCH  79  83
ENDBRANCH  74  77
ENDBRANCH  72  73
ENDBRANCH  71  72
ENDBRANCH   1  71
TORSDOF 15
ENDMDL
MODEL 2
REMARK VINA RESULT:     -12.0      2.627      3.195
REMARK SMILES O=C(NCCCNC(=O)[C@H]1CCCC[C@H]1C(=O)Nc1ccc(Cl)cc1F)c1ccc(-c2c3nc(c(-c4cc(S(=O)(=O)[O-])ccc4F)c4ccc([nH]4)c(-c4cc(S(=O)(=O)[O-])ccc4F)c4nc(c(-c5cc(S(=O)(=O)[O-])ccc5F)c5ccc2[nH]5)C=C4)C=C3)cc1
REMARK SMILES IDX 4 1 3 2 1 3 2 4 27 6 28 7 89 8 29 9 88 10 30 11 31 12 32 13
REMARK SMILES IDX 82 14 33 15 87 16 81 17 83 18 34 19 86 20 80 21 79 22 35 24
REMARK SMILES IDX 67 25 47 26 66 27 48 28 51 29 65 30 84 31 49 32 50 33 64 35
REMARK SMILES IDX 85 36 52 37 36 38 37 39 45 40 38 41 44 42 46 43 43 44 39 45
REMARK SMILES IDX 40 46 41 47 42 48 68 49 69 50 77 51 70 52 76 53 78 54 75 55
REMARK SMILES IDX 71 56 72 57 73 58 74 59 53 60 54 61 62 62 55 63 61 64 63 65
REMARK SMILES IDX 60 66 56 67 57 68 58 69 59 70 5 71 6 72 7 73 8 74 9 76 10 77
REMARK SMILES IDX 11 78 15 79 12 80 14 81 13 82 16 83 17 84 18 85 19 87 20 88
REMARK SMILES IDX 25 89 21 90 24 91 26 92 22 93 23 94
REMARK H PARENT 3 5 83 23 51 34 7 75 18 86
REMARK Flexibility Score: inf
ROOT
ATOM      1  C   UNL A   1      34.045  28.540  26.195  1.00  0.00     0.118 C 
ENDROOT
BRANCH   1   2
ATOM      2  N   UNL A   1      33.820  29.937  26.545  1.00  0.00    -0.352 N 
ATOM      3  O   UNL A   1      34.018  31.792  27.815  1.00  0.00    -0.269 OA
ATOM      4  C   UNL A   1      34.494  30.716  27.457  1.00  0.00     0.251 C 
ATOM      5  H   UNL A   1      33.085  30.384  26.065  1.00  0.00     0.163 HD
BRANCH   4   6
ATOM      6  C   UNL A   1      35.782  30.245  28.011  1.00  0.00     0.039 A 
ATOM      7  C   UNL A   1      35.813  29.600  29.248  1.00  0.00     0.014 A 
ATOM      8  C   UNL A   1      36.965  30.432  27.289  1.00  0.00     0.014 A 
ATOM      9  C   UNL A   1      37.030  29.285  29.835  1.00  0.00     0.010 A 
ATOM     10  C   UNL A   1      38.184  30.007  27.833  1.00  0.00     0.010 A 
ATOM     11  C   UNL A   1      38.227  29.444  29.118  1.00  0.00    -0.014 A 
BRANCH  11  12
ATOM     12  C   UNL A   1      39.478  28.891  29.696  1.00  0.00     0.031 A 
ATOM     13  C   UNL A   1      40.075  29.445  30.959  1.00  0.00     0.074 A 
ATOM     14  C   UNL A   1      40.053  27.846  29.066  1.00  0.00     0.049 A 
ATOM     15  N   UNL A   1      41.163  29.072  31.583  1.00  0.00    -0.248 NA
ATOM     16  C   UNL A   1      39.371  30.565  31.602  1.00  0.00     0.031 C 
ATOM     17  C   UNL A   1      39.553  27.237  27.826  1.00  0.00     0.029 A 
ATOM     18  N   UNL A   1      41.156  27.094  29.375  1.00  0.00    -0.354 N 
ATOM     19  C   UNL A   1      41.291  29.921  32.677  1.00  0.00     0.074 A 
ATOM     20  C   UNL A   1      40.173  30.840  32.623  1.00  0.00     0.031 C 
ATOM     21  C   UNL A   1      40.310  26.178  27.515  1.00  0.00     0.029 A 
ATOM     22  C   UNL A   1      41.405  26.085  28.471  1.00  0.00     0.049 A 
ATOM     23  H   UNL A   1      41.716  27.260  30.167  1.00  0.00     0.167 HD
ATOM     24  C   UNL A   1      42.256  29.927  33.630  1.00  0.00     0.034 A 
ATOM     25  C   UNL A   1      42.421  25.206  28.394  1.00  0.00     0.034 A 
ATOM     26  C   UNL A   1      43.353  28.987  33.666  1.00  0.00     0.049 A 
ATOM     27  C   UNL A   1      43.491  25.263  29.449  1.00  0.00     0.074 A 
ATOM     28  C   UNL A   1      44.355  28.870  34.615  1.00  0.00     0.029 A 
ATOM     29  N   UNL A   1      43.600  28.009  32.710  1.00  0.00    -0.354 N 
ATOM     30  N   UNL A   1      43.579  26.059  30.490  1.00  0.00    -0.248 NA
ATOM     31  C   UNL A   1      44.598  24.310  29.318  1.00  0.00     0.031 C 
ATOM     32  C   UNL A   1      45.246  27.876  34.196  1.00  0.00     0.029 A 
ATOM     33  C   UNL A   1      44.760  27.316  33.024  1.00  0.00     0.049 A 
ATOM     34  H   UNL A   1      43.035  27.833  31.924  1.00  0.00     0.167 HD
ATOM     35  C   UNL A   1      44.750  25.693  31.144  1.00  0.00     0.074 A 
ATOM     36  C   UNL A   1      45.312  24.584  30.399  1.00  0.00     0.031 C 
ATOM     37  C   UNL A   1      45.316  26.228  32.254  1.00  0.00     0.034 A 
BRANCH  24  38
ATOM     38  C   UNL A   1      42.211  31.009  34.681  1.00  0.00     0.023 A 
ATOM     39  C   UNL A   1      42.794  32.271  34.484  1.00  0.00     0.031 A 
ATOM     40  C   UNL A   1      41.537  30.777  35.895  1.00  0.00     0.131 A 
ATOM     41  C   UNL A   1      42.723  33.242  35.498  1.00  0.00     0.055 A 
ATOM     42  C   UNL A   1      41.415  31.765  36.873  1.00  0.00     0.041 A 
ATOM     43  F   UNL A   1      40.977  29.583  36.147  1.00  0.00    -0.206 F 
ATOM     44  C   UNL A   1      42.017  33.005  36.680  1.00  0.00     0.022 A 
BRANCH  41  45
ATOM     45  S   UNL A   1      43.640  34.793  35.290  1.00  0.00     0.124 S 
ATOM     46  O   UNL A   1      42.759  35.748  35.958  1.00  0.00    -0.237 OA
ATOM     47  O   UNL A   1      44.901  34.508  35.964  1.00  0.00    -0.237 OA
ATOM     48  O   UNL A   1      43.729  34.948  33.840  1.00  0.00    -0.744 OA
ENDBRANCH  41  45
ENDBRANCH  24  38
BRANCH  25  49
ATOM     49  C   UNL A   1      42.511  24.251  27.252  1.00  0.00     0.023 A 
ATOM     50  C   UNL A   1      41.877  23.001  27.296  1.00  0.00     0.031 A 
ATOM     51  C   UNL A   1      43.276  24.561  26.110  1.00  0.00     0.131 A 
ATOM     52  C   UNL A   1      42.060  22.087  26.247  1.00  0.00     0.055 A 
ATOM     53  C   UNL A   1      43.399  23.675  25.040  1.00  0.00     0.041 A 
ATOM     54  F   UNL A   1      43.906  25.743  26.014  1.00  0.00    -0.206 F 
ATOM     55  C   UNL A   1      42.802  22.422  25.112  1.00  0.00     0.022 A 
BRANCH  52  56
ATOM     56  S   UNL A   1      41.407  20.406  26.440  1.00  0.00     0.124 S 
ATOM     57  O   UNL A   1      39.983  20.610  26.205  1.00  0.00    -0.237 OA
ATOM     58  O   UNL A   1      42.132  19.681  25.401  1.00  0.00    -0.237 OA
ATOM     59  O   UNL A   1      41.770  20.056  27.811  1.00  0.00    -0.744 OA
ENDBRANCH  52  56
ENDBRANCH  25  49
BRANCH  37  60
ATOM     60  C   UNL A   1      46.597  25.592  32.726  1.00  0.00     0.023 A 
ATOM     61  C   UNL A   1      46.594  24.568  33.689  1.00  0.00     0.031 A 
ATOM     62  C   UNL A   1      47.836  26.042  32.239  1.00  0.00     0.131 A 
ATOM     63  C   UNL A   1      47.809  24.072  34.184  1.00  0.00     0.055 A 
ATOM     64  C   UNL A   1      49.041  25.500  32.687  1.00  0.00     0.041 A 
ATOM     65  F   UNL A   1      47.896  27.020  31.322  1.00  0.00    -0.206 F 
ATOM     66  C   UNL A   1      49.032  24.519  33.677  1.00  0.00     0.022 A 
BRANCH  63  67
ATOM     67  S   UNL A   1      47.770  22.905  35.572  1.00  0.00     0.124 S 
ATOM     68  O   UNL A   1      48.200  21.664  34.936  1.00  0.00    -0.237 OA
ATOM     69  O   UNL A   1      48.715  23.502  36.510  1.00  0.00    -0.237 OA
ATOM     70  O   UNL A   1      46.372  22.930  36.000  1.00  0.00    -0.744 OA
ENDBRANCH  63  67
ENDBRANCH  37  60
ENDBRANCH  11  12
ENDBRANCH   4   6
ENDBRANCH   1   2
BRANCH   1  71
ATOM     71  C   UNL A   1      33.086  27.615  26.930  1.00  0.00     0.042 C 
BRANCH  71  72
ATOM     72  C   UNL A   1      32.136  26.911  25.968  1.00  0.00     0.117 C 
BRANCH  72  73
ATOM     73  N   UNL A   1      31.571  25.732  26.606  1.00  0.00    -0.356 N 
ATOM     74  C   UNL A   1      31.152  24.515  26.208  1.00  0.00     0.223 C 
ATOM     75  H   UNL A   1      31.471  25.855  27.577  1.00  0.00     0.163 HD
ATOM     76  O   UNL A   1      30.508  23.884  27.056  1.00  0.00    -0.275 OA
BRANCH  74  77
ATOM     77  C   UNL A   1      31.449  23.850  24.874  1.00  0.00     0.091 C 
ATOM     78  C   UNL A   1      30.666  24.290  23.632  1.00  0.00     0.014 C 
ATOM     79  C   UNL A   1      32.963  23.649  24.591  1.00  0.00     0.091 C 
ATOM     80  C   UNL A   1      31.365  25.371  22.812  1.00  0.00     0.001 C 
ATOM     81  C   UNL A   1      33.605  24.627  23.597  1.00  0.00     0.014 C 
ATOM     82  C   UNL A   1      32.737  24.888  22.373  1.00  0.00     0.001 C 
BRANCH  79  83
ATOM     83  C   UNL A   1      33.864  23.217  25.775  1.00  0.00     0.228 C 
ATOM     84  O   UNL A   1      34.334  24.090  26.517  1.00  0.00    -0.274 OA
ATOM     85  N   UNL A   1      33.968  21.919  26.204  1.00  0.00    -0.323 N 
ATOM     86  H   UNL A   1      34.138  21.826  27.169  1.00  0.00     0.170 HD
BRANCH  85  87
ATOM     87  C   UNL A   1      33.871  20.700  25.517  1.00  0.00     0.077 A 
ATOM     88  C   UNL A   1      35.042  20.095  25.057  1.00  0.00     0.031 A 
ATOM     89  C   UNL A   1      32.652  20.094  25.206  1.00  0.00     0.148 A 
ATOM     90  C   UNL A   1      34.983  18.839  24.435  1.00  0.00     0.023 A 
ATOM     91  C   UNL A   1      32.578  18.847  24.601  1.00  0.00     0.062 A 
ATOM     92  F   UNL A   1      31.514  20.766  25.363  1.00  0.00    -0.205 F 
ATOM     93  C   UNL A   1      33.754  18.209  24.239  1.00  0.00     0.044 A 
ATOM     94  Cl  UNL A   1      33.688  16.648  23.520  1.00  0.00    -0.084 Cl
ENDBRANCH  85  87
ENDBRANCH  79  83
ENDBRANCH  74  77
ENDBRANCH  72  73
ENDBRANCH  71  72
ENDBRANCH   1  71
TORSDOF 15
ENDMDL
MODEL 3
REMARK VINA RESULT:     -12.0      3.008      3.654
REMARK SMILES O=C(NCCCNC(=O)[C@H]1CCCC[C@H]1C(=O)Nc1ccc(Cl)cc1F)c1ccc(-c2c3nc(c(-c4cc(S(=O)(=O)[O-])ccc4F)c4ccc([nH]4)c(-c4cc(S(=O)(=O)[O-])ccc4F)c4nc(c(-c5cc(S(=O)(=O)[O-])ccc5F)c5ccc2[nH]5)C=C4)C=C3)cc1
REMARK SMILES IDX 4 1 3 2 1 3 2 4 27 6 28 7 89 8 29 9 88 10 30 11 31 12 32 13
REMARK SMILES IDX 82 14 33 15 87 16 81 17 83 18 34 19 86 20 80 21 79 22 35 24
REMARK SMILES IDX 67 25 47 26 66 27 48 28 51 29 65 30 84 31 49 32 50 33 64 35
REMARK SMILES IDX 85 36 52 37 36 38 37 39 45 40 38 41 44 42 46 43 43 44 39 45
REMARK SMILES IDX 40 46 41 47 42 48 68 49 69 50 77 51 70 52 76 53 78 54 75 55
REMARK SMILES IDX 71 56 72 57 73 58 74 59 53 60 54 61 62 62 55 63 61 64 63 65
REMARK SMILES IDX 60 66 56 67 57 68 58 69 59 70 5 71 6 72 7 73 8 74 9 76 10 77
REMARK SMILES IDX 11 78 15 79 12 80 14 81 13 82 16 83 17 84 18 85 19 87 20 88
REMARK SMILES IDX 25 89 21 90 24 91 26 92 22 93 23 94
REMARK H PARENT 3 5 83 23 51 34 7 75 18 86
REMARK Flexibility Score: inf
ROOT
ATOM      1  C   UNL A   1      33.821  28.583  26.538  1.00  0.00     0.118 C 
ENDROOT
BRANCH   1   2
ATOM      2  N   UNL A   1      33.766  30.026  26.735  1.00  0.00    -0.352 N 
ATOM      3  O   UNL A   1      34.217  31.973  27.783  1.00  0.00    -0.269 OA
ATOM      4  C   UNL A   1      34.558  30.818  27.535  1.00  0.00     0.251 C 
ATOM      5  H   UNL A   1      33.066  30.498  26.228  1.00  0.00     0.163 HD
BRANCH   4   6
ATOM      6  C   UNL A   1      35.807  30.266  28.103  1.00  0.00     0.039 A 
ATOM      7  C   UNL A   1      36.997  30.355  27.380  1.00  0.00     0.014 A 
ATOM      8  C   UNL A   1      35.798  29.670  29.368  1.00  0.00     0.014 A 
ATOM      9  C   UNL A   1      38.137  29.714  27.843  1.00  0.00     0.010 A 
ATOM     10  C   UNL A   1      36.979  29.126  29.886  1.00  0.00     0.010 A 
ATOM     11  C   UNL A   1      38.156  29.130  29.120  1.00  0.00    -0.014 A 
BRANCH  11  12
ATOM     12  C   UNL A   1      39.454  28.654  29.664  1.00  0.00     0.031 A 
ATOM     13  C   UNL A   1      40.061  29.259  30.898  1.00  0.00     0.074 A 
ATOM     14  C   UNL A   1      40.062  27.631  29.030  1.00  0.00     0.049 A 
ATOM     15  N   UNL A   1      41.187  28.955  31.490  1.00  0.00    -0.248 NA
ATOM     16  C   UNL A   1      39.319  30.351  31.548  1.00  0.00     0.031 C 
ATOM     17  C   UNL A   1      39.556  26.976  27.817  1.00  0.00     0.029 A 
ATOM     18  N   UNL A   1      41.214  26.944  29.312  1.00  0.00    -0.354 N 
ATOM     19  C   UNL A   1      41.305  29.827  32.567  1.00  0.00     0.074 A 
ATOM     20  C   UNL A   1      40.138  30.685  32.538  1.00  0.00     0.031 C 
ATOM     21  C   UNL A   1      40.358  25.954  27.496  1.00  0.00     0.029 A 
ATOM     22  C   UNL A   1      41.487  25.935  28.415  1.00  0.00     0.049 A 
ATOM     23  H   UNL A   1      41.790  27.152  30.082  1.00  0.00     0.167 HD
ATOM     24  C   UNL A   1      42.299  29.900  33.486  1.00  0.00     0.034 A 
ATOM     25  C   UNL A   1      42.546  25.110  28.317  1.00  0.00     0.034 A 
ATOM     26  C   UNL A   1      43.446  29.021  33.499  1.00  0.00     0.049 A 
ATOM     27  C   UNL A   1      43.645  25.241  29.334  1.00  0.00     0.074 A 
ATOM     28  C   UNL A   1      44.484  28.973  34.415  1.00  0.00     0.029 A 
ATOM     29  N   UNL A   1      43.714  28.042  32.550  1.00  0.00    -0.354 N 
ATOM     30  N   UNL A   1      43.725  26.058  30.360  1.00  0.00    -0.248 NA
ATOM     31  C   UNL A   1      44.797  24.347  29.180  1.00  0.00     0.031 C 
ATOM     32  C   UNL A   1      45.412  28.022  33.980  1.00  0.00     0.029 A 
ATOM     33  C   UNL A   1      44.919  27.417  32.834  1.00  0.00     0.049 A 
ATOM     34  H   UNL A   1      43.133  27.824  31.785  1.00  0.00     0.167 HD
ATOM     35  C   UNL A   1      44.935  25.766  30.979  1.00  0.00     0.074 A 
ATOM     36  C   UNL A   1      45.530  24.676  30.232  1.00  0.00     0.031 C 
ATOM     37  C   UNL A   1      45.507  26.348  32.062  1.00  0.00     0.034 A 
BRANCH  24  38
ATOM     38  C   UNL A   1      42.231  30.995  34.523  1.00  0.00     0.023 A 
ATOM     39  C   UNL A   1      42.785  32.268  34.308  1.00  0.00     0.031 A 
ATOM     40  C   UNL A   1      41.562  30.765  35.741  1.00  0.00     0.131 A 
ATOM     41  C   UNL A   1      42.693  33.250  35.309  1.00  0.00     0.055 A 
ATOM     42  C   UNL A   1      41.420  31.763  36.704  1.00  0.00     0.041 A 
ATOM     43  F   UNL A   1      41.030  29.562  36.009  1.00  0.00    -0.206 F 
ATOM     44  C   UNL A   1      41.993  33.013  36.495  1.00  0.00     0.022 A 
BRANCH  41  45
ATOM     45  S   UNL A   1      43.575  34.818  35.079  1.00  0.00     0.124 S 
ATOM     46  O   UNL A   1      42.932  35.667  36.079  1.00  0.00    -0.237 OA
ATOM     47  O   UNL A   1      44.958  34.446  35.350  1.00  0.00    -0.237 OA
ATOM     48  O   UNL A   1      43.285  35.175  33.692  1.00  0.00    -0.744 OA
ENDBRANCH  41  45
ENDBRANCH  24  38
BRANCH  25  49
ATOM     49  C   UNL A   1      42.650  24.143  27.186  1.00  0.00     0.023 A 
ATOM     50  C   UNL A   1      42.049  22.878  27.253  1.00  0.00     0.031 A 
ATOM     51  C   UNL A   1      43.395  24.458  26.033  1.00  0.00     0.131 A 
ATOM     52  C   UNL A   1      42.246  21.955  26.214  1.00  0.00     0.055 A 
ATOM     53  C   UNL A   1      43.531  23.561  24.973  1.00  0.00     0.041 A 
ATOM     54  F   UNL A   1      43.992  25.655  25.915  1.00  0.00    -0.206 F 
ATOM     55  C   UNL A   1      42.968  22.294  25.067  1.00  0.00     0.022 A 
BRANCH  52  56
ATOM     56  S   UNL A   1      41.639  20.260  26.435  1.00  0.00     0.124 S 
ATOM     57  O   UNL A   1      42.113  19.946  27.778  1.00  0.00    -0.237 OA
ATOM     58  O   UNL A   1      40.198  20.434  26.286  1.00  0.00    -0.237 OA
ATOM     59  O   UNL A   1      42.292  19.523  25.355  1.00  0.00    -0.744 OA
ENDBRANCH  52  56
ENDBRANCH  25  49
BRANCH  37  60
ATOM     60  C   UNL A   1      46.836  25.789  32.499  1.00  0.00     0.023 A 
ATOM     61  C   UNL A   1      48.024  26.111  31.822  1.00  0.00     0.031 A 
ATOM     62  C   UNL A   1      46.908  24.892  33.579  1.00  0.00     0.131 A 
ATOM     63  C   UNL A   1      49.227  25.489  32.189  1.00  0.00     0.055 A 
ATOM     64  C   UNL A   1      48.118  24.326  33.981  1.00  0.00     0.041 A 
ATOM     65  F   UNL A   1      45.803  24.548  34.258  1.00  0.00    -0.206 F 
ATOM     66  C   UNL A   1      49.284  24.612  33.275  1.00  0.00     0.022 A 
BRANCH  63  67
ATOM     67  S   UNL A   1      50.696  25.767  31.162  1.00  0.00     0.124 S 
ATOM     68  O   UNL A   1      51.698  24.954  31.842  1.00  0.00    -0.237 OA
ATOM     69  O   UNL A   1      50.261  25.283  29.856  1.00  0.00    -0.237 OA
ATOM     70  O   UNL A   1      50.906  27.212  31.249  1.00  0.00    -0.744 OA
ENDBRANCH  63  67
ENDBRANCH  37  60
ENDBRANCH  11  12
ENDBRANCH   4   6
ENDBRANCH   1   2
BRANCH   1  71
ATOM     71  C   UNL A   1      32.584  27.891  27.094  1.00  0.00     0.042 C 
BRANCH  71  72
ATOM     72  C   UNL A   1      31.928  26.992  26.053  1.00  0.00     0.117 C 
BRANCH  72  73
ATOM     73  N   UNL A   1      31.479  25.759  26.678  1.00  0.00    -0.356 N 
ATOM     74  C   UNL A   1      31.148  24.520  26.264  1.00  0.00     0.223 C 
ATOM     75  H   UNL A   1      31.395  25.853  27.654  1.00  0.00     0.163 HD
ATOM     76  O   UNL A   1      30.582  23.821  27.114  1.00  0.00    -0.275 OA
BRANCH  74  77
ATOM     77  C   UNL A   1      31.461  23.909  24.907  1.00  0.00     0.091 C 
ATOM     78  C   UNL A   1      30.671  24.375  23.681  1.00  0.00     0.014 C 
ATOM     79  C   UNL A   1      32.979  23.751  24.620  1.00  0.00     0.091 C 
ATOM     80  C   UNL A   1      31.347  25.499  22.900  1.00  0.00     0.001 C 
ATOM     81  C   UNL A   1      33.602  24.777  23.663  1.00  0.00     0.014 C 
ATOM     82  C   UNL A   1      32.729  25.062  22.448  1.00  0.00     0.001 C 
BRANCH  79  83
ATOM     83  C   UNL A   1      33.889  23.298  25.790  1.00  0.00     0.228 C 
ATOM     84  O   UNL A   1      34.378  24.158  26.535  1.00  0.00    -0.274 OA
ATOM     85  N   UNL A   1      33.981  21.994  26.207  1.00  0.00    -0.323 N 
ATOM     86  H   UNL A   1      34.162  21.891  27.169  1.00  0.00     0.170 HD
BRANCH  85  87
ATOM     87  C   UNL A   1      33.862  20.782  25.511  1.00  0.00     0.077 A 
ATOM     88  C   UNL A   1      35.022  20.153  25.057  1.00  0.00     0.031 A 
ATOM     89  C   UNL A   1      32.632  20.209  25.185  1.00  0.00     0.148 A 
ATOM     90  C   UNL A   1      34.939  18.903  24.426  1.00  0.00     0.023 A 
ATOM     91  C   UNL A   1      32.533  18.967  24.569  1.00  0.00     0.062 A 
ATOM     92  F   UNL A   1      31.509  20.906  25.336  1.00  0.00    -0.205 F 
ATOM     93  C   UNL A   1      33.697  18.304  24.214  1.00  0.00     0.044 A 
ATOM     94  Cl  UNL A   1      33.600  16.750  23.483  1.00  0.00    -0.084 Cl
ENDBRANCH  85  87
ENDBRANCH  79  83
ENDBRANCH  74  77
ENDBRANCH  72  73
ENDBRANCH  71  72
ENDBRANCH   1  71
TORSDOF 15
ENDMDL
