MODEL 1
REMARK VINA RESULT:     -12.6      0.000      0.000
REMARK SMILES CCc1ccc2[nH]c(C(=O)c3cc(C)ccn3)c(CC(=O)NCCCNC(=O)c3ccc(-c4c5nc(c(-c6cc(S(=O)(=O)[O-])ccc6F)c6ccc([nH]6)c(-c6cc(S(=O)(=O)[O-])ccc6F)c6nc(c(-c7cc(S(=O)(=O)[O-])ccc7F)c7ccc4[nH]7)C=C6)C=C5)cc3)c2c1
REMARK SMILES IDX 24 1 23 2 22 3 20 4 21 5 19 7 18 8 3 9 4 10 93 11 5 12 92 13
REMARK SMILES IDX 6 14 7 15 8 16 2 18 1 19 9 20 10 21 11 22 12 23 17 24 13 25
REMARK SMILES IDX 16 26 14 27 15 28 25 29 26 30 27 31 28 33 29 34 30 35 91 36
REMARK SMILES IDX 31 37 90 38 32 39 33 40 34 41 84 42 35 43 89 44 83 45 85 46
REMARK SMILES IDX 36 47 88 48 82 49 81 50 37 52 69 53 49 54 68 55 50 56 53 57
REMARK SMILES IDX 67 58 86 59 51 60 52 61 66 63 87 64 54 65 38 66 39 67 47 68
REMARK SMILES IDX 40 69 46 70 48 71 45 72 41 73 42 74 43 75 44 76 70 77 71 78
REMARK SMILES IDX 79 79 72 80 78 81 80 82 77 83 73 84 74 85 75 86 76 87 55 88
REMARK SMILES IDX 56 89 64 90 57 91 63 92 65 93 62 94 58 95 59 96 60 97 61 98
REMARK H PARENT 22 6 7 17 26 32 85 51 53 62
REMARK Flexibility Score: inf
ROOT
ATOM      1  C   UNL A   1      32.924  28.659  25.378  1.00  0.00     0.042 C 
ENDROOT
BRANCH   1   2
ATOM      2  C   UNL A   1      33.637  27.315  25.502  1.00  0.00     0.117 C 
BRANCH   2   3
ATOM      3  N   UNL A   1      32.827  26.291  26.126  1.00  0.00    -0.356 N 
ATOM      4  C   UNL A   1      32.926  24.931  26.045  1.00  0.00     0.224 C 
ATOM      5  O   UNL A   1      32.267  24.274  26.857  1.00  0.00    -0.275 OA
ATOM      6  H   UNL A   1      32.094  26.624  26.693  1.00  0.00     0.163 HD
BRANCH   4   7
ATOM      7  C   UNL A   1      33.908  24.261  25.090  1.00  0.00     0.138 C 
BRANCH   7   8
ATOM      8  C   UNL A   1      33.274  23.479  23.969  1.00  0.00    -0.002 A 
ATOM      9  C   UNL A   1      32.815  19.723  24.646  1.00  0.00    -0.048 A 
ATOM     10  C   UNL A   1      32.329  19.418  23.372  1.00  0.00     0.006 A 
ATOM     11  C   UNL A   1      33.140  21.053  24.961  1.00  0.00     0.014 A 
ATOM     12  C   UNL A   1      32.152  20.409  22.402  1.00  0.00     0.027 A 
ATOM     13  C   UNL A   1      32.988  22.072  23.995  1.00  0.00     0.004 A 
ATOM     14  C   UNL A   1      32.491  21.723  22.745  1.00  0.00     0.046 A 
ATOM     15  N   UNL A   1      32.446  22.872  21.995  1.00  0.00    -0.352 N 
ATOM     16  C   UNL A   1      32.818  23.971  22.743  1.00  0.00     0.093 A 
ATOM     17  H   UNL A   1      32.182  22.908  21.047  1.00  0.00     0.167 HD
BRANCH   9  18
ATOM     18  C   UNL A   1      33.045  18.631  25.661  1.00  0.00     0.032 C 
ATOM     19  C   UNL A   1      32.390  17.324  25.236  1.00  0.00     0.009 C 
ENDBRANCH   9  18
BRANCH  16  20
ATOM     20  C   UNL A   1      32.749  25.355  22.289  1.00  0.00     0.227 C 
ATOM     21  O   UNL A   1      33.636  25.895  21.625  1.00  0.00    -0.285 OA
BRANCH  20  22
ATOM     22  C   UNL A   1      31.601  26.198  22.712  1.00  0.00     0.113 A 
ATOM     23  C   UNL A   1      31.447  27.471  22.169  1.00  0.00     0.036 A 
ATOM     24  N   UNL A   1      30.750  25.651  23.614  1.00  0.00    -0.253 NA
ATOM     25  C   UNL A   1      30.356  28.237  22.577  1.00  0.00    -0.047 A 
ATOM     26  C   UNL A   1      29.688  26.402  23.970  1.00  0.00     0.112 A 
ATOM     27  C   UNL A   1      30.129  29.617  22.037  1.00  0.00     0.044 C 
ATOM     28  C   UNL A   1      29.454  27.682  23.489  1.00  0.00     0.023 A 
ENDBRANCH  20  22
ENDBRANCH  16  20
ENDBRANCH   7   8
ENDBRANCH   4   7
ENDBRANCH   2   3
ENDBRANCH   1   2
BRANCH   1  29
ATOM     29  C   UNL A   1      32.443  29.251  26.701  1.00  0.00     0.118 C 
BRANCH  29  30
ATOM     30  N   UNL A   1      32.458  30.705  26.704  1.00  0.00    -0.352 N 
ATOM     31  C   UNL A   1      33.332  31.597  27.269  1.00  0.00     0.251 C 
ATOM     32  H   UNL A   1      31.711  31.121  26.215  1.00  0.00     0.163 HD
ATOM     33  O   UNL A   1      33.017  32.786  27.286  1.00  0.00    -0.269 OA
BRANCH  31  34
ATOM     34  C   UNL A   1      34.623  31.169  27.861  1.00  0.00     0.039 A 
ATOM     35  C   UNL A   1      34.715  29.871  28.376  1.00  0.00     0.014 A 
ATOM     36  C   UNL A   1      35.709  32.040  28.002  1.00  0.00     0.014 A 
ATOM     37  C   UNL A   1      35.889  29.439  28.999  1.00  0.00     0.010 A 
ATOM     38  C   UNL A   1      36.905  31.586  28.564  1.00  0.00     0.010 A 
ATOM     39  C   UNL A   1      37.002  30.289  29.086  1.00  0.00    -0.014 A 
BRANCH  39  40
ATOM     40  C   UNL A   1      38.247  29.841  29.766  1.00  0.00     0.031 A 
ATOM     41  C   UNL A   1      38.582  30.350  31.144  1.00  0.00     0.074 A 
ATOM     42  C   UNL A   1      39.090  29.000  29.135  1.00  0.00     0.049 A 
ATOM     43  N   UNL A   1      39.631  30.102  31.889  1.00  0.00    -0.248 NA
ATOM     44  C   UNL A   1      37.624  31.285  31.750  1.00  0.00     0.031 C 
ATOM     45  C   UNL A   1      38.899  28.471  27.783  1.00  0.00     0.029 A 
ATOM     46  N   UNL A   1      40.275  28.444  29.546  1.00  0.00    -0.354 N 
ATOM     47  C   UNL A   1      39.467  30.862  33.043  1.00  0.00     0.074 A 
ATOM     48  C   UNL A   1      38.246  31.623  32.870  1.00  0.00     0.031 C 
ATOM     49  C   UNL A   1      39.919  27.648  27.487  1.00  0.00     0.029 A 
ATOM     50  C   UNL A   1      40.850  27.615  28.611  1.00  0.00     0.049 A 
ATOM     51  H   UNL A   1      40.676  28.621  30.427  1.00  0.00     0.167 HD
ATOM     52  C   UNL A   1      40.245  30.906  34.153  1.00  0.00     0.034 A 
ATOM     53  C   UNL A   1      41.996  26.908  28.655  1.00  0.00     0.034 A 
ATOM     54  C   UNL A   1      41.450  30.127  34.322  1.00  0.00     0.049 A 
ATOM     55  C   UNL A   1      42.834  26.953  29.905  1.00  0.00     0.074 A 
ATOM     56  C   UNL A   1      42.289  30.059  35.421  1.00  0.00     0.029 A 
ATOM     57  N   UNL A   1      41.987  29.279  33.362  1.00  0.00    -0.354 N 
ATOM     58  N   UNL A   1      42.642  27.644  31.006  1.00  0.00    -0.248 NA
ATOM     59  C   UNL A   1      44.033  26.107  29.926  1.00  0.00     0.031 C 
ATOM     60  C   UNL A   1      43.359  29.211  35.106  1.00  0.00     0.029 A 
ATOM     61  C   UNL A   1      43.155  28.699  33.836  1.00  0.00     0.049 A 
ATOM     62  H   UNL A   1      41.595  29.112  32.475  1.00  0.00     0.167 HD
ATOM     63  C   UNL A   1      43.684  27.294  31.859  1.00  0.00     0.074 A 
ATOM     64  C   UNL A   1      44.488  26.316  31.153  1.00  0.00     0.031 C 
ATOM     65  C   UNL A   1      43.956  27.739  33.112  1.00  0.00     0.034 A 
BRANCH  52  66
ATOM     66  C   UNL A   1      39.824  31.850  35.256  1.00  0.00     0.023 A 
ATOM     67  C   UNL A   1      39.064  31.409  36.355  1.00  0.00     0.031 A 
ATOM     68  C   UNL A   1      40.148  33.216  35.188  1.00  0.00     0.131 A 
ATOM     69  C   UNL A   1      38.582  32.336  37.291  1.00  0.00     0.055 A 
ATOM     70  C   UNL A   1      39.734  34.121  36.169  1.00  0.00     0.041 A 
ATOM     71  F   UNL A   1      40.855  33.701  34.156  1.00  0.00    -0.206 F 
ATOM     72  C   UNL A   1      38.932  33.686  37.220  1.00  0.00     0.022 A 
BRANCH  69  73
ATOM     73  S   UNL A   1      37.369  31.776  38.517  1.00  0.00     0.124 S 
ATOM     74  O   UNL A   1      38.118  31.926  39.762  1.00  0.00    -0.237 OA
ATOM     75  O   UNL A   1      36.266  32.708  38.318  1.00  0.00    -0.237 OA
ATOM     76  O   UNL A   1      37.098  30.394  38.125  1.00  0.00    -0.744 OA
ENDBRANCH  69  73
ENDBRANCH  52  66
BRANCH  53  77
ATOM     77  C   UNL A   1      42.423  26.092  27.484  1.00  0.00     0.023 A 
ATOM     78  C   UNL A   1      42.051  24.743  27.370  1.00  0.00     0.031 A 
ATOM     79  C   UNL A   1      43.242  26.639  26.483  1.00  0.00     0.131 A 
ATOM     80  C   UNL A   1      42.538  23.972  26.303  1.00  0.00     0.055 A 
ATOM     81  C   UNL A   1      43.687  25.882  25.398  1.00  0.00     0.041 A 
ATOM     82  F   UNL A   1      43.616  27.928  26.541  1.00  0.00    -0.206 F 
ATOM     83  C   UNL A   1      43.344  24.536  25.310  1.00  0.00     0.022 A 
BRANCH  80  84
ATOM     84  S   UNL A   1      42.159  22.199  26.268  1.00  0.00     0.124 S 
ATOM     85  O   UNL A   1      42.668  21.761  27.562  1.00  0.00    -0.237 OA
ATOM     86  O   UNL A   1      40.708  22.204  26.116  1.00  0.00    -0.237 OA
ATOM     87  O   UNL A   1      42.903  21.715  25.107  1.00  0.00    -0.744 OA
ENDBRANCH  80  84
ENDBRANCH  53  77
BRANCH  65  88
ATOM     88  C   UNL A   1      45.156  27.137  33.800  1.00  0.00     0.023 A 
ATOM     89  C   UNL A   1      45.057  25.954  34.553  1.00  0.00     0.031 A 
ATOM     90  C   UNL A   1      46.406  27.779  33.736  1.00  0.00     0.131 A 
ATOM     91  C   UNL A   1      46.169  25.486  35.270  1.00  0.00     0.055 A 
ATOM     92  C   UNL A   1      47.524  27.276  34.403  1.00  0.00     0.041 A 
ATOM     93  F   UNL A   1      46.558  28.912  33.032  1.00  0.00    -0.206 F 
ATOM     94  C   UNL A   1      47.405  26.132  35.189  1.00  0.00     0.022 A 
BRANCH  91  95
ATOM     95  S   UNL A   1      45.947  24.085  36.402  1.00  0.00     0.124 S 
ATOM     96  O   UNL A   1      44.537  23.762  36.214  1.00  0.00    -0.237 OA
ATOM     97  O   UNL A   1      46.899  23.111  35.878  1.00  0.00    -0.237 OA
ATOM     98  O   UNL A   1      46.286  24.644  37.709  1.00  0.00    -0.744 OA
ENDBRANCH  91  95
ENDBRANCH  65  88
ENDBRANCH  39  40
ENDBRANCH  31  34
ENDBRANCH  29  30
ENDBRANCH   1  29
TORSDOF 17
ENDMDL
MODEL 2
REMARK VINA RESULT:     -12.5      0.890      7.380
REMARK SMILES CCc1ccc2[nH]c(C(=O)c3cc(C)ccn3)c(CC(=O)NCCCNC(=O)c3ccc(-c4c5nc(c(-c6cc(S(=O)(=O)[O-])ccc6F)c6ccc([nH]6)c(-c6cc(S(=O)(=O)[O-])ccc6F)c6nc(c(-c7cc(S(=O)(=O)[O-])ccc7F)c7ccc4[nH]7)C=C6)C=C5)cc3)c2c1
REMARK SMILES IDX 24 1 23 2 22 3 20 4 21 5 19 7 18 8 3 9 4 10 93 11 5 12 92 13
REMARK SMILES IDX 6 14 7 15 8 16 2 18 1 19 9 20 10 21 11 22 12 23 17 24 13 25
REMARK SMILES IDX 16 26 14 27 15 28 25 29 26 30 27 31 28 33 29 34 30 35 91 36
REMARK SMILES IDX 31 37 90 38 32 39 33 40 34 41 84 42 35 43 89 44 83 45 85 46
REMARK SMILES IDX 36 47 88 48 82 49 81 50 37 52 69 53 49 54 68 55 50 56 53 57
REMARK SMILES IDX 67 58 86 59 51 60 52 61 66 63 87 64 54 65 38 66 39 67 47 68
REMARK SMILES IDX 40 69 46 70 48 71 45 72 41 73 42 74 43 75 44 76 70 77 71 78
REMARK SMILES IDX 79 79 72 80 78 81 80 82 77 83 73 84 74 85 75 86 76 87 55 88
REMARK SMILES IDX 56 89 64 90 57 91 63 92 65 93 62 94 58 95 59 96 60 97 61 98
REMARK H PARENT 22 6 7 17 26 32 85 51 53 62
REMARK Flexibility Score: inf
ROOT
ATOM      1  C   UNL A   1      32.405  28.069  25.881  1.00  0.00     0.042 C 
ENDROOT
BRANCH   1   2
ATOM      2  C   UNL A   1      33.058  26.725  25.575  1.00  0.00     0.117 C 
BRANCH   2   3
ATOM      3  N   UNL A   1      32.410  25.609  26.231  1.00  0.00    -0.356 N 
ATOM      4  C   UNL A   1      32.686  24.274  26.156  1.00  0.00     0.224 C 
ATOM      5  O   UNL A   1      32.144  23.544  26.992  1.00  0.00    -0.275 OA
ATOM      6  H   UNL A   1      31.656  25.848  26.818  1.00  0.00     0.163 HD
BRANCH   4   7
ATOM      7  C   UNL A   1      33.720  23.729  25.177  1.00  0.00     0.138 C 
BRANCH   7   8
ATOM      8  C   UNL A   1      33.153  22.943  24.023  1.00  0.00    -0.002 A 
ATOM      9  C   UNL A   1      32.711  19.179  24.668  1.00  0.00    -0.048 A 
ATOM     10  C   UNL A   1      32.293  18.871  23.371  1.00  0.00     0.006 A 
ATOM     11  C   UNL A   1      33.002  20.512  25.002  1.00  0.00     0.014 A 
ATOM     12  C   UNL A   1      32.151  19.863  22.395  1.00  0.00     0.027 A 
ATOM     13  C   UNL A   1      32.885  21.531  24.032  1.00  0.00     0.004 A 
ATOM     14  C   UNL A   1      32.456  21.180  22.758  1.00  0.00     0.046 A 
ATOM     15  N   UNL A   1      32.433  22.331  22.010  1.00  0.00    -0.352 N 
ATOM     16  C   UNL A   1      32.753  23.432  22.778  1.00  0.00     0.093 A 
ATOM     17  H   UNL A   1      32.217  22.366  21.049  1.00  0.00     0.167 HD
BRANCH   9  18
ATOM     18  C   UNL A   1      32.904  18.087  25.691  1.00  0.00     0.032 C 
ATOM     19  C   UNL A   1      33.355  16.785  25.043  1.00  0.00     0.009 C 
ENDBRANCH   9  18
BRANCH  16  20
ATOM     20  C   UNL A   1      32.689  24.816  22.323  1.00  0.00     0.227 C 
ATOM     21  O   UNL A   1      33.578  25.354  21.661  1.00  0.00    -0.285 OA
BRANCH  20  22
ATOM     22  C   UNL A   1      31.542  25.662  22.744  1.00  0.00     0.113 A 
ATOM     23  C   UNL A   1      31.491  26.996  22.348  1.00  0.00     0.036 A 
ATOM     24  N   UNL A   1      30.590  25.058  23.497  1.00  0.00    -0.253 NA
ATOM     25  C   UNL A   1      30.399  27.765  22.750  1.00  0.00    -0.047 A 
ATOM     26  C   UNL A   1      29.531  25.817  23.848  1.00  0.00     0.112 A 
ATOM     27  C   UNL A   1      30.279  29.209  22.363  1.00  0.00     0.044 C 
ATOM     28  C   UNL A   1      29.395  27.154  23.507  1.00  0.00     0.023 A 
ENDBRANCH  20  22
ENDBRANCH  16  20
ENDBRANCH   7   8
ENDBRANCH   4   7
ENDBRANCH   2   3
ENDBRANCH   1   2
BRANCH   1  29
ATOM     29  C   UNL A   1      33.126  29.279  25.292  1.00  0.00     0.118 C 
BRANCH  29  30
ATOM     30  N   UNL A   1      32.641  30.540  25.830  1.00  0.00    -0.352 N 
ATOM     31  C   UNL A   1      33.067  31.290  26.896  1.00  0.00     0.251 C 
ATOM     32  H   UNL A   1      31.872  30.921  25.346  1.00  0.00     0.163 HD
ATOM     33  O   UNL A   1      32.364  32.231  27.262  1.00  0.00    -0.269 OA
BRANCH  31  34
ATOM     34  C   UNL A   1      34.331  30.992  27.615  1.00  0.00     0.039 A 
ATOM     35  C   UNL A   1      34.514  29.699  28.118  1.00  0.00     0.014 A 
ATOM     36  C   UNL A   1      35.291  31.973  27.881  1.00  0.00     0.014 A 
ATOM     37  C   UNL A   1      35.658  29.383  28.855  1.00  0.00     0.010 A 
ATOM     38  C   UNL A   1      36.466  31.640  28.559  1.00  0.00     0.010 A 
ATOM     39  C   UNL A   1      36.654  30.348  29.071  1.00  0.00    -0.014 A 
BRANCH  39  40
ATOM     40  C   UNL A   1      37.865  30.024  29.871  1.00  0.00     0.031 A 
ATOM     41  C   UNL A   1      38.911  29.090  29.317  1.00  0.00     0.074 A 
ATOM     42  C   UNL A   1      38.013  30.544  31.105  1.00  0.00     0.049 A 
ATOM     43  N   UNL A   1      40.017  28.661  29.870  1.00  0.00    -0.248 NA
ATOM     44  C   UNL A   1      38.660  28.544  27.976  1.00  0.00     0.031 C 
ATOM     45  C   UNL A   1      37.052  31.426  31.770  1.00  0.00     0.029 A 
ATOM     46  N   UNL A   1      39.026  30.406  32.020  1.00  0.00    -0.354 N 
ATOM     47  C   UNL A   1      40.587  27.783  28.952  1.00  0.00     0.074 A 
ATOM     48  C   UNL A   1      39.669  27.699  27.833  1.00  0.00     0.031 C 
ATOM     49  C   UNL A   1      37.533  31.769  32.976  1.00  0.00     0.029 A 
ATOM     50  C   UNL A   1      38.818  31.110  33.184  1.00  0.00     0.049 A 
ATOM     51  H   UNL A   1      39.826  29.856  31.859  1.00  0.00     0.167 HD
ATOM     52  C   UNL A   1      41.772  27.126  29.021  1.00  0.00     0.034 A 
ATOM     53  C   UNL A   1      39.578  31.212  34.292  1.00  0.00     0.034 A 
ATOM     54  C   UNL A   1      42.687  27.234  30.133  1.00  0.00     0.049 A 
ATOM     55  C   UNL A   1      40.901  30.494  34.339  1.00  0.00     0.074 A 
ATOM     56  C   UNL A   1      43.933  26.652  30.288  1.00  0.00     0.029 A 
ATOM     57  N   UNL A   1      42.454  27.977  31.284  1.00  0.00    -0.354 N 
ATOM     58  N   UNL A   1      41.445  29.702  33.443  1.00  0.00    -0.248 NA
ATOM     59  C   UNL A   1      41.720  30.699  35.540  1.00  0.00     0.031 C 
ATOM     60  C   UNL A   1      44.429  26.999  31.551  1.00  0.00     0.029 A 
ATOM     61  C   UNL A   1      43.522  27.852  32.159  1.00  0.00     0.049 A 
ATOM     62  H   UNL A   1      41.647  28.515  31.453  1.00  0.00     0.167 HD
ATOM     63  C   UNL A   1      42.683  29.336  33.963  1.00  0.00     0.074 A 
ATOM     64  C   UNL A   1      42.812  30.011  35.239  1.00  0.00     0.031 C 
ATOM     65  C   UNL A   1      43.628  28.516  33.437  1.00  0.00     0.034 A 
BRANCH  52  66
ATOM     66  C   UNL A   1      42.125  26.215  27.869  1.00  0.00     0.023 A 
ATOM     67  C   UNL A   1      41.648  24.892  27.802  1.00  0.00     0.031 A 
ATOM     68  C   UNL A   1      42.983  26.656  26.846  1.00  0.00     0.131 A 
ATOM     69  C   UNL A   1      42.100  24.036  26.786  1.00  0.00     0.055 A 
ATOM     70  C   UNL A   1      43.363  25.822  25.792  1.00  0.00     0.041 A 
ATOM     71  F   UNL A   1      43.484  27.901  26.864  1.00  0.00    -0.206 F 
ATOM     72  C   UNL A   1      42.935  24.498  25.766  1.00  0.00     0.022 A 
BRANCH  69  73
ATOM     73  S   UNL A   1      41.700  22.270  26.903  1.00  0.00     0.124 S 
ATOM     74  O   UNL A   1      41.946  21.823  25.534  1.00  0.00    -0.237 OA
ATOM     75  O   UNL A   1      42.643  21.799  27.909  1.00  0.00    -0.237 OA
ATOM     76  O   UNL A   1      40.296  22.263  27.310  1.00  0.00    -0.744 OA
ENDBRANCH  69  73
ENDBRANCH  52  66
BRANCH  53  77
ATOM     77  C   UNL A   1      39.116  32.028  35.449  1.00  0.00     0.023 A 
ATOM     78  C   UNL A   1      38.480  31.429  36.548  1.00  0.00     0.031 A 
ATOM     79  C   UNL A   1      39.268  33.425  35.454  1.00  0.00     0.131 A 
ATOM     80  C   UNL A   1      37.976  32.228  37.584  1.00  0.00     0.055 A 
ATOM     81  C   UNL A   1      38.806  34.212  36.509  1.00  0.00     0.041 A 
ATOM     82  F   UNL A   1      39.879  34.045  34.432  1.00  0.00    -0.206 F 
ATOM     83  C   UNL A   1      38.144  33.615  37.578  1.00  0.00     0.022 A 
BRANCH  80  84
ATOM     84  S   UNL A   1      37.031  31.434  38.913  1.00  0.00     0.124 S 
ATOM     85  O   UNL A   1      36.899  30.071  38.410  1.00  0.00    -0.237 OA
ATOM     86  O   UNL A   1      37.913  31.613  40.060  1.00  0.00    -0.237 OA
ATOM     87  O   UNL A   1      35.791  32.206  38.957  1.00  0.00    -0.744 OA
ENDBRANCH  80  84
ENDBRANCH  53  77
BRANCH  65  88
ATOM     88  C   UNL A   1      44.895  28.342  34.238  1.00  0.00     0.023 A 
ATOM     89  C   UNL A   1      45.001  27.366  35.246  1.00  0.00     0.031 A 
ATOM     90  C   UNL A   1      45.995  29.191  34.020  1.00  0.00     0.131 A 
ATOM     91  C   UNL A   1      46.153  27.309  36.044  1.00  0.00     0.055 A 
ATOM     92  C   UNL A   1      47.162  29.090  34.778  1.00  0.00     0.041 A 
ATOM     93  F   UNL A   1      45.948  30.140  33.072  1.00  0.00    -0.206 F 
ATOM     94  C   UNL A   1      47.239  28.155  35.809  1.00  0.00     0.022 A 
BRANCH  91  95
ATOM     95  S   UNL A   1      46.167  26.188  37.471  1.00  0.00     0.124 S 
ATOM     96  O   UNL A   1      46.675  27.051  38.532  1.00  0.00    -0.237 OA
ATOM     97  O   UNL A   1      44.763  25.805  37.578  1.00  0.00    -0.237 OA
ATOM     98  O   UNL A   1      47.072  25.117  37.056  1.00  0.00    -0.744 OA
ENDBRANCH  91  95
ENDBRANCH  65  88
ENDBRANCH  39  40
ENDBRANCH  31  34
ENDBRANCH  29  30
ENDBRANCH   1  29
TORSDOF 17
ENDMDL
MODEL 3
REMARK VINA RESULT:     -12.5      1.483      1.873
REMARK SMILES CCc1ccc2[nH]c(C(=O)c3cc(C)ccn3)c(CC(=O)NCCCNC(=O)c3ccc(-c4c5nc(c(-c6cc(S(=O)(=O)[O-])ccc6F)c6ccc([nH]6)c(-c6cc(S(=O)(=O)[O-])ccc6F)c6nc(c(-c7cc(S(=O)(=O)[O-])ccc7F)c7ccc4[nH]7)C=C6)C=C5)cc3)c2c1
REMARK SMILES IDX 24 1 23 2 22 3 20 4 21 5 19 7 18 8 3 9 4 10 93 11 5 12 92 13
REMARK SMILES IDX 6 14 7 15 8 16 2 18 1 19 9 20 10 21 11 22 12 23 17 24 13 25
REMARK SMILES IDX 16 26 14 27 15 28 25 29 26 30 27 31 28 33 29 34 30 35 91 36
REMARK SMILES IDX 31 37 90 38 32 39 33 40 34 41 84 42 35 43 89 44 83 45 85 46
REMARK SMILES IDX 36 47 88 48 82 49 81 50 37 52 69 53 49 54 68 55 50 56 53 57
REMARK SMILES IDX 67 58 86 59 51 60 52 61 66 63 87 64 54 65 38 66 39 67 47 68
REMARK SMILES IDX 40 69 46 70 48 71 45 72 41 73 42 74 43 75 44 76 70 77 71 78
REMARK SMILES IDX 79 79 72 80 78 81 80 82 77 83 73 84 74 85 75 86 76 87 55 88
REMARK SMILES IDX 56 89 64 90 57 91 63 92 65 93 62 94 58 95 59 96 60 97 61 98
REMARK H PARENT 22 6 7 17 26 32 85 51 53 62
REMARK Flexibility Score: inf
ROOT
ATOM      1  C   UNL A   1      32.924  28.461  26.829  1.00  0.00     0.042 C 
ENDROOT
BRANCH   1   2
ATOM      2  C   UNL A   1      32.372  27.453  25.827  1.00  0.00     0.117 C 
BRANCH   2   3
ATOM      3  N   UNL A   1      31.793  26.281  26.451  1.00  0.00    -0.356 N 
ATOM      4  C   UNL A   1      32.181  24.974  26.379  1.00  0.00     0.224 C 
ATOM      5  O   UNL A   1      31.669  24.194  27.189  1.00  0.00    -0.275 OA
ATOM      6  H   UNL A   1      31.000  26.452  27.009  1.00  0.00     0.163 HD
BRANCH   4   7
ATOM      7  C   UNL A   1      33.293  24.524  25.438  1.00  0.00     0.138 C 
BRANCH   7   8
ATOM      8  C   UNL A   1      32.831  23.769  24.219  1.00  0.00    -0.002 A 
ATOM      9  C   UNL A   1      32.593  19.956  24.651  1.00  0.00    -0.048 A 
ATOM     10  C   UNL A   1      32.255  19.693  23.321  1.00  0.00     0.006 A 
ATOM     11  C   UNL A   1      32.785  21.284  25.066  1.00  0.00     0.014 A 
ATOM     12  C   UNL A   1      32.098  20.726  22.390  1.00  0.00     0.027 A 
ATOM     13  C   UNL A   1      32.650  22.345  24.144  1.00  0.00     0.004 A 
ATOM     14  C   UNL A   1      32.304  22.037  22.834  1.00  0.00     0.046 A 
ATOM     15  N   UNL A   1      32.245  23.223  22.144  1.00  0.00    -0.352 N 
ATOM     16  C   UNL A   1      32.460  24.299  22.982  1.00  0.00     0.093 A 
ATOM     17  H   UNL A   1      32.071  23.296  21.177  1.00  0.00     0.167 HD
BRANCH   9  18
ATOM     18  C   UNL A   1      32.805  18.824  25.626  1.00  0.00     0.032 C 
ATOM     19  C   UNL A   1      32.450  17.479  25.008  1.00  0.00     0.009 C 
ENDBRANCH   9  18
BRANCH  16  20
ATOM     20  C   UNL A   1      32.331  25.699  22.595  1.00  0.00     0.227 C 
ATOM     21  O   UNL A   1      33.252  26.354  22.104  1.00  0.00    -0.285 OA
BRANCH  20  22
ATOM     22  C   UNL A   1      31.060  26.414  22.881  1.00  0.00     0.113 A 
ATOM     23  C   UNL A   1      30.886  27.716  22.421  1.00  0.00     0.036 A 
ATOM     24  N   UNL A   1      30.124  25.726  23.579  1.00  0.00    -0.253 NA
ATOM     25  C   UNL A   1      29.680  28.360  22.696  1.00  0.00    -0.047 A 
ATOM     26  C   UNL A   1      28.956  26.361  23.807  1.00  0.00     0.112 A 
ATOM     27  C   UNL A   1      29.424  29.764  22.234  1.00  0.00     0.044 C 
ATOM     28  C   UNL A   1      28.693  27.659  23.394  1.00  0.00     0.023 A 
ENDBRANCH  20  22
ENDBRANCH  16  20
ENDBRANCH   7   8
ENDBRANCH   4   7
ENDBRANCH   2   3
ENDBRANCH   1   2
BRANCH   1  29
ATOM     29  C   UNL A   1      33.886  29.489  26.238  1.00  0.00     0.118 C 
BRANCH  29  30
ATOM     30  N   UNL A   1      33.727  30.810  26.826  1.00  0.00    -0.352 N 
ATOM     31  C   UNL A   1      34.402  31.430  27.845  1.00  0.00     0.251 C 
ATOM     32  H   UNL A   1      33.011  31.352  26.423  1.00  0.00     0.163 HD
ATOM     33  O   UNL A   1      33.949  32.487  28.282  1.00  0.00    -0.269 OA
BRANCH  31  34
ATOM     34  C   UNL A   1      35.641  30.862  28.432  1.00  0.00     0.039 A 
ATOM     35  C   UNL A   1      36.868  31.420  28.050  1.00  0.00     0.014 A 
ATOM     36  C   UNL A   1      35.629  29.744  29.272  1.00  0.00     0.014 A 
ATOM     37  C   UNL A   1      38.066  30.882  28.526  1.00  0.00     0.010 A 
ATOM     38  C   UNL A   1      36.824  29.251  29.801  1.00  0.00     0.010 A 
ATOM     39  C   UNL A   1      38.056  29.800  29.420  1.00  0.00    -0.014 A 
BRANCH  39  40
ATOM     40  C   UNL A   1      39.329  29.212  29.914  1.00  0.00     0.031 A 
ATOM     41  C   UNL A   1      40.001  29.781  31.138  1.00  0.00     0.074 A 
ATOM     42  C   UNL A   1      39.898  28.187  29.250  1.00  0.00     0.049 A 
ATOM     43  N   UNL A   1      41.127  29.428  31.707  1.00  0.00    -0.248 NA
ATOM     44  C   UNL A   1      39.330  30.916  31.787  1.00  0.00     0.031 C 
ATOM     45  C   UNL A   1      39.369  27.576  28.029  1.00  0.00     0.029 A 
ATOM     46  N   UNL A   1      41.044  27.479  29.506  1.00  0.00    -0.354 N 
ATOM     47  C   UNL A   1      41.307  30.308  32.771  1.00  0.00     0.074 A 
ATOM     48  C   UNL A   1      40.203  31.245  32.728  1.00  0.00     0.031 C 
ATOM     49  C   UNL A   1      40.177  26.570  27.656  1.00  0.00     0.029 A 
ATOM     50  C   UNL A   1      41.294  26.483  28.591  1.00  0.00     0.049 A 
ATOM     51  H   UNL A   1      41.632  27.665  30.273  1.00  0.00     0.167 HD
ATOM     52  C   UNL A   1      42.287  30.321  33.710  1.00  0.00     0.034 A 
ATOM     53  C   UNL A   1      42.309  25.599  28.514  1.00  0.00     0.034 A 
ATOM     54  C   UNL A   1      43.371  29.368  33.753  1.00  0.00     0.049 A 
ATOM     55  C   UNL A   1      43.373  25.616  29.580  1.00  0.00     0.074 A 
ATOM     56  C   UNL A   1      44.390  29.259  34.684  1.00  0.00     0.029 A 
ATOM     57  N   UNL A   1      43.578  28.357  32.823  1.00  0.00    -0.354 N 
ATOM     58  N   UNL A   1      43.506  26.427  30.605  1.00  0.00    -0.248 NA
ATOM     59  C   UNL A   1      44.414  24.584  29.487  1.00  0.00     0.031 C 
ATOM     60  C   UNL A   1      45.240  28.218  34.288  1.00  0.00     0.029 A 
ATOM     61  C   UNL A   1      44.716  27.634  33.147  1.00  0.00     0.049 A 
ATOM     62  H   UNL A   1      42.998  28.179  32.047  1.00  0.00     0.167 HD
ATOM     63  C   UNL A   1      44.632  25.985  31.293  1.00  0.00     0.074 A 
ATOM     64  C   UNL A   1      45.126  24.825  30.579  1.00  0.00     0.031 C 
ATOM     65  C   UNL A   1      45.207  26.491  32.413  1.00  0.00     0.034 A 
BRANCH  52  66
ATOM     66  C   UNL A   1      42.235  31.419  34.746  1.00  0.00     0.023 A 
ATOM     67  C   UNL A   1      41.230  31.458  35.730  1.00  0.00     0.031 A 
ATOM     68  C   UNL A   1      43.176  32.463  34.727  1.00  0.00     0.131 A 
ATOM     69  C   UNL A   1      41.138  32.560  36.595  1.00  0.00     0.055 A 
ATOM     70  C   UNL A   1      43.127  33.516  35.644  1.00  0.00     0.041 A 
ATOM     71  F   UNL A   1      44.148  32.492  33.802  1.00  0.00    -0.206 F 
ATOM     72  C   UNL A   1      42.094  33.577  36.575  1.00  0.00     0.022 A 
BRANCH  69  73
ATOM     73  S   UNL A   1      39.666  32.716  37.642  1.00  0.00     0.124 S 
ATOM     74  O   UNL A   1      40.251  32.668  38.980  1.00  0.00    -0.237 OA
ATOM     75  O   UNL A   1      39.120  34.003  37.229  1.00  0.00    -0.237 OA
ATOM     76  O   UNL A   1      38.861  31.551  37.280  1.00  0.00    -0.744 OA
ENDBRANCH  69  73
ENDBRANCH  52  66
BRANCH  53  77
ATOM     77  C   UNL A   1      42.371  24.619  27.394  1.00  0.00     0.023 A 
ATOM     78  C   UNL A   1      41.597  23.448  27.415  1.00  0.00     0.031 A 
ATOM     79  C   UNL A   1      43.236  24.821  26.306  1.00  0.00     0.131 A 
ATOM     80  C   UNL A   1      41.738  22.499  26.391  1.00  0.00     0.055 A 
ATOM     81  C   UNL A   1      43.339  23.896  25.265  1.00  0.00     0.041 A 
ATOM     82  F   UNL A   1      43.989  25.930  26.233  1.00  0.00    -0.206 F 
ATOM     83  C   UNL A   1      42.596  22.721  25.311  1.00  0.00     0.022 A 
BRANCH  80  84
ATOM     84  S   UNL A   1      40.834  20.933  26.527  1.00  0.00     0.124 S 
ATOM     85  O   UNL A   1      39.544  21.282  25.943  1.00  0.00    -0.237 OA
ATOM     86  O   UNL A   1      41.672  20.032  25.744  1.00  0.00    -0.237 OA
ATOM     87  O   UNL A   1      40.819  20.673  27.966  1.00  0.00    -0.744 OA
ENDBRANCH  80  84
ENDBRANCH  53  77
BRANCH  65  88
ATOM     88  C   UNL A   1      46.417  25.760  32.942  1.00  0.00     0.023 A 
ATOM     89  C   UNL A   1      46.291  24.657  33.806  1.00  0.00     0.031 A 
ATOM     90  C   UNL A   1      47.712  26.199  32.613  1.00  0.00     0.131 A 
ATOM     91  C   UNL A   1      47.437  24.074  34.367  1.00  0.00     0.055 A 
ATOM     92  C   UNL A   1      48.850  25.577  33.127  1.00  0.00     0.041 A 
ATOM     93  F   UNL A   1      47.890  27.247  31.794  1.00  0.00    -0.206 F 
ATOM     94  C   UNL A   1      48.716  24.518  34.023  1.00  0.00     0.022 A 
BRANCH  91  95
ATOM     95  S   UNL A   1      47.230  22.800  35.642  1.00  0.00     0.124 S 
ATOM     96  O   UNL A   1      45.946  23.164  36.231  1.00  0.00    -0.237 OA
ATOM     97  O   UNL A   1      47.245  21.570  34.856  1.00  0.00    -0.237 OA
ATOM     98  O   UNL A   1      48.388  22.994  36.512  1.00  0.00    -0.744 OA
ENDBRANCH  91  95
ENDBRANCH  65  88
ENDBRANCH  39  40
ENDBRANCH  31  34
ENDBRANCH  29  30
ENDBRANCH   1  29
TORSDOF 17
ENDMDL
