MODEL 1
REMARK VINA RESULT:     -13.1      0.000      0.000
REMARK SMILES CCn1c(CC2CC[NH+](Cc3cn[nH]c3C(=O)NCCCNC(=O)c3ccc(-c4c5nc(c(-c6cc(S(=O)(=O)[O-])ccc6F)c6ccc([nH]6)c(-c6cc(S(=O)(=O)[O-])ccc6F)c6nc(c(-c7cc(S(=O)(=O)[O-])ccc7F)c7ccc4[nH]7)C=C6)C=C5)cc3)CC2)nn(C)c1=O
REMARK SMILES IDX 19 1 18 2 16 3 17 4 15 6 11 7 12 8 13 9 14 10 10 12 9 13
REMARK SMILES IDX 6 14 7 15 89 16 8 17 88 18 5 20 4 21 3 22 93 23 90 24 91 25
REMARK SMILES IDX 94 26 92 27 2 28 1 29 20 30 21 31 22 32 23 33 24 35 25 36
REMARK SMILES IDX 26 37 87 38 27 39 86 40 28 41 29 42 30 43 80 44 31 45 85 46
REMARK SMILES IDX 79 47 81 48 32 49 84 50 78 51 77 52 33 54 65 55 45 56 64 57
REMARK SMILES IDX 46 58 49 59 63 60 82 61 47 62 48 63 62 65 83 66 50 67 34 68
REMARK SMILES IDX 35 69 43 70 36 71 42 72 44 73 41 74 37 75 38 76 39 77 40 78
REMARK SMILES IDX 66 79 67 80 75 81 68 82 74 83 76 84 73 85 69 86 70 87 71 88
REMARK SMILES IDX 72 89 51 90 52 91 60 92 53 93 59 94 61 95 58 96 54 97 55 98
REMARK SMILES IDX 56 99 57 100
REMARK H PARENT 18 5 14 11 9 19 22 34 81 53 49 64
REMARK Flexibility Score: inf
ROOT
ATOM      1  C   UNL A   1      32.459  30.077  25.897  1.00  0.00     0.118 C 
ENDROOT
BRANCH   1   2
ATOM      2  N   UNL A   1      33.272  29.681  24.767  1.00  0.00    -0.351 N 
ATOM      3  C   UNL A   1      32.987  29.182  23.529  1.00  0.00     0.269 C 
ATOM      4  O   UNL A   1      33.970  28.995  22.806  1.00  0.00    -0.268 OA
ATOM      5  H   UNL A   1      34.236  29.796  24.925  1.00  0.00     0.163 HD
BRANCH   3   6
ATOM      6  C   UNL A   1      31.660  28.950  23.005  1.00  0.00     0.131 A 
ATOM      7  C   UNL A   1      30.604  28.038  23.097  1.00  0.00     0.057 A 
ATOM      8  C   UNL A   1      29.596  28.598  22.269  1.00  0.00     0.145 A 
ATOM      9  N   UNL A   1      29.976  29.704  21.643  1.00  0.00    -0.183 NA
ATOM     10  N   UNL A   1      31.250  29.838  22.027  1.00  0.00    -0.272 N 
ATOM     11  H   UNL A   1      31.850  30.516  21.642  1.00  0.00     0.190 HD
BRANCH   7  12
ATOM     12  C   UNL A   1      30.386  26.758  23.834  1.00  0.00     0.303 C 
BRANCH  12  13
ATOM     13  N   UNL A   1      31.529  26.267  24.626  1.00  0.00    -0.331 N 
ATOM     14  C   UNL A   1      33.463  24.398  25.876  1.00  0.00     0.008 C 
ATOM     15  C   UNL A   1      32.252  24.960  26.635  1.00  0.00     0.065 C 
ATOM     16  C   UNL A   1      33.815  25.329  24.717  1.00  0.00     0.065 C 
ATOM     17  C   UNL A   1      31.095  25.434  25.750  1.00  0.00     0.262 C 
ATOM     18  C   UNL A   1      32.605  25.654  23.850  1.00  0.00     0.262 C 
ATOM     19  H   UNL A   1      31.959  27.107  25.012  1.00  0.00     0.348 HD
BRANCH  14  20
ATOM     20  C   UNL A   1      33.378  22.905  25.491  1.00  0.00     0.081 C 
BRANCH  20  21
ATOM     21  C   UNL A   1      34.657  22.105  25.420  1.00  0.00     0.133 A 
ATOM     22  N   UNL A   1      34.718  20.802  25.072  1.00  0.00    -0.279 N 
ATOM     23  C   UNL A   1      36.060  20.474  25.090  1.00  0.00     0.345 A 
ATOM     24  N   UNL A   1      35.813  22.654  25.670  1.00  0.00    -0.155 NA
ATOM     25  N   UNL A   1      36.712  21.635  25.495  1.00  0.00    -0.216 N 
ATOM     26  O   UNL A   1      36.565  19.412  24.764  1.00  0.00    -0.246 OA
ATOM     27  C   UNL A   1      38.130  21.808  25.643  1.00  0.00     0.179 C 
BRANCH  22  28
ATOM     28  C   UNL A   1      33.706  19.886  24.569  1.00  0.00     0.125 C 
ATOM     29  C   UNL A   1      33.034  19.057  25.654  1.00  0.00     0.028 C 
ENDBRANCH  22  28
ENDBRANCH  20  21
ENDBRANCH  14  20
ENDBRANCH  12  13
ENDBRANCH   7  12
ENDBRANCH   3   6
ENDBRANCH   1   2
BRANCH   1  30
ATOM     30  C   UNL A   1      33.218  29.856  27.212  1.00  0.00     0.042 C 
BRANCH  30  31
ATOM     31  C   UNL A   1      34.488  30.665  27.348  1.00  0.00     0.118 C 
BRANCH  31  32
ATOM     32  N   UNL A   1      34.456  31.570  28.490  1.00  0.00    -0.352 N 
ATOM     33  C   UNL A   1      35.394  31.671  29.508  1.00  0.00     0.251 C 
ATOM     34  H   UNL A   1      33.683  32.178  28.545  1.00  0.00     0.163 HD
ATOM     35  O   UNL A   1      35.122  32.180  30.570  1.00  0.00    -0.269 OA
BRANCH  33  36
ATOM     36  C   UNL A   1      36.729  31.101  29.232  1.00  0.00     0.039 A 
ATOM     37  C   UNL A   1      37.879  31.748  29.684  1.00  0.00     0.014 A 
ATOM     38  C   UNL A   1      36.776  29.813  28.707  1.00  0.00     0.014 A 
ATOM     39  C   UNL A   1      39.072  31.030  29.723  1.00  0.00     0.010 A 
ATOM     40  C   UNL A   1      37.916  29.066  28.893  1.00  0.00     0.010 A 
ATOM     41  C   UNL A   1      39.078  29.667  29.377  1.00  0.00    -0.014 A 
BRANCH  41  42
ATOM     42  C   UNL A   1      40.240  28.826  29.680  1.00  0.00     0.031 A 
ATOM     43  C   UNL A   1      40.464  28.552  31.127  1.00  0.00     0.074 A 
ATOM     44  C   UNL A   1      40.941  28.138  28.755  1.00  0.00     0.049 A 
ATOM     45  N   UNL A   1      41.359  29.078  31.896  1.00  0.00    -0.248 NA
ATOM     46  C   UNL A   1      39.489  27.718  31.847  1.00  0.00     0.031 C 
ATOM     47  C   UNL A   1      40.679  28.035  27.316  1.00  0.00     0.029 A 
ATOM     48  N   UNL A   1      41.984  27.277  28.930  1.00  0.00    -0.354 N 
ATOM     49  C   UNL A   1      41.250  28.416  33.115  1.00  0.00     0.074 A 
ATOM     50  C   UNL A   1      39.948  27.807  33.098  1.00  0.00     0.031 C 
ATOM     51  C   UNL A   1      41.365  26.993  26.802  1.00  0.00     0.029 A 
ATOM     52  C   UNL A   1      42.259  26.481  27.823  1.00  0.00     0.049 A 
ATOM     53  H   UNL A   1      42.500  27.224  29.768  1.00  0.00     0.167 HD
ATOM     54  C   UNL A   1      42.351  28.187  33.889  1.00  0.00     0.034 A 
ATOM     55  C   UNL A   1      43.157  25.467  27.728  1.00  0.00     0.034 A 
ATOM     56  C   UNL A   1      43.472  28.994  33.433  1.00  0.00     0.049 A 
ATOM     57  C   UNL A   1      44.184  25.712  28.768  1.00  0.00     0.074 A 
ATOM     58  C   UNL A   1      43.662  30.343  33.184  1.00  0.00     0.029 A 
ATOM     59  N   UNL A   1      44.508  28.363  32.774  1.00  0.00    -0.354 N 
ATOM     60  N   UNL A   1      44.981  26.746  28.754  1.00  0.00    -0.248 NA
ATOM     61  C   UNL A   1      44.020  25.081  30.068  1.00  0.00     0.031 C 
ATOM     62  C   UNL A   1      44.441  30.388  31.987  1.00  0.00     0.029 A 
ATOM     63  C   UNL A   1      44.772  29.079  31.634  1.00  0.00     0.049 A 
ATOM     64  H   UNL A   1      44.973  27.546  33.068  1.00  0.00     0.167 HD
ATOM     65  C   UNL A   1      45.043  27.166  30.073  1.00  0.00     0.074 A 
ATOM     66  C   UNL A   1      44.537  26.035  30.848  1.00  0.00     0.031 C 
ATOM     67  C   UNL A   1      45.222  28.484  30.389  1.00  0.00     0.034 A 
BRANCH  54  68
ATOM     68  C   UNL A   1      42.570  26.956  34.760  1.00  0.00     0.023 A 
ATOM     69  C   UNL A   1      43.465  25.989  34.262  1.00  0.00     0.031 A 
ATOM     70  C   UNL A   1      41.760  26.527  35.835  1.00  0.00     0.131 A 
ATOM     71  C   UNL A   1      43.389  24.648  34.672  1.00  0.00     0.055 A 
ATOM     72  C   UNL A   1      41.745  25.206  36.297  1.00  0.00     0.041 A 
ATOM     73  F   UNL A   1      40.889  27.324  36.460  1.00  0.00    -0.206 F 
ATOM     74  C   UNL A   1      42.525  24.244  35.681  1.00  0.00     0.022 A 
BRANCH  71  75
ATOM     75  S   UNL A   1      44.277  23.415  33.688  1.00  0.00     0.124 S 
ATOM     76  O   UNL A   1      44.521  22.382  34.689  1.00  0.00    -0.237 OA
ATOM     77  O   UNL A   1      43.297  23.096  32.655  1.00  0.00    -0.237 OA
ATOM     78  O   UNL A   1      45.459  24.139  33.228  1.00  0.00    -0.744 OA
ENDBRANCH  71  75
ENDBRANCH  54  68
BRANCH  55  79
ATOM     79  C   UNL A   1      43.028  24.209  26.946  1.00  0.00     0.023 A 
ATOM     80  C   UNL A   1      44.024  23.759  26.055  1.00  0.00     0.031 A 
ATOM     81  C   UNL A   1      41.993  23.296  27.255  1.00  0.00     0.131 A 
ATOM     82  C   UNL A   1      43.961  22.450  25.522  1.00  0.00     0.055 A 
ATOM     83  C   UNL A   1      41.932  22.007  26.718  1.00  0.00     0.041 A 
ATOM     84  F   UNL A   1      41.047  23.594  28.159  1.00  0.00    -0.206 F 
ATOM     85  C   UNL A   1      42.926  21.575  25.856  1.00  0.00     0.022 A 
BRANCH  82  86
ATOM     86  S   UNL A   1      45.304  21.824  24.460  1.00  0.00     0.124 S 
ATOM     87  O   UNL A   1      46.308  21.419  25.436  1.00  0.00    -0.237 OA
ATOM     88  O   UNL A   1      44.646  20.752  23.721  1.00  0.00    -0.237 OA
ATOM     89  O   UNL A   1      45.668  22.987  23.650  1.00  0.00    -0.744 OA
ENDBRANCH  82  86
ENDBRANCH  55  79
BRANCH  67  90
ATOM     90  C   UNL A   1      45.722  29.433  29.317  1.00  0.00     0.023 A 
ATOM     91  C   UNL A   1      44.905  30.259  28.512  1.00  0.00     0.031 A 
ATOM     92  C   UNL A   1      47.116  29.574  29.187  1.00  0.00     0.131 A 
ATOM     93  C   UNL A   1      45.493  31.170  27.611  1.00  0.00     0.055 A 
ATOM     94  C   UNL A   1      47.694  30.489  28.309  1.00  0.00     0.041 A 
ATOM     95  F   UNL A   1      47.950  28.838  29.941  1.00  0.00    -0.206 F 
ATOM     96  C   UNL A   1      46.884  31.287  27.511  1.00  0.00     0.022 A 
BRANCH  93  97
ATOM     97  S   UNL A   1      44.460  32.210  26.528  1.00  0.00     0.124 S 
ATOM     98  O   UNL A   1      43.854  33.168  27.444  1.00  0.00    -0.237 OA
ATOM     99  O   UNL A   1      45.438  32.753  25.588  1.00  0.00    -0.237 OA
ATOM    100  O   UNL A   1      43.520  31.254  25.937  1.00  0.00    -0.744 OA
ENDBRANCH  93  97
ENDBRANCH  67  90
ENDBRANCH  41  42
ENDBRANCH  33  36
ENDBRANCH  31  32
ENDBRANCH  30  31
ENDBRANCH   1  30
TORSDOF 18
ENDMDL
MODEL 2
REMARK VINA RESULT:     -12.8      3.312      6.926
REMARK SMILES CCn1c(CC2CC[NH+](Cc3cn[nH]c3C(=O)NCCCNC(=O)c3ccc(-c4c5nc(c(-c6cc(S(=O)(=O)[O-])ccc6F)c6ccc([nH]6)c(-c6cc(S(=O)(=O)[O-])ccc6F)c6nc(c(-c7cc(S(=O)(=O)[O-])ccc7F)c7ccc4[nH]7)C=C6)C=C5)cc3)CC2)nn(C)c1=O
REMARK SMILES IDX 19 1 18 2 16 3 17 4 15 6 11 7 12 8 13 9 14 10 10 12 9 13
REMARK SMILES IDX 6 14 7 15 89 16 8 17 88 18 5 20 4 21 3 22 93 23 90 24 91 25
REMARK SMILES IDX 94 26 92 27 2 28 1 29 20 30 21 31 22 32 23 33 24 35 25 36
REMARK SMILES IDX 26 37 87 38 27 39 86 40 28 41 29 42 30 43 80 44 31 45 85 46
REMARK SMILES IDX 79 47 81 48 32 49 84 50 78 51 77 52 33 54 65 55 45 56 64 57
REMARK SMILES IDX 46 58 49 59 63 60 82 61 47 62 48 63 62 65 83 66 50 67 34 68
REMARK SMILES IDX 35 69 43 70 36 71 42 72 44 73 41 74 37 75 38 76 39 77 40 78
REMARK SMILES IDX 66 79 67 80 75 81 68 82 74 83 76 84 73 85 69 86 70 87 71 88
REMARK SMILES IDX 72 89 51 90 52 91 60 92 53 93 59 94 61 95 58 96 54 97 55 98
REMARK SMILES IDX 56 99 57 100
REMARK H PARENT 18 5 14 11 9 19 22 34 81 53 49 64
REMARK Flexibility Score: inf
ROOT
ATOM      1  C   UNL A   1      32.680  29.181  26.116  1.00  0.00     0.118 C 
ENDROOT
BRANCH   1   2
ATOM      2  N   UNL A   1      33.431  29.189  24.878  1.00  0.00    -0.351 N 
ATOM      3  C   UNL A   1      33.087  29.048  23.565  1.00  0.00     0.269 C 
ATOM      4  O   UNL A   1      34.024  29.151  22.768  1.00  0.00    -0.268 OA
ATOM      5  H   UNL A   1      34.396  29.325  25.012  1.00  0.00     0.163 HD
BRANCH   3   6
ATOM      6  C   UNL A   1      31.740  28.879  23.067  1.00  0.00     0.131 A 
ATOM      7  C   UNL A   1      30.642  28.022  23.183  1.00  0.00     0.057 A 
ATOM      8  C   UNL A   1      29.648  28.625  22.370  1.00  0.00     0.145 A 
ATOM      9  N   UNL A   1      30.071  29.707  21.730  1.00  0.00    -0.183 NA
ATOM     10  N   UNL A   1      31.357  29.780  22.089  1.00  0.00    -0.272 N 
ATOM     11  H   UNL A   1      31.983  30.425  21.689  1.00  0.00     0.190 HD
BRANCH   7  12
ATOM     12  C   UNL A   1      30.375  26.759  23.934  1.00  0.00     0.303 C 
BRANCH  12  13
ATOM     13  N   UNL A   1      31.507  26.214  24.706  1.00  0.00    -0.331 N 
ATOM     14  C   UNL A   1      33.440  24.266  25.831  1.00  0.00     0.008 C 
ATOM     15  C   UNL A   1      32.206  24.745  26.609  1.00  0.00     0.065 C 
ATOM     16  C   UNL A   1      33.804  25.299  24.765  1.00  0.00     0.065 C 
ATOM     17  C   UNL A   1      31.061  25.281  25.743  1.00  0.00     0.262 C 
ATOM     18  C   UNL A   1      32.607  25.684  23.904  1.00  0.00     0.262 C 
ATOM     19  H   UNL A   1      31.917  27.023  25.172  1.00  0.00     0.348 HD
BRANCH  14  20
ATOM     20  C   UNL A   1      33.384  22.812  25.315  1.00  0.00     0.081 C 
BRANCH  20  21
ATOM     21  C   UNL A   1      34.655  21.997  25.316  1.00  0.00     0.133 A 
ATOM     22  N   UNL A   1      34.716  20.685  25.003  1.00  0.00    -0.279 N 
ATOM     23  C   UNL A   1      36.052  20.344  25.083  1.00  0.00     0.345 A 
ATOM     24  N   UNL A   1      35.807  22.541  25.598  1.00  0.00    -0.155 NA
ATOM     25  N   UNL A   1      36.701  21.508  25.484  1.00  0.00    -0.216 N 
ATOM     26  O   UNL A   1      36.558  19.269  24.804  1.00  0.00    -0.246 OA
ATOM     27  C   UNL A   1      38.113  21.671  25.684  1.00  0.00     0.179 C 
BRANCH  22  28
ATOM     28  C   UNL A   1      33.714  19.767  24.485  1.00  0.00     0.125 C 
ATOM     29  C   UNL A   1      33.073  18.890  25.551  1.00  0.00     0.028 C 
ENDBRANCH  22  28
ENDBRANCH  20  21
ENDBRANCH  14  20
ENDBRANCH  12  13
ENDBRANCH   7  12
ENDBRANCH   3   6
ENDBRANCH   1   2
BRANCH   1  30
ATOM     30  C   UNL A   1      32.099  30.572  26.402  1.00  0.00     0.042 C 
BRANCH  30  31
ATOM     31  C   UNL A   1      32.988  31.467  27.234  1.00  0.00     0.118 C 
BRANCH  31  32
ATOM     32  N   UNL A   1      32.518  32.846  27.271  1.00  0.00    -0.352 N 
ATOM     33  C   UNL A   1      32.951  33.857  28.118  1.00  0.00     0.251 C 
ATOM     34  H   UNL A   1      31.814  33.087  26.626  1.00  0.00     0.163 HD
ATOM     35  O   UNL A   1      32.282  34.843  28.319  1.00  0.00    -0.269 OA
BRANCH  33  36
ATOM     36  C   UNL A   1      34.258  33.651  28.775  1.00  0.00     0.039 A 
ATOM     37  C   UNL A   1      34.383  32.749  29.831  1.00  0.00     0.014 A 
ATOM     38  C   UNL A   1      35.374  34.219  28.166  1.00  0.00     0.014 A 
ATOM     39  C   UNL A   1      35.658  32.318  30.188  1.00  0.00     0.010 A 
ATOM     40  C   UNL A   1      36.611  33.675  28.419  1.00  0.00     0.010 A 
ATOM     41  C   UNL A   1      36.773  32.741  29.442  1.00  0.00    -0.014 A 
BRANCH  41  42
ATOM     42  C   UNL A   1      38.074  32.088  29.611  1.00  0.00     0.031 A 
ATOM     43  C   UNL A   1      38.140  30.676  29.144  1.00  0.00     0.074 A 
ATOM     44  C   UNL A   1      39.213  32.736  29.937  1.00  0.00     0.049 A 
ATOM     45  N   UNL A   1      38.148  29.608  29.871  1.00  0.00    -0.248 NA
ATOM     46  C   UNL A   1      38.025  30.403  27.702  1.00  0.00     0.031 C 
ATOM     47  C   UNL A   1      39.408  34.177  30.130  1.00  0.00     0.029 A 
ATOM     48  N   UNL A   1      40.480  32.246  30.049  1.00  0.00    -0.354 N 
ATOM     49  C   UNL A   1      38.345  28.549  28.989  1.00  0.00     0.074 A 
ATOM     50  C   UNL A   1      38.000  29.068  27.694  1.00  0.00     0.031 C 
ATOM     51  C   UNL A   1      40.724  34.467  30.088  1.00  0.00     0.029 A 
ATOM     52  C   UNL A   1      41.471  33.224  30.063  1.00  0.00     0.049 A 
ATOM     53  H   UNL A   1      40.678  31.284  30.114  1.00  0.00     0.167 HD
ATOM     54  C   UNL A   1      39.053  27.445  29.368  1.00  0.00     0.034 A 
ATOM     55  C   UNL A   1      42.816  33.046  30.058  1.00  0.00     0.034 A 
ATOM     56  C   UNL A   1      39.228  27.421  30.812  1.00  0.00     0.049 A 
ATOM     57  C   UNL A   1      43.067  31.694  30.612  1.00  0.00     0.074 A 
ATOM     58  C   UNL A   1      38.372  27.509  31.897  1.00  0.00     0.029 A 
ATOM     59  N   UNL A   1      40.479  27.697  31.325  1.00  0.00    -0.354 N 
ATOM     60  N   UNL A   1      42.782  31.362  31.842  1.00  0.00    -0.248 NA
ATOM     61  C   UNL A   1      43.190  30.578  29.687  1.00  0.00     0.031 C 
ATOM     62  C   UNL A   1      39.054  28.340  32.836  1.00  0.00     0.029 A 
ATOM     63  C   UNL A   1      40.322  28.624  32.325  1.00  0.00     0.049 A 
ATOM     64  H   UNL A   1      41.330  27.302  31.027  1.00  0.00     0.167 HD
ATOM     65  C   UNL A   1      42.245  30.088  31.752  1.00  0.00     0.074 A 
ATOM     66  C   UNL A   1      42.637  29.612  30.426  1.00  0.00     0.031 C 
ATOM     67  C   UNL A   1      41.295  29.655  32.635  1.00  0.00     0.034 A 
BRANCH  54  68
ATOM     68  C   UNL A   1      39.953  26.624  28.453  1.00  0.00     0.023 A 
ATOM     69  C   UNL A   1      41.062  27.296  27.900  1.00  0.00     0.031 A 
ATOM     70  C   UNL A   1      39.641  25.385  27.851  1.00  0.00     0.131 A 
ATOM     71  C   UNL A   1      41.660  26.854  26.708  1.00  0.00     0.055 A 
ATOM     72  C   UNL A   1      40.294  24.907  26.708  1.00  0.00     0.041 A 
ATOM     73  F   UNL A   1      38.653  24.592  28.275  1.00  0.00    -0.206 F 
ATOM     74  C   UNL A   1      41.275  25.667  26.098  1.00  0.00     0.022 A 
BRANCH  71  75
ATOM     75  S   UNL A   1      42.780  27.992  25.857  1.00  0.00     0.124 S 
ATOM     76  O   UNL A   1      43.432  28.641  26.990  1.00  0.00    -0.237 OA
ATOM     77  O   UNL A   1      43.603  27.074  25.077  1.00  0.00    -0.237 OA
ATOM     78  O   UNL A   1      41.877  28.838  25.081  1.00  0.00    -0.744 OA
ENDBRANCH  71  75
ENDBRANCH  54  68
BRANCH  55  79
ATOM     79  C   UNL A   1      43.842  33.891  29.393  1.00  0.00     0.023 A 
ATOM     80  C   UNL A   1      44.350  33.606  28.109  1.00  0.00     0.031 A 
ATOM     81  C   UNL A   1      44.169  35.155  29.937  1.00  0.00     0.131 A 
ATOM     82  C   UNL A   1      45.138  34.562  27.427  1.00  0.00     0.055 A 
ATOM     83  C   UNL A   1      44.955  36.092  29.263  1.00  0.00     0.041 A 
ATOM     84  F   UNL A   1      43.663  35.559  31.114  1.00  0.00    -0.206 F 
ATOM     85  C   UNL A   1      45.434  35.802  27.996  1.00  0.00     0.022 A 
BRANCH  82  86
ATOM     86  S   UNL A   1      45.703  34.245  25.723  1.00  0.00     0.124 S 
ATOM     87  O   UNL A   1      45.973  32.812  25.748  1.00  0.00    -0.237 OA
ATOM     88  O   UNL A   1      44.558  34.677  24.928  1.00  0.00    -0.237 OA
ATOM     89  O   UNL A   1      46.888  35.092  25.594  1.00  0.00    -0.744 OA
ENDBRANCH  82  86
ENDBRANCH  55  79
BRANCH  67  90
ATOM     90  C   UNL A   1      41.096  30.420  33.928  1.00  0.00     0.023 A 
ATOM     91  C   UNL A   1      40.072  31.365  34.169  1.00  0.00     0.031 A 
ATOM     92  C   UNL A   1      41.936  30.086  35.006  1.00  0.00     0.131 A 
ATOM     93  C   UNL A   1      39.932  31.944  35.446  1.00  0.00     0.055 A 
ATOM     94  C   UNL A   1      41.783  30.645  36.273  1.00  0.00     0.041 A 
ATOM     95  F   UNL A   1      42.913  29.175  34.853  1.00  0.00    -0.206 F 
ATOM     96  C   UNL A   1      40.784  31.584  36.497  1.00  0.00     0.022 A 
BRANCH  93  97
ATOM     97  S   UNL A   1      38.652  33.200  35.767  1.00  0.00     0.124 S 
ATOM     98  O   UNL A   1      37.494  32.417  36.180  1.00  0.00    -0.237 OA
ATOM     99  O   UNL A   1      39.270  34.024  36.803  1.00  0.00    -0.237 OA
ATOM    100  O   UNL A   1      38.503  33.869  34.472  1.00  0.00    -0.744 OA
ENDBRANCH  93  97
ENDBRANCH  67  90
ENDBRANCH  41  42
ENDBRANCH  33  36
ENDBRANCH  31  32
ENDBRANCH  30  31
ENDBRANCH   1  30
TORSDOF 18
ENDMDL
MODEL 3
REMARK VINA RESULT:     -12.6      1.464      2.082
REMARK SMILES CCn1c(CC2CC[NH+](Cc3cn[nH]c3C(=O)NCCCNC(=O)c3ccc(-c4c5nc(c(-c6cc(S(=O)(=O)[O-])ccc6F)c6ccc([nH]6)c(-c6cc(S(=O)(=O)[O-])ccc6F)c6nc(c(-c7cc(S(=O)(=O)[O-])ccc7F)c7ccc4[nH]7)C=C6)C=C5)cc3)CC2)nn(C)c1=O
REMARK SMILES IDX 19 1 18 2 16 3 17 4 15 6 11 7 12 8 13 9 14 10 10 12 9 13
REMARK SMILES IDX 6 14 7 15 89 16 8 17 88 18 5 20 4 21 3 22 93 23 90 24 91 25
REMARK SMILES IDX 94 26 92 27 2 28 1 29 20 30 21 31 22 32 23 33 24 35 25 36
REMARK SMILES IDX 26 37 87 38 27 39 86 40 28 41 29 42 30 43 80 44 31 45 85 46
REMARK SMILES IDX 79 47 81 48 32 49 84 50 78 51 77 52 33 54 65 55 45 56 64 57
REMARK SMILES IDX 46 58 49 59 63 60 82 61 47 62 48 63 62 65 83 66 50 67 34 68
REMARK SMILES IDX 35 69 43 70 36 71 42 72 44 73 41 74 37 75 38 76 39 77 40 78
REMARK SMILES IDX 66 79 67 80 75 81 68 82 74 83 76 84 73 85 69 86 70 87 71 88
REMARK SMILES IDX 72 89 51 90 52 91 60 92 53 93 59 94 61 95 58 96 54 97 55 98
REMARK SMILES IDX 56 99 57 100
REMARK H PARENT 18 5 14 11 9 19 22 34 81 53 49 64
REMARK Flexibility Score: inf
ROOT
ATOM      1  C   UNL A   1      32.626  29.827  26.299  1.00  0.00     0.118 C 
ENDROOT
BRANCH   1   2
ATOM      2  N   UNL A   1      33.500  29.519  25.186  1.00  0.00    -0.351 N 
ATOM      3  C   UNL A   1      33.368  28.747  24.068  1.00  0.00     0.269 C 
ATOM      4  O   UNL A   1      34.342  28.759  23.310  1.00  0.00    -0.268 OA
ATOM      5  H   UNL A   1      34.377  29.961  25.249  1.00  0.00     0.163 HD
BRANCH   3   6
ATOM      6  C   UNL A   1      32.178  28.017  23.692  1.00  0.00     0.131 A 
ATOM      7  C   UNL A   1      31.128  27.292  24.261  1.00  0.00     0.057 A 
ATOM      8  C   UNL A   1      30.313  26.942  23.153  1.00  0.00     0.145 A 
ATOM      9  N   UNL A   1      30.813  27.323  21.985  1.00  0.00    -0.183 NA
ATOM     10  N   UNL A   1      31.980  27.878  22.330  1.00  0.00    -0.272 N 
ATOM     11  H   UNL A   1      32.646  28.166  21.665  1.00  0.00     0.190 HD
BRANCH   7  12
ATOM     12  C   UNL A   1      30.763  26.894  25.653  1.00  0.00     0.303 C 
BRANCH  12  13
ATOM     13  N   UNL A   1      31.349  25.630  26.138  1.00  0.00    -0.331 N 
ATOM     14  C   UNL A   1      32.224  22.797  26.191  1.00  0.00     0.008 C 
ATOM     15  C   UNL A   1      30.903  23.262  26.819  1.00  0.00     0.065 C 
ATOM     16  C   UNL A   1      33.189  23.978  26.096  1.00  0.00     0.065 C 
ATOM     17  C   UNL A   1      30.342  24.573  26.255  1.00  0.00     0.262 C 
ATOM     18  C   UNL A   1      32.550  25.192  25.432  1.00  0.00     0.262 C 
ATOM     19  H   UNL A   1      31.686  25.842  27.077  1.00  0.00     0.348 HD
BRANCH  14  20
ATOM     20  C   UNL A   1      32.094  21.976  24.889  1.00  0.00     0.081 C 
BRANCH  20  21
ATOM     21  C   UNL A   1      32.736  20.610  24.831  1.00  0.00     0.133 A 
ATOM     22  N   UNL A   1      34.050  20.399  24.603  1.00  0.00    -0.279 N 
ATOM     23  C   UNL A   1      34.225  19.031  24.676  1.00  0.00     0.345 A 
ATOM     24  N   UNL A   1      32.040  19.526  25.034  1.00  0.00    -0.155 NA
ATOM     25  N   UNL A   1      32.955  18.513  24.913  1.00  0.00    -0.216 N 
ATOM     26  O   UNL A   1      35.277  18.416  24.604  1.00  0.00    -0.246 OA
ATOM     27  C   UNL A   1      32.619  17.129  25.092  1.00  0.00     0.179 C 
BRANCH  22  28
ATOM     28  C   UNL A   1      35.173  21.316  24.495  1.00  0.00     0.125 C 
ATOM     29  C   UNL A   1      36.088  21.315  25.711  1.00  0.00     0.028 C 
ENDBRANCH  22  28
ENDBRANCH  20  21
ENDBRANCH  14  20
ENDBRANCH  12  13
ENDBRANCH   7  12
ENDBRANCH   3   6
ENDBRANCH   1   2
BRANCH   1  30
ATOM     30  C   UNL A   1      33.079  31.114  26.999  1.00  0.00     0.042 C 
BRANCH  30  31
ATOM     31  C   UNL A   1      34.424  31.019  27.683  1.00  0.00     0.118 C 
BRANCH  31  32
ATOM     32  N   UNL A   1      34.502  31.842  28.883  1.00  0.00    -0.352 N 
ATOM     33  C   UNL A   1      35.474  31.792  29.873  1.00  0.00     0.251 C 
ATOM     34  H   UNL A   1      33.786  32.507  29.006  1.00  0.00     0.163 HD
ATOM     35  O   UNL A   1      35.278  32.247  30.975  1.00  0.00    -0.269 OA
BRANCH  33  36
ATOM     36  C   UNL A   1      36.746  31.133  29.514  1.00  0.00     0.039 A 
ATOM     37  C   UNL A   1      37.956  31.815  29.644  1.00  0.00     0.014 A 
ATOM     38  C   UNL A   1      36.706  29.765  29.257  1.00  0.00     0.014 A 
ATOM     39  C   UNL A   1      39.137  31.078  29.641  1.00  0.00     0.010 A 
ATOM     40  C   UNL A   1      37.858  29.030  29.410  1.00  0.00     0.010 A 
ATOM     41  C   UNL A   1      39.084  29.674  29.579  1.00  0.00    -0.014 A 
BRANCH  41  42
ATOM     42  C   UNL A   1      40.276  28.869  29.860  1.00  0.00     0.031 A 
ATOM     43  C   UNL A   1      40.507  28.560  31.299  1.00  0.00     0.074 A 
ATOM     44  C   UNL A   1      41.006  28.237  28.918  1.00  0.00     0.049 A 
ATOM     45  N   UNL A   1      41.379  29.096  32.087  1.00  0.00    -0.248 NA
ATOM     46  C   UNL A   1      39.562  27.668  31.990  1.00  0.00     0.031 C 
ATOM     47  C   UNL A   1      40.752  28.167  27.475  1.00  0.00     0.029 A 
ATOM     48  N   UNL A   1      42.081  27.411  29.071  1.00  0.00    -0.354 N 
ATOM     49  C   UNL A   1      41.292  28.393  33.285  1.00  0.00     0.074 A 
ATOM     50  C   UNL A   1      40.014  27.736  33.245  1.00  0.00     0.031 C 
ATOM     51  C   UNL A   1      41.478  27.168  26.933  1.00  0.00     0.029 A 
ATOM     52  C   UNL A   1      42.388  26.659  27.940  1.00  0.00     0.049 A 
ATOM     53  H   UNL A   1      42.595  27.352  29.908  1.00  0.00     0.167 HD
ATOM     54  C   UNL A   1      42.399  28.183  34.056  1.00  0.00     0.034 A 
ATOM     55  C   UNL A   1      43.325  25.684  27.819  1.00  0.00     0.034 A 
ATOM     56  C   UNL A   1      43.490  29.046  33.629  1.00  0.00     0.049 A 
ATOM     57  C   UNL A   1      44.339  25.937  28.870  1.00  0.00     0.074 A 
ATOM     58  C   UNL A   1      43.629  30.408  33.422  1.00  0.00     0.029 A 
ATOM     59  N   UNL A   1      44.551  28.475  32.955  1.00  0.00    -0.354 N 
ATOM     60  N   UNL A   1      45.096  27.000  28.890  1.00  0.00    -0.248 NA
ATOM     61  C   UNL A   1      44.195  25.261  30.150  1.00  0.00     0.031 C 
ATOM     62  C   UNL A   1      44.408  30.519  32.230  1.00  0.00     0.029 A 
ATOM     63  C   UNL A   1      44.790  29.235  31.839  1.00  0.00     0.049 A 
ATOM     64  H   UNL A   1      45.045  27.668  33.226  1.00  0.00     0.167 HD
ATOM     65  C   UNL A   1      45.138  27.382  30.221  1.00  0.00     0.074 A 
ATOM     66  C   UNL A   1      44.673  26.209  30.959  1.00  0.00     0.031 C 
ATOM     67  C   UNL A   1      45.266  28.696  30.578  1.00  0.00     0.034 A 
BRANCH  54  68
ATOM     68  C   UNL A   1      42.662  26.936  34.891  1.00  0.00     0.023 A 
ATOM     69  C   UNL A   1      43.539  25.984  34.332  1.00  0.00     0.031 A 
ATOM     70  C   UNL A   1      41.903  26.479  35.991  1.00  0.00     0.131 A 
ATOM     71  C   UNL A   1      43.488  24.634  34.717  1.00  0.00     0.055 A 
ATOM     72  C   UNL A   1      41.915  25.148  36.425  1.00  0.00     0.041 A 
ATOM     73  F   UNL A   1      41.057  27.258  36.671  1.00  0.00    -0.206 F 
ATOM     74  C   UNL A   1      42.671  24.204  35.754  1.00  0.00     0.022 A 
BRANCH  71  75
ATOM     75  S   UNL A   1      44.337  23.428  33.669  1.00  0.00     0.124 S 
ATOM     76  O   UNL A   1      45.525  24.182  33.282  1.00  0.00    -0.237 OA
ATOM     77  O   UNL A   1      44.547  22.322  34.596  1.00  0.00    -0.237 OA
ATOM     78  O   UNL A   1      43.376  23.175  32.599  1.00  0.00    -0.744 OA
ENDBRANCH  71  75
ENDBRANCH  54  68
BRANCH  55  79
ATOM     79  C   UNL A   1      43.246  24.447  26.999  1.00  0.00     0.023 A 
ATOM     80  C   UNL A   1      42.275  23.448  27.216  1.00  0.00     0.031 A 
ATOM     81  C   UNL A   1      44.006  24.345  25.809  1.00  0.00     0.131 A 
ATOM     82  C   UNL A   1      42.093  22.415  26.267  1.00  0.00     0.055 A 
ATOM     83  C   UNL A   1      43.827  23.318  24.880  1.00  0.00     0.041 A 
ATOM     84  F   UNL A   1      44.893  25.293  25.466  1.00  0.00    -0.206 F 
ATOM     85  C   UNL A   1      42.859  22.353  25.101  1.00  0.00     0.022 A 
BRANCH  82  86
ATOM     86  S   UNL A   1      40.765  21.187  26.486  1.00  0.00     0.124 S 
ATOM     87  O   UNL A   1      39.604  21.886  25.949  1.00  0.00    -0.237 OA
ATOM     88  O   UNL A   1      41.256  20.052  25.712  1.00  0.00    -0.237 OA
ATOM     89  O   UNL A   1      40.737  20.970  27.933  1.00  0.00    -0.744 OA
ENDBRANCH  82  86
ENDBRANCH  55  79
BRANCH  67  90
ATOM     90  C   UNL A   1      45.732  29.695  29.536  1.00  0.00     0.023 A 
ATOM     91  C   UNL A   1      44.902  30.329  28.585  1.00  0.00     0.031 A 
ATOM     92  C   UNL A   1      47.079  30.095  29.593  1.00  0.00     0.131 A 
ATOM     93  C   UNL A   1      45.436  31.313  27.727  1.00  0.00     0.055 A 
ATOM     94  C   UNL A   1      47.600  31.082  28.757  1.00  0.00     0.041 A 
ATOM     95  F   UNL A   1      47.917  29.551  30.492  1.00  0.00    -0.206 F 
ATOM     96  C   UNL A   1      46.781  31.690  27.814  1.00  0.00     0.022 A 
BRANCH  93  97
ATOM     97  S   UNL A   1      44.397  32.109  26.459  1.00  0.00     0.124 S 
ATOM     98  O   UNL A   1      43.437  31.073  26.098  1.00  0.00    -0.237 OA
ATOM     99  O   UNL A   1      43.855  33.262  27.175  1.00  0.00    -0.237 OA
ATOM    100  O   UNL A   1      45.354  32.448  25.403  1.00  0.00    -0.744 OA
ENDBRANCH  93  97
ENDBRANCH  67  90
ENDBRANCH  41  42
ENDBRANCH  33  36
ENDBRANCH  31  32
ENDBRANCH  30  31
ENDBRANCH   1  30
TORSDOF 18
ENDMDL
