MODEL 1
REMARK VINA RESULT:     -11.3      0.000      0.000
REMARK SMILES C[C@H]1[NH2+]CC[C@H]1C(=O)N1CC(C(=O)NCCCNC(=O)c2ccc(-c3c4nc(c(-c5cc(S(=O)(=O)[O-])ccc5F)c5ccc([nH]5)c(-c5cc(S(=O)(=O)[O-])ccc5F)c5nc(c(-c6cc(S(=O)(=O)[O-])ccc6F)c6ccc3[nH]6)C=C5)C=C4)cc2)C1
REMARK SMILES IDX 17 1 16 2 15 3 14 4 12 5 13 6 11 8 7 9 8 10 9 11 10 12 84 13
REMARK SMILES IDX 6 14 1 15 2 16 3 17 4 18 5 21 18 22 19 23 20 25 21 26 22 27
REMARK SMILES IDX 83 28 23 29 82 30 24 31 25 32 26 33 76 34 27 35 81 36 75 37
REMARK SMILES IDX 77 38 28 39 80 40 74 41 73 42 29 44 61 45 41 46 60 47 42 48
REMARK SMILES IDX 45 49 59 50 78 51 43 52 44 53 58 55 79 56 46 57 30 58 31 59
REMARK SMILES IDX 39 60 32 61 38 62 40 63 37 64 33 65 34 66 35 67 36 68 62 69
REMARK SMILES IDX 63 70 71 71 64 72 70 73 72 74 69 75 65 76 66 77 67 78 68 79
REMARK SMILES IDX 47 80 48 81 56 82 49 83 55 84 57 85 54 86 50 87 51 88 52 89
REMARK SMILES IDX 53 90
REMARK H PARENT 14 7 3 19 3 20 18 24 77 43 45 54
REMARK Flexibility Score: inf
ROOT
ATOM      1  C   UNL A   1      33.337  29.413  26.705  1.00  0.00     0.118 C 
ENDROOT
BRANCH   1   2
ATOM      2  C   UNL A   1      32.091  28.760  27.294  1.00  0.00     0.042 C 
BRANCH   2   3
ATOM      3  C   UNL A   1      31.333  27.859  26.326  1.00  0.00     0.117 C 
BRANCH   3   4
ATOM      4  N   UNL A   1      31.104  26.527  26.857  1.00  0.00    -0.356 N 
ATOM      5  C   UNL A   1      31.574  25.297  26.461  1.00  0.00     0.226 C 
ATOM      6  O   UNL A   1      31.219  24.337  27.160  1.00  0.00    -0.275 OA
ATOM      7  H   UNL A   1      30.506  26.499  27.639  1.00  0.00     0.163 HD
BRANCH   5   8
ATOM      8  C   UNL A   1      32.461  25.108  25.228  1.00  0.00     0.117 C 
ATOM      9  C   UNL A   1      34.692  23.358  23.560  1.00  0.00     0.231 C 
ATOM     10  O   UNL A   1      34.627  23.954  22.484  1.00  0.00    -0.274 OA
ATOM     11  N   UNL A   1      33.814  23.618  24.595  1.00  0.00    -0.341 N 
ATOM     12  C   UNL A   1      32.374  23.870  24.352  1.00  0.00     0.134 C 
ATOM     13  C   UNL A   1      33.939  24.838  25.418  1.00  0.00     0.134 C 
BRANCH   9  14
ATOM     14  C   UNL A   1      35.712  22.251  23.795  1.00  0.00     0.142 C 
ATOM     15  C   UNL A   1      37.238  23.654  25.391  1.00  0.00     0.076 C 
ATOM     16  C   UNL A   1      37.114  22.627  24.271  1.00  0.00     0.192 C 
ATOM     17  N   UNL A   1      37.671  21.338  24.720  1.00  0.00    -0.343 N 
ATOM     18  C   UNL A   1      36.570  20.475  25.152  1.00  0.00     0.261 C 
ATOM     19  H   UNL A   1      38.310  21.494  25.500  1.00  0.00     0.346 HD
ATOM     20  H   UNL A   1      38.181  20.895  23.956  1.00  0.00     0.346 HD
ATOM     21  C   UNL A   1      35.276  21.180  24.782  1.00  0.00     0.081 C 
ENDBRANCH   9  14
ENDBRANCH   5   8
ENDBRANCH   3   4
ENDBRANCH   2   3
ENDBRANCH   1   2
BRANCH   1  22
ATOM     22  N   UNL A   1      33.468  30.815  27.073  1.00  0.00    -0.352 N 
ATOM     23  C   UNL A   1      34.413  31.449  27.843  1.00  0.00     0.251 C 
ATOM     24  H   UNL A   1      32.766  31.404  26.713  1.00  0.00     0.163 HD
ATOM     25  O   UNL A   1      34.218  32.616  28.182  1.00  0.00    -0.269 OA
BRANCH  23  26
ATOM     26  C   UNL A   1      35.633  30.740  28.285  1.00  0.00     0.039 A 
ATOM     27  C   UNL A   1      36.858  31.071  27.698  1.00  0.00     0.014 A 
ATOM     28  C   UNL A   1      35.579  29.740  29.260  1.00  0.00     0.014 A 
ATOM     29  C   UNL A   1      38.031  30.456  28.142  1.00  0.00     0.010 A 
ATOM     30  C   UNL A   1      36.758  29.193  29.763  1.00  0.00     0.010 A 
ATOM     31  C   UNL A   1      37.999  29.545  29.210  1.00  0.00    -0.014 A 
BRANCH  31  32
ATOM     32  C   UNL A   1      39.249  28.959  29.765  1.00  0.00     0.031 A 
ATOM     33  C   UNL A   1      39.926  29.595  30.950  1.00  0.00     0.074 A 
ATOM     34  C   UNL A   1      39.808  27.891  29.163  1.00  0.00     0.049 A 
ATOM     35  N   UNL A   1      41.056  29.276  31.527  1.00  0.00    -0.248 NA
ATOM     36  C   UNL A   1      39.257  30.763  31.543  1.00  0.00     0.031 C 
ATOM     37  C   UNL A   1      39.269  27.208  27.984  1.00  0.00     0.029 A 
ATOM     38  N   UNL A   1      40.956  27.194  29.450  1.00  0.00    -0.354 N 
ATOM     39  C   UNL A   1      41.240  30.210  32.543  1.00  0.00     0.074 A 
ATOM     40  C   UNL A   1      40.138  31.143  32.454  1.00  0.00     0.031 C 
ATOM     41  C   UNL A   1      40.068  26.177  27.669  1.00  0.00     0.029 A 
ATOM     42  C   UNL A   1      41.204  26.154  28.582  1.00  0.00     0.049 A 
ATOM     43  H   UNL A   1      41.548  27.418  30.204  1.00  0.00     0.167 HD
ATOM     44  C   UNL A   1      42.224  30.268  33.475  1.00  0.00     0.034 A 
ATOM     45  C   UNL A   1      42.237  25.290  28.519  1.00  0.00     0.034 A 
ATOM     46  C   UNL A   1      43.314  29.324  33.549  1.00  0.00     0.049 A 
ATOM     47  C   UNL A   1      43.341  25.397  29.541  1.00  0.00     0.074 A 
ATOM     48  C   UNL A   1      44.333  29.257  34.484  1.00  0.00     0.029 A 
ATOM     49  N   UNL A   1      43.538  28.290  32.648  1.00  0.00    -0.354 N 
ATOM     50  N   UNL A   1      43.473  26.254  30.527  1.00  0.00    -0.248 NA
ATOM     51  C   UNL A   1      44.428  24.415  29.446  1.00  0.00     0.031 C 
ATOM     52  C   UNL A   1      45.215  28.241  34.102  1.00  0.00     0.029 A 
ATOM     53  C   UNL A   1      44.699  27.608  32.983  1.00  0.00     0.049 A 
ATOM     54  H   UNL A   1      42.957  28.074  31.884  1.00  0.00     0.167 HD
ATOM     55  C   UNL A   1      44.642  25.890  31.191  1.00  0.00     0.074 A 
ATOM     56  C   UNL A   1      45.167  24.730  30.500  1.00  0.00     0.031 C 
ATOM     57  C   UNL A   1      45.223  26.459  32.279  1.00  0.00     0.034 A 
BRANCH  44  58
ATOM     58  C   UNL A   1      42.177  31.409  34.466  1.00  0.00     0.023 A 
ATOM     59  C   UNL A   1      41.240  31.441  35.514  1.00  0.00     0.031 A 
ATOM     60  C   UNL A   1      43.063  32.495  34.347  1.00  0.00     0.131 A 
ATOM     61  C   UNL A   1      41.151  32.571  36.341  1.00  0.00     0.055 A 
ATOM     62  C   UNL A   1      43.030  33.575  35.232  1.00  0.00     0.041 A 
ATOM     63  F   UNL A   1      43.967  32.535  33.355  1.00  0.00    -0.206 F 
ATOM     64  C   UNL A   1      42.058  33.627  36.226  1.00  0.00     0.022 A 
BRANCH  61  65
ATOM     65  S   UNL A   1      39.727  32.715  37.458  1.00  0.00     0.124 S 
ATOM     66  O   UNL A   1      39.137  33.977  37.021  1.00  0.00    -0.237 OA
ATOM     67  O   UNL A   1      38.964  31.512  37.150  1.00  0.00    -0.237 OA
ATOM     68  O   UNL A   1      40.335  32.747  38.786  1.00  0.00    -0.744 OA
ENDBRANCH  61  65
ENDBRANCH  44  58
BRANCH  45  69
ATOM     69  C   UNL A   1      42.289  24.256  27.444  1.00  0.00     0.023 A 
ATOM     70  C   UNL A   1      41.690  22.999  27.618  1.00  0.00     0.031 A 
ATOM     71  C   UNL A   1      42.967  24.501  26.236  1.00  0.00     0.131 A 
ATOM     72  C   UNL A   1      41.820  22.019  26.621  1.00  0.00     0.055 A 
ATOM     73  C   UNL A   1      43.043  23.544  25.224  1.00  0.00     0.041 A 
ATOM     74  F   UNL A   1      43.554  25.689  26.015  1.00  0.00    -0.206 F 
ATOM     75  C   UNL A   1      42.478  22.287  25.419  1.00  0.00     0.022 A 
BRANCH  72  76
ATOM     76  S   UNL A   1      41.186  20.352  26.955  1.00  0.00     0.124 S 
ATOM     77  O   UNL A   1      40.884  20.430  28.379  1.00  0.00    -0.237 OA
ATOM     78  O   UNL A   1      40.039  20.279  26.057  1.00  0.00    -0.237 OA
ATOM     79  O   UNL A   1      42.309  19.485  26.601  1.00  0.00    -0.744 OA
ENDBRANCH  72  76
ENDBRANCH  45  69
BRANCH  57  80
ATOM     80  C   UNL A   1      46.471  25.801  32.817  1.00  0.00     0.023 A 
ATOM     81  C   UNL A   1      47.742  26.058  32.275  1.00  0.00     0.031 A 
ATOM     82  C   UNL A   1      46.383  24.896  33.892  1.00  0.00     0.131 A 
ATOM     83  C   UNL A   1      48.864  25.375  32.769  1.00  0.00     0.055 A 
ATOM     84  C   UNL A   1      47.512  24.271  34.423  1.00  0.00     0.041 A 
ATOM     85  F   UNL A   1      45.195  24.607  34.446  1.00  0.00    -0.206 F 
ATOM     86  C   UNL A   1      48.761  24.499  33.853  1.00  0.00     0.022 A 
BRANCH  83  87
ATOM     87  S   UNL A   1      50.451  25.568  31.911  1.00  0.00     0.124 S 
ATOM     88  O   UNL A   1      51.366  25.813  33.020  1.00  0.00    -0.237 OA
ATOM     89  O   UNL A   1      50.599  24.283  31.236  1.00  0.00    -0.237 OA
ATOM     90  O   UNL A   1      50.227  26.710  31.026  1.00  0.00    -0.744 OA
ENDBRANCH  83  87
ENDBRANCH  57  80
ENDBRANCH  31  32
ENDBRANCH  23  26
ENDBRANCH   1  22
TORSDOF 14
ENDMDL
MODEL 2
REMARK VINA RESULT:     -11.2      1.939      2.446
REMARK SMILES C[C@H]1[NH2+]CC[C@H]1C(=O)N1CC(C(=O)NCCCNC(=O)c2ccc(-c3c4nc(c(-c5cc(S(=O)(=O)[O-])ccc5F)c5ccc([nH]5)c(-c5cc(S(=O)(=O)[O-])ccc5F)c5nc(c(-c6cc(S(=O)(=O)[O-])ccc6F)c6ccc3[nH]6)C=C5)C=C4)cc2)C1
REMARK SMILES IDX 17 1 16 2 15 3 14 4 12 5 13 6 11 8 7 9 8 10 9 11 10 12 84 13
REMARK SMILES IDX 6 14 1 15 2 16 3 17 4 18 5 21 18 22 19 23 20 25 21 26 22 27
REMARK SMILES IDX 83 28 23 29 82 30 24 31 25 32 26 33 76 34 27 35 81 36 75 37
REMARK SMILES IDX 77 38 28 39 80 40 74 41 73 42 29 44 61 45 41 46 60 47 42 48
REMARK SMILES IDX 45 49 59 50 78 51 43 52 44 53 58 55 79 56 46 57 30 58 31 59
REMARK SMILES IDX 39 60 32 61 38 62 40 63 37 64 33 65 34 66 35 67 36 68 62 69
REMARK SMILES IDX 63 70 71 71 64 72 70 73 72 74 69 75 65 76 66 77 67 78 68 79
REMARK SMILES IDX 47 80 48 81 56 82 49 83 55 84 57 85 54 86 50 87 51 88 52 89
REMARK SMILES IDX 53 90
REMARK H PARENT 14 7 3 19 3 20 18 24 77 43 45 54
REMARK Flexibility Score: inf
ROOT
ATOM      1  C   UNL A   1      33.971  28.704  26.162  1.00  0.00     0.118 C 
ENDROOT
BRANCH   1   2
ATOM      2  C   UNL A   1      32.783  27.780  26.405  1.00  0.00     0.042 C 
BRANCH   2   3
ATOM      3  C   UNL A   1      33.035  26.320  26.047  1.00  0.00     0.117 C 
BRANCH   3   4
ATOM      4  N   UNL A   1      32.032  25.423  26.594  1.00  0.00    -0.356 N 
ATOM      5  C   UNL A   1      32.016  24.056  26.736  1.00  0.00     0.226 C 
ATOM      6  O   UNL A   1      31.011  23.587  27.289  1.00  0.00    -0.275 OA
ATOM      7  H   UNL A   1      31.221  25.874  26.922  1.00  0.00     0.163 HD
BRANCH   5   8
ATOM      8  C   UNL A   1      33.147  23.158  26.230  1.00  0.00     0.117 C 
ATOM      9  C   UNL A   1      34.180  20.280  25.018  1.00  0.00     0.231 C 
ATOM     10  O   UNL A   1      35.327  20.610  24.710  1.00  0.00    -0.274 OA
ATOM     11  N   UNL A   1      33.245  21.201  25.451  1.00  0.00    -0.341 N 
ATOM     12  C   UNL A   1      33.134  22.546  24.840  1.00  0.00     0.134 C 
ATOM     13  C   UNL A   1      33.302  21.768  26.813  1.00  0.00     0.134 C 
BRANCH   9  14
ATOM     14  C   UNL A   1      33.706  18.838  24.884  1.00  0.00     0.142 C 
ATOM     15  C   UNL A   1      32.289  19.241  22.723  1.00  0.00     0.076 C 
ATOM     16  C   UNL A   1      32.446  18.546  24.069  1.00  0.00     0.192 C 
ATOM     17  N   UNL A   1      32.510  17.088  23.867  1.00  0.00    -0.343 N 
ATOM     18  C   UNL A   1      33.914  16.671  23.887  1.00  0.00     0.261 C 
ATOM     19  H   UNL A   1      32.095  16.848  22.967  1.00  0.00     0.346 HD
ATOM     20  H   UNL A   1      31.997  16.611  24.608  1.00  0.00     0.346 HD
ATOM     21  C   UNL A   1      34.735  17.880  24.304  1.00  0.00     0.081 C 
ENDBRANCH   9  14
ENDBRANCH   5   8
ENDBRANCH   3   4
ENDBRANCH   2   3
ENDBRANCH   1   2
BRANCH   1  22
ATOM     22  N   UNL A   1      33.705  30.082  26.551  1.00  0.00    -0.352 N 
ATOM     23  C   UNL A   1      34.348  30.891  27.455  1.00  0.00     0.251 C 
ATOM     24  H   UNL A   1      32.941  30.500  26.092  1.00  0.00     0.163 HD
ATOM     25  O   UNL A   1      33.829  31.964  27.766  1.00  0.00    -0.269 OA
BRANCH  23  26
ATOM     26  C   UNL A   1      35.627  30.477  28.072  1.00  0.00     0.039 A 
ATOM     27  C   UNL A   1      35.597  29.756  29.270  1.00  0.00     0.014 A 
ATOM     28  C   UNL A   1      36.854  30.807  27.491  1.00  0.00     0.014 A 
ATOM     29  C   UNL A   1      36.790  29.304  29.839  1.00  0.00     0.010 A 
ATOM     30  C   UNL A   1      38.034  30.280  28.011  1.00  0.00     0.010 A 
ATOM     31  C   UNL A   1      38.017  29.522  29.191  1.00  0.00    -0.014 A 
BRANCH  31  32
ATOM     32  C   UNL A   1      39.286  28.959  29.727  1.00  0.00     0.031 A 
ATOM     33  C   UNL A   1      39.967  29.606  30.904  1.00  0.00     0.074 A 
ATOM     34  C   UNL A   1      39.857  27.903  29.116  1.00  0.00     0.049 A 
ATOM     35  N   UNL A   1      41.111  29.309  31.465  1.00  0.00    -0.248 NA
ATOM     36  C   UNL A   1      39.284  30.760  31.508  1.00  0.00     0.031 C 
ATOM     37  C   UNL A   1      39.315  27.211  27.944  1.00  0.00     0.029 A 
ATOM     38  N   UNL A   1      41.022  27.228  29.386  1.00  0.00    -0.354 N 
ATOM     39  C   UNL A   1      41.291  30.244  32.479  1.00  0.00     0.074 A 
ATOM     40  C   UNL A   1      40.170  31.157  32.408  1.00  0.00     0.031 C 
ATOM     41  C   UNL A   1      40.129  26.196  27.616  1.00  0.00     0.029 A 
ATOM     42  C   UNL A   1      41.278  26.194  28.514  1.00  0.00     0.049 A 
ATOM     43  H   UNL A   1      41.620  27.462  30.133  1.00  0.00     0.167 HD
ATOM     44  C   UNL A   1      42.287  30.320  33.398  1.00  0.00     0.034 A 
ATOM     45  C   UNL A   1      42.326  25.350  28.434  1.00  0.00     0.034 A 
ATOM     46  C   UNL A   1      43.396  29.397  33.456  1.00  0.00     0.049 A 
ATOM     47  C   UNL A   1      43.442  25.477  29.441  1.00  0.00     0.074 A 
ATOM     48  C   UNL A   1      44.428  29.349  34.376  1.00  0.00     0.029 A 
ATOM     49  N   UNL A   1      43.627  28.369  32.550  1.00  0.00    -0.354 N 
ATOM     50  N   UNL A   1      43.571  26.335  30.427  1.00  0.00    -0.248 NA
ATOM     51  C   UNL A   1      44.547  24.516  29.330  1.00  0.00     0.031 C 
ATOM     52  C   UNL A   1      45.324  28.350  33.981  1.00  0.00     0.029 A 
ATOM     53  C   UNL A   1      44.805  27.709  32.867  1.00  0.00     0.049 A 
ATOM     54  H   UNL A   1      43.039  28.143  31.793  1.00  0.00     0.167 HD
ATOM     55  C   UNL A   1      44.756  25.993  31.074  1.00  0.00     0.074 A 
ATOM     56  C   UNL A   1      45.293  24.844  30.374  1.00  0.00     0.031 C 
ATOM     57  C   UNL A   1      45.341  26.571  32.154  1.00  0.00     0.034 A 
BRANCH  44  58
ATOM     58  C   UNL A   1      42.232  31.458  34.392  1.00  0.00     0.023 A 
ATOM     59  C   UNL A   1      41.346  31.446  35.484  1.00  0.00     0.031 A 
ATOM     60  C   UNL A   1      43.055  32.588  34.230  1.00  0.00     0.131 A 
ATOM     61  C   UNL A   1      41.242  32.571  36.316  1.00  0.00     0.055 A 
ATOM     62  C   UNL A   1      43.012  33.665  35.117  1.00  0.00     0.041 A 
ATOM     63  F   UNL A   1      43.906  32.671  33.195  1.00  0.00    -0.206 F 
ATOM     64  C   UNL A   1      42.088  33.670  36.158  1.00  0.00     0.022 A 
BRANCH  61  65
ATOM     65  S   UNL A   1      39.870  32.645  37.502  1.00  0.00     0.124 S 
ATOM     66  O   UNL A   1      40.562  32.408  38.767  1.00  0.00    -0.237 OA
ATOM     67  O   UNL A   1      39.351  33.992  37.299  1.00  0.00    -0.237 OA
ATOM     68  O   UNL A   1      38.986  31.563  37.072  1.00  0.00    -0.744 OA
ENDBRANCH  61  65
ENDBRANCH  44  58
BRANCH  45  69
ATOM     69  C   UNL A   1      42.383  24.319  27.357  1.00  0.00     0.023 A 
ATOM     70  C   UNL A   1      41.617  23.145  27.435  1.00  0.00     0.031 A 
ATOM     71  C   UNL A   1      43.231  24.478  26.246  1.00  0.00     0.131 A 
ATOM     72  C   UNL A   1      41.747  22.158  26.446  1.00  0.00     0.055 A 
ATOM     73  C   UNL A   1      43.313  23.520  25.236  1.00  0.00     0.041 A 
ATOM     74  F   UNL A   1      43.983  25.583  26.119  1.00  0.00    -0.206 F 
ATOM     75  C   UNL A   1      42.578  22.343  25.339  1.00  0.00     0.022 A 
BRANCH  72  76
ATOM     76  S   UNL A   1      40.875  20.583  26.672  1.00  0.00     0.124 S 
ATOM     77  O   UNL A   1      39.574  20.878  26.085  1.00  0.00    -0.237 OA
ATOM     78  O   UNL A   1      41.722  19.658  25.926  1.00  0.00    -0.237 OA
ATOM     79  O   UNL A   1      40.880  20.398  28.122  1.00  0.00    -0.744 OA
ENDBRANCH  72  76
ENDBRANCH  45  69
BRANCH  57  80
ATOM     80  C   UNL A   1      46.609  25.937  32.674  1.00  0.00     0.023 A 
ATOM     81  C   UNL A   1      46.589  24.915  33.640  1.00  0.00     0.031 A 
ATOM     82  C   UNL A   1      47.861  26.368  32.196  1.00  0.00     0.131 A 
ATOM     83  C   UNL A   1      47.797  24.400  34.138  1.00  0.00     0.055 A 
ATOM     84  C   UNL A   1      49.056  25.804  32.645  1.00  0.00     0.041 A 
ATOM     85  F   UNL A   1      47.942  27.345  31.278  1.00  0.00    -0.206 F 
ATOM     86  C   UNL A   1      49.029  24.823  33.631  1.00  0.00     0.022 A 
BRANCH  83  87
ATOM     87  S   UNL A   1      47.741  23.239  35.530  1.00  0.00     0.124 S 
ATOM     88  O   UNL A   1      48.821  22.316  35.196  1.00  0.00    -0.237 OA
ATOM     89  O   UNL A   1      47.981  24.111  36.674  1.00  0.00    -0.237 OA
ATOM     90  O   UNL A   1      46.395  22.673  35.453  1.00  0.00    -0.744 OA
ENDBRANCH  83  87
ENDBRANCH  57  80
ENDBRANCH  31  32
ENDBRANCH  23  26
ENDBRANCH   1  22
TORSDOF 14
ENDMDL
MODEL 3
REMARK VINA RESULT:     -11.2      4.817      7.782
REMARK SMILES C[C@H]1[NH2+]CC[C@H]1C(=O)N1CC(C(=O)NCCCNC(=O)c2ccc(-c3c4nc(c(-c5cc(S(=O)(=O)[O-])ccc5F)c5ccc([nH]5)c(-c5cc(S(=O)(=O)[O-])ccc5F)c5nc(c(-c6cc(S(=O)(=O)[O-])ccc6F)c6ccc3[nH]6)C=C5)C=C4)cc2)C1
REMARK SMILES IDX 17 1 16 2 15 3 14 4 12 5 13 6 11 8 7 9 8 10 9 11 10 12 84 13
REMARK SMILES IDX 6 14 1 15 2 16 3 17 4 18 5 21 18 22 19 23 20 25 21 26 22 27
REMARK SMILES IDX 83 28 23 29 82 30 24 31 25 32 26 33 76 34 27 35 81 36 75 37
REMARK SMILES IDX 77 38 28 39 80 40 74 41 73 42 29 44 61 45 41 46 60 47 42 48
REMARK SMILES IDX 45 49 59 50 78 51 43 52 44 53 58 55 79 56 46 57 30 58 31 59
REMARK SMILES IDX 39 60 32 61 38 62 40 63 37 64 33 65 34 66 35 67 36 68 62 69
REMARK SMILES IDX 63 70 71 71 64 72 70 73 72 74 69 75 65 76 66 77 67 78 68 79
REMARK SMILES IDX 47 80 48 81 56 82 49 83 55 84 57 85 54 86 50 87 51 88 52 89
REMARK SMILES IDX 53 90
REMARK H PARENT 14 7 3 19 3 20 18 24 77 43 45 54
REMARK Flexibility Score: inf
ROOT
ATOM      1  C   UNL A   1      36.093  22.000  25.347  1.00  0.00     0.118 C 
ENDROOT
BRANCH   1   2
ATOM      2  C   UNL A   1      34.998  21.825  26.394  1.00  0.00     0.042 C 
BRANCH   2   3
ATOM      3  C   UNL A   1      33.656  21.371  25.835  1.00  0.00     0.117 C 
BRANCH   3   4
ATOM      4  N   UNL A   1      32.543  21.686  26.713  1.00  0.00    -0.356 N 
ATOM      5  C   UNL A   1      31.713  22.780  26.773  1.00  0.00     0.226 C 
ATOM      6  O   UNL A   1      30.816  22.726  27.626  1.00  0.00    -0.275 OA
ATOM      7  H   UNL A   1      32.348  20.993  27.385  1.00  0.00     0.163 HD
BRANCH   5   8
ATOM      8  C   UNL A   1      31.885  24.000  25.865  1.00  0.00     0.117 C 
ATOM      9  C   UNL A   1      32.213  27.251  25.486  1.00  0.00     0.231 C 
ATOM     10  O   UNL A   1      32.522  27.268  24.294  1.00  0.00    -0.274 OA
ATOM     11  N   UNL A   1      32.104  26.071  26.197  1.00  0.00    -0.341 N 
ATOM     12  C   UNL A   1      33.058  24.954  26.007  1.00  0.00     0.134 C 
ATOM     13  C   UNL A   1      30.942  25.175  26.023  1.00  0.00     0.134 C 
BRANCH   9  14
ATOM     14  C   UNL A   1      31.987  28.540  26.266  1.00  0.00     0.142 C 
ATOM     15  C   UNL A   1      34.513  28.955  26.800  1.00  0.00     0.076 C 
ATOM     16  C   UNL A   1      33.059  29.007  27.250  1.00  0.00     0.192 C 
ATOM     17  N   UNL A   1      32.676  30.405  27.521  1.00  0.00    -0.343 N 
ATOM     18  C   UNL A   1      31.965  30.933  26.355  1.00  0.00     0.261 C 
ATOM     19  H   UNL A   1      33.513  30.962  27.693  1.00  0.00     0.346 HD
ATOM     20  H   UNL A   1      32.074  30.447  28.343  1.00  0.00     0.346 HD
ATOM     21  C   UNL A   1      31.733  29.769  25.406  1.00  0.00     0.081 C 
ENDBRANCH   9  14
ENDBRANCH   5   8
ENDBRANCH   3   4
ENDBRANCH   2   3
ENDBRANCH   1   2
BRANCH   1  22
ATOM     22  N   UNL A   1      37.091  20.941  25.390  1.00  0.00    -0.352 N 
ATOM     23  C   UNL A   1      38.440  20.999  25.643  1.00  0.00     0.251 C 
ATOM     24  H   UNL A   1      36.744  20.038  25.207  1.00  0.00     0.163 HD
ATOM     25  O   UNL A   1      39.127  20.000  25.436  1.00  0.00    -0.269 OA
BRANCH  23  26
ATOM     26  C   UNL A   1      39.069  22.247  26.129  1.00  0.00     0.039 A 
ATOM     27  C   UNL A   1      40.206  22.160  26.937  1.00  0.00     0.014 A 
ATOM     28  C   UNL A   1      38.538  23.500  25.810  1.00  0.00     0.014 A 
ATOM     29  C   UNL A   1      40.850  23.326  27.359  1.00  0.00     0.010 A 
ATOM     30  C   UNL A   1      39.231  24.658  26.155  1.00  0.00     0.010 A 
ATOM     31  C   UNL A   1      40.397  24.586  26.934  1.00  0.00    -0.014 A 
BRANCH  31  32
ATOM     32  C   UNL A   1      41.130  25.831  27.286  1.00  0.00     0.031 A 
ATOM     33  C   UNL A   1      40.457  26.904  28.101  1.00  0.00     0.074 A 
ATOM     34  C   UNL A   1      42.379  26.024  26.819  1.00  0.00     0.049 A 
ATOM     35  N   UNL A   1      40.904  28.085  28.445  1.00  0.00    -0.248 NA
ATOM     36  C   UNL A   1      39.091  26.621  28.564  1.00  0.00     0.031 C 
ATOM     37  C   UNL A   1      43.124  25.076  25.987  1.00  0.00     0.029 A 
ATOM     38  N   UNL A   1      43.242  27.081  26.967  1.00  0.00    -0.354 N 
ATOM     39  C   UNL A   1      39.870  28.690  29.153  1.00  0.00     0.074 A 
ATOM     40  C   UNL A   1      38.754  27.770  29.129  1.00  0.00     0.031 C 
ATOM     41  C   UNL A   1      44.339  25.581  25.724  1.00  0.00     0.029 A 
ATOM     42  C   UNL A   1      44.445  26.910  26.318  1.00  0.00     0.049 A 
ATOM     43  H   UNL A   1      43.023  27.887  27.488  1.00  0.00     0.167 HD
ATOM     44  C   UNL A   1      39.863  29.892  29.784  1.00  0.00     0.034 A 
ATOM     45  C   UNL A   1      45.506  27.733  26.200  1.00  0.00     0.034 A 
ATOM     46  C   UNL A   1      40.989  30.796  29.800  1.00  0.00     0.049 A 
ATOM     47  C   UNL A   1      45.460  29.081  26.876  1.00  0.00     0.074 A 
ATOM     48  C   UNL A   1      41.108  32.011  30.452  1.00  0.00     0.029 A 
ATOM     49  N   UNL A   1      42.186  30.592  29.123  1.00  0.00    -0.354 N 
ATOM     50  N   UNL A   1      44.495  29.616  27.586  1.00  0.00    -0.248 NA
ATOM     51  C   UNL A   1      46.652  29.928  26.742  1.00  0.00     0.031 C 
ATOM     52  C   UNL A   1      42.338  32.578  30.104  1.00  0.00     0.029 A 
ATOM     53  C   UNL A   1      43.029  31.677  29.311  1.00  0.00     0.049 A 
ATOM     54  H   UNL A   1      42.402  29.794  28.589  1.00  0.00     0.167 HD
ATOM     55  C   UNL A   1      44.978  30.851  28.012  1.00  0.00     0.074 A 
ATOM     56  C   UNL A   1      46.324  30.972  27.490  1.00  0.00     0.031 C 
ATOM     57  C   UNL A   1      44.367  31.795  28.774  1.00  0.00     0.034 A 
BRANCH  44  58
ATOM     58  C   UNL A   1      38.585  30.305  30.479  1.00  0.00     0.023 A 
ATOM     59  C   UNL A   1      37.600  31.067  29.826  1.00  0.00     0.031 A 
ATOM     60  C   UNL A   1      38.359  29.957  31.823  1.00  0.00     0.131 A 
ATOM     61  C   UNL A   1      36.483  31.529  30.539  1.00  0.00     0.055 A 
ATOM     62  C   UNL A   1      37.200  30.342  32.500  1.00  0.00     0.041 A 
ATOM     63  F   UNL A   1      39.270  29.249  32.509  1.00  0.00    -0.206 F 
ATOM     64  C   UNL A   1      36.262  31.149  31.864  1.00  0.00     0.022 A 
BRANCH  61  65
ATOM     65  S   UNL A   1      35.414  32.771  29.759  1.00  0.00     0.124 S 
ATOM     66  O   UNL A   1      34.791  31.993  28.690  1.00  0.00    -0.237 OA
ATOM     67  O   UNL A   1      34.538  33.165  30.856  1.00  0.00    -0.237 OA
ATOM     68  O   UNL A   1      36.351  33.797  29.308  1.00  0.00    -0.744 OA
ENDBRANCH  61  65
ENDBRANCH  44  58
BRANCH  45  69
ATOM     69  C   UNL A   1      46.695  27.318  25.401  1.00  0.00     0.023 A 
ATOM     70  C   UNL A   1      46.898  27.801  24.099  1.00  0.00     0.031 A 
ATOM     71  C   UNL A   1      47.633  26.406  25.919  1.00  0.00     0.131 A 
ATOM     72  C   UNL A   1      47.985  27.335  23.342  1.00  0.00     0.055 A 
ATOM     73  C   UNL A   1      48.745  25.992  25.183  1.00  0.00     0.041 A 
ATOM     74  F   UNL A   1      47.491  25.916  27.161  1.00  0.00    -0.206 F 
ATOM     75  C   UNL A   1      48.918  26.447  23.880  1.00  0.00     0.022 A 
BRANCH  72  76
ATOM     76  S   UNL A   1      48.115  27.845  21.605  1.00  0.00     0.124 S 
ATOM     77  O   UNL A   1      48.447  26.585  20.951  1.00  0.00    -0.237 OA
ATOM     78  O   UNL A   1      46.780  28.373  21.344  1.00  0.00    -0.237 OA
ATOM     79  O   UNL A   1      49.184  28.841  21.624  1.00  0.00    -0.744 OA
ENDBRANCH  72  76
ENDBRANCH  45  69
BRANCH  57  80
ATOM     80  C   UNL A   1      45.171  33.023  29.127  1.00  0.00     0.023 A 
ATOM     81  C   UNL A   1      45.149  34.183  28.333  1.00  0.00     0.031 A 
ATOM     82  C   UNL A   1      45.980  33.028  30.280  1.00  0.00     0.131 A 
ATOM     83  C   UNL A   1      45.962  35.277  28.670  1.00  0.00     0.055 A 
ATOM     84  C   UNL A   1      46.734  34.144  30.645  1.00  0.00     0.041 A 
ATOM     85  F   UNL A   1      46.047  31.947  31.073  1.00  0.00    -0.206 F 
ATOM     86  C   UNL A   1      46.738  35.272  29.832  1.00  0.00     0.022 A 
BRANCH  83  87
ATOM     87  S   UNL A   1      46.071  36.670  27.514  1.00  0.00     0.124 S 
ATOM     88  O   UNL A   1      46.646  36.038  26.331  1.00  0.00    -0.237 OA
ATOM     89  O   UNL A   1      44.678  37.089  27.397  1.00  0.00    -0.237 OA
ATOM     90  O   UNL A   1      46.948  37.618  28.199  1.00  0.00    -0.744 OA
ENDBRANCH  83  87
ENDBRANCH  57  80
ENDBRANCH  31  32
ENDBRANCH  23  26
ENDBRANCH   1  22
TORSDOF 14
ENDMDL
