MODEL 1
REMARK VINA RESULT:     -11.9      0.000      0.000
REMARK SMILES C[C@@H](CNc1cccc(F)c1C(=O)NCCCNC(=O)c1ccc(-c2c3nc(c(-c4cc(S(=O)(=O)[O-])ccc4F)c4ccc([nH]4)c(-c4cc(S(=O)(=O)[O-])ccc4F)c4nc(c(-c5cc(S(=O)(=O)[O-])ccc5F)c5ccc2[nH]5)C=C4)C=C3)cc1)[NH+]1CCCCC1
REMARK SMILES IDX 15 1 14 2 12 3 13 4 11 6 5 7 6 8 7 9 9 10 8 11 10 12 4 13
REMARK SMILES IDX 3 15 2 16 1 17 84 18 85 19 89 20 86 22 88 23 87 24 16 25
REMARK SMILES IDX 17 26 18 27 19 28 20 30 21 31 22 32 83 33 23 34 82 35 24 36
REMARK SMILES IDX 25 37 26 38 76 39 27 40 81 41 75 42 77 43 28 44 80 45 74 46
REMARK SMILES IDX 73 47 29 49 61 50 41 51 60 52 42 53 45 54 59 55 78 56 43 57
REMARK SMILES IDX 44 58 58 60 79 61 46 62 30 63 31 64 39 65 32 66 38 67 40 68
REMARK SMILES IDX 37 69 33 70 34 71 35 72 36 73 62 74 63 75 71 76 64 77 70 78
REMARK SMILES IDX 72 79 69 80 65 81 66 82 67 83 68 84 47 85 48 86 56 87 49 88
REMARK SMILES IDX 55 89 57 90 54 91 50 92 51 93 52 94 53 95
REMARK H PARENT 14 5 4 14 84 21 18 29 77 48 45 59
REMARK Flexibility Score: inf
ROOT
ATOM      1  C   UNL A   1      31.683  30.334  26.370  1.00  0.00     0.118 C 
ENDROOT
BRANCH   1   2
ATOM      2  N   UNL A   1      32.294  30.031  25.087  1.00  0.00    -0.352 N 
ATOM      3  C   UNL A   1      31.847  29.354  23.981  1.00  0.00     0.256 C 
ATOM      4  O   UNL A   1      32.693  29.111  23.114  1.00  0.00    -0.269 OA
ATOM      5  H   UNL A   1      33.210  30.379  24.995  1.00  0.00     0.163 HD
BRANCH   3   6
ATOM      6  C   UNL A   1      30.415  29.045  23.706  1.00  0.00     0.098 A 
ATOM      7  C   UNL A   1      30.014  27.679  23.661  1.00  0.00     0.050 A 
ATOM      8  C   UNL A   1      28.666  27.387  23.385  1.00  0.00     0.027 A 
ATOM      9  C   UNL A   1      27.731  28.395  23.154  1.00  0.00     0.005 A 
ATOM     10  C   UNL A   1      29.451  30.039  23.518  1.00  0.00     0.138 A 
ATOM     11  C   UNL A   1      28.128  29.723  23.216  1.00  0.00     0.040 A 
ATOM     12  F   UNL A   1      29.742  31.339  23.651  1.00  0.00    -0.206 F 
BRANCH   7  13
ATOM     13  N   UNL A   1      30.934  26.648  23.828  1.00  0.00    -0.378 N 
ATOM     14  H   UNL A   1      31.241  26.456  24.743  1.00  0.00     0.160 HD
BRANCH  13  15
ATOM     15  C   UNL A   1      31.475  25.834  22.750  1.00  0.00     0.177 C 
BRANCH  15  16
ATOM     16  C   UNL A   1      31.928  24.401  23.190  1.00  0.00     0.200 C 
ATOM     17  C   UNL A   1      30.731  23.450  23.334  1.00  0.00     0.077 C 
BRANCH  16  18
ATOM     18  N   UNL A   1      32.883  24.403  24.333  1.00  0.00    -0.331 N 
ATOM     19  C   UNL A   1      32.610  23.372  25.342  1.00  0.00     0.262 C 
ATOM     20  C   UNL A   1      34.284  24.320  23.897  1.00  0.00     0.262 C 
ATOM     21  H   UNL A   1      32.734  25.307  24.781  1.00  0.00     0.348 HD
ATOM     22  C   UNL A   1      33.491  23.546  26.577  1.00  0.00     0.062 C 
ATOM     23  C   UNL A   1      35.243  24.500  25.079  1.00  0.00     0.062 C 
ATOM     24  C   UNL A   1      34.961  23.501  26.196  1.00  0.00     0.012 C 
ENDBRANCH  16  18
ENDBRANCH  15  16
ENDBRANCH  13  15
ENDBRANCH   7  13
ENDBRANCH   3   6
ENDBRANCH   1   2
BRANCH   1  25
ATOM     25  C   UNL A   1      31.558  31.850  26.525  1.00  0.00     0.042 C 
BRANCH  25  26
ATOM     26  C   UNL A   1      32.740  32.465  27.269  1.00  0.00     0.118 C 
BRANCH  26  27
ATOM     27  N   UNL A   1      32.518  33.873  27.562  1.00  0.00    -0.352 N 
ATOM     28  C   UNL A   1      33.074  34.647  28.554  1.00  0.00     0.251 C 
ATOM     29  H   UNL A   1      31.882  34.336  26.970  1.00  0.00     0.163 HD
ATOM     30  O   UNL A   1      32.588  35.742  28.814  1.00  0.00    -0.269 OA
BRANCH  28  31
ATOM     31  C   UNL A   1      34.244  34.146  29.308  1.00  0.00     0.039 A 
ATOM     32  C   UNL A   1      34.038  33.394  30.468  1.00  0.00     0.014 A 
ATOM     33  C   UNL A   1      35.544  34.431  28.878  1.00  0.00     0.014 A 
ATOM     34  C   UNL A   1      35.136  32.884  31.166  1.00  0.00     0.010 A 
ATOM     35  C   UNL A   1      36.631  33.857  29.529  1.00  0.00     0.010 A 
ATOM     36  C   UNL A   1      36.439  33.085  30.685  1.00  0.00    -0.014 A 
BRANCH  36  37
ATOM     37  C   UNL A   1      37.626  32.526  31.382  1.00  0.00     0.031 A 
ATOM     38  C   UNL A   1      38.381  31.379  30.768  1.00  0.00     0.074 A 
ATOM     39  C   UNL A   1      37.982  33.002  32.591  1.00  0.00     0.049 A 
ATOM     40  N   UNL A   1      39.353  30.663  31.271  1.00  0.00    -0.248 NA
ATOM     41  C   UNL A   1      37.962  30.962  29.420  1.00  0.00     0.031 C 
ATOM     42  C   UNL A   1      37.319  34.101  33.297  1.00  0.00     0.029 A 
ATOM     43  N   UNL A   1      38.987  32.619  33.444  1.00  0.00    -0.354 N 
ATOM     44  C   UNL A   1      39.652  29.704  30.310  1.00  0.00     0.074 A 
ATOM     45  C   UNL A   1      38.717  29.892  29.222  1.00  0.00     0.031 C 
ATOM     46  C   UNL A   1      37.955  34.323  34.458  1.00  0.00     0.029 A 
ATOM     47  C   UNL A   1      39.032  33.350  34.607  1.00  0.00     0.049 A 
ATOM     48  H   UNL A   1      39.615  31.888  33.242  1.00  0.00     0.167 HD
ATOM     49  C   UNL A   1      40.631  28.767  30.324  1.00  0.00     0.034 A 
ATOM     50  C   UNL A   1      39.840  33.241  35.680  1.00  0.00     0.034 A 
ATOM     51  C   UNL A   1      41.569  28.605  31.407  1.00  0.00     0.049 A 
ATOM     52  C   UNL A   1      40.891  32.165  35.696  1.00  0.00     0.074 A 
ATOM     53  C   UNL A   1      42.625  27.717  31.504  1.00  0.00     0.029 A 
ATOM     54  N   UNL A   1      41.562  29.345  32.583  1.00  0.00    -0.354 N 
ATOM     55  N   UNL A   1      41.163  31.265  34.781  1.00  0.00    -0.248 NA
ATOM     56  C   UNL A   1      41.741  32.088  36.891  1.00  0.00     0.031 C 
ATOM     57  C   UNL A   1      43.216  27.876  32.761  1.00  0.00     0.029 A 
ATOM     58  C   UNL A   1      42.575  28.913  33.423  1.00  0.00     0.049 A 
ATOM     59  H   UNL A   1      40.929  30.071  32.789  1.00  0.00     0.167 HD
ATOM     60  C   UNL A   1      42.225  30.520  35.283  1.00  0.00     0.074 A 
ATOM     61  C   UNL A   1      42.552  31.087  36.577  1.00  0.00     0.031 C 
ATOM     62  C   UNL A   1      42.872  29.467  34.723  1.00  0.00     0.034 A 
BRANCH  49  63
ATOM     63  C   UNL A   1      40.722  27.838  29.139  1.00  0.00     0.023 A 
ATOM     64  C   UNL A   1      41.631  28.068  28.091  1.00  0.00     0.031 A 
ATOM     65  C   UNL A   1      39.887  26.711  29.051  1.00  0.00     0.131 A 
ATOM     66  C   UNL A   1      41.640  27.221  26.974  1.00  0.00     0.055 A 
ATOM     67  C   UNL A   1      39.953  25.829  27.971  1.00  0.00     0.041 A 
ATOM     68  F   UNL A   1      38.986  26.450  30.013  1.00  0.00    -0.206 F 
ATOM     69  C   UNL A   1      40.826  26.088  26.918  1.00  0.00     0.022 A 
BRANCH  66  70
ATOM     70  S   UNL A   1      42.659  27.679  25.545  1.00  0.00     0.124 S 
ATOM     71  O   UNL A   1      42.422  26.554  24.644  1.00  0.00    -0.237 OA
ATOM     72  O   UNL A   1      42.082  28.955  25.140  1.00  0.00    -0.237 OA
ATOM     73  O   UNL A   1      44.010  27.753  26.098  1.00  0.00    -0.744 OA
ENDBRANCH  66  70
ENDBRANCH  49  63
BRANCH  50  74
ATOM     74  C   UNL A   1      39.675  34.179  36.824  1.00  0.00     0.023 A 
ATOM     75  C   UNL A   1      39.119  33.741  38.036  1.00  0.00     0.031 A 
ATOM     76  C   UNL A   1      40.105  35.514  36.735  1.00  0.00     0.131 A 
ATOM     77  C   UNL A   1      38.997  34.635  39.110  1.00  0.00     0.055 A 
ATOM     78  C   UNL A   1      40.013  36.390  37.817  1.00  0.00     0.041 A 
ATOM     79  F   UNL A   1      40.654  35.975  35.599  1.00  0.00    -0.206 F 
ATOM     80  C   UNL A   1      39.454  35.952  39.014  1.00  0.00     0.022 A 
BRANCH  77  81
ATOM     81  S   UNL A   1      38.228  34.054  40.647  1.00  0.00     0.124 S 
ATOM     82  O   UNL A   1      39.306  33.272  41.240  1.00  0.00    -0.237 OA
ATOM     83  O   UNL A   1      37.899  35.307  41.318  1.00  0.00    -0.237 OA
ATOM     84  O   UNL A   1      37.078  33.282  40.181  1.00  0.00    -0.744 OA
ENDBRANCH  77  81
ENDBRANCH  50  74
BRANCH  62  85
ATOM     85  C   UNL A   1      44.012  28.862  35.503  1.00  0.00     0.023 A 
ATOM     86  C   UNL A   1      43.811  27.768  36.361  1.00  0.00     0.031 A 
ATOM     87  C   UNL A   1      45.316  29.367  35.363  1.00  0.00     0.131 A 
ATOM     88  C   UNL A   1      44.895  27.236  37.076  1.00  0.00     0.055 A 
ATOM     89  C   UNL A   1      46.399  28.799  36.034  1.00  0.00     0.041 A 
ATOM     90  F   UNL A   1      45.561  30.412  34.555  1.00  0.00    -0.206 F 
ATOM     91  C   UNL A   1      46.190  27.731  36.903  1.00  0.00     0.022 A 
BRANCH  88  92
ATOM     92  S   UNL A   1      44.579  25.919  38.282  1.00  0.00     0.124 S 
ATOM     93  O   UNL A   1      43.672  25.046  37.544  1.00  0.00    -0.237 OA
ATOM     94  O   UNL A   1      45.917  25.388  38.526  1.00  0.00    -0.237 OA
ATOM     95  O   UNL A   1      43.978  26.625  39.411  1.00  0.00    -0.744 OA
ENDBRANCH  88  92
ENDBRANCH  62  85
ENDBRANCH  36  37
ENDBRANCH  28  31
ENDBRANCH  26  27
ENDBRANCH  25  26
ENDBRANCH   1  25
TORSDOF 17
ENDMDL
MODEL 2
REMARK VINA RESULT:     -11.8      2.515      4.197
REMARK SMILES C[C@@H](CNc1cccc(F)c1C(=O)NCCCNC(=O)c1ccc(-c2c3nc(c(-c4cc(S(=O)(=O)[O-])ccc4F)c4ccc([nH]4)c(-c4cc(S(=O)(=O)[O-])ccc4F)c4nc(c(-c5cc(S(=O)(=O)[O-])ccc5F)c5ccc2[nH]5)C=C4)C=C3)cc1)[NH+]1CCCCC1
REMARK SMILES IDX 15 1 14 2 12 3 13 4 11 6 5 7 6 8 7 9 9 10 8 11 10 12 4 13
REMARK SMILES IDX 3 15 2 16 1 17 84 18 85 19 89 20 86 22 88 23 87 24 16 25
REMARK SMILES IDX 17 26 18 27 19 28 20 30 21 31 22 32 83 33 23 34 82 35 24 36
REMARK SMILES IDX 25 37 26 38 76 39 27 40 81 41 75 42 77 43 28 44 80 45 74 46
REMARK SMILES IDX 73 47 29 49 61 50 41 51 60 52 42 53 45 54 59 55 78 56 43 57
REMARK SMILES IDX 44 58 58 60 79 61 46 62 30 63 31 64 39 65 32 66 38 67 40 68
REMARK SMILES IDX 37 69 33 70 34 71 35 72 36 73 62 74 63 75 71 76 64 77 70 78
REMARK SMILES IDX 72 79 69 80 65 81 66 82 67 83 68 84 47 85 48 86 56 87 49 88
REMARK SMILES IDX 55 89 57 90 54 91 50 92 51 93 52 94 53 95
REMARK H PARENT 14 5 4 14 84 21 18 29 77 48 45 59
REMARK Flexibility Score: inf
ROOT
ATOM      1  C   UNL A   1      33.117  26.753  26.370  1.00  0.00     0.118 C 
ENDROOT
BRANCH   1   2
ATOM      2  N   UNL A   1      32.259  25.750  26.976  1.00  0.00    -0.352 N 
ATOM      3  C   UNL A   1      31.645  24.628  26.480  1.00  0.00     0.256 C 
ATOM      4  O   UNL A   1      30.821  24.085  27.224  1.00  0.00    -0.269 OA
ATOM      5  H   UNL A   1      32.082  25.908  27.932  1.00  0.00     0.163 HD
BRANCH   3   6
ATOM      6  C   UNL A   1      32.018  23.962  25.200  1.00  0.00     0.098 A 
ATOM      7  C   UNL A   1      31.186  24.167  24.062  1.00  0.00     0.050 A 
ATOM      8  C   UNL A   1      31.530  23.525  22.859  1.00  0.00     0.027 A 
ATOM      9  C   UNL A   1      32.649  22.700  22.763  1.00  0.00     0.005 A 
ATOM     10  C   UNL A   1      33.161  23.168  25.068  1.00  0.00     0.138 A 
ATOM     11  C   UNL A   1      33.463  22.519  23.873  1.00  0.00     0.040 A 
ATOM     12  F   UNL A   1      34.038  23.021  26.069  1.00  0.00    -0.206 F 
BRANCH   7  13
ATOM     13  N   UNL A   1      30.030  24.937  24.140  1.00  0.00    -0.378 N 
ATOM     14  H   UNL A   1      29.167  24.464  24.132  1.00  0.00     0.160 HD
BRANCH  13  15
ATOM     15  C   UNL A   1      30.002  26.388  24.233  1.00  0.00     0.177 C 
BRANCH  15  16
ATOM     16  C   UNL A   1      30.169  27.125  22.861  1.00  0.00     0.200 C 
ATOM     17  C   UNL A   1      31.645  27.230  22.453  1.00  0.00     0.077 C 
BRANCH  16  18
ATOM     18  N   UNL A   1      29.388  28.390  22.766  1.00  0.00    -0.331 N 
ATOM     19  C   UNL A   1      27.965  28.240  23.100  1.00  0.00     0.262 C 
ATOM     20  C   UNL A   1      29.977  29.478  23.558  1.00  0.00     0.262 C 
ATOM     21  H   UNL A   1      29.438  28.641  21.778  1.00  0.00     0.348 HD
ATOM     22  C   UNL A   1      27.178  29.513  22.796  1.00  0.00     0.062 C 
ATOM     23  C   UNL A   1      29.252  30.805  23.302  1.00  0.00     0.062 C 
ATOM     24  C   UNL A   1      27.754  30.693  23.561  1.00  0.00     0.012 C 
ENDBRANCH  16  18
ENDBRANCH  15  16
ENDBRANCH  13  15
ENDBRANCH   7  13
ENDBRANCH   3   6
ENDBRANCH   1   2
BRANCH   1  25
ATOM     25  C   UNL A   1      32.309  28.026  26.120  1.00  0.00     0.042 C 
BRANCH  25  26
ATOM     26  C   UNL A   1      33.151  29.150  25.520  1.00  0.00     0.118 C 
BRANCH  26  27
ATOM     27  N   UNL A   1      32.647  30.461  25.901  1.00  0.00    -0.352 N 
ATOM     28  C   UNL A   1      33.057  31.278  26.929  1.00  0.00     0.251 C 
ATOM     29  H   UNL A   1      31.912  30.811  25.349  1.00  0.00     0.163 HD
ATOM     30  O   UNL A   1      32.360  32.230  27.262  1.00  0.00    -0.269 OA
BRANCH  28  31
ATOM     31  C   UNL A   1      34.327  30.994  27.632  1.00  0.00     0.039 A 
ATOM     32  C   UNL A   1      35.293  31.999  27.732  1.00  0.00     0.014 A 
ATOM     33  C   UNL A   1      34.571  29.730  28.178  1.00  0.00     0.014 A 
ATOM     34  C   UNL A   1      36.479  31.752  28.427  1.00  0.00     0.010 A 
ATOM     35  C   UNL A   1      35.717  29.511  28.935  1.00  0.00     0.010 A 
ATOM     36  C   UNL A   1      36.688  30.517  29.060  1.00  0.00    -0.014 A 
BRANCH  36  37
ATOM     37  C   UNL A   1      37.922  30.234  29.837  1.00  0.00     0.031 A 
ATOM     38  C   UNL A   1      38.993  29.359  29.245  1.00  0.00     0.074 A 
ATOM     39  C   UNL A   1      38.048  30.705  31.093  1.00  0.00     0.049 A 
ATOM     40  N   UNL A   1      40.076  28.883  29.802  1.00  0.00    -0.248 NA
ATOM     41  C   UNL A   1      38.801  28.939  27.848  1.00  0.00     0.031 C 
ATOM     42  C   UNL A   1      37.071  31.551  31.782  1.00  0.00     0.029 A 
ATOM     43  N   UNL A   1      39.050  30.535  32.016  1.00  0.00    -0.354 N 
ATOM     44  C   UNL A   1      40.686  28.097  28.832  1.00  0.00     0.074 A 
ATOM     45  C   UNL A   1      39.821  28.112  27.673  1.00  0.00     0.031 C 
ATOM     46  C   UNL A   1      37.536  31.851  33.005  1.00  0.00     0.029 A 
ATOM     47  C   UNL A   1      38.815  31.177  33.209  1.00  0.00     0.049 A 
ATOM     48  H   UNL A   1      39.860  30.004  31.841  1.00  0.00     0.167 HD
ATOM     49  C   UNL A   1      41.871  27.442  28.894  1.00  0.00     0.034 A 
ATOM     50  C   UNL A   1      39.539  31.208  34.345  1.00  0.00     0.034 A 
ATOM     51  C   UNL A   1      42.733  27.454  30.050  1.00  0.00     0.049 A 
ATOM     52  C   UNL A   1      40.829  30.436  34.410  1.00  0.00     0.074 A 
ATOM     53  C   UNL A   1      43.973  26.860  30.204  1.00  0.00     0.029 A 
ATOM     54  N   UNL A   1      42.444  28.090  31.251  1.00  0.00    -0.354 N 
ATOM     55  N   UNL A   1      41.394  29.697  33.485  1.00  0.00    -0.248 NA
ATOM     56  C   UNL A   1      41.575  30.500  35.673  1.00  0.00     0.031 C 
ATOM     57  C   UNL A   1      44.404  27.081  31.515  1.00  0.00     0.029 A 
ATOM     58  C   UNL A   1      43.467  27.875  32.160  1.00  0.00     0.049 A 
ATOM     59  H   UNL A   1      41.630  28.615  31.430  1.00  0.00     0.167 HD
ATOM     60  C   UNL A   1      42.571  29.216  34.049  1.00  0.00     0.074 A 
ATOM     61  C   UNL A   1      42.640  29.762  35.390  1.00  0.00     0.031 C 
ATOM     62  C   UNL A   1      43.510  28.401  33.505  1.00  0.00     0.034 A 
BRANCH  49  63
ATOM     63  C   UNL A   1      42.291  26.646  27.684  1.00  0.00     0.023 A 
ATOM     64  C   UNL A   1      41.932  25.295  27.531  1.00  0.00     0.031 A 
ATOM     65  C   UNL A   1      43.065  27.240  26.673  1.00  0.00     0.131 A 
ATOM     66  C   UNL A   1      42.398  24.567  26.426  1.00  0.00     0.055 A 
ATOM     67  C   UNL A   1      43.463  26.531  25.538  1.00  0.00     0.041 A 
ATOM     68  F   UNL A   1      43.453  28.522  26.774  1.00  0.00    -0.206 F 
ATOM     69  C   UNL A   1      43.140  25.183  25.415  1.00  0.00     0.022 A 
BRANCH  66  70
ATOM     70  S   UNL A   1      42.109  22.778  26.380  1.00  0.00     0.124 S 
ATOM     71  O   UNL A   1      42.910  22.323  27.515  1.00  0.00    -0.237 OA
ATOM     72  O   UNL A   1      40.664  22.685  26.540  1.00  0.00    -0.237 OA
ATOM     73  O   UNL A   1      42.619  22.383  25.069  1.00  0.00    -0.744 OA
ENDBRANCH  66  70
ENDBRANCH  49  63
BRANCH  50  74
ATOM     74  C   UNL A   1      39.049  31.996  35.509  1.00  0.00     0.023 A 
ATOM     75  C   UNL A   1      38.346  31.374  36.552  1.00  0.00     0.031 A 
ATOM     76  C   UNL A   1      39.309  33.373  35.612  1.00  0.00     0.131 A 
ATOM     77  C   UNL A   1      37.917  32.130  37.653  1.00  0.00     0.055 A 
ATOM     78  C   UNL A   1      38.910  34.115  36.725  1.00  0.00     0.041 A 
ATOM     79  F   UNL A   1      39.988  34.010  34.644  1.00  0.00    -0.206 F 
ATOM     80  C   UNL A   1      38.207  33.494  37.753  1.00  0.00     0.022 A 
BRANCH  77  81
ATOM     81  S   UNL A   1      36.969  31.308  38.962  1.00  0.00     0.124 S 
ATOM     82  O   UNL A   1      37.862  31.444  40.106  1.00  0.00    -0.237 OA
ATOM     83  O   UNL A   1      35.747  32.105  39.002  1.00  0.00    -0.237 OA
ATOM     84  O   UNL A   1      36.801  29.947  38.456  1.00  0.00    -0.744 OA
ENDBRANCH  77  81
ENDBRANCH  50  74
BRANCH  62  85
ATOM     85  C   UNL A   1      44.704  28.057  34.358  1.00  0.00     0.023 A 
ATOM     86  C   UNL A   1      44.732  26.890  35.140  1.00  0.00     0.031 A 
ATOM     87  C   UNL A   1      45.837  28.889  34.364  1.00  0.00     0.131 A 
ATOM     88  C   UNL A   1      45.858  26.607  35.928  1.00  0.00     0.055 A 
ATOM     89  C   UNL A   1      46.976  28.574  35.106  1.00  0.00     0.041 A 
ATOM     90  F   UNL A   1      45.861  30.016  33.634  1.00  0.00    -0.206 F 
ATOM     91  C   UNL A   1      46.988  27.430  35.901  1.00  0.00     0.022 A 
BRANCH  88  92
ATOM     92  S   UNL A   1      45.808  25.172  37.035  1.00  0.00     0.124 S 
ATOM     93  O   UNL A   1      44.881  24.285  36.337  1.00  0.00    -0.237 OA
ATOM     94  O   UNL A   1      47.203  24.743  37.061  1.00  0.00    -0.237 OA
ATOM     95  O   UNL A   1      45.307  25.725  38.291  1.00  0.00    -0.744 OA
ENDBRANCH  88  92
ENDBRANCH  62  85
ENDBRANCH  36  37
ENDBRANCH  28  31
ENDBRANCH  26  27
ENDBRANCH  25  26
ENDBRANCH   1  25
TORSDOF 17
ENDMDL
MODEL 3
REMARK VINA RESULT:     -11.6      5.684     10.900
REMARK SMILES C[C@@H](CNc1cccc(F)c1C(=O)NCCCNC(=O)c1ccc(-c2c3nc(c(-c4cc(S(=O)(=O)[O-])ccc4F)c4ccc([nH]4)c(-c4cc(S(=O)(=O)[O-])ccc4F)c4nc(c(-c5cc(S(=O)(=O)[O-])ccc5F)c5ccc2[nH]5)C=C4)C=C3)cc1)[NH+]1CCCCC1
REMARK SMILES IDX 15 1 14 2 12 3 13 4 11 6 5 7 6 8 7 9 9 10 8 11 10 12 4 13
REMARK SMILES IDX 3 15 2 16 1 17 84 18 85 19 89 20 86 22 88 23 87 24 16 25
REMARK SMILES IDX 17 26 18 27 19 28 20 30 21 31 22 32 83 33 23 34 82 35 24 36
REMARK SMILES IDX 25 37 26 38 76 39 27 40 81 41 75 42 77 43 28 44 80 45 74 46
REMARK SMILES IDX 73 47 29 49 61 50 41 51 60 52 42 53 45 54 59 55 78 56 43 57
REMARK SMILES IDX 44 58 58 60 79 61 46 62 30 63 31 64 39 65 32 66 38 67 40 68
REMARK SMILES IDX 37 69 33 70 34 71 35 72 36 73 62 74 63 75 71 76 64 77 70 78
REMARK SMILES IDX 72 79 69 80 65 81 66 82 67 83 68 84 47 85 48 86 56 87 49 88
REMARK SMILES IDX 55 89 57 90 54 91 50 92 51 93 52 94 53 95
REMARK H PARENT 14 5 4 14 84 21 18 29 77 48 45 59
REMARK Flexibility Score: inf
ROOT
ATOM      1  C   UNL A   1      33.715  22.940  27.208  1.00  0.00     0.118 C 
ENDROOT
BRANCH   1   2
ATOM      2  N   UNL A   1      32.316  22.670  26.923  1.00  0.00    -0.352 N 
ATOM      3  C   UNL A   1      31.501  23.002  25.871  1.00  0.00     0.256 C 
ATOM      4  O   UNL A   1      30.296  22.774  26.025  1.00  0.00    -0.269 OA
ATOM      5  H   UNL A   1      31.864  22.147  27.624  1.00  0.00     0.163 HD
BRANCH   3   6
ATOM      6  C   UNL A   1      31.990  23.460  24.540  1.00  0.00     0.098 A 
ATOM      7  C   UNL A   1      31.861  24.840  24.210  1.00  0.00     0.050 A 
ATOM      8  C   UNL A   1      32.308  25.269  22.948  1.00  0.00     0.027 A 
ATOM      9  C   UNL A   1      32.860  24.381  22.026  1.00  0.00     0.005 A 
ATOM     10  C   UNL A   1      32.589  22.598  23.619  1.00  0.00     0.138 A 
ATOM     11  C   UNL A   1      32.996  23.042  22.362  1.00  0.00     0.040 A 
ATOM     12  F   UNL A   1      32.833  21.314  23.908  1.00  0.00    -0.206 F 
BRANCH   7  13
ATOM     13  N   UNL A   1      31.261  25.741  25.084  1.00  0.00    -0.378 N 
ATOM     14  H   UNL A   1      30.279  25.815  25.058  1.00  0.00     0.160 HD
BRANCH  13  15
ATOM     15  C   UNL A   1      31.975  26.580  26.034  1.00  0.00     0.177 C 
BRANCH  15  16
ATOM     16  C   UNL A   1      31.688  28.112  25.885  1.00  0.00     0.200 C 
ATOM     17  C   UNL A   1      31.053  28.437  24.525  1.00  0.00     0.077 C 
BRANCH  16  18
ATOM     18  N   UNL A   1      32.837  28.974  26.276  1.00  0.00    -0.331 N 
ATOM     19  C   UNL A   1      32.472  30.095  27.152  1.00  0.00     0.262 C 
ATOM     20  C   UNL A   1      33.939  28.208  26.873  1.00  0.00     0.262 C 
ATOM     21  H   UNL A   1      33.159  29.376  25.395  1.00  0.00     0.348 HD
ATOM     22  C   UNL A   1      33.644  31.053  27.358  1.00  0.00     0.062 C 
ATOM     23  C   UNL A   1      35.169  29.095  27.103  1.00  0.00     0.062 C 
ATOM     24  C   UNL A   1      34.836  30.319  27.949  1.00  0.00     0.012 C 
ENDBRANCH  16  18
ENDBRANCH  15  16
ENDBRANCH  13  15
ENDBRANCH   7  13
ENDBRANCH   3   6
ENDBRANCH   1   2
BRANCH   1  25
ATOM     25  C   UNL A   1      34.573  21.810  26.641  1.00  0.00     0.042 C 
BRANCH  25  26
ATOM     26  C   UNL A   1      35.907  22.304  26.089  1.00  0.00     0.118 C 
BRANCH  26  27
ATOM     27  N   UNL A   1      36.838  21.206  25.869  1.00  0.00    -0.352 N 
ATOM     28  C   UNL A   1      38.212  21.240  25.802  1.00  0.00     0.251 C 
ATOM     29  H   UNL A   1      36.430  20.319  25.752  1.00  0.00     0.163 HD
ATOM     30  O   UNL A   1      38.821  20.272  25.361  1.00  0.00    -0.269 OA
BRANCH  28  31
ATOM     31  C   UNL A   1      38.940  22.447  26.249  1.00  0.00     0.039 A 
ATOM     32  C   UNL A   1      39.990  22.313  27.162  1.00  0.00     0.014 A 
ATOM     33  C   UNL A   1      38.576  23.713  25.780  1.00  0.00     0.014 A 
ATOM     34  C   UNL A   1      40.709  23.443  27.561  1.00  0.00     0.010 A 
ATOM     35  C   UNL A   1      39.341  24.824  26.117  1.00  0.00     0.010 A 
ATOM     36  C   UNL A   1      40.410  24.703  27.018  1.00  0.00    -0.014 A 
BRANCH  36  37
ATOM     37  C   UNL A   1      41.178  25.918  27.393  1.00  0.00     0.031 A 
ATOM     38  C   UNL A   1      40.530  26.978  28.242  1.00  0.00     0.074 A 
ATOM     39  C   UNL A   1      42.426  26.098  26.918  1.00  0.00     0.049 A 
ATOM     40  N   UNL A   1      40.973  28.164  28.567  1.00  0.00    -0.248 NA
ATOM     41  C   UNL A   1      39.190  26.672  28.767  1.00  0.00     0.031 C 
ATOM     42  C   UNL A   1      43.155  25.150  26.074  1.00  0.00     0.029 A 
ATOM     43  N   UNL A   1      43.300  27.145  27.073  1.00  0.00    -0.354 N 
ATOM     44  C   UNL A   1      39.964  28.751  29.321  1.00  0.00     0.074 A 
ATOM     45  C   UNL A   1      38.862  27.814  29.352  1.00  0.00     0.031 C 
ATOM     46  C   UNL A   1      44.375  25.644  25.813  1.00  0.00     0.029 A 
ATOM     47  C   UNL A   1      44.497  26.965  26.422  1.00  0.00     0.049 A 
ATOM     48  H   UNL A   1      43.089  27.950  27.600  1.00  0.00     0.167 HD
ATOM     49  C   UNL A   1      39.964  29.953  29.948  1.00  0.00     0.034 A 
ATOM     50  C   UNL A   1      45.566  27.777  26.314  1.00  0.00     0.034 A 
ATOM     51  C   UNL A   1      41.079  30.867  29.926  1.00  0.00     0.049 A 
ATOM     52  C   UNL A   1      45.530  29.126  26.979  1.00  0.00     0.074 A 
ATOM     53  C   UNL A   1      41.201  32.090  30.562  1.00  0.00     0.029 A 
ATOM     54  N   UNL A   1      42.262  30.662  29.227  1.00  0.00    -0.354 N 
ATOM     55  N   UNL A   1      44.569  29.668  27.689  1.00  0.00    -0.248 NA
ATOM     56  C   UNL A   1      46.720  29.972  26.826  1.00  0.00     0.031 C 
ATOM     57  C   UNL A   1      42.428  32.652  30.198  1.00  0.00     0.029 A 
ATOM     58  C   UNL A   1      43.105  31.749  29.392  1.00  0.00     0.049 A 
ATOM     59  H   UNL A   1      42.471  29.862  28.693  1.00  0.00     0.167 HD
ATOM     60  C   UNL A   1      45.042  30.917  28.078  1.00  0.00     0.074 A 
ATOM     61  C   UNL A   1      46.381  31.040  27.536  1.00  0.00     0.031 C 
ATOM     62  C   UNL A   1      44.427  31.872  28.821  1.00  0.00     0.034 A 
BRANCH  49  63
ATOM     63  C   UNL A   1      38.715  30.348  30.696  1.00  0.00     0.023 A 
ATOM     64  C   UNL A   1      37.850  31.344  30.209  1.00  0.00     0.031 A 
ATOM     65  C   UNL A   1      38.388  29.730  31.915  1.00  0.00     0.131 A 
ATOM     66  C   UNL A   1      36.735  31.734  30.964  1.00  0.00     0.055 A 
ATOM     67  C   UNL A   1      37.236  30.070  32.626  1.00  0.00     0.041 A 
ATOM     68  F   UNL A   1      39.187  28.786  32.438  1.00  0.00    -0.206 F 
ATOM     69  C   UNL A   1      36.407  31.086  32.158  1.00  0.00     0.022 A 
BRANCH  66  70
ATOM     70  S   UNL A   1      35.776  33.172  30.418  1.00  0.00     0.124 S 
ATOM     71  O   UNL A   1      36.284  33.365  29.062  1.00  0.00    -0.237 OA
ATOM     72  O   UNL A   1      34.403  32.696  30.524  1.00  0.00    -0.237 OA
ATOM     73  O   UNL A   1      36.150  34.215  31.371  1.00  0.00    -0.744 OA
ENDBRANCH  66  70
ENDBRANCH  49  63
BRANCH  50  74
ATOM     74  C   UNL A   1      46.756  27.329  25.538  1.00  0.00     0.023 A 
ATOM     75  C   UNL A   1      46.964  27.773  24.223  1.00  0.00     0.031 A 
ATOM     76  C   UNL A   1      47.718  26.481  26.113  1.00  0.00     0.131 A 
ATOM     77  C   UNL A   1      48.105  27.360  23.520  1.00  0.00     0.055 A 
ATOM     78  C   UNL A   1      48.869  26.100  25.422  1.00  0.00     0.041 A 
ATOM     79  F   UNL A   1      47.568  26.040  27.372  1.00  0.00    -0.206 F 
ATOM     80  C   UNL A   1      49.066  26.538  24.116  1.00  0.00     0.022 A 
BRANCH  77  81
ATOM     81  S   UNL A   1      48.322  27.911  21.806  1.00  0.00     0.124 S 
ATOM     82  O   UNL A   1      48.273  26.648  21.080  1.00  0.00    -0.237 OA
ATOM     83  O   UNL A   1      47.180  28.801  21.623  1.00  0.00    -0.237 OA
ATOM     84  O   UNL A   1      49.624  28.573  21.823  1.00  0.00    -0.744 OA
ENDBRANCH  77  81
ENDBRANCH  50  74
BRANCH  62  85
ATOM     85  C   UNL A   1      45.201  33.135  29.102  1.00  0.00     0.023 A 
ATOM     86  C   UNL A   1      45.188  34.215  28.204  1.00  0.00     0.031 A 
ATOM     87  C   UNL A   1      45.934  33.269  30.294  1.00  0.00     0.131 A 
ATOM     88  C   UNL A   1      45.927  35.371  28.496  1.00  0.00     0.055 A 
ATOM     89  C   UNL A   1      46.622  34.442  30.604  1.00  0.00     0.041 A 
ATOM     90  F   UNL A   1      45.979  32.265  31.185  1.00  0.00    -0.206 F 
ATOM     91  C   UNL A   1      46.627  35.500  29.699  1.00  0.00     0.022 A 
BRANCH  88  92
ATOM     92  S   UNL A   1      46.007  36.690  27.254  1.00  0.00     0.124 S 
ATOM     93  O   UNL A   1      46.415  35.955  26.061  1.00  0.00    -0.237 OA
ATOM     94  O   UNL A   1      44.640  37.203  27.249  1.00  0.00    -0.237 OA
ATOM     95  O   UNL A   1      47.010  37.607  27.791  1.00  0.00    -0.744 OA
ENDBRANCH  88  92
ENDBRANCH  62  85
ENDBRANCH  36  37
ENDBRANCH  28  31
ENDBRANCH  26  27
ENDBRANCH  25  26
ENDBRANCH   1  25
TORSDOF 17
ENDMDL
