MODEL 1
REMARK VINA RESULT:     -11.9      0.000      0.000
REMARK SMILES C[C@@H](C(=O)NCCCNC(=O)c1ccc(-c2c3nc(c(-c4cc(S(=O)(=O)[O-])ccc4F)c4ccc([nH]4)c(-c4cc(S(=O)(=O)[O-])ccc4F)c4nc(c(-c5cc(S(=O)(=O)[O-])ccc5F)c5ccc2[nH]5)C=C4)C=C3)cc1)[C@H](C)[S@@](=O)c1ccc(F)c(F)c1
REMARK SMILES IDX 7 1 6 2 5 3 3 4 4 5 2 7 1 8 75 9 76 10 77 11 78 12 79 13
REMARK SMILES IDX 80 14 86 15 81 16 84 17 82 18 85 19 83 20 8 21 9 22 10 23
REMARK SMILES IDX 11 25 12 26 13 27 74 28 14 29 73 30 15 31 16 32 17 33 67 34
REMARK SMILES IDX 18 35 72 36 66 37 68 38 19 39 71 40 65 41 64 42 20 44 52 45
REMARK SMILES IDX 32 46 51 47 33 48 36 49 50 50 69 51 34 52 35 53 49 55 70 56
REMARK SMILES IDX 37 57 21 58 22 59 30 60 23 61 29 62 31 63 28 64 24 65 25 66
REMARK SMILES IDX 26 67 27 68 53 69 54 70 62 71 55 72 61 73 63 74 60 75 56 76
REMARK SMILES IDX 57 77 58 78 59 79 38 80 39 81 47 82 40 83 46 84 48 85 45 86
REMARK SMILES IDX 41 87 42 88 43 89 44 90
REMARK H PARENT 5 6 9 24 68 43 36 54
REMARK Flexibility Score: inf
ROOT
ATOM      1  C   UNL A   1      31.697  31.680  26.846  1.00  0.00     0.042 C 
ENDROOT
BRANCH   1   2
ATOM      2  C   UNL A   1      31.910  30.177  26.717  1.00  0.00     0.117 C 
BRANCH   2   3
ATOM      3  N   UNL A   1      32.659  29.831  25.515  1.00  0.00    -0.356 N 
ATOM      4  C   UNL A   1      33.097  28.611  25.077  1.00  0.00     0.224 C 
ATOM      5  O   UNL A   1      33.789  28.562  24.062  1.00  0.00    -0.275 OA
ATOM      6  H   UNL A   1      32.883  30.590  24.929  1.00  0.00     0.163 HD
BRANCH   4   7
ATOM      7  C   UNL A   1      32.691  27.366  25.860  1.00  0.00     0.091 C 
ATOM      8  C   UNL A   1      33.883  26.403  25.839  1.00  0.00     0.019 C 
BRANCH   7   9
ATOM      9  C   UNL A   1      31.390  26.741  25.313  1.00  0.00     0.093 C 
ATOM     10  C   UNL A   1      31.041  25.386  25.943  1.00  0.00     0.023 C 
BRANCH   9  11
ATOM     11  S   UNL A   1      31.266  26.584  23.480  1.00  0.00     0.057 S 
ATOM     12  O   UNL A   1      30.582  25.304  23.115  1.00  0.00    -0.254 OA
BRANCH  11  13
ATOM     13  C   UNL A   1      30.167  27.900  22.911  1.00  0.00     0.042 A 
ATOM     14  C   UNL A   1      30.578  29.060  22.241  1.00  0.00     0.021 A 
ATOM     15  C   UNL A   1      28.816  27.794  23.274  1.00  0.00     0.060 A 
ATOM     16  C   UNL A   1      29.653  30.033  21.840  1.00  0.00     0.043 A 
ATOM     17  C   UNL A   1      27.908  28.790  22.921  1.00  0.00     0.160 A 
ATOM     18  C   UNL A   1      28.319  29.892  22.186  1.00  0.00     0.158 A 
ATOM     19  F   UNL A   1      26.630  28.679  23.309  1.00  0.00    -0.204 F 
ATOM     20  F   UNL A   1      27.440  30.838  21.829  1.00  0.00    -0.204 F 
ENDBRANCH  11  13
ENDBRANCH   9  11
ENDBRANCH   7   9
ENDBRANCH   4   7
ENDBRANCH   2   3
ENDBRANCH   1   2
BRANCH   1  21
ATOM     21  C   UNL A   1      32.928  32.435  27.330  1.00  0.00     0.118 C 
BRANCH  21  22
ATOM     22  N   UNL A   1      32.641  33.833  27.612  1.00  0.00    -0.352 N 
ATOM     23  C   UNL A   1      33.176  34.657  28.572  1.00  0.00     0.251 C 
ATOM     24  H   UNL A   1      31.966  34.251  27.029  1.00  0.00     0.163 HD
ATOM     25  O   UNL A   1      32.649  35.747  28.790  1.00  0.00    -0.269 OA
BRANCH  23  26
ATOM     26  C   UNL A   1      34.354  34.222  29.355  1.00  0.00     0.039 A 
ATOM     27  C   UNL A   1      34.156  33.457  30.506  1.00  0.00     0.014 A 
ATOM     28  C   UNL A   1      35.649  34.563  28.955  1.00  0.00     0.014 A 
ATOM     29  C   UNL A   1      35.260  32.969  31.212  1.00  0.00     0.010 A 
ATOM     30  C   UNL A   1      36.745  34.009  29.610  1.00  0.00     0.010 A 
ATOM     31  C   UNL A   1      36.563  33.202  30.744  1.00  0.00    -0.014 A 
BRANCH  31  32
ATOM     32  C   UNL A   1      37.746  32.599  31.412  1.00  0.00     0.031 A 
ATOM     33  C   UNL A   1      38.473  31.448  30.769  1.00  0.00     0.074 A 
ATOM     34  C   UNL A   1      38.115  33.037  32.634  1.00  0.00     0.049 A 
ATOM     35  N   UNL A   1      39.457  30.727  31.238  1.00  0.00    -0.248 NA
ATOM     36  C   UNL A   1      38.014  31.040  29.432  1.00  0.00     0.031 C 
ATOM     37  C   UNL A   1      37.467  34.124  33.372  1.00  0.00     0.029 A 
ATOM     38  N   UNL A   1      39.113  32.616  33.479  1.00  0.00    -0.354 N 
ATOM     39  C   UNL A   1      39.722  29.767  30.266  1.00  0.00     0.074 A 
ATOM     40  C   UNL A   1      38.762  29.972  29.202  1.00  0.00     0.031 C 
ATOM     41  C   UNL A   1      38.095  34.295  34.546  1.00  0.00     0.029 A 
ATOM     42  C   UNL A   1      39.149  33.295  34.676  1.00  0.00     0.049 A 
ATOM     43  H   UNL A   1      39.743  31.895  33.249  1.00  0.00     0.167 HD
ATOM     44  C   UNL A   1      40.686  28.814  30.259  1.00  0.00     0.034 A 
ATOM     45  C   UNL A   1      39.924  33.115  35.766  1.00  0.00     0.034 A 
ATOM     46  C   UNL A   1      41.646  28.637  31.322  1.00  0.00     0.049 A 
ATOM     47  C   UNL A   1      40.960  32.018  35.747  1.00  0.00     0.074 A 
ATOM     48  C   UNL A   1      42.714  27.759  31.378  1.00  0.00     0.029 A 
ATOM     49  N   UNL A   1      41.645  29.336  32.523  1.00  0.00    -0.354 N 
ATOM     50  N   UNL A   1      41.245  31.167  34.788  1.00  0.00    -0.248 NA
ATOM     51  C   UNL A   1      41.782  31.858  36.954  1.00  0.00     0.031 C 
ATOM     52  C   UNL A   1      43.301  27.862  32.642  1.00  0.00     0.029 A 
ATOM     53  C   UNL A   1      42.660  28.870  33.345  1.00  0.00     0.049 A 
ATOM     54  H   UNL A   1      41.014  30.055  32.757  1.00  0.00     0.167 HD
ATOM     55  C   UNL A   1      42.300  30.395  35.267  1.00  0.00     0.074 A 
ATOM     56  C   UNL A   1      42.612  30.891  36.591  1.00  0.00     0.031 C 
ATOM     57  C   UNL A   1      42.956  29.369  34.666  1.00  0.00     0.034 A 
BRANCH  44  58
ATOM     58  C   UNL A   1      40.733  27.866  29.085  1.00  0.00     0.023 A 
ATOM     59  C   UNL A   1      41.661  28.019  28.040  1.00  0.00     0.031 A 
ATOM     60  C   UNL A   1      39.836  26.785  29.015  1.00  0.00     0.131 A 
ATOM     61  C   UNL A   1      41.630  27.144  26.943  1.00  0.00     0.055 A 
ATOM     62  C   UNL A   1      39.863  25.872  27.960  1.00  0.00     0.041 A 
ATOM     63  F   UNL A   1      38.911  26.601  29.971  1.00  0.00    -0.206 F 
ATOM     64  C   UNL A   1      40.756  26.055  26.909  1.00  0.00     0.022 A 
BRANCH  61  65
ATOM     65  S   UNL A   1      42.659  27.528  25.500  1.00  0.00     0.124 S 
ATOM     66  O   UNL A   1      43.979  27.675  26.108  1.00  0.00    -0.237 OA
ATOM     67  O   UNL A   1      42.471  26.352  24.657  1.00  0.00    -0.237 OA
ATOM     68  O   UNL A   1      42.077  28.765  24.984  1.00  0.00    -0.744 OA
ENDBRANCH  61  65
ENDBRANCH  44  58
BRANCH  45  69
ATOM     69  C   UNL A   1      39.737  33.961  36.982  1.00  0.00     0.023 A 
ATOM     70  C   UNL A   1      39.157  33.435  38.147  1.00  0.00     0.031 A 
ATOM     71  C   UNL A   1      40.073  35.327  36.976  1.00  0.00     0.131 A 
ATOM     72  C   UNL A   1      38.871  34.279  39.231  1.00  0.00     0.055 A 
ATOM     73  C   UNL A   1      39.850  36.148  38.083  1.00  0.00     0.041 A 
ATOM     74  F   UNL A   1      40.631  35.886  35.890  1.00  0.00    -0.206 F 
ATOM     75  C   UNL A   1      39.229  35.629  39.214  1.00  0.00     0.022 A 
BRANCH  72  76
ATOM     76  S   UNL A   1      37.915  33.612  40.620  1.00  0.00     0.124 S 
ATOM     77  O   UNL A   1      38.873  32.695  41.224  1.00  0.00    -0.237 OA
ATOM     78  O   UNL A   1      37.611  34.818  41.385  1.00  0.00    -0.237 OA
ATOM     79  O   UNL A   1      36.768  32.981  39.971  1.00  0.00    -0.744 OA
ENDBRANCH  72  76
ENDBRANCH  45  69
BRANCH  57  80
ATOM     80  C   UNL A   1      44.106  28.748  35.420  1.00  0.00     0.023 A 
ATOM     81  C   UNL A   1      43.926  27.641  36.268  1.00  0.00     0.031 A 
ATOM     82  C   UNL A   1      45.406  29.267  35.276  1.00  0.00     0.131 A 
ATOM     83  C   UNL A   1      45.019  27.120  36.976  1.00  0.00     0.055 A 
ATOM     84  C   UNL A   1      46.500  28.703  35.934  1.00  0.00     0.041 A 
ATOM     85  F   UNL A   1      45.635  30.326  34.483  1.00  0.00    -0.206 F 
ATOM     86  C   UNL A   1      46.308  27.630  36.799  1.00  0.00     0.022 A 
BRANCH  83  87
ATOM     87  S   UNL A   1      44.722  25.811  38.199  1.00  0.00     0.124 S 
ATOM     88  O   UNL A   1      46.066  25.280  38.405  1.00  0.00    -0.237 OA
ATOM     89  O   UNL A   1      44.152  26.553  39.318  1.00  0.00    -0.237 OA
ATOM     90  O   UNL A   1      43.796  24.909  37.518  1.00  0.00    -0.744 OA
ENDBRANCH  83  87
ENDBRANCH  57  80
ENDBRANCH  31  32
ENDBRANCH  23  26
ENDBRANCH  21  22
ENDBRANCH   1  21
TORSDOF 16
ENDMDL
MODEL 2
REMARK VINA RESULT:     -11.7      2.411      3.274
REMARK SMILES C[C@@H](C(=O)NCCCNC(=O)c1ccc(-c2c3nc(c(-c4cc(S(=O)(=O)[O-])ccc4F)c4ccc([nH]4)c(-c4cc(S(=O)(=O)[O-])ccc4F)c4nc(c(-c5cc(S(=O)(=O)[O-])ccc5F)c5ccc2[nH]5)C=C4)C=C3)cc1)[C@H](C)[S@@](=O)c1ccc(F)c(F)c1
REMARK SMILES IDX 7 1 6 2 5 3 3 4 4 5 2 7 1 8 75 9 76 10 77 11 78 12 79 13
REMARK SMILES IDX 80 14 86 15 81 16 84 17 82 18 85 19 83 20 8 21 9 22 10 23
REMARK SMILES IDX 11 25 12 26 13 27 74 28 14 29 73 30 15 31 16 32 17 33 67 34
REMARK SMILES IDX 18 35 72 36 66 37 68 38 19 39 71 40 65 41 64 42 20 44 52 45
REMARK SMILES IDX 32 46 51 47 33 48 36 49 50 50 69 51 34 52 35 53 49 55 70 56
REMARK SMILES IDX 37 57 21 58 22 59 30 60 23 61 29 62 31 63 28 64 24 65 25 66
REMARK SMILES IDX 26 67 27 68 53 69 54 70 62 71 55 72 61 73 63 74 60 75 56 76
REMARK SMILES IDX 57 77 58 78 59 79 38 80 39 81 47 82 40 83 46 84 48 85 45 86
REMARK SMILES IDX 41 87 42 88 43 89 44 90
REMARK H PARENT 5 6 9 24 68 43 36 54
REMARK Flexibility Score: inf
ROOT
ATOM      1  C   UNL A   1      31.038  31.919  26.473  1.00  0.00     0.042 C 
ENDROOT
BRANCH   1   2
ATOM      2  C   UNL A   1      31.064  30.920  25.322  1.00  0.00     0.117 C 
BRANCH   2   3
ATOM      3  N   UNL A   1      32.326  30.195  25.255  1.00  0.00    -0.356 N 
ATOM      4  C   UNL A   1      32.623  28.916  25.640  1.00  0.00     0.224 C 
ATOM      5  O   UNL A   1      33.788  28.532  25.566  1.00  0.00    -0.275 OA
ATOM      6  H   UNL A   1      33.079  30.702  24.874  1.00  0.00     0.163 HD
BRANCH   4   7
ATOM      7  C   UNL A   1      31.488  28.020  26.130  1.00  0.00     0.091 C 
ATOM      8  C   UNL A   1      31.559  27.986  27.660  1.00  0.00     0.019 C 
BRANCH   7   9
ATOM      9  C   UNL A   1      31.542  26.620  25.484  1.00  0.00     0.093 C 
ATOM     10  C   UNL A   1      30.180  26.112  24.991  1.00  0.00     0.023 C 
BRANCH   9  11
ATOM     11  S   UNL A   1      32.337  25.288  26.481  1.00  0.00     0.057 S 
ATOM     12  O   UNL A   1      31.341  24.220  26.807  1.00  0.00    -0.254 OA
BRANCH  11  13
ATOM     13  C   UNL A   1      33.566  24.497  25.420  1.00  0.00     0.042 A 
ATOM     14  C   UNL A   1      34.953  24.548  25.616  1.00  0.00     0.021 A 
ATOM     15  C   UNL A   1      33.089  23.882  24.253  1.00  0.00     0.060 A 
ATOM     16  C   UNL A   1      35.834  23.906  24.736  1.00  0.00     0.043 A 
ATOM     17  C   UNL A   1      33.972  23.292  23.352  1.00  0.00     0.160 A 
ATOM     18  C   UNL A   1      35.336  23.281  23.604  1.00  0.00     0.158 A 
ATOM     19  F   UNL A   1      33.492  22.741  22.228  1.00  0.00    -0.204 F 
ATOM     20  F   UNL A   1      36.183  22.695  22.747  1.00  0.00    -0.204 F 
ENDBRANCH  11  13
ENDBRANCH   9  11
ENDBRANCH   7   9
ENDBRANCH   4   7
ENDBRANCH   2   3
ENDBRANCH   1   2
BRANCH   1  21
ATOM     21  C   UNL A   1      32.418  32.403  26.896  1.00  0.00     0.118 C 
BRANCH  21  22
ATOM     22  N   UNL A   1      32.387  33.757  27.430  1.00  0.00    -0.352 N 
ATOM     23  C   UNL A   1      33.179  34.332  28.393  1.00  0.00     0.251 C 
ATOM     24  H   UNL A   1      31.700  34.346  27.044  1.00  0.00     0.163 HD
ATOM     25  O   UNL A   1      32.859  35.424  28.860  1.00  0.00    -0.269 OA
BRANCH  23  26
ATOM     26  C   UNL A   1      34.386  33.631  28.883  1.00  0.00     0.039 A 
ATOM     27  C   UNL A   1      35.641  34.192  28.638  1.00  0.00     0.014 A 
ATOM     28  C   UNL A   1      34.283  32.428  29.587  1.00  0.00     0.014 A 
ATOM     29  C   UNL A   1      36.785  33.586  29.164  1.00  0.00     0.010 A 
ATOM     30  C   UNL A   1      35.414  31.872  30.180  1.00  0.00     0.010 A 
ATOM     31  C   UNL A   1      36.678  32.447  29.978  1.00  0.00    -0.014 A 
BRANCH  31  32
ATOM     32  C   UNL A   1      37.868  31.852  30.642  1.00  0.00     0.031 A 
ATOM     33  C   UNL A   1      38.672  30.791  29.940  1.00  0.00     0.074 A 
ATOM     34  C   UNL A   1      38.175  32.212  31.905  1.00  0.00     0.049 A 
ATOM     35  N   UNL A   1      39.676  30.083  30.389  1.00  0.00    -0.248 NA
ATOM     36  C   UNL A   1      38.277  30.465  28.560  1.00  0.00     0.031 C 
ATOM     37  C   UNL A   1      37.449  33.207  32.699  1.00  0.00     0.029 A 
ATOM     38  N   UNL A   1      39.164  31.776  32.751  1.00  0.00    -0.354 N 
ATOM     39  C   UNL A   1      40.020  29.214  29.358  1.00  0.00     0.074 A 
ATOM     40  C   UNL A   1      39.086  29.455  28.278  1.00  0.00     0.031 C 
ATOM     41  C   UNL A   1      38.029  33.317  33.905  1.00  0.00     0.029 A 
ATOM     42  C   UNL A   1      39.128  32.361  33.997  1.00  0.00     0.049 A 
ATOM     43  H   UNL A   1      39.838  31.106  32.491  1.00  0.00     0.167 HD
ATOM     44  C   UNL A   1      41.031  28.313  29.314  1.00  0.00     0.034 A 
ATOM     45  C   UNL A   1      39.875  32.136  35.097  1.00  0.00     0.034 A 
ATOM     46  C   UNL A   1      41.963  28.100  30.394  1.00  0.00     0.049 A 
ATOM     47  C   UNL A   1      40.966  31.094  35.034  1.00  0.00     0.074 A 
ATOM     48  C   UNL A   1      43.072  27.273  30.422  1.00  0.00     0.029 A 
ATOM     49  N   UNL A   1      41.888  28.704  31.644  1.00  0.00    -0.354 N 
ATOM     50  N   UNL A   1      41.323  30.334  34.024  1.00  0.00    -0.248 NA
ATOM     51  C   UNL A   1      41.755  30.882  36.254  1.00  0.00     0.031 C 
ATOM     52  C   UNL A   1      43.612  27.306  31.711  1.00  0.00     0.029 A 
ATOM     53  C   UNL A   1      42.899  28.225  32.464  1.00  0.00     0.049 A 
ATOM     54  H   UNL A   1      41.215  29.372  31.908  1.00  0.00     0.167 HD
ATOM     55  C   UNL A   1      42.401  29.579  34.481  1.00  0.00     0.074 A 
ATOM     56  C   UNL A   1      42.644  29.987  35.849  1.00  0.00     0.031 C 
ATOM     57  C   UNL A   1      43.126  28.635  33.829  1.00  0.00     0.034 A 
BRANCH  44  58
ATOM     58  C   UNL A   1      41.164  27.461  28.074  1.00  0.00     0.023 A 
ATOM     59  C   UNL A   1      40.775  26.110  28.053  1.00  0.00     0.031 A 
ATOM     60  C   UNL A   1      41.684  28.014  26.890  1.00  0.00     0.131 A 
ATOM     61  C   UNL A   1      40.968  25.344  26.893  1.00  0.00     0.055 A 
ATOM     62  C   UNL A   1      41.800  27.267  25.717  1.00  0.00     0.041 A 
ATOM     63  F   UNL A   1      42.095  29.291  26.855  1.00  0.00    -0.206 F 
ATOM     64  C   UNL A   1      41.452  25.920  25.717  1.00  0.00     0.022 A 
BRANCH  61  65
ATOM     65  S   UNL A   1      40.702  23.553  26.983  1.00  0.00     0.124 S 
ATOM     66  O   UNL A   1      41.172  23.251  28.334  1.00  0.00    -0.237 OA
ATOM     67  O   UNL A   1      39.264  23.436  26.766  1.00  0.00    -0.237 OA
ATOM     68  O   UNL A   1      41.540  23.027  25.907  1.00  0.00    -0.744 OA
ENDBRANCH  61  65
ENDBRANCH  44  58
BRANCH  45  69
ATOM     69  C   UNL A   1      39.607  32.876  36.366  1.00  0.00     0.023 A 
ATOM     70  C   UNL A   1      38.732  32.358  37.334  1.00  0.00     0.031 A 
ATOM     71  C   UNL A   1      40.169  34.145  36.601  1.00  0.00     0.131 A 
ATOM     72  C   UNL A   1      38.393  33.129  38.457  1.00  0.00     0.055 A 
ATOM     73  C   UNL A   1      39.882  34.878  37.753  1.00  0.00     0.041 A 
ATOM     74  F   UNL A   1      41.012  34.690  35.710  1.00  0.00    -0.206 F 
ATOM     75  C   UNL A   1      38.975  34.379  38.682  1.00  0.00     0.022 A 
BRANCH  72  76
ATOM     76  S   UNL A   1      37.087  32.525  39.561  1.00  0.00     0.124 S 
ATOM     77  O   UNL A   1      37.586  31.202  39.911  1.00  0.00    -0.237 OA
ATOM     78  O   UNL A   1      37.107  33.523  40.627  1.00  0.00    -0.237 OA
ATOM     79  O   UNL A   1      35.894  32.541  38.717  1.00  0.00    -0.744 OA
ENDBRANCH  72  76
ENDBRANCH  45  69
BRANCH  57  80
ATOM     80  C   UNL A   1      44.281  28.014  34.574  1.00  0.00     0.023 A 
ATOM     81  C   UNL A   1      44.135  26.826  35.312  1.00  0.00     0.031 A 
ATOM     82  C   UNL A   1      45.552  28.616  34.535  1.00  0.00     0.131 A 
ATOM     83  C   UNL A   1      45.229  26.304  36.019  1.00  0.00     0.055 A 
ATOM     84  C   UNL A   1      46.651  28.057  35.188  1.00  0.00     0.041 A 
ATOM     85  F   UNL A   1      45.748  29.754  33.850  1.00  0.00    -0.206 F 
ATOM     86  C   UNL A   1      46.490  26.900  35.945  1.00  0.00     0.022 A 
BRANCH  83  87
ATOM     87  S   UNL A   1      44.964  24.875  37.106  1.00  0.00     0.124 S 
ATOM     88  O   UNL A   1      44.932  23.771  36.152  1.00  0.00    -0.237 OA
ATOM     89  O   UNL A   1      46.131  24.928  37.981  1.00  0.00    -0.237 OA
ATOM     90  O   UNL A   1      43.689  25.170  37.756  1.00  0.00    -0.744 OA
ENDBRANCH  83  87
ENDBRANCH  57  80
ENDBRANCH  31  32
ENDBRANCH  23  26
ENDBRANCH  21  22
ENDBRANCH   1  21
TORSDOF 16
ENDMDL
MODEL 3
REMARK VINA RESULT:     -11.6      1.985      2.923
REMARK SMILES C[C@@H](C(=O)NCCCNC(=O)c1ccc(-c2c3nc(c(-c4cc(S(=O)(=O)[O-])ccc4F)c4ccc([nH]4)c(-c4cc(S(=O)(=O)[O-])ccc4F)c4nc(c(-c5cc(S(=O)(=O)[O-])ccc5F)c5ccc2[nH]5)C=C4)C=C3)cc1)[C@H](C)[S@@](=O)c1ccc(F)c(F)c1
REMARK SMILES IDX 7 1 6 2 5 3 3 4 4 5 2 7 1 8 75 9 76 10 77 11 78 12 79 13
REMARK SMILES IDX 80 14 86 15 81 16 84 17 82 18 85 19 83 20 8 21 9 22 10 23
REMARK SMILES IDX 11 25 12 26 13 27 74 28 14 29 73 30 15 31 16 32 17 33 67 34
REMARK SMILES IDX 18 35 72 36 66 37 68 38 19 39 71 40 65 41 64 42 20 44 52 45
REMARK SMILES IDX 32 46 51 47 33 48 36 49 50 50 69 51 34 52 35 53 49 55 70 56
REMARK SMILES IDX 37 57 21 58 22 59 30 60 23 61 29 62 31 63 28 64 24 65 25 66
REMARK SMILES IDX 26 67 27 68 53 69 54 70 62 71 55 72 61 73 63 74 60 75 56 76
REMARK SMILES IDX 57 77 58 78 59 79 38 80 39 81 47 82 40 83 46 84 48 85 45 86
REMARK SMILES IDX 41 87 42 88 43 89 44 90
REMARK H PARENT 5 6 9 24 68 43 36 54
REMARK Flexibility Score: inf
ROOT
ATOM      1  C   UNL A   1      31.753  31.388  26.735  1.00  0.00     0.042 C 
ENDROOT
BRANCH   1   2
ATOM      2  C   UNL A   1      32.115  30.193  25.861  1.00  0.00     0.117 C 
BRANCH   2   3
ATOM      3  N   UNL A   1      31.900  28.925  26.548  1.00  0.00    -0.356 N 
ATOM      4  C   UNL A   1      31.550  27.704  26.041  1.00  0.00     0.224 C 
ATOM      5  O   UNL A   1      31.341  26.778  26.823  1.00  0.00    -0.275 OA
ATOM      6  H   UNL A   1      32.027  28.953  27.524  1.00  0.00     0.163 HD
BRANCH   4   7
ATOM      7  C   UNL A   1      31.451  27.543  24.526  1.00  0.00     0.091 C 
ATOM      8  C   UNL A   1      30.256  26.627  24.241  1.00  0.00     0.019 C 
BRANCH   7   9
ATOM      9  C   UNL A   1      32.772  27.033  23.915  1.00  0.00     0.093 C 
ATOM     10  C   UNL A   1      33.618  28.135  23.261  1.00  0.00     0.023 C 
BRANCH   9  11
ATOM     11  S   UNL A   1      32.639  25.621  22.737  1.00  0.00     0.057 S 
ATOM     12  O   UNL A   1      33.653  25.759  21.646  1.00  0.00    -0.254 OA
BRANCH  11  13
ATOM     13  C   UNL A   1      33.104  24.131  23.645  1.00  0.00     0.042 A 
ATOM     14  C   UNL A   1      33.187  22.844  23.095  1.00  0.00     0.021 A 
ATOM     15  C   UNL A   1      33.284  24.267  25.030  1.00  0.00     0.060 A 
ATOM     16  C   UNL A   1      33.552  21.742  23.879  1.00  0.00     0.043 A 
ATOM     17  C   UNL A   1      33.594  23.158  25.816  1.00  0.00     0.160 A 
ATOM     18  C   UNL A   1      33.752  21.906  25.240  1.00  0.00     0.158 A 
ATOM     19  F   UNL A   1      33.728  23.311  27.141  1.00  0.00    -0.204 F 
ATOM     20  F   UNL A   1      34.071  20.846  25.994  1.00  0.00    -0.204 F 
ENDBRANCH  11  13
ENDBRANCH   9  11
ENDBRANCH   7   9
ENDBRANCH   4   7
ENDBRANCH   2   3
ENDBRANCH   1   2
BRANCH   1  21
ATOM     21  C   UNL A   1      32.959  32.101  27.329  1.00  0.00     0.118 C 
BRANCH  21  22
ATOM     22  N   UNL A   1      32.705  33.515  27.559  1.00  0.00    -0.352 N 
ATOM     23  C   UNL A   1      33.261  34.362  28.487  1.00  0.00     0.251 C 
ATOM     24  H   UNL A   1      32.039  33.926  26.962  1.00  0.00     0.163 HD
ATOM     25  O   UNL A   1      32.760  35.470  28.665  1.00  0.00    -0.269 OA
BRANCH  23  26
ATOM     26  C   UNL A   1      34.430  33.930  29.285  1.00  0.00     0.039 A 
ATOM     27  C   UNL A   1      34.231  33.063  30.361  1.00  0.00     0.014 A 
ATOM     28  C   UNL A   1      35.718  34.372  28.971  1.00  0.00     0.014 A 
ATOM     29  C   UNL A   1      35.333  32.580  31.074  1.00  0.00     0.010 A 
ATOM     30  C   UNL A   1      36.818  33.828  29.628  1.00  0.00     0.010 A 
ATOM     31  C   UNL A   1      36.638  32.922  30.685  1.00  0.00    -0.014 A 
BRANCH  31  32
ATOM     32  C   UNL A   1      37.826  32.332  31.355  1.00  0.00     0.031 A 
ATOM     33  C   UNL A   1      38.584  31.209  30.699  1.00  0.00     0.074 A 
ATOM     34  C   UNL A   1      38.173  32.756  32.588  1.00  0.00     0.049 A 
ATOM     35  N   UNL A   1      39.579  30.500  31.165  1.00  0.00    -0.248 NA
ATOM     36  C   UNL A   1      38.148  30.815  29.350  1.00  0.00     0.031 C 
ATOM     37  C   UNL A   1      37.494  33.815  33.338  1.00  0.00     0.029 A 
ATOM     38  N   UNL A   1      39.171  32.341  33.436  1.00  0.00    -0.354 N 
ATOM     39  C   UNL A   1      39.874  29.563  30.180  1.00  0.00     0.074 A 
ATOM     40  C   UNL A   1      38.921  29.767  29.109  1.00  0.00     0.031 C 
ATOM     41  C   UNL A   1      38.106  33.978  34.522  1.00  0.00     0.029 A 
ATOM     42  C   UNL A   1      39.180  32.998  34.645  1.00  0.00     0.049 A 
ATOM     43  H   UNL A   1      39.819  31.638  33.200  1.00  0.00     0.167 HD
ATOM     44  C   UNL A   1      40.859  28.632  30.166  1.00  0.00     0.034 A 
ATOM     45  C   UNL A   1      39.947  32.815  35.740  1.00  0.00     0.034 A 
ATOM     46  C   UNL A   1      41.810  28.456  31.236  1.00  0.00     0.049 A 
ATOM     47  C   UNL A   1      41.007  31.741  35.713  1.00  0.00     0.074 A 
ATOM     48  C   UNL A   1      42.896  27.599  31.287  1.00  0.00     0.029 A 
ATOM     49  N   UNL A   1      41.782  29.132  32.449  1.00  0.00    -0.354 N 
ATOM     50  N   UNL A   1      41.320  30.914  34.742  1.00  0.00    -0.248 NA
ATOM     51  C   UNL A   1      41.820  31.577  36.925  1.00  0.00     0.031 C 
ATOM     52  C   UNL A   1      43.468  27.692  32.559  1.00  0.00     0.029 A 
ATOM     53  C   UNL A   1      42.799  28.673  33.273  1.00  0.00     0.049 A 
ATOM     54  H   UNL A   1      41.134  29.834  32.689  1.00  0.00     0.167 HD
ATOM     55  C   UNL A   1      42.387  30.156  35.218  1.00  0.00     0.074 A 
ATOM     56  C   UNL A   1      42.673  30.634  36.554  1.00  0.00     0.031 C 
ATOM     57  C   UNL A   1      43.070  29.155  34.606  1.00  0.00     0.034 A 
BRANCH  44  58
ATOM     58  C   UNL A   1      40.938  27.706  28.976  1.00  0.00     0.023 A 
ATOM     59  C   UNL A   1      41.936  27.837  27.995  1.00  0.00     0.031 A 
ATOM     60  C   UNL A   1      39.999  26.669  28.825  1.00  0.00     0.131 A 
ATOM     61  C   UNL A   1      41.936  26.987  26.878  1.00  0.00     0.055 A 
ATOM     62  C   UNL A   1      40.053  25.777  27.753  1.00  0.00     0.041 A 
ATOM     63  F   UNL A   1      39.009  26.509  29.716  1.00  0.00    -0.206 F 
ATOM     64  C   UNL A   1      41.019  25.940  26.764  1.00  0.00     0.022 A 
BRANCH  61  65
ATOM     65  S   UNL A   1      43.071  27.352  25.511  1.00  0.00     0.124 S 
ATOM     66  O   UNL A   1      44.162  28.031  26.206  1.00  0.00    -0.237 OA
ATOM     67  O   UNL A   1      43.374  26.024  24.990  1.00  0.00    -0.237 OA
ATOM     68  O   UNL A   1      42.279  28.204  24.627  1.00  0.00    -0.744 OA
ENDBRANCH  61  65
ENDBRANCH  44  58
BRANCH  45  69
ATOM     69  C   UNL A   1      39.731  33.635  36.969  1.00  0.00     0.023 A 
ATOM     70  C   UNL A   1      39.086  33.096  38.093  1.00  0.00     0.031 A 
ATOM     71  C   UNL A   1      40.103  34.991  37.014  1.00  0.00     0.131 A 
ATOM     72  C   UNL A   1      38.776  33.920  39.186  1.00  0.00     0.055 A 
ATOM     73  C   UNL A   1      39.853  35.790  38.131  1.00  0.00     0.041 A 
ATOM     74  F   UNL A   1      40.722  35.561  35.968  1.00  0.00    -0.206 F 
ATOM     75  C   UNL A   1      39.169  35.260  39.220  1.00  0.00     0.022 A 
BRANCH  72  76
ATOM     76  S   UNL A   1      37.742  33.245  40.515  1.00  0.00     0.124 S 
ATOM     77  O   UNL A   1      38.538  32.107  40.958  1.00  0.00    -0.237 OA
ATOM     78  O   UNL A   1      37.664  34.372  41.439  1.00  0.00    -0.237 OA
ATOM     79  O   UNL A   1      36.493  32.908  39.836  1.00  0.00    -0.744 OA
ENDBRANCH  72  76
ENDBRANCH  45  69
BRANCH  57  80
ATOM     80  C   UNL A   1      44.226  28.545  35.361  1.00  0.00     0.023 A 
ATOM     81  C   UNL A   1      44.038  27.513  36.297  1.00  0.00     0.031 A 
ATOM     82  C   UNL A   1      45.537  28.997  35.129  1.00  0.00     0.131 A 
ATOM     83  C   UNL A   1      45.138  27.001  37.002  1.00  0.00     0.055 A 
ATOM     84  C   UNL A   1      46.634  28.439  35.786  1.00  0.00     0.041 A 
ATOM     85  F   UNL A   1      45.774  29.983  34.249  1.00  0.00    -0.206 F 
ATOM     86  C   UNL A   1      46.437  27.443  36.737  1.00  0.00     0.022 A 
BRANCH  83  87
ATOM     87  S   UNL A   1      44.842  25.801  38.331  1.00  0.00     0.124 S 
ATOM     88  O   UNL A   1      44.098  26.601  39.300  1.00  0.00    -0.237 OA
ATOM     89  O   UNL A   1      44.082  24.759  37.647  1.00  0.00    -0.237 OA
ATOM     90  O   UNL A   1      46.187  25.413  38.748  1.00  0.00    -0.744 OA
ENDBRANCH  83  87
ENDBRANCH  57  80
ENDBRANCH  31  32
ENDBRANCH  23  26
ENDBRANCH  21  22
ENDBRANCH   1  21
TORSDOF 16
ENDMDL
