MODEL 1
REMARK VINA RESULT:     -12.2      0.000      0.000
REMARK SMILES CC1(C)CCC[C@@H]1Nc1cccc(F)c1C(=O)NCCCNC(=O)c1ccc(-c2c3nc(c(-c4cc(S(=O)(=O)[O-])ccc4F)c4ccc([nH]4)c(-c4cc(S(=O)(=O)[O-])ccc4F)c4nc(c(-c5cc(S(=O)(=O)[O-])ccc5F)c5ccc2[nH]5)C=C4)C=C3)cc1
REMARK SMILES IDX 20 1 19 2 18 3 16 4 17 5 15 7 9 8 10 9 11 10 13 11 12 12
REMARK SMILES IDX 14 13 8 14 7 16 1 17 2 18 3 19 4 20 5 21 6 22 21 23 22 24
REMARK SMILES IDX 23 25 24 27 25 28 26 29 87 30 27 31 86 32 28 33 29 34 30 35
REMARK SMILES IDX 80 36 31 37 85 38 79 39 81 40 32 41 84 42 78 43 77 44 33 46
REMARK SMILES IDX 65 47 45 48 64 49 46 50 49 51 63 52 82 53 47 54 48 55 62 57
REMARK SMILES IDX 83 58 50 59 34 60 35 61 43 62 36 63 42 64 44 65 41 66 37 67
REMARK SMILES IDX 38 68 39 69 40 70 66 71 67 72 75 73 68 74 74 75 76 76 73 77
REMARK SMILES IDX 69 78 70 79 71 80 72 81 51 82 52 83 60 84 53 85 59 86 61 87
REMARK SMILES IDX 58 88 54 89 55 90 56 91 57 92
REMARK H PARENT 18 6 8 15 22 26 81 45 49 56
REMARK Flexibility Score: inf
ROOT
ATOM      1  C   UNL A   1      38.031  19.699  25.010  1.00  0.00     0.042 C 
ENDROOT
BRANCH   1   2
ATOM      2  C   UNL A   1      37.048  20.812  24.637  1.00  0.00     0.118 C 
BRANCH   2   3
ATOM      3  N   UNL A   1      35.999  20.920  25.633  1.00  0.00    -0.352 N 
ATOM      4  C   UNL A   1      34.681  20.548  25.688  1.00  0.00     0.256 C 
ATOM      5  O   UNL A   1      34.092  20.911  26.713  1.00  0.00    -0.269 OA
ATOM      6  H   UNL A   1      36.303  21.362  26.458  1.00  0.00     0.163 HD
BRANCH   4   7
ATOM      7  C   UNL A   1      33.956  19.695  24.687  1.00  0.00     0.098 A 
ATOM      8  C   UNL A   1      32.804  20.243  24.039  1.00  0.00     0.050 A 
ATOM      9  C   UNL A   1      32.071  19.436  23.148  1.00  0.00     0.027 A 
ATOM     10  C   UNL A   1      32.457  18.128  22.866  1.00  0.00     0.005 A 
ATOM     11  C   UNL A   1      34.352  18.404  24.332  1.00  0.00     0.138 A 
ATOM     12  C   UNL A   1      33.604  17.618  23.452  1.00  0.00     0.040 A 
ATOM     13  F   UNL A   1      35.501  17.869  24.756  1.00  0.00    -0.206 F 
BRANCH   8  14
ATOM     14  N   UNL A   1      32.402  21.560  24.268  1.00  0.00    -0.381 N 
ATOM     15  H   UNL A   1      32.085  21.792  25.171  1.00  0.00     0.160 HD
BRANCH  14  16
ATOM     16  C   UNL A   1      32.420  22.610  23.270  1.00  0.00     0.084 C 
ATOM     17  C   UNL A   1      34.896  23.128  22.930  1.00  0.00     0.013 C 
ATOM     18  C   UNL A   1      33.563  23.635  23.490  1.00  0.00    -0.015 C 
ATOM     19  C   UNL A   1      33.771  24.056  24.959  1.00  0.00     0.013 C 
ATOM     20  C   UNL A   1      33.036  24.828  22.672  1.00  0.00     0.008 C 
ATOM     21  C   UNL A   1      31.542  24.878  22.976  1.00  0.00     0.003 C 
ATOM     22  C   UNL A   1      31.135  23.447  23.324  1.00  0.00     0.025 C 
ENDBRANCH  14  16
ENDBRANCH   8  14
ENDBRANCH   4   7
ENDBRANCH   2   3
ENDBRANCH   1   2
BRANCH   1  23
ATOM     23  C   UNL A   1      39.116  20.144  25.992  1.00  0.00     0.118 C 
BRANCH  23  24
ATOM     24  N   UNL A   1      40.230  19.208  26.033  1.00  0.00    -0.352 N 
ATOM     25  C   UNL A   1      41.582  19.439  26.076  1.00  0.00     0.251 C 
ATOM     26  H   UNL A   1      39.971  18.257  26.029  1.00  0.00     0.163 HD
ATOM     27  O   UNL A   1      42.350  18.509  25.845  1.00  0.00    -0.269 OA
BRANCH  25  28
ATOM     28  C   UNL A   1      42.119  20.783  26.390  1.00  0.00     0.039 A 
ATOM     29  C   UNL A   1      42.429  21.645  25.334  1.00  0.00     0.014 A 
ATOM     30  C   UNL A   1      42.381  21.174  27.706  1.00  0.00     0.014 A 
ATOM     31  C   UNL A   1      42.955  22.913  25.599  1.00  0.00     0.010 A 
ATOM     32  C   UNL A   1      42.845  22.463  27.973  1.00  0.00     0.010 A 
ATOM     33  C   UNL A   1      43.141  23.345  26.923  1.00  0.00    -0.014 A 
BRANCH  33  34
ATOM     34  C   UNL A   1      43.645  24.712  27.221  1.00  0.00     0.031 A 
ATOM     35  C   UNL A   1      42.709  25.769  27.745  1.00  0.00     0.074 A 
ATOM     36  C   UNL A   1      44.936  25.013  26.976  1.00  0.00     0.049 A 
ATOM     37  N   UNL A   1      42.943  27.033  27.981  1.00  0.00    -0.248 NA
ATOM     38  C   UNL A   1      41.324  25.354  28.017  1.00  0.00     0.031 C 
ATOM     39  C   UNL A   1      45.933  24.080  26.444  1.00  0.00     0.029 A 
ATOM     40  N   UNL A   1      45.633  26.185  27.136  1.00  0.00    -0.354 N 
ATOM     41  C   UNL A   1      41.734  27.570  28.411  1.00  0.00     0.074 A 
ATOM     42  C   UNL A   1      40.759  26.502  28.365  1.00  0.00     0.031 C 
ATOM     43  C   UNL A   1      47.116  24.707  26.350  1.00  0.00     0.029 A 
ATOM     44  C   UNL A   1      46.956  26.097  26.768  1.00  0.00     0.049 A 
ATOM     45  H   UNL A   1      45.224  27.011  27.482  1.00  0.00     0.167 HD
ATOM     46  C   UNL A   1      41.470  28.834  28.824  1.00  0.00     0.034 A 
ATOM     47  C   UNL A   1      47.929  27.029  26.754  1.00  0.00     0.034 A 
ATOM     48  C   UNL A   1      42.457  29.881  28.898  1.00  0.00     0.049 A 
ATOM     49  C   UNL A   1      47.606  28.428  27.204  1.00  0.00     0.074 A 
ATOM     50  C   UNL A   1      42.302  31.176  29.358  1.00  0.00     0.029 A 
ATOM     51  N   UNL A   1      43.782  29.753  28.501  1.00  0.00    -0.354 N 
ATOM     52  N   UNL A   1      46.459  28.915  27.616  1.00  0.00    -0.248 NA
ATOM     53  C   UNL A   1      48.704  29.406  27.186  1.00  0.00     0.031 C 
ATOM     54  C   UNL A   1      43.515  31.849  29.189  1.00  0.00     0.029 A 
ATOM     55  C   UNL A   1      44.447  30.955  28.684  1.00  0.00     0.049 A 
ATOM     56  H   UNL A   1      44.189  28.931  28.145  1.00  0.00     0.167 HD
ATOM     57  C   UNL A   1      46.702  30.249  27.925  1.00  0.00     0.074 A 
ATOM     58  C   UNL A   1      48.104  30.492  27.655  1.00  0.00     0.031 C 
ATOM     59  C   UNL A   1      45.841  31.186  28.396  1.00  0.00     0.034 A 
BRANCH  46  60
ATOM     60  C   UNL A   1      40.053  29.164  29.217  1.00  0.00     0.023 A 
ATOM     61  C   UNL A   1      39.650  29.197  30.563  1.00  0.00     0.031 A 
ATOM     62  C   UNL A   1      39.101  29.481  28.233  1.00  0.00     0.131 A 
ATOM     63  C   UNL A   1      38.319  29.500  30.886  1.00  0.00     0.055 A 
ATOM     64  C   UNL A   1      37.794  29.844  28.563  1.00  0.00     0.041 A 
ATOM     65  F   UNL A   1      39.429  29.450  26.931  1.00  0.00    -0.206 F 
ATOM     66  C   UNL A   1      37.395  29.849  29.897  1.00  0.00     0.022 A 
BRANCH  63  67
ATOM     67  S   UNL A   1      37.791  29.368  32.615  1.00  0.00     0.124 S 
ATOM     68  O   UNL A   1      38.895  30.025  33.309  1.00  0.00    -0.237 OA
ATOM     69  O   UNL A   1      36.520  30.084  32.616  1.00  0.00    -0.237 OA
ATOM     70  O   UNL A   1      37.693  27.927  32.834  1.00  0.00    -0.744 OA
ENDBRANCH  63  67
ENDBRANCH  46  60
BRANCH  47  71
ATOM     71  C   UNL A   1      49.295  26.669  26.284  1.00  0.00     0.023 A 
ATOM     72  C   UNL A   1      49.770  27.106  25.037  1.00  0.00     0.031 A 
ATOM     73  C   UNL A   1      50.150  25.892  27.086  1.00  0.00     0.131 A 
ATOM     74  C   UNL A   1      51.061  26.748  24.620  1.00  0.00     0.055 A 
ATOM     75  C   UNL A   1      51.447  25.570  26.682  1.00  0.00     0.041 A 
ATOM     76  F   UNL A   1      49.744  25.460  28.290  1.00  0.00    -0.206 F 
ATOM     77  C   UNL A   1      51.908  25.995  25.439  1.00  0.00     0.022 A 
BRANCH  74  78
ATOM     78  S   UNL A   1      51.620  27.264  22.974  1.00  0.00     0.124 S 
ATOM     79  O   UNL A   1      52.833  26.471  22.810  1.00  0.00    -0.237 OA
ATOM     80  O   UNL A   1      50.488  26.887  22.135  1.00  0.00    -0.237 OA
ATOM     81  O   UNL A   1      51.829  28.702  23.120  1.00  0.00    -0.744 OA
ENDBRANCH  74  78
ENDBRANCH  47  71
BRANCH  59  82
ATOM     82  C   UNL A   1      46.392  32.557  28.679  1.00  0.00     0.023 A 
ATOM     83  C   UNL A   1      46.512  33.523  27.667  1.00  0.00     0.031 A 
ATOM     84  C   UNL A   1      46.745  32.916  29.992  1.00  0.00     0.131 A 
ATOM     85  C   UNL A   1      46.992  34.803  27.982  1.00  0.00     0.055 A 
ATOM     86  C   UNL A   1      47.181  34.203  30.307  1.00  0.00     0.041 A 
ATOM     87  F   UNL A   1      46.645  32.027  30.993  1.00  0.00    -0.206 F 
ATOM     88  C   UNL A   1      47.310  35.153  29.297  1.00  0.00     0.022 A 
BRANCH  85  89
ATOM     89  S   UNL A   1      47.218  36.005  26.644  1.00  0.00     0.124 S 
ATOM     90  O   UNL A   1      47.296  35.139  25.471  1.00  0.00    -0.237 OA
ATOM     91  O   UNL A   1      46.018  36.827  26.750  1.00  0.00    -0.237 OA
ATOM     92  O   UNL A   1      48.464  36.682  26.998  1.00  0.00    -0.744 OA
ENDBRANCH  85  89
ENDBRANCH  59  82
ENDBRANCH  33  34
ENDBRANCH  25  28
ENDBRANCH  23  24
ENDBRANCH   1  23
TORSDOF 15
ENDMDL
MODEL 2
REMARK VINA RESULT:     -11.9      4.895      8.267
REMARK SMILES CC1(C)CCC[C@@H]1Nc1cccc(F)c1C(=O)NCCCNC(=O)c1ccc(-c2c3nc(c(-c4cc(S(=O)(=O)[O-])ccc4F)c4ccc([nH]4)c(-c4cc(S(=O)(=O)[O-])ccc4F)c4nc(c(-c5cc(S(=O)(=O)[O-])ccc5F)c5ccc2[nH]5)C=C4)C=C3)cc1
REMARK SMILES IDX 20 1 19 2 18 3 16 4 17 5 15 7 9 8 10 9 11 10 13 11 12 12
REMARK SMILES IDX 14 13 8 14 7 16 1 17 2 18 3 19 4 20 5 21 6 22 21 23 22 24
REMARK SMILES IDX 23 25 24 27 25 28 26 29 87 30 27 31 86 32 28 33 29 34 30 35
REMARK SMILES IDX 80 36 31 37 85 38 79 39 81 40 32 41 84 42 78 43 77 44 33 46
REMARK SMILES IDX 65 47 45 48 64 49 46 50 49 51 63 52 82 53 47 54 48 55 62 57
REMARK SMILES IDX 83 58 50 59 34 60 35 61 43 62 36 63 42 64 44 65 41 66 37 67
REMARK SMILES IDX 38 68 39 69 40 70 66 71 67 72 75 73 68 74 74 75 76 76 73 77
REMARK SMILES IDX 69 78 70 79 71 80 72 81 51 82 52 83 60 84 53 85 59 86 61 87
REMARK SMILES IDX 58 88 54 89 55 90 56 91 57 92
REMARK H PARENT 18 6 8 15 22 26 81 45 49 56
REMARK Flexibility Score: inf
ROOT
ATOM      1  C   UNL A   1      33.268  27.881  26.852  1.00  0.00     0.042 C 
ENDROOT
BRANCH   1   2
ATOM      2  C   UNL A   1      31.788  28.221  27.046  1.00  0.00     0.118 C 
BRANCH   2   3
ATOM      3  N   UNL A   1      30.981  27.016  27.016  1.00  0.00    -0.352 N 
ATOM      4  C   UNL A   1      30.533  26.181  26.026  1.00  0.00     0.256 C 
ATOM      5  O   UNL A   1      29.774  25.287  26.418  1.00  0.00    -0.269 OA
ATOM      6  H   UNL A   1      30.687  26.734  27.912  1.00  0.00     0.163 HD
BRANCH   4   7
ATOM      7  C   UNL A   1      30.946  26.212  24.582  1.00  0.00     0.098 A 
ATOM      8  C   UNL A   1      31.698  25.109  24.069  1.00  0.00     0.050 A 
ATOM      9  C   UNL A   1      32.151  25.150  22.737  1.00  0.00     0.027 A 
ATOM     10  C   UNL A   1      31.863  26.227  21.903  1.00  0.00     0.005 A 
ATOM     11  C   UNL A   1      30.619  27.245  23.701  1.00  0.00     0.138 A 
ATOM     12  C   UNL A   1      31.088  27.270  22.386  1.00  0.00     0.040 A 
ATOM     13  F   UNL A   1      29.786  28.234  24.039  1.00  0.00    -0.206 F 
BRANCH   8  14
ATOM     14  N   UNL A   1      31.980  23.994  24.861  1.00  0.00    -0.381 N 
ATOM     15  H   UNL A   1      31.430  23.189  24.730  1.00  0.00     0.160 HD
BRANCH  14  16
ATOM     16  C   UNL A   1      33.027  23.939  25.860  1.00  0.00     0.084 C 
ATOM     17  C   UNL A   1      35.194  24.185  24.533  1.00  0.00     0.013 C 
ATOM     18  C   UNL A   1      34.313  23.236  25.352  1.00  0.00    -0.015 C 
ATOM     19  C   UNL A   1      34.060  21.958  24.527  1.00  0.00     0.013 C 
ATOM     20  C   UNL A   1      34.985  22.873  26.689  1.00  0.00     0.008 C 
ATOM     21  C   UNL A   1      33.843  22.399  27.582  1.00  0.00     0.003 C 
ATOM     22  C   UNL A   1      32.589  23.112  27.076  1.00  0.00     0.025 C 
ENDBRANCH  14  16
ENDBRANCH   8  14
ENDBRANCH   4   7
ENDBRANCH   2   3
ENDBRANCH   1   2
BRANCH   1  23
ATOM     23  C   UNL A   1      34.044  28.941  26.070  1.00  0.00     0.118 C 
BRANCH  23  24
ATOM     24  N   UNL A   1      33.896  30.266  26.656  1.00  0.00    -0.352 N 
ATOM     25  C   UNL A   1      34.599  30.871  27.667  1.00  0.00     0.251 C 
ATOM     26  H   UNL A   1      33.178  30.814  26.264  1.00  0.00     0.163 HD
ATOM     27  O   UNL A   1      34.144  31.892  28.178  1.00  0.00    -0.269 OA
BRANCH  25  28
ATOM     28  C   UNL A   1      35.885  30.313  28.147  1.00  0.00     0.039 A 
ATOM     29  C   UNL A   1      37.021  30.463  27.347  1.00  0.00     0.014 A 
ATOM     30  C   UNL A   1      35.965  29.590  29.340  1.00  0.00     0.014 A 
ATOM     31  C   UNL A   1      38.245  29.931  27.765  1.00  0.00     0.010 A 
ATOM     32  C   UNL A   1      37.200  29.115  29.787  1.00  0.00     0.010 A 
ATOM     33  C   UNL A   1      38.351  29.277  29.003  1.00  0.00    -0.014 A 
BRANCH  33  34
ATOM     34  C   UNL A   1      39.658  28.757  29.487  1.00  0.00     0.031 A 
ATOM     35  C   UNL A   1      40.385  29.454  30.607  1.00  0.00     0.074 A 
ATOM     36  C   UNL A   1      40.210  27.684  28.886  1.00  0.00     0.049 A 
ATOM     37  N   UNL A   1      41.567  29.201  31.104  1.00  0.00    -0.248 NA
ATOM     38  C   UNL A   1      39.702  30.597  31.232  1.00  0.00     0.031 C 
ATOM     39  C   UNL A   1      39.613  26.940  27.774  1.00  0.00     0.029 A 
ATOM     40  N   UNL A   1      41.397  27.033  29.119  1.00  0.00    -0.354 N 
ATOM     41  C   UNL A   1      41.780  30.162  32.087  1.00  0.00     0.074 A 
ATOM     42  C   UNL A   1      40.620  31.028  32.087  1.00  0.00     0.031 C 
ATOM     43  C   UNL A   1      40.421  25.920  27.443  1.00  0.00     0.029 A 
ATOM     44  C   UNL A   1      41.615  25.962  28.283  1.00  0.00     0.049 A 
ATOM     45  H   UNL A   1      42.032  27.307  29.820  1.00  0.00     0.167 HD
ATOM     46  C   UNL A   1      42.837  30.297  32.923  1.00  0.00     0.034 A 
ATOM     47  C   UNL A   1      42.660  25.118  28.190  1.00  0.00     0.034 A 
ATOM     48  C   UNL A   1      43.972  29.409  32.937  1.00  0.00     0.049 A 
ATOM     49  C   UNL A   1      43.829  25.297  29.121  1.00  0.00     0.074 A 
ATOM     50  C   UNL A   1      45.065  29.425  33.784  1.00  0.00     0.029 A 
ATOM     51  N   UNL A   1      44.160  28.347  32.063  1.00  0.00    -0.354 N 
ATOM     52  N   UNL A   1      44.007  26.206  30.050  1.00  0.00    -0.248 NA
ATOM     53  C   UNL A   1      44.938  24.341  28.993  1.00  0.00     0.031 C 
ATOM     54  C   UNL A   1      45.941  28.411  33.389  1.00  0.00     0.029 A 
ATOM     55  C   UNL A   1      45.364  27.717  32.337  1.00  0.00     0.049 A 
ATOM     56  H   UNL A   1      43.531  28.079  31.355  1.00  0.00     0.167 HD
ATOM     57  C   UNL A   1      45.239  25.920  30.630  1.00  0.00     0.074 A 
ATOM     58  C   UNL A   1      45.760  24.752  29.949  1.00  0.00     0.031 C 
ATOM     59  C   UNL A   1      45.876  26.564  31.639  1.00  0.00     0.034 A 
BRANCH  46  60
ATOM     60  C   UNL A   1      42.829  31.455  33.888  1.00  0.00     0.023 A 
ATOM     61  C   UNL A   1      42.212  31.360  35.147  1.00  0.00     0.031 A 
ATOM     62  C   UNL A   1      43.475  32.658  33.556  1.00  0.00     0.131 A 
ATOM     63  C   UNL A   1      42.220  32.464  36.013  1.00  0.00     0.055 A 
ATOM     64  C   UNL A   1      43.534  33.732  34.447  1.00  0.00     0.041 A 
ATOM     65  F   UNL A   1      44.067  32.807  32.360  1.00  0.00    -0.206 F 
ATOM     66  C   UNL A   1      42.898  33.640  35.681  1.00  0.00     0.022 A 
BRANCH  63  67
ATOM     67  S   UNL A   1      41.272  32.368  37.555  1.00  0.00     0.124 S 
ATOM     68  O   UNL A   1      40.048  31.710  37.106  1.00  0.00    -0.237 OA
ATOM     69  O   UNL A   1      42.144  31.576  38.417  1.00  0.00    -0.237 OA
ATOM     70  O   UNL A   1      41.113  33.767  37.947  1.00  0.00    -0.744 OA
ENDBRANCH  63  67
ENDBRANCH  46  60
BRANCH  47  71
ATOM     71  C   UNL A   1      42.651  24.036  27.167  1.00  0.00     0.023 A 
ATOM     72  C   UNL A   1      41.841  22.900  27.323  1.00  0.00     0.031 A 
ATOM     73  C   UNL A   1      43.445  24.132  26.010  1.00  0.00     0.131 A 
ATOM     74  C   UNL A   1      41.855  21.895  26.343  1.00  0.00     0.055 A 
ATOM     75  C   UNL A   1      43.427  23.147  25.021  1.00  0.00     0.041 A 
ATOM     76  F   UNL A   1      44.228  25.205  25.812  1.00  0.00    -0.206 F 
ATOM     77  C   UNL A   1      42.632  22.017  25.187  1.00  0.00     0.022 A 
BRANCH  74  78
ATOM     78  S   UNL A   1      40.855  20.406  26.607  1.00  0.00     0.124 S 
ATOM     79  O   UNL A   1      40.936  20.246  28.054  1.00  0.00    -0.237 OA
ATOM     80  O   UNL A   1      39.558  20.810  26.077  1.00  0.00    -0.237 OA
ATOM     81  O   UNL A   1      41.551  19.385  25.826  1.00  0.00    -0.744 OA
ENDBRANCH  74  78
ENDBRANCH  47  71
BRANCH  59  82
ATOM     82  C   UNL A   1      47.198  26.007  32.094  1.00  0.00     0.023 A 
ATOM     83  C   UNL A   1      48.395  26.326  31.433  1.00  0.00     0.031 A 
ATOM     84  C   UNL A   1      47.263  25.195  33.240  1.00  0.00     0.131 A 
ATOM     85  C   UNL A   1      49.611  25.818  31.913  1.00  0.00     0.055 A 
ATOM     86  C   UNL A   1      48.479  24.728  33.739  1.00  0.00     0.041 A 
ATOM     87  F   UNL A   1      46.145  24.865  33.907  1.00  0.00    -0.206 F 
ATOM     88  C   UNL A   1      49.662  25.037  33.072  1.00  0.00     0.022 A 
BRANCH  85  89
ATOM     89  S   UNL A   1      51.132  26.174  30.994  1.00  0.00     0.124 S 
ATOM     90  O   UNL A   1      50.771  25.756  29.642  1.00  0.00    -0.237 OA
ATOM     91  O   UNL A   1      51.296  27.610  31.194  1.00  0.00    -0.237 OA
ATOM     92  O   UNL A   1      52.135  25.340  31.653  1.00  0.00    -0.744 OA
ENDBRANCH  85  89
ENDBRANCH  59  82
ENDBRANCH  33  34
ENDBRANCH  25  28
ENDBRANCH  23  24
ENDBRANCH   1  23
TORSDOF 15
ENDMDL
MODEL 3
REMARK VINA RESULT:     -11.9      2.512      3.542
REMARK SMILES CC1(C)CCC[C@@H]1Nc1cccc(F)c1C(=O)NCCCNC(=O)c1ccc(-c2c3nc(c(-c4cc(S(=O)(=O)[O-])ccc4F)c4ccc([nH]4)c(-c4cc(S(=O)(=O)[O-])ccc4F)c4nc(c(-c5cc(S(=O)(=O)[O-])ccc5F)c5ccc2[nH]5)C=C4)C=C3)cc1
REMARK SMILES IDX 20 1 19 2 18 3 16 4 17 5 15 7 9 8 10 9 11 10 13 11 12 12
REMARK SMILES IDX 14 13 8 14 7 16 1 17 2 18 3 19 4 20 5 21 6 22 21 23 22 24
REMARK SMILES IDX 23 25 24 27 25 28 26 29 87 30 27 31 86 32 28 33 29 34 30 35
REMARK SMILES IDX 80 36 31 37 85 38 79 39 81 40 32 41 84 42 78 43 77 44 33 46
REMARK SMILES IDX 65 47 45 48 64 49 46 50 49 51 63 52 82 53 47 54 48 55 62 57
REMARK SMILES IDX 83 58 50 59 34 60 35 61 43 62 36 63 42 64 44 65 41 66 37 67
REMARK SMILES IDX 38 68 39 69 40 70 66 71 67 72 75 73 68 74 74 75 76 76 73 77
REMARK SMILES IDX 69 78 70 79 71 80 72 81 51 82 52 83 60 84 53 85 59 86 61 87
REMARK SMILES IDX 58 88 54 89 55 90 56 91 57 92
REMARK H PARENT 18 6 8 15 22 26 81 45 49 56
REMARK Flexibility Score: inf
ROOT
ATOM      1  C   UNL A   1      35.197  22.512  27.161  1.00  0.00     0.042 C 
ENDROOT
BRANCH   1   2
ATOM      2  C   UNL A   1      34.024  21.595  27.517  1.00  0.00     0.118 C 
BRANCH   2   3
ATOM      3  N   UNL A   1      32.797  22.360  27.637  1.00  0.00    -0.352 N 
ATOM      4  C   UNL A   1      32.027  23.088  26.768  1.00  0.00     0.256 C 
ATOM      5  O   UNL A   1      31.079  23.678  27.299  1.00  0.00    -0.269 OA
ATOM      6  H   UNL A   1      32.435  22.356  28.552  1.00  0.00     0.163 HD
BRANCH   4   7
ATOM      7  C   UNL A   1      32.186  23.148  25.276  1.00  0.00     0.098 A 
ATOM      8  C   UNL A   1      32.550  24.398  24.683  1.00  0.00     0.050 A 
ATOM      9  C   UNL A   1      32.639  24.490  23.281  1.00  0.00     0.027 A 
ATOM     10  C   UNL A   1      32.404  23.389  22.463  1.00  0.00     0.005 A 
ATOM     11  C   UNL A   1      32.022  22.048  24.431  1.00  0.00     0.138 A 
ATOM     12  C   UNL A   1      32.105  22.165  23.042  1.00  0.00     0.040 A 
ATOM     13  F   UNL A   1      31.844  20.809  24.899  1.00  0.00    -0.206 F 
BRANCH   8  14
ATOM     14  N   UNL A   1      32.827  25.518  25.468  1.00  0.00    -0.381 N 
ATOM     15  H   UNL A   1      33.691  25.546  25.939  1.00  0.00     0.160 HD
BRANCH  14  16
ATOM     16  C   UNL A   1      31.932  26.644  25.638  1.00  0.00     0.084 C 
ATOM     17  C   UNL A   1      31.839  27.742  23.335  1.00  0.00     0.013 C 
ATOM     18  C   UNL A   1      32.334  27.872  24.779  1.00  0.00    -0.015 C 
ATOM     19  C   UNL A   1      33.846  28.171  24.760  1.00  0.00     0.013 C 
ATOM     20  C   UNL A   1      31.587  28.994  25.521  1.00  0.00     0.008 C 
ATOM     21  C   UNL A   1      31.773  28.674  27.001  1.00  0.00     0.003 C 
ATOM     22  C   UNL A   1      31.957  27.159  27.084  1.00  0.00     0.025 C 
ENDBRANCH  14  16
ENDBRANCH   8  14
ENDBRANCH   4   7
ENDBRANCH   2   3
ENDBRANCH   1   2
BRANCH   1  23
ATOM     23  C   UNL A   1      35.729  22.304  25.742  1.00  0.00     0.118 C 
BRANCH  23  24
ATOM     24  N   UNL A   1      36.684  21.207  25.676  1.00  0.00    -0.352 N 
ATOM     25  C   UNL A   1      38.055  21.222  25.710  1.00  0.00     0.251 C 
ATOM     26  H   UNL A   1      36.280  20.312  25.592  1.00  0.00     0.163 HD
ATOM     27  O   UNL A   1      38.668  20.209  25.380  1.00  0.00    -0.269 OA
BRANCH  25  28
ATOM     28  C   UNL A   1      38.797  22.433  26.132  1.00  0.00     0.039 A 
ATOM     29  C   UNL A   1      39.929  22.278  26.938  1.00  0.00     0.014 A 
ATOM     30  C   UNL A   1      38.352  23.714  25.797  1.00  0.00     0.014 A 
ATOM     31  C   UNL A   1      40.640  23.403  27.367  1.00  0.00     0.010 A 
ATOM     32  C   UNL A   1      39.098  24.834  26.172  1.00  0.00     0.010 A 
ATOM     33  C   UNL A   1      40.247  24.690  26.964  1.00  0.00    -0.014 A 
BRANCH  33  34
ATOM     34  C   UNL A   1      41.026  25.892  27.365  1.00  0.00     0.031 A 
ATOM     35  C   UNL A   1      40.399  26.948  28.235  1.00  0.00     0.074 A 
ATOM     36  C   UNL A   1      42.283  26.053  26.906  1.00  0.00     0.049 A 
ATOM     37  N   UNL A   1      40.887  28.100  28.616  1.00  0.00    -0.248 NA
ATOM     38  C   UNL A   1      39.035  26.685  28.722  1.00  0.00     0.031 C 
ATOM     39  C   UNL A   1      42.990  25.110  26.035  1.00  0.00     0.029 A 
ATOM     40  N   UNL A   1      43.190  27.065  27.101  1.00  0.00    -0.354 N 
ATOM     41  C   UNL A   1      39.889  28.706  29.370  1.00  0.00     0.074 A 
ATOM     42  C   UNL A   1      38.751  27.812  29.359  1.00  0.00     0.031 C 
ATOM     43  C   UNL A   1      44.227  25.574  25.796  1.00  0.00     0.029 A 
ATOM     44  C   UNL A   1      44.389  26.867  26.455  1.00  0.00     0.049 A 
ATOM     45  H   UNL A   1      43.001  27.858  27.652  1.00  0.00     0.167 HD
ATOM     46  C   UNL A   1      39.926  29.892  30.026  1.00  0.00     0.034 A 
ATOM     47  C   UNL A   1      45.489  27.641  26.386  1.00  0.00     0.034 A 
ATOM     48  C   UNL A   1      41.077  30.759  30.057  1.00  0.00     0.049 A 
ATOM     49  C   UNL A   1      45.502  28.960  27.111  1.00  0.00     0.074 A 
ATOM     50  C   UNL A   1      41.235  31.951  30.741  1.00  0.00     0.029 A 
ATOM     51  N   UNL A   1      42.265  30.528  29.376  1.00  0.00    -0.354 N 
ATOM     52  N   UNL A   1      44.550  29.512  27.827  1.00  0.00    -0.248 NA
ATOM     53  C   UNL A   1      46.730  29.761  27.020  1.00  0.00     0.031 C 
ATOM     54  C   UNL A   1      42.495  32.470  30.430  1.00  0.00     0.029 A 
ATOM     55  C   UNL A   1      43.150  31.569  29.605  1.00  0.00     0.049 A 
ATOM     56  H   UNL A   1      42.452  29.741  28.816  1.00  0.00     0.167 HD
ATOM     57  C   UNL A   1      45.073  30.716  28.287  1.00  0.00     0.074 A 
ATOM     58  C   UNL A   1      46.423  30.810  27.772  1.00  0.00     0.031 C 
ATOM     59  C   UNL A   1      44.488  31.655  29.072  1.00  0.00     0.034 A 
BRANCH  46  60
ATOM     60  C   UNL A   1      38.684  30.333  30.755  1.00  0.00     0.023 A 
ATOM     61  C   UNL A   1      37.667  31.057  30.109  1.00  0.00     0.031 A 
ATOM     62  C   UNL A   1      38.500  29.997  32.108  1.00  0.00     0.131 A 
ATOM     63  C   UNL A   1      36.530  31.456  30.826  1.00  0.00     0.055 A 
ATOM     64  C   UNL A   1      37.338  30.343  32.800  1.00  0.00     0.041 A 
ATOM     65  F   UNL A   1      39.446  29.321  32.777  1.00  0.00    -0.206 F 
ATOM     66  C   UNL A   1      36.347  31.082  32.161  1.00  0.00     0.022 A 
BRANCH  63  67
ATOM     67  S   UNL A   1      35.319  32.530  30.012  1.00  0.00     0.124 S 
ATOM     68  O   UNL A   1      34.337  32.724  31.075  1.00  0.00    -0.237 OA
ATOM     69  O   UNL A   1      36.116  33.700  29.658  1.00  0.00    -0.237 OA
ATOM     70  O   UNL A   1      34.855  31.729  28.881  1.00  0.00    -0.744 OA
ENDBRANCH  63  67
ENDBRANCH  46  60
BRANCH  47  71
ATOM     71  C   UNL A   1      46.664  27.192  25.588  1.00  0.00     0.023 A 
ATOM     72  C   UNL A   1      46.875  27.663  24.283  1.00  0.00     0.031 A 
ATOM     73  C   UNL A   1      47.601  26.294  26.130  1.00  0.00     0.131 A 
ATOM     74  C   UNL A   1      47.989  27.219  23.555  1.00  0.00     0.055 A 
ATOM     75  C   UNL A   1      48.727  25.884  25.415  1.00  0.00     0.041 A 
ATOM     76  F   UNL A   1      47.447  25.824  27.378  1.00  0.00    -0.206 F 
ATOM     77  C   UNL A   1      48.924  26.344  24.116  1.00  0.00     0.022 A 
BRANCH  74  78
ATOM     78  S   UNL A   1      48.196  27.786  21.844  1.00  0.00     0.124 S 
ATOM     79  O   UNL A   1      49.349  28.671  21.962  1.00  0.00    -0.237 OA
ATOM     80  O   UNL A   1      48.417  26.533  21.132  1.00  0.00    -0.237 OA
ATOM     81  O   UNL A   1      46.927  28.449  21.550  1.00  0.00    -0.744 OA
ENDBRANCH  74  78
ENDBRANCH  47  71
BRANCH  59  82
ATOM     82  C   UNL A   1      45.310  32.857  29.448  1.00  0.00     0.023 A 
ATOM     83  C   UNL A   1      45.278  34.037  28.686  1.00  0.00     0.031 A 
ATOM     84  C   UNL A   1      46.088  32.839  30.620  1.00  0.00     0.131 A 
ATOM     85  C   UNL A   1      46.029  35.148  29.095  1.00  0.00     0.055 A 
ATOM     86  C   UNL A   1      46.799  33.962  31.044  1.00  0.00     0.041 A 
ATOM     87  F   UNL A   1      46.147  31.736  31.382  1.00  0.00    -0.206 F 
ATOM     88  C   UNL A   1      46.774  35.124  30.278  1.00  0.00     0.022 A 
BRANCH  85  89
ATOM     89  S   UNL A   1      46.039  36.629  28.049  1.00  0.00     0.124 S 
ATOM     90  O   UNL A   1      47.383  36.587  27.480  1.00  0.00    -0.237 OA
ATOM     91  O   UNL A   1      44.946  36.367  27.119  1.00  0.00    -0.237 OA
ATOM     92  O   UNL A   1      45.799  37.718  28.993  1.00  0.00    -0.744 OA
ENDBRANCH  85  89
ENDBRANCH  59  82
ENDBRANCH  33  34
ENDBRANCH  25  28
ENDBRANCH  23  24
ENDBRANCH   1  23
TORSDOF 15
ENDMDL
