MODEL 1
REMARK VINA RESULT:     -11.6      0.000      0.000
REMARK SMILES C[C@@H](C(=O)NCCCNC(=O)c1ccc(-c2c3nc(c(-c4cc(S(=O)(=O)[O-])ccc4F)c4ccc([nH]4)c(-c4cc(S(=O)(=O)[O-])ccc4F)c4nc(c(-c5cc(S(=O)(=O)[O-])ccc5F)c5ccc2[nH]5)C=C4)C=C3)cc1)c1ccc(C[C@@H]2CCC[C@@H]2O)cc1Br
REMARK SMILES IDX 6 1 5 2 3 3 4 4 2 6 1 7 75 8 76 9 87 10 77 11 86 12 88 13
REMARK SMILES IDX 78 14 79 15 80 16 81 17 84 18 82 19 83 20 85 21 7 23 8 24
REMARK SMILES IDX 9 25 10 26 11 28 12 29 13 30 74 31 14 32 73 33 15 34 16 35
REMARK SMILES IDX 17 36 67 37 18 38 72 39 66 40 68 41 19 42 71 43 65 44 64 45
REMARK SMILES IDX 20 47 52 48 32 49 51 50 33 51 36 52 50 53 69 54 34 55 35 56
REMARK SMILES IDX 49 58 70 59 37 60 21 61 22 62 30 63 23 64 29 65 31 66 28 67
REMARK SMILES IDX 24 68 25 69 26 70 27 71 53 72 54 73 62 74 55 75 61 76 63 77
REMARK SMILES IDX 60 78 56 79 57 80 58 81 59 82 38 83 39 84 47 85 40 86 46 87
REMARK SMILES IDX 48 88 45 89 41 90 42 91 43 92 44 93
REMARK H PARENT 5 5 85 22 9 27 68 46 36 57
REMARK Flexibility Score: inf
ROOT
ATOM      1  C   UNL A   1      31.849  27.485  26.337  1.00  0.00     0.117 C 
ENDROOT
BRANCH   1   2
ATOM      2  N   UNL A   1      31.437  26.212  26.895  1.00  0.00    -0.356 N 
ATOM      3  C   UNL A   1      31.402  24.964  26.347  1.00  0.00     0.227 C 
ATOM      4  O   UNL A   1      31.058  24.050  27.098  1.00  0.00    -0.274 OA
ATOM      5  H   UNL A   1      31.130  26.257  27.830  1.00  0.00     0.163 HD
BRANCH   3   6
ATOM      6  C   UNL A   1      31.871  24.736  24.902  1.00  0.00     0.106 C 
ATOM      7  C   UNL A   1      30.817  25.014  23.825  1.00  0.00     0.023 C 
BRANCH   6   8
ATOM      8  C   UNL A   1      32.514  23.362  24.701  1.00  0.00    -0.022 A 
ATOM      9  C   UNL A   1      31.674  22.315  24.270  1.00  0.00     0.006 A 
ATOM     10  C   UNL A   1      33.868  23.060  24.929  1.00  0.00     0.022 A 
ATOM     11  C   UNL A   1      32.145  21.007  24.140  1.00  0.00     0.004 A 
ATOM     12  C   UNL A   1      34.329  21.741  24.817  1.00  0.00     0.019 A 
ATOM     13  Br  UNL A   1      35.182  24.346  25.413  1.00  0.00    -0.051 Br
ATOM     14  C   UNL A   1      33.466  20.697  24.463  1.00  0.00    -0.047 A 
BRANCH  14  15
ATOM     15  C   UNL A   1      33.964  19.274  24.470  1.00  0.00     0.041 C 
BRANCH  15  16
ATOM     16  C   UNL A   1      32.904  18.148  24.444  1.00  0.00     0.022 C 
ATOM     17  C   UNL A   1      32.640  17.484  25.801  1.00  0.00     0.007 C 
ATOM     18  C   UNL A   1      33.169  16.948  23.528  1.00  0.00     0.117 C 
ATOM     19  C   UNL A   1      33.402  16.156  25.802  1.00  0.00     0.003 C 
ATOM     20  C   UNL A   1      33.941  15.957  24.391  1.00  0.00     0.032 C 
BRANCH  18  21
ATOM     21  O   UNL A   1      33.845  17.298  22.338  1.00  0.00    -0.393 OA
ATOM     22  H   UNL A   1      34.747  16.945  22.363  1.00  0.00     0.210 HD
ENDBRANCH  18  21
ENDBRANCH  15  16
ENDBRANCH  14  15
ENDBRANCH   6   8
ENDBRANCH   3   6
ENDBRANCH   1   2
BRANCH   1  23
ATOM     23  C   UNL A   1      33.269  27.859  26.754  1.00  0.00     0.042 C 
BRANCH  23  24
ATOM     24  C   UNL A   1      33.907  28.957  25.903  1.00  0.00     0.118 C 
BRANCH  24  25
ATOM     25  N   UNL A   1      33.770  30.276  26.496  1.00  0.00    -0.352 N 
ATOM     26  C   UNL A   1      34.473  30.880  27.506  1.00  0.00     0.251 C 
ATOM     27  H   UNL A   1      33.052  30.830  26.109  1.00  0.00     0.163 HD
ATOM     28  O   UNL A   1      34.045  31.939  27.969  1.00  0.00    -0.269 OA
BRANCH  26  29
ATOM     29  C   UNL A   1      35.709  30.278  28.057  1.00  0.00     0.039 A 
ATOM     30  C   UNL A   1      36.898  30.428  27.336  1.00  0.00     0.014 A 
ATOM     31  C   UNL A   1      35.705  29.527  29.237  1.00  0.00     0.014 A 
ATOM     32  C   UNL A   1      38.085  29.879  27.824  1.00  0.00     0.010 A 
ATOM     33  C   UNL A   1      36.904  29.035  29.757  1.00  0.00     0.010 A 
ATOM     34  C   UNL A   1      38.107  29.206  29.056  1.00  0.00    -0.014 A 
BRANCH  34  35
ATOM     35  C   UNL A   1      39.387  28.696  29.616  1.00  0.00     0.031 A 
ATOM     36  C   UNL A   1      40.018  29.351  30.816  1.00  0.00     0.074 A 
ATOM     37  C   UNL A   1      39.998  27.655  29.016  1.00  0.00     0.049 A 
ATOM     38  N   UNL A   1      41.132  29.049  31.432  1.00  0.00    -0.248 NA
ATOM     39  C   UNL A   1      39.313  30.510  31.382  1.00  0.00     0.031 C 
ATOM     40  C   UNL A   1      39.511  26.971  27.816  1.00  0.00     0.029 A 
ATOM     41  N   UNL A   1      41.157  26.991  29.328  1.00  0.00    -0.354 N 
ATOM     42  C   UNL A   1      41.264  29.978  32.458  1.00  0.00     0.074 A 
ATOM     43  C   UNL A   1      40.147  30.891  32.339  1.00  0.00     0.031 C 
ATOM     44  C   UNL A   1      40.352  25.970  27.508  1.00  0.00     0.029 A 
ATOM     45  C   UNL A   1      41.454  25.963  28.464  1.00  0.00     0.049 A 
ATOM     46  H   UNL A   1      41.724  27.228  30.098  1.00  0.00     0.167 HD
ATOM     47  C   UNL A   1      42.215  30.050  33.425  1.00  0.00     0.034 A 
ATOM     48  C   UNL A   1      42.499  25.112  28.439  1.00  0.00     0.034 A 
ATOM     49  C   UNL A   1      43.326  29.133  33.530  1.00  0.00     0.049 A 
ATOM     50  C   UNL A   1      43.545  25.215  29.518  1.00  0.00     0.074 A 
ATOM     51  C   UNL A   1      44.324  29.090  34.490  1.00  0.00     0.029 A 
ATOM     52  N   UNL A   1      43.593  28.099  32.640  1.00  0.00    -0.354 N 
ATOM     53  N   UNL A   1      43.626  26.067  30.512  1.00  0.00    -0.248 NA
ATOM     54  C   UNL A   1      44.630  24.227  29.480  1.00  0.00     0.031 C 
ATOM     55  C   UNL A   1      45.223  28.074  34.147  1.00  0.00     0.029 A 
ATOM     56  C   UNL A   1      44.751  27.431  33.014  1.00  0.00     0.049 A 
ATOM     57  H   UNL A   1      43.040  27.873  31.858  1.00  0.00     0.167 HD
ATOM     58  C   UNL A   1      44.763  25.707  31.229  1.00  0.00     0.074 A 
ATOM     59  C   UNL A   1      45.315  24.540  30.569  1.00  0.00     0.031 C 
ATOM     60  C   UNL A   1      45.306  26.286  32.331  1.00  0.00     0.034 A 
BRANCH  47  61
ATOM     61  C   UNL A   1      42.099  31.172  34.430  1.00  0.00     0.023 A 
ATOM     62  C   UNL A   1      42.739  32.408  34.229  1.00  0.00     0.031 A 
ATOM     63  C   UNL A   1      41.358  31.001  35.612  1.00  0.00     0.131 A 
ATOM     64  C   UNL A   1      42.685  33.396  35.224  1.00  0.00     0.055 A 
ATOM     65  C   UNL A   1      41.244  32.017  36.564  1.00  0.00     0.041 A 
ATOM     66  F   UNL A   1      40.740  29.836  35.870  1.00  0.00    -0.206 F 
ATOM     67  C   UNL A   1      41.922  33.218  36.380  1.00  0.00     0.022 A 
BRANCH  64  68
ATOM     68  S   UNL A   1      43.737  34.863  35.047  1.00  0.00     0.124 S 
ATOM     69  O   UNL A   1      45.058  34.261  34.885  1.00  0.00    -0.237 OA
ATOM     70  O   UNL A   1      43.180  35.509  33.863  1.00  0.00    -0.237 OA
ATOM     71  O   UNL A   1      43.536  35.583  36.302  1.00  0.00    -0.744 OA
ENDBRANCH  64  68
ENDBRANCH  47  61
BRANCH  48  72
ATOM     72  C   UNL A   1      42.619  24.097  27.355  1.00  0.00     0.023 A 
ATOM     73  C   UNL A   1      41.996  22.843  27.460  1.00  0.00     0.031 A 
ATOM     74  C   UNL A   1      43.392  24.355  26.209  1.00  0.00     0.131 A 
ATOM     75  C   UNL A   1      42.197  21.877  26.462  1.00  0.00     0.055 A 
ATOM     76  C   UNL A   1      43.548  23.410  25.194  1.00  0.00     0.041 A 
ATOM     77  F   UNL A   1      44.002  25.542  26.055  1.00  0.00    -0.206 F 
ATOM     78  C   UNL A   1      42.959  22.156  25.325  1.00  0.00     0.022 A 
BRANCH  75  79
ATOM     79  S   UNL A   1      41.513  20.215  26.712  1.00  0.00     0.124 S 
ATOM     80  O   UNL A   1      41.733  19.604  25.406  1.00  0.00    -0.237 OA
ATOM     81  O   UNL A   1      42.337  19.710  27.804  1.00  0.00    -0.237 OA
ATOM     82  O   UNL A   1      40.116  20.471  27.054  1.00  0.00    -0.744 OA
ENDBRANCH  75  79
ENDBRANCH  48  72
BRANCH  60  83
ATOM     83  C   UNL A   1      46.551  25.641  32.890  1.00  0.00     0.023 A 
ATOM     84  C   UNL A   1      47.820  25.888  32.338  1.00  0.00     0.031 A 
ATOM     85  C   UNL A   1      46.462  24.735  33.962  1.00  0.00     0.131 A 
ATOM     86  C   UNL A   1      48.938  25.182  32.808  1.00  0.00     0.055 A 
ATOM     87  C   UNL A   1      47.588  24.084  34.468  1.00  0.00     0.041 A 
ATOM     88  F   UNL A   1      45.276  24.459  34.528  1.00  0.00    -0.206 F 
ATOM     89  C   UNL A   1      48.832  24.293  33.880  1.00  0.00     0.022 A 
BRANCH  86  90
ATOM     90  S   UNL A   1      50.511  25.356  31.921  1.00  0.00     0.124 S 
ATOM     91  O   UNL A   1      50.124  26.172  30.774  1.00  0.00    -0.237 OA
ATOM     92  O   UNL A   1      51.357  26.011  32.913  1.00  0.00    -0.237 OA
ATOM     93  O   UNL A   1      50.880  23.977  31.605  1.00  0.00    -0.744 OA
ENDBRANCH  86  90
ENDBRANCH  60  83
ENDBRANCH  34  35
ENDBRANCH  26  29
ENDBRANCH  24  25
ENDBRANCH  23  24
ENDBRANCH   1  23
TORSDOF 17
ENDMDL
MODEL 2
REMARK VINA RESULT:     -11.5      1.517      1.827
REMARK SMILES C[C@@H](C(=O)NCCCNC(=O)c1ccc(-c2c3nc(c(-c4cc(S(=O)(=O)[O-])ccc4F)c4ccc([nH]4)c(-c4cc(S(=O)(=O)[O-])ccc4F)c4nc(c(-c5cc(S(=O)(=O)[O-])ccc5F)c5ccc2[nH]5)C=C4)C=C3)cc1)c1ccc(C[C@@H]2CCC[C@@H]2O)cc1Br
REMARK SMILES IDX 6 1 5 2 3 3 4 4 2 6 1 7 75 8 76 9 87 10 77 11 86 12 88 13
REMARK SMILES IDX 78 14 79 15 80 16 81 17 84 18 82 19 83 20 85 21 7 23 8 24
REMARK SMILES IDX 9 25 10 26 11 28 12 29 13 30 74 31 14 32 73 33 15 34 16 35
REMARK SMILES IDX 17 36 67 37 18 38 72 39 66 40 68 41 19 42 71 43 65 44 64 45
REMARK SMILES IDX 20 47 52 48 32 49 51 50 33 51 36 52 50 53 69 54 34 55 35 56
REMARK SMILES IDX 49 58 70 59 37 60 21 61 22 62 30 63 23 64 29 65 31 66 28 67
REMARK SMILES IDX 24 68 25 69 26 70 27 71 53 72 54 73 62 74 55 75 61 76 63 77
REMARK SMILES IDX 60 78 56 79 57 80 58 81 59 82 38 83 39 84 47 85 40 86 46 87
REMARK SMILES IDX 48 88 45 89 41 90 42 91 43 92 44 93
REMARK H PARENT 5 5 85 22 9 27 68 46 36 57
REMARK Flexibility Score: inf
ROOT
ATOM      1  C   UNL A   1      31.940  27.084  26.262  1.00  0.00     0.117 C 
ENDROOT
BRANCH   1   2
ATOM      2  N   UNL A   1      30.978  26.455  25.379  1.00  0.00    -0.356 N 
ATOM      3  C   UNL A   1      31.151  25.594  24.336  1.00  0.00     0.227 C 
ATOM      4  O   UNL A   1      30.122  25.172  23.803  1.00  0.00    -0.274 OA
ATOM      5  H   UNL A   1      30.040  26.690  25.563  1.00  0.00     0.163 HD
BRANCH   3   6
ATOM      6  C   UNL A   1      32.559  25.122  23.942  1.00  0.00     0.106 C 
ATOM      7  C   UNL A   1      33.118  25.745  22.658  1.00  0.00     0.023 C 
BRANCH   6   8
ATOM      8  C   UNL A   1      32.681  23.597  23.912  1.00  0.00    -0.022 A 
ATOM      9  C   UNL A   1      32.192  22.934  22.768  1.00  0.00     0.006 A 
ATOM     10  C   UNL A   1      33.226  22.807  24.940  1.00  0.00     0.022 A 
ATOM     11  C   UNL A   1      32.179  21.541  22.680  1.00  0.00     0.004 A 
ATOM     12  C   UNL A   1      33.190  21.409  24.854  1.00  0.00     0.019 A 
ATOM     13  Br  UNL A   1      34.029  23.510  26.514  1.00  0.00    -0.051 Br
ATOM     14  C   UNL A   1      32.631  20.762  23.745  1.00  0.00    -0.047 A 
BRANCH  14  15
ATOM     15  C   UNL A   1      32.497  19.261  23.739  1.00  0.00     0.041 C 
BRANCH  15  16
ATOM     16  C   UNL A   1      33.651  18.440  24.361  1.00  0.00     0.022 C 
ATOM     17  C   UNL A   1      34.182  17.307  23.475  1.00  0.00     0.007 C 
ATOM     18  C   UNL A   1      33.378  17.728  25.690  1.00  0.00     0.117 C 
ATOM     19  C   UNL A   1      33.570  16.006  24.003  1.00  0.00     0.003 C 
ATOM     20  C   UNL A   1      32.849  16.353  25.300  1.00  0.00     0.032 C 
BRANCH  18  21
ATOM     21  O   UNL A   1      32.499  18.446  26.533  1.00  0.00    -0.393 OA
ATOM     22  H   UNL A   1      32.915  18.575  27.398  1.00  0.00     0.210 HD
ENDBRANCH  18  21
ENDBRANCH  15  16
ENDBRANCH  14  15
ENDBRANCH   6   8
ENDBRANCH   3   6
ENDBRANCH   1   2
BRANCH   1  23
ATOM     23  C   UNL A   1      32.373  28.456  25.752  1.00  0.00     0.042 C 
BRANCH  23  24
ATOM     24  C   UNL A   1      33.721  28.933  26.293  1.00  0.00     0.118 C 
BRANCH  24  25
ATOM     25  N   UNL A   1      33.690  30.319  26.729  1.00  0.00    -0.352 N 
ATOM     26  C   UNL A   1      34.503  31.000  27.598  1.00  0.00     0.251 C 
ATOM     27  H   UNL A   1      32.966  30.859  26.337  1.00  0.00     0.163 HD
ATOM     28  O   UNL A   1      34.161  32.128  27.961  1.00  0.00    -0.269 OA
BRANCH  26  29
ATOM     29  C   UNL A   1      35.755  30.404  28.117  1.00  0.00     0.039 A 
ATOM     30  C   UNL A   1      36.903  30.476  27.320  1.00  0.00     0.014 A 
ATOM     31  C   UNL A   1      35.804  29.733  29.343  1.00  0.00     0.014 A 
ATOM     32  C   UNL A   1      38.105  29.930  27.775  1.00  0.00     0.010 A 
ATOM     33  C   UNL A   1      37.021  29.246  29.826  1.00  0.00     0.010 A 
ATOM     34  C   UNL A   1      38.184  29.339  29.047  1.00  0.00    -0.014 A 
BRANCH  34  35
ATOM     35  C   UNL A   1      39.483  28.835  29.566  1.00  0.00     0.031 A 
ATOM     36  C   UNL A   1      40.189  29.540  30.693  1.00  0.00     0.074 A 
ATOM     37  C   UNL A   1      40.044  27.751  28.992  1.00  0.00     0.049 A 
ATOM     38  N   UNL A   1      41.330  29.250  31.265  1.00  0.00    -0.248 NA
ATOM     39  C   UNL A   1      39.536  30.742  31.231  1.00  0.00     0.031 C 
ATOM     40  C   UNL A   1      39.481  27.013  27.859  1.00  0.00     0.029 A 
ATOM     41  N   UNL A   1      41.206  27.081  29.279  1.00  0.00    -0.354 N 
ATOM     42  C   UNL A   1      41.533  30.230  32.230  1.00  0.00     0.074 A 
ATOM     43  C   UNL A   1      40.426  31.158  32.120  1.00  0.00     0.031 C 
ATOM     44  C   UNL A   1      40.287  25.980  27.563  1.00  0.00     0.029 A 
ATOM     45  C   UNL A   1      41.438  26.002  28.459  1.00  0.00     0.049 A 
ATOM     46  H   UNL A   1      41.817  27.349  30.004  1.00  0.00     0.167 HD
ATOM     47  C   UNL A   1      42.535  30.335  33.140  1.00  0.00     0.034 A 
ATOM     48  C   UNL A   1      42.466  25.131  28.425  1.00  0.00     0.034 A 
ATOM     49  C   UNL A   1      43.634  29.402  33.237  1.00  0.00     0.049 A 
ATOM     50  C   UNL A   1      43.570  25.270  29.440  1.00  0.00     0.074 A 
ATOM     51  C   UNL A   1      44.681  29.392  34.144  1.00  0.00     0.029 A 
ATOM     52  N   UNL A   1      43.835  28.317  32.392  1.00  0.00    -0.354 N 
ATOM     53  N   UNL A   1      43.718  26.173  30.381  1.00  0.00    -0.248 NA
ATOM     54  C   UNL A   1      44.634  24.260  29.400  1.00  0.00     0.031 C 
ATOM     55  C   UNL A   1      45.543  28.340  33.810  1.00  0.00     0.029 A 
ATOM     56  C   UNL A   1      45.000  27.647  32.740  1.00  0.00     0.049 A 
ATOM     57  H   UNL A   1      43.237  28.060  31.654  1.00  0.00     0.167 HD
ATOM     58  C   UNL A   1      44.886  25.829  31.055  1.00  0.00     0.074 A 
ATOM     59  C   UNL A   1      45.382  24.618  30.432  1.00  0.00     0.031 C 
ATOM     60  C   UNL A   1      45.498  26.456  32.093  1.00  0.00     0.034 A 
BRANCH  47  61
ATOM     61  C   UNL A   1      42.493  31.512  34.087  1.00  0.00     0.023 A 
ATOM     62  C   UNL A   1      41.714  31.486  35.257  1.00  0.00     0.031 A 
ATOM     63  C   UNL A   1      43.222  32.681  33.809  1.00  0.00     0.131 A 
ATOM     64  C   UNL A   1      41.625  32.628  36.067  1.00  0.00     0.055 A 
ATOM     65  C   UNL A   1      43.191  33.788  34.660  1.00  0.00     0.041 A 
ATOM     66  F   UNL A   1      43.970  32.773  32.697  1.00  0.00    -0.206 F 
ATOM     67  C   UNL A   1      42.378  33.772  35.790  1.00  0.00     0.022 A 
BRANCH  64  68
ATOM     68  S   UNL A   1      40.409  32.646  37.413  1.00  0.00     0.124 S 
ATOM     69  O   UNL A   1      39.450  31.643  36.956  1.00  0.00    -0.237 OA
ATOM     70  O   UNL A   1      41.215  32.278  38.571  1.00  0.00    -0.237 OA
ATOM     71  O   UNL A   1      39.913  34.021  37.409  1.00  0.00    -0.744 OA
ENDBRANCH  64  68
ENDBRANCH  47  61
BRANCH  48  72
ATOM     72  C   UNL A   1      42.509  24.056  27.393  1.00  0.00     0.023 A 
ATOM     73  C   UNL A   1      41.864  22.826  27.596  1.00  0.00     0.031 A 
ATOM     74  C   UNL A   1      43.232  24.234  26.200  1.00  0.00     0.131 A 
ATOM     75  C   UNL A   1      41.995  21.803  26.645  1.00  0.00     0.055 A 
ATOM     76  C   UNL A   1      43.316  23.231  25.232  1.00  0.00     0.041 A 
ATOM     77  F   UNL A   1      43.860  25.394  25.952  1.00  0.00    -0.206 F 
ATOM     78  C   UNL A   1      42.706  22.002  25.459  1.00  0.00     0.022 A 
BRANCH  75  79
ATOM     79  S   UNL A   1      41.286  20.175  27.016  1.00  0.00     0.124 S 
ATOM     80  O   UNL A   1      40.835  20.354  28.392  1.00  0.00    -0.237 OA
ATOM     81  O   UNL A   1      40.239  20.063  26.006  1.00  0.00    -0.237 OA
ATOM     82  O   UNL A   1      42.415  19.264  26.843  1.00  0.00    -0.744 OA
ENDBRANCH  75  79
ENDBRANCH  48  72
BRANCH  60  83
ATOM     83  C   UNL A   1      46.759  25.817  32.621  1.00  0.00     0.023 A 
ATOM     84  C   UNL A   1      47.998  25.999  31.983  1.00  0.00     0.031 A 
ATOM     85  C   UNL A   1      46.714  24.982  33.751  1.00  0.00     0.131 A 
ATOM     86  C   UNL A   1      49.127  25.297  32.432  1.00  0.00     0.055 A 
ATOM     87  C   UNL A   1      47.854  24.337  34.233  1.00  0.00     0.041 A 
ATOM     88  F   UNL A   1      45.558  24.770  34.401  1.00  0.00    -0.206 F 
ATOM     89  C   UNL A   1      49.066  24.479  33.563  1.00  0.00     0.022 A 
BRANCH  86  90
ATOM     90  S   UNL A   1      50.650  25.377  31.448  1.00  0.00     0.124 S 
ATOM     91  O   UNL A   1      50.154  25.111  30.101  1.00  0.00    -0.237 OA
ATOM     92  O   UNL A   1      51.113  26.736  31.700  1.00  0.00    -0.237 OA
ATOM     93  O   UNL A   1      51.483  24.321  32.021  1.00  0.00    -0.744 OA
ENDBRANCH  86  90
ENDBRANCH  60  83
ENDBRANCH  34  35
ENDBRANCH  26  29
ENDBRANCH  24  25
ENDBRANCH  23  24
ENDBRANCH   1  23
TORSDOF 17
ENDMDL
MODEL 3
REMARK VINA RESULT:     -11.4      1.998      2.573
REMARK SMILES C[C@@H](C(=O)NCCCNC(=O)c1ccc(-c2c3nc(c(-c4cc(S(=O)(=O)[O-])ccc4F)c4ccc([nH]4)c(-c4cc(S(=O)(=O)[O-])ccc4F)c4nc(c(-c5cc(S(=O)(=O)[O-])ccc5F)c5ccc2[nH]5)C=C4)C=C3)cc1)c1ccc(C[C@@H]2CCC[C@@H]2O)cc1Br
REMARK SMILES IDX 6 1 5 2 3 3 4 4 2 6 1 7 75 8 76 9 87 10 77 11 86 12 88 13
REMARK SMILES IDX 78 14 79 15 80 16 81 17 84 18 82 19 83 20 85 21 7 23 8 24
REMARK SMILES IDX 9 25 10 26 11 28 12 29 13 30 74 31 14 32 73 33 15 34 16 35
REMARK SMILES IDX 17 36 67 37 18 38 72 39 66 40 68 41 19 42 71 43 65 44 64 45
REMARK SMILES IDX 20 47 52 48 32 49 51 50 33 51 36 52 50 53 69 54 34 55 35 56
REMARK SMILES IDX 49 58 70 59 37 60 21 61 22 62 30 63 23 64 29 65 31 66 28 67
REMARK SMILES IDX 24 68 25 69 26 70 27 71 53 72 54 73 62 74 55 75 61 76 63 77
REMARK SMILES IDX 60 78 56 79 57 80 58 81 59 82 38 83 39 84 47 85 40 86 46 87
REMARK SMILES IDX 48 88 45 89 41 90 42 91 43 92 44 93
REMARK H PARENT 5 5 85 22 9 27 68 46 36 57
REMARK Flexibility Score: inf
ROOT
ATOM      1  C   UNL A   1      32.155  27.425  26.993  1.00  0.00     0.117 C 
ENDROOT
BRANCH   1   2
ATOM      2  N   UNL A   1      31.230  26.310  26.921  1.00  0.00    -0.356 N 
ATOM      3  C   UNL A   1      31.237  25.192  26.141  1.00  0.00     0.227 C 
ATOM      4  O   UNL A   1      30.336  24.377  26.352  1.00  0.00    -0.274 OA
ATOM      5  H   UNL A   1      30.468  26.372  27.540  1.00  0.00     0.163 HD
BRANCH   3   6
ATOM      6  C   UNL A   1      32.376  24.948  25.139  1.00  0.00     0.106 C 
ATOM      7  C   UNL A   1      32.310  25.793  23.862  1.00  0.00     0.023 C 
BRANCH   6   8
ATOM      8  C   UNL A   1      32.563  23.466  24.809  1.00  0.00    -0.022 A 
ATOM      9  C   UNL A   1      32.030  23.006  23.587  1.00  0.00     0.006 A 
ATOM     10  C   UNL A   1      33.208  22.527  25.633  1.00  0.00     0.022 A 
ATOM     11  C   UNL A   1      32.073  21.656  23.233  1.00  0.00     0.004 A 
ATOM     12  C   UNL A   1      33.228  21.171  25.282  1.00  0.00     0.019 A 
ATOM     13  Br  UNL A   1      34.080  22.962  27.267  1.00  0.00    -0.051 Br
ATOM     14  C   UNL A   1      32.627  20.716  24.102  1.00  0.00    -0.047 A 
BRANCH  14  15
ATOM     15  C   UNL A   1      32.559  19.238  23.813  1.00  0.00     0.041 C 
BRANCH  15  16
ATOM     16  C   UNL A   1      33.686  18.347  24.387  1.00  0.00     0.022 C 
ATOM     17  C   UNL A   1      34.222  17.287  23.418  1.00  0.00     0.007 C 
ATOM     18  C   UNL A   1      33.370  17.528  25.643  1.00  0.00     0.117 C 
ATOM     19  C   UNL A   1      33.578  15.956  23.816  1.00  0.00     0.003 C 
ATOM     20  C   UNL A   1      32.831  16.200  25.121  1.00  0.00     0.032 C 
BRANCH  18  21
ATOM     21  O   UNL A   1      32.481  18.183  26.524  1.00  0.00    -0.393 OA
ATOM     22  H   UNL A   1      32.961  18.458  27.321  1.00  0.00     0.210 HD
ENDBRANCH  18  21
ENDBRANCH  15  16
ENDBRANCH  14  15
ENDBRANCH   6   8
ENDBRANCH   3   6
ENDBRANCH   1   2
BRANCH   1  23
ATOM     23  C   UNL A   1      31.686  28.611  26.154  1.00  0.00     0.042 C 
BRANCH  23  24
ATOM     24  C   UNL A   1      32.804  29.563  25.728  1.00  0.00     0.118 C 
BRANCH  24  25
ATOM     25  N   UNL A   1      32.573  30.929  26.165  1.00  0.00    -0.352 N 
ATOM     26  C   UNL A   1      33.215  31.686  27.111  1.00  0.00     0.251 C 
ATOM     27  H   UNL A   1      31.832  31.389  25.707  1.00  0.00     0.163 HD
ATOM     28  O   UNL A   1      32.713  32.761  27.444  1.00  0.00    -0.269 OA
BRANCH  26  29
ATOM     29  C   UNL A   1      34.473  31.229  27.745  1.00  0.00     0.039 A 
ATOM     30  C   UNL A   1      35.500  32.160  27.928  1.00  0.00     0.014 A 
ATOM     31  C   UNL A   1      34.675  29.894  28.112  1.00  0.00     0.014 A 
ATOM     32  C   UNL A   1      36.700  31.769  28.526  1.00  0.00     0.010 A 
ATOM     33  C   UNL A   1      35.848  29.519  28.770  1.00  0.00     0.010 A 
ATOM     34  C   UNL A   1      36.874  30.453  28.985  1.00  0.00    -0.014 A 
BRANCH  34  35
ATOM     35  C   UNL A   1      38.117  30.060  29.698  1.00  0.00     0.031 A 
ATOM     36  C   UNL A   1      38.412  30.584  31.078  1.00  0.00     0.074 A 
ATOM     37  C   UNL A   1      39.000  29.248  29.082  1.00  0.00     0.049 A 
ATOM     38  N   UNL A   1      39.448  30.358  31.845  1.00  0.00    -0.248 NA
ATOM     39  C   UNL A   1      37.422  31.502  31.661  1.00  0.00     0.031 C 
ATOM     40  C   UNL A   1      38.850  28.717  27.725  1.00  0.00     0.029 A 
ATOM     41  N   UNL A   1      40.195  28.729  29.511  1.00  0.00    -0.354 N 
ATOM     42  C   UNL A   1      39.236  31.102  33.001  1.00  0.00     0.074 A 
ATOM     43  C   UNL A   1      38.004  31.836  32.804  1.00  0.00     0.031 C 
ATOM     44  C   UNL A   1      39.900  27.929  27.443  1.00  0.00     0.029 A 
ATOM     45  C   UNL A   1      40.814  27.927  28.580  1.00  0.00     0.049 A 
ATOM     46  H   UNL A   1      40.575  28.914  30.400  1.00  0.00     0.167 HD
ATOM     47  C   UNL A   1      39.988  31.151  34.131  1.00  0.00     0.034 A 
ATOM     48  C   UNL A   1      41.989  27.268  28.632  1.00  0.00     0.034 A 
ATOM     49  C   UNL A   1      41.217  30.415  34.313  1.00  0.00     0.049 A 
ATOM     50  C   UNL A   1      42.808  27.342  29.894  1.00  0.00     0.074 A 
ATOM     51  C   UNL A   1      42.035  30.361  35.429  1.00  0.00     0.029 A 
ATOM     52  N   UNL A   1      41.811  29.607  33.351  1.00  0.00    -0.354 N 
ATOM     53  N   UNL A   1      42.566  28.010  30.998  1.00  0.00    -0.248 NA
ATOM     54  C   UNL A   1      44.048  26.558  29.922  1.00  0.00     0.031 C 
ATOM     55  C   UNL A   1      43.151  29.574  35.121  1.00  0.00     0.029 A 
ATOM     56  C   UNL A   1      42.997  29.074  33.838  1.00  0.00     0.049 A 
ATOM     57  H   UNL A   1      41.445  29.438  32.453  1.00  0.00     0.167 HD
ATOM     58  C   UNL A   1      43.618  27.711  31.859  1.00  0.00     0.074 A 
ATOM     59  C   UNL A   1      44.477  26.779  31.155  1.00  0.00     0.031 C 
ATOM     60  C   UNL A   1      43.858  28.167  33.115  1.00  0.00     0.034 A 
BRANCH  47  61
ATOM     61  C   UNL A   1      39.504  32.048  35.247  1.00  0.00     0.023 A 
ATOM     62  C   UNL A   1      39.944  33.378  35.364  1.00  0.00     0.031 A 
ATOM     63  C   UNL A   1      38.608  31.564  36.216  1.00  0.00     0.131 A 
ATOM     64  C   UNL A   1      39.546  34.155  36.463  1.00  0.00     0.055 A 
ATOM     65  C   UNL A   1      38.154  32.368  37.265  1.00  0.00     0.041 A 
ATOM     66  F   UNL A   1      38.166  30.297  36.169  1.00  0.00    -0.206 F 
ATOM     67  C   UNL A   1      38.634  33.667  37.402  1.00  0.00     0.022 A 
BRANCH  64  68
ATOM     68  S   UNL A   1      40.341  35.765  36.720  1.00  0.00     0.124 S 
ATOM     69  O   UNL A   1      40.024  36.029  38.122  1.00  0.00    -0.237 OA
ATOM     70  O   UNL A   1      41.739  35.476  36.425  1.00  0.00    -0.237 OA
ATOM     71  O   UNL A   1      39.668  36.638  35.760  1.00  0.00    -0.744 OA
ENDBRANCH  64  68
ENDBRANCH  47  61
BRANCH  48  72
ATOM     72  C   UNL A   1      42.469  26.490  27.456  1.00  0.00     0.023 A 
ATOM     73  C   UNL A   1      42.143  25.133  27.298  1.00  0.00     0.031 A 
ATOM     74  C   UNL A   1      43.295  27.086  26.487  1.00  0.00     0.131 A 
ATOM     75  C   UNL A   1      42.681  24.405  26.226  1.00  0.00     0.055 A 
ATOM     76  C   UNL A   1      43.785  26.371  25.393  1.00  0.00     0.041 A 
ATOM     77  F   UNL A   1      43.629  28.383  26.585  1.00  0.00    -0.206 F 
ATOM     78  C   UNL A   1      43.489  25.018  25.266  1.00  0.00     0.022 A 
BRANCH  75  79
ATOM     79  S   UNL A   1      42.372  22.619  26.147  1.00  0.00     0.124 S 
ATOM     80  O   UNL A   1      43.085  22.247  24.931  1.00  0.00    -0.237 OA
ATOM     81  O   UNL A   1      42.957  22.155  27.401  1.00  0.00    -0.237 OA
ATOM     82  O   UNL A   1      40.916  22.528  26.070  1.00  0.00    -0.744 OA
ENDBRANCH  75  79
ENDBRANCH  48  72
BRANCH  60  83
ATOM     83  C   UNL A   1      45.092  27.637  33.803  1.00  0.00     0.023 A 
ATOM     84  C   UNL A   1      46.332  28.291  33.698  1.00  0.00     0.031 A 
ATOM     85  C   UNL A   1      45.039  26.439  34.537  1.00  0.00     0.131 A 
ATOM     86  C   UNL A   1      47.481  27.708  34.253  1.00  0.00     0.055 A 
ATOM     87  C   UNL A   1      46.173  25.896  35.142  1.00  0.00     0.041 A 
ATOM     88  F   UNL A   1      43.883  25.768  34.670  1.00  0.00    -0.206 F 
ATOM     89  C   UNL A   1      47.407  26.522  34.988  1.00  0.00     0.022 A 
BRANCH  86  90
ATOM     90  S   UNL A   1      49.094  28.461  33.902  1.00  0.00     0.124 S 
ATOM     91  O   UNL A   1      49.522  28.894  35.229  1.00  0.00    -0.237 OA
ATOM     92  O   UNL A   1      49.839  27.348  33.324  1.00  0.00    -0.237 OA
ATOM     93  O   UNL A   1      48.772  29.542  32.972  1.00  0.00    -0.744 OA
ENDBRANCH  86  90
ENDBRANCH  60  83
ENDBRANCH  34  35
ENDBRANCH  26  29
ENDBRANCH  24  25
ENDBRANCH  23  24
ENDBRANCH   1  23
TORSDOF 17
ENDMDL
