MODEL 1
REMARK VINA RESULT:     -12.3      0.000      0.000
REMARK SMILES CCOC(=O)c1ccc(NC(=O)[C@H]2CC=CC[C@@]2(C)C(=O)NCCCNC(=O)c2ccc(-c3c4nc(c(-c5cc(S(=O)(=O)[O-])ccc5F)c5ccc([nH]5)c(-c5cc(S(=O)(=O)[O-])ccc5F)c5nc(c(-c6cc(S(=O)(=O)[O-])ccc6F)c6ccc3[nH]6)C=C5)C=C4)cc2)cc1
REMARK SMILES IDX 23 1 22 2 20 3 21 4 18 6 13 7 14 8 15 9 17 10 19 11 16 12
REMARK SMILES IDX 11 13 10 14 12 16 9 17 6 18 7 19 93 20 8 21 92 22 4 23 5 24
REMARK SMILES IDX 3 25 2 26 1 27 24 28 25 29 26 30 27 31 28 33 29 34 30 35
REMARK SMILES IDX 91 36 31 37 90 38 32 39 33 40 34 41 84 42 35 43 89 44 83 45
REMARK SMILES IDX 85 46 36 47 88 48 82 49 81 50 37 52 69 53 49 54 68 55 50 56
REMARK SMILES IDX 53 57 67 58 86 59 51 60 52 61 66 63 87 64 54 65 38 66 39 67
REMARK SMILES IDX 47 68 40 69 46 70 48 71 45 72 41 73 42 74 43 75 44 76 70 77
REMARK SMILES IDX 71 78 79 79 72 80 78 81 80 82 77 83 73 84 74 85 75 86 76 87
REMARK SMILES IDX 55 88 56 89 64 90 57 91 63 92 65 93 62 94 58 95 59 96 60 97
REMARK SMILES IDX 61 98
REMARK H PARENT 22 5 10 15 26 32 85 51 53 62
REMARK Flexibility Score: inf
ROOT
ATOM      1  C   UNL A   1      32.911  25.967  25.962  1.00  0.00     0.117 C 
ENDROOT
BRANCH   1   2
ATOM      2  N   UNL A   1      34.214  25.554  25.465  1.00  0.00    -0.356 N 
ATOM      3  C   UNL A   1      34.762  24.330  25.253  1.00  0.00     0.227 C 
ATOM      4  O   UNL A   1      35.977  24.318  25.032  1.00  0.00    -0.274 OA
ATOM      5  H   UNL A   1      34.811  26.303  25.240  1.00  0.00     0.163 HD
BRANCH   3   6
ATOM      6  C   UNL A   1      33.964  23.024  25.376  1.00  0.00     0.062 C 
ATOM      7  C   UNL A   1      32.754  22.884  24.403  1.00  0.00     0.098 C 
ATOM      8  C   UNL A   1      32.103  21.478  24.513  1.00  0.00     0.041 C 
ATOM      9  C   UNL A   1      33.092  20.367  24.414  1.00  0.00    -0.030 C 
ATOM     10  C   UNL A   1      34.954  21.809  25.262  1.00  0.00     0.044 C 
ATOM     11  C   UNL A   1      33.467  22.993  26.858  1.00  0.00     0.023 C 
ATOM     12  C   UNL A   1      34.378  20.524  24.743  1.00  0.00    -0.030 C 
BRANCH   7  13
ATOM     13  C   UNL A   1      32.614  23.362  22.927  1.00  0.00     0.228 C 
ATOM     14  N   UNL A   1      31.929  24.398  22.398  1.00  0.00    -0.326 N 
ATOM     15  H   UNL A   1      31.558  24.164  21.517  1.00  0.00     0.169 HD
ATOM     16  O   UNL A   1      32.989  22.562  22.045  1.00  0.00    -0.274 OA
BRANCH  14  17
ATOM     17  C   UNL A   1      31.599  25.705  22.751  1.00  0.00     0.041 A 
ATOM     18  C   UNL A   1      30.806  28.275  23.547  1.00  0.00     0.060 A 
ATOM     19  C   UNL A   1      31.967  28.090  22.789  1.00  0.00     0.018 A 
ATOM     20  C   UNL A   1      29.990  27.183  23.841  1.00  0.00     0.018 A 
ATOM     21  C   UNL A   1      32.345  26.809  22.373  1.00  0.00     0.027 A 
ATOM     22  C   UNL A   1      30.382  25.904  23.425  1.00  0.00     0.027 A 
BRANCH  18  23
ATOM     23  C   UNL A   1      30.469  29.647  23.973  1.00  0.00     0.338 C 
ATOM     24  O   UNL A   1      30.972  30.186  24.944  1.00  0.00    -0.246 OA
BRANCH  23  25
ATOM     25  O   UNL A   1      29.451  30.121  23.210  1.00  0.00    -0.462 OA
BRANCH  25  26
ATOM     26  C   UNL A   1      28.818  31.308  23.716  1.00  0.00     0.230 C 
ATOM     27  C   UNL A   1      28.628  32.315  22.593  1.00  0.00     0.049 C 
ENDBRANCH  25  26
ENDBRANCH  23  25
ENDBRANCH  18  23
ENDBRANCH  14  17
ENDBRANCH   7  13
ENDBRANCH   3   6
ENDBRANCH   1   2
BRANCH   1  28
ATOM     28  C   UNL A   1      32.990  27.320  26.652  1.00  0.00     0.042 C 
BRANCH  28  29
ATOM     29  C   UNL A   1      33.962  28.256  25.945  1.00  0.00     0.118 C 
BRANCH  29  30
ATOM     30  N   UNL A   1      33.674  29.655  26.234  1.00  0.00    -0.352 N 
ATOM     31  C   UNL A   1      34.277  30.515  27.123  1.00  0.00     0.251 C 
ATOM     32  H   UNL A   1      32.934  30.045  25.714  1.00  0.00     0.163 HD
ATOM     33  O   UNL A   1      33.729  31.582  27.389  1.00  0.00    -0.269 OA
BRANCH  31  34
ATOM     34  C   UNL A   1      35.553  30.148  27.781  1.00  0.00     0.039 A 
ATOM     35  C   UNL A   1      35.528  29.684  29.098  1.00  0.00     0.014 A 
ATOM     36  C   UNL A   1      36.774  30.266  27.112  1.00  0.00     0.014 A 
ATOM     37  C   UNL A   1      36.711  29.260  29.707  1.00  0.00     0.010 A 
ATOM     38  C   UNL A   1      37.934  29.748  27.681  1.00  0.00     0.010 A 
ATOM     39  C   UNL A   1      37.919  29.243  28.989  1.00  0.00    -0.014 A 
BRANCH  39  40
ATOM     40  C   UNL A   1      39.159  28.685  29.591  1.00  0.00     0.031 A 
ATOM     41  C   UNL A   1      39.690  29.216  30.896  1.00  0.00     0.074 A 
ATOM     42  C   UNL A   1      39.840  27.727  28.930  1.00  0.00     0.049 A 
ATOM     43  N   UNL A   1      40.746  28.844  31.574  1.00  0.00    -0.248 NA
ATOM     44  C   UNL A   1      38.957  30.339  31.498  1.00  0.00     0.031 C 
ATOM     45  C   UNL A   1      39.472  27.179  27.622  1.00  0.00     0.029 A 
ATOM     46  N   UNL A   1      40.977  27.038  29.268  1.00  0.00    -0.354 N 
ATOM     47  C   UNL A   1      40.811  29.692  32.675  1.00  0.00     0.074 A 
ATOM     48  C   UNL A   1      39.731  30.645  32.527  1.00  0.00     0.031 C 
ATOM     49  C   UNL A   1      40.333  26.203  27.296  1.00  0.00     0.029 A 
ATOM     50  C   UNL A   1      41.335  26.081  28.348  1.00  0.00     0.049 A 
ATOM     51  H   UNL A   1      41.488  27.213  30.091  1.00  0.00     0.167 HD
ATOM     52  C   UNL A   1      41.672  29.664  33.725  1.00  0.00     0.034 A 
ATOM     53  C   UNL A   1      42.350  25.196  28.355  1.00  0.00     0.034 A 
ATOM     54  C   UNL A   1      42.739  28.700  33.860  1.00  0.00     0.049 A 
ATOM     55  C   UNL A   1      43.290  25.175  29.531  1.00  0.00     0.074 A 
ATOM     56  C   UNL A   1      43.620  28.527  34.914  1.00  0.00     0.029 A 
ATOM     57  N   UNL A   1      43.080  27.750  32.903  1.00  0.00    -0.354 N 
ATOM     58  N   UNL A   1      43.291  25.931  30.605  1.00  0.00    -0.248 NA
ATOM     59  C   UNL A   1      44.356  24.168  29.498  1.00  0.00     0.031 C 
ATOM     60  C   UNL A   1      44.534  27.525  34.565  1.00  0.00     0.029 A 
ATOM     61  C   UNL A   1      44.181  27.016  33.326  1.00  0.00     0.049 A 
ATOM     62  H   UNL A   1      42.609  27.617  32.049  1.00  0.00     0.167 HD
ATOM     63  C   UNL A   1      44.348  25.476  31.386  1.00  0.00     0.074 A 
ATOM     64  C   UNL A   1      44.941  24.362  30.671  1.00  0.00     0.031 C 
ATOM     65  C   UNL A   1      44.788  25.933  32.587  1.00  0.00     0.034 A 
BRANCH  52  66
ATOM     66  C   UNL A   1      41.501  30.729  34.786  1.00  0.00     0.023 A 
ATOM     67  C   UNL A   1      40.365  30.772  35.615  1.00  0.00     0.031 A 
ATOM     68  C   UNL A   1      42.459  31.748  34.936  1.00  0.00     0.131 A 
ATOM     69  C   UNL A   1      40.166  31.860  36.478  1.00  0.00     0.055 A 
ATOM     70  C   UNL A   1      42.299  32.779  35.866  1.00  0.00     0.041 A 
ATOM     71  F   UNL A   1      43.556  31.776  34.163  1.00  0.00    -0.206 F 
ATOM     72  C   UNL A   1      41.137  32.851  36.629  1.00  0.00     0.022 A 
BRANCH  69  73
ATOM     73  S   UNL A   1      38.540  32.055  37.261  1.00  0.00     0.124 S 
ATOM     74  O   UNL A   1      38.912  32.338  38.646  1.00  0.00    -0.237 OA
ATOM     75  O   UNL A   1      37.961  33.164  36.514  1.00  0.00    -0.237 OA
ATOM     76  O   UNL A   1      37.901  30.757  37.051  1.00  0.00    -0.744 OA
ENDBRANCH  69  73
ENDBRANCH  52  66
BRANCH  53  77
ATOM     77  C   UNL A   1      42.518  24.237  27.228  1.00  0.00     0.023 A 
ATOM     78  C   UNL A   1      41.943  22.958  27.284  1.00  0.00     0.031 A 
ATOM     79  C   UNL A   1      43.268  24.578  26.090  1.00  0.00     0.131 A 
ATOM     80  C   UNL A   1      42.157  22.050  26.236  1.00  0.00     0.055 A 
ATOM     81  C   UNL A   1      43.442  23.686  25.030  1.00  0.00     0.041 A 
ATOM     82  F   UNL A   1      43.828  25.794  25.985  1.00  0.00    -0.206 F 
ATOM     83  C   UNL A   1      42.893  22.410  25.104  1.00  0.00     0.022 A 
BRANCH  80  84
ATOM     84  S   UNL A   1      41.500  20.367  26.397  1.00  0.00     0.124 S 
ATOM     85  O   UNL A   1      40.078  20.577  26.150  1.00  0.00    -0.237 OA
ATOM     86  O   UNL A   1      42.234  19.655  25.356  1.00  0.00    -0.237 OA
ATOM     87  O   UNL A   1      41.849  19.996  27.766  1.00  0.00    -0.744 OA
ENDBRANCH  80  84
ENDBRANCH  53  77
BRANCH  65  88
ATOM     88  C   UNL A   1      45.963  25.203  33.196  1.00  0.00     0.023 A 
ATOM     89  C   UNL A   1      45.789  24.040  33.969  1.00  0.00     0.031 A 
ATOM     90  C   UNL A   1      47.268  25.709  33.052  1.00  0.00     0.131 A 
ATOM     91  C   UNL A   1      46.883  23.471  34.635  1.00  0.00     0.055 A 
ATOM     92  C   UNL A   1      48.364  25.096  33.660  1.00  0.00     0.041 A 
ATOM     93  F   UNL A   1      47.496  26.816  32.329  1.00  0.00    -0.206 F 
ATOM     94  C   UNL A   1      48.173  23.982  34.473  1.00  0.00     0.022 A 
BRANCH  91  95
ATOM     95  S   UNL A   1      46.577  22.137  35.825  1.00  0.00     0.124 S 
ATOM     96  O   UNL A   1      46.329  20.997  34.948  1.00  0.00    -0.237 OA
ATOM     97  O   UNL A   1      47.826  22.100  36.579  1.00  0.00    -0.237 OA
ATOM     98  O   UNL A   1      45.413  22.606  36.575  1.00  0.00    -0.744 OA
ENDBRANCH  91  95
ENDBRANCH  65  88
ENDBRANCH  39  40
ENDBRANCH  31  34
ENDBRANCH  29  30
ENDBRANCH  28  29
ENDBRANCH   1  28
TORSDOF 18
ENDMDL
MODEL 2
REMARK VINA RESULT:     -12.3      4.920      9.588
REMARK SMILES CCOC(=O)c1ccc(NC(=O)[C@H]2CC=CC[C@@]2(C)C(=O)NCCCNC(=O)c2ccc(-c3c4nc(c(-c5cc(S(=O)(=O)[O-])ccc5F)c5ccc([nH]5)c(-c5cc(S(=O)(=O)[O-])ccc5F)c5nc(c(-c6cc(S(=O)(=O)[O-])ccc6F)c6ccc3[nH]6)C=C5)C=C4)cc2)cc1
REMARK SMILES IDX 23 1 22 2 20 3 21 4 18 6 13 7 14 8 15 9 17 10 19 11 16 12
REMARK SMILES IDX 11 13 10 14 12 16 9 17 6 18 7 19 93 20 8 21 92 22 4 23 5 24
REMARK SMILES IDX 3 25 2 26 1 27 24 28 25 29 26 30 27 31 28 33 29 34 30 35
REMARK SMILES IDX 91 36 31 37 90 38 32 39 33 40 34 41 84 42 35 43 89 44 83 45
REMARK SMILES IDX 85 46 36 47 88 48 82 49 81 50 37 52 69 53 49 54 68 55 50 56
REMARK SMILES IDX 53 57 67 58 86 59 51 60 52 61 66 63 87 64 54 65 38 66 39 67
REMARK SMILES IDX 47 68 40 69 46 70 48 71 45 72 41 73 42 74 43 75 44 76 70 77
REMARK SMILES IDX 71 78 79 79 72 80 78 81 80 82 77 83 73 84 74 85 75 86 76 87
REMARK SMILES IDX 55 88 56 89 64 90 57 91 63 92 65 93 62 94 58 95 59 96 60 97
REMARK SMILES IDX 61 98
REMARK H PARENT 22 5 10 15 26 32 85 51 53 62
REMARK Flexibility Score: inf
ROOT
ATOM      1  C   UNL A   1      35.210  20.923  25.676  1.00  0.00     0.117 C 
ENDROOT
BRANCH   1   2
ATOM      2  N   UNL A   1      33.859  21.016  25.147  1.00  0.00    -0.356 N 
ATOM      3  C   UNL A   1      32.905  21.977  25.245  1.00  0.00     0.227 C 
ATOM      4  O   UNL A   1      31.776  21.653  24.865  1.00  0.00    -0.274 OA
ATOM      5  H   UNL A   1      33.583  20.234  24.617  1.00  0.00     0.163 HD
BRANCH   3   6
ATOM      6  C   UNL A   1      33.165  23.351  25.880  1.00  0.00     0.062 C 
ATOM      7  C   UNL A   1      34.119  24.289  25.079  1.00  0.00     0.098 C 
ATOM      8  C   UNL A   1      34.204  25.696  25.734  1.00  0.00     0.041 C 
ATOM      9  C   UNL A   1      32.867  26.290  26.019  1.00  0.00    -0.030 C 
ATOM     10  C   UNL A   1      31.787  24.038  26.190  1.00  0.00     0.044 C 
ATOM     11  C   UNL A   1      33.776  23.037  27.284  1.00  0.00     0.023 C 
ATOM     12  C   UNL A   1      31.779  25.539  26.214  1.00  0.00    -0.030 C 
BRANCH   7  13
ATOM     13  C   UNL A   1      34.261  24.469  23.538  1.00  0.00     0.228 C 
ATOM     14  N   UNL A   1      33.430  25.034  22.637  1.00  0.00    -0.326 N 
ATOM     15  H   UNL A   1      33.460  24.554  21.778  1.00  0.00     0.169 HD
ATOM     16  O   UNL A   1      35.158  23.803  22.981  1.00  0.00    -0.274 OA
BRANCH  14  17
ATOM     17  C   UNL A   1      32.542  26.106  22.582  1.00  0.00     0.041 A 
ATOM     18  C   UNL A   1      30.883  28.363  22.438  1.00  0.00     0.060 A 
ATOM     19  C   UNL A   1      30.339  27.092  22.650  1.00  0.00     0.018 A 
ATOM     20  C   UNL A   1      32.267  28.524  22.379  1.00  0.00     0.018 A 
ATOM     21  C   UNL A   1      31.173  25.973  22.747  1.00  0.00     0.027 A 
ATOM     22  C   UNL A   1      33.091  27.395  22.470  1.00  0.00     0.027 A 
BRANCH  18  23
ATOM     23  C   UNL A   1      29.952  29.504  22.326  1.00  0.00     0.338 C 
ATOM     24  O   UNL A   1      29.718  30.071  21.273  1.00  0.00    -0.246 OA
BRANCH  23  25
ATOM     25  O   UNL A   1      29.537  29.872  23.565  1.00  0.00    -0.462 OA
BRANCH  25  26
ATOM     26  C   UNL A   1      29.152  31.252  23.689  1.00  0.00     0.230 C 
ATOM     27  C   UNL A   1      27.646  31.387  23.526  1.00  0.00     0.049 C 
ENDBRANCH  25  26
ENDBRANCH  23  25
ENDBRANCH  18  23
ENDBRANCH  14  17
ENDBRANCH   7  13
ENDBRANCH   3   6
ENDBRANCH   1   2
BRANCH   1  28
ATOM     28  C   UNL A   1      36.240  21.297  24.623  1.00  0.00     0.042 C 
BRANCH  28  29
ATOM     29  C   UNL A   1      37.444  21.999  25.238  1.00  0.00     0.118 C 
BRANCH  29  30
ATOM     30  N   UNL A   1      38.421  21.047  25.753  1.00  0.00    -0.352 N 
ATOM     31  C   UNL A   1      39.625  21.270  26.380  1.00  0.00     0.251 C 
ATOM     32  H   UNL A   1      38.183  20.099  25.633  1.00  0.00     0.163 HD
ATOM     33  O   UNL A   1      40.410  20.335  26.518  1.00  0.00    -0.269 OA
BRANCH  31  34
ATOM     34  C   UNL A   1      39.991  22.626  26.852  1.00  0.00     0.039 A 
ATOM     35  C   UNL A   1      40.913  22.756  27.893  1.00  0.00     0.014 A 
ATOM     36  C   UNL A   1      39.427  23.770  26.280  1.00  0.00     0.014 A 
ATOM     37  C   UNL A   1      41.328  24.028  28.298  1.00  0.00     0.010 A 
ATOM     38  C   UNL A   1      39.917  25.030  26.612  1.00  0.00     0.010 A 
ATOM     39  C   UNL A   1      40.870  25.176  27.629  1.00  0.00    -0.014 A 
BRANCH  39  40
ATOM     40  C   UNL A   1      41.395  26.523  27.977  1.00  0.00     0.031 A 
ATOM     41  C   UNL A   1      42.798  26.924  27.606  1.00  0.00     0.074 A 
ATOM     42  C   UNL A   1      40.618  27.372  28.679  1.00  0.00     0.049 A 
ATOM     43  N   UNL A   1      43.419  28.058  27.815  1.00  0.00    -0.248 NA
ATOM     44  C   UNL A   1      43.623  25.903  26.944  1.00  0.00     0.031 C 
ATOM     45  C   UNL A   1      39.267  27.076  29.164  1.00  0.00     0.029 A 
ATOM     46  N   UNL A   1      40.845  28.657  29.100  1.00  0.00    -0.354 N 
ATOM     47  C   UNL A   1      44.708  27.884  27.323  1.00  0.00     0.074 A 
ATOM     48  C   UNL A   1      44.798  26.509  26.876  1.00  0.00     0.031 C 
ATOM     49  C   UNL A   1      38.768  28.166  29.767  1.00  0.00     0.029 A 
ATOM     50  C   UNL A   1      39.772  29.224  29.747  1.00  0.00     0.049 A 
ATOM     51  H   UNL A   1      41.696  29.130  28.953  1.00  0.00     0.167 HD
ATOM     52  C   UNL A   1      45.715  28.790  27.227  1.00  0.00     0.034 A 
ATOM     53  C   UNL A   1      39.609  30.460  30.256  1.00  0.00     0.034 A 
ATOM     54  C   UNL A   1      45.604  30.160  27.670  1.00  0.00     0.049 A 
ATOM     55  C   UNL A   1      40.733  31.452  30.133  1.00  0.00     0.074 A 
ATOM     56  C   UNL A   1      46.528  31.185  27.551  1.00  0.00     0.029 A 
ATOM     57  N   UNL A   1      44.505  30.697  28.330  1.00  0.00    -0.354 N 
ATOM     58  N   UNL A   1      41.920  31.297  29.592  1.00  0.00    -0.248 NA
ATOM     59  C   UNL A   1      40.486  32.792  30.678  1.00  0.00     0.031 C 
ATOM     60  C   UNL A   1      46.018  32.316  28.200  1.00  0.00     0.029 A 
ATOM     61  C   UNL A   1      44.743  32.025  28.658  1.00  0.00     0.049 A 
ATOM     62  H   UNL A   1      43.677  30.207  28.536  1.00  0.00     0.167 HD
ATOM     63  C   UNL A   1      42.554  32.530  29.715  1.00  0.00     0.074 A 
ATOM     64  C   UNL A   1      41.605  33.421  30.354  1.00  0.00     0.031 C 
ATOM     65  C   UNL A   1      43.806  32.895  29.331  1.00  0.00     0.034 A 
BRANCH  52  66
ATOM     66  C   UNL A   1      47.025  28.306  26.644  1.00  0.00     0.023 A 
ATOM     67  C   UNL A   1      47.254  28.285  25.256  1.00  0.00     0.031 A 
ATOM     68  C   UNL A   1      48.039  27.807  27.481  1.00  0.00     0.131 A 
ATOM     69  C   UNL A   1      48.416  27.686  24.745  1.00  0.00     0.055 A 
ATOM     70  C   UNL A   1      49.235  27.298  26.969  1.00  0.00     0.041 A 
ATOM     71  F   UNL A   1      47.875  27.781  28.813  1.00  0.00    -0.206 F 
ATOM     72  C   UNL A   1      49.420  27.216  25.592  1.00  0.00     0.022 A 
BRANCH  69  73
ATOM     73  S   UNL A   1      48.509  27.367  22.960  1.00  0.00     0.124 S 
ATOM     74  O   UNL A   1      49.865  27.815  22.651  1.00  0.00    -0.237 OA
ATOM     75  O   UNL A   1      48.277  25.930  22.884  1.00  0.00    -0.237 OA
ATOM     76  O   UNL A   1      47.445  28.202  22.407  1.00  0.00    -0.744 OA
ENDBRANCH  69  73
ENDBRANCH  52  66
BRANCH  53  77
ATOM     77  C   UNL A   1      38.324  30.840  30.905  1.00  0.00     0.023 A 
ATOM     78  C   UNL A   1      37.336  31.533  30.188  1.00  0.00     0.031 A 
ATOM     79  C   UNL A   1      38.071  30.533  32.253  1.00  0.00     0.131 A 
ATOM     80  C   UNL A   1      36.154  31.930  30.832  1.00  0.00     0.055 A 
ATOM     81  C   UNL A   1      36.876  30.892  32.878  1.00  0.00     0.041 A 
ATOM     82  F   UNL A   1      38.981  29.861  32.977  1.00  0.00    -0.206 F 
ATOM     83  C   UNL A   1      35.913  31.604  32.169  1.00  0.00     0.022 A 
BRANCH  80  84
ATOM     84  S   UNL A   1      34.955  32.928  29.908  1.00  0.00     0.124 S 
ATOM     85  O   UNL A   1      34.024  33.325  30.959  1.00  0.00    -0.237 OA
ATOM     86  O   UNL A   1      35.797  33.987  29.363  1.00  0.00    -0.237 OA
ATOM     87  O   UNL A   1      34.421  31.991  28.922  1.00  0.00    -0.744 OA
ENDBRANCH  80  84
ENDBRANCH  53  77
BRANCH  65  88
ATOM     88  C   UNL A   1      44.197  34.331  29.589  1.00  0.00     0.023 A 
ATOM     89  C   UNL A   1      44.101  35.313  28.586  1.00  0.00     0.031 A 
ATOM     90  C   UNL A   1      44.729  34.711  30.834  1.00  0.00     0.131 A 
ATOM     91  C   UNL A   1      44.605  36.601  28.815  1.00  0.00     0.055 A 
ATOM     92  C   UNL A   1      45.164  36.015  31.080  1.00  0.00     0.041 A 
ATOM     93  F   UNL A   1      44.848  33.819  31.829  1.00  0.00    -0.206 F 
ATOM     94  C   UNL A   1      45.122  36.963  30.061  1.00  0.00     0.022 A 
BRANCH  91  95
ATOM     95  S   UNL A   1      44.703  37.757  27.421  1.00  0.00     0.124 S 
ATOM     96  O   UNL A   1      43.321  37.784  26.951  1.00  0.00    -0.237 OA
ATOM     97  O   UNL A   1      45.183  38.976  28.061  1.00  0.00    -0.237 OA
ATOM     98  O   UNL A   1      45.653  37.118  26.511  1.00  0.00    -0.744 OA
ENDBRANCH  91  95
ENDBRANCH  65  88
ENDBRANCH  39  40
ENDBRANCH  31  34
ENDBRANCH  29  30
ENDBRANCH  28  29
ENDBRANCH   1  28
TORSDOF 18
ENDMDL
MODEL 3
REMARK VINA RESULT:     -12.2      1.609      1.872
REMARK SMILES CCOC(=O)c1ccc(NC(=O)[C@H]2CC=CC[C@@]2(C)C(=O)NCCCNC(=O)c2ccc(-c3c4nc(c(-c5cc(S(=O)(=O)[O-])ccc5F)c5ccc([nH]5)c(-c5cc(S(=O)(=O)[O-])ccc5F)c5nc(c(-c6cc(S(=O)(=O)[O-])ccc6F)c6ccc3[nH]6)C=C5)C=C4)cc2)cc1
REMARK SMILES IDX 23 1 22 2 20 3 21 4 18 6 13 7 14 8 15 9 17 10 19 11 16 12
REMARK SMILES IDX 11 13 10 14 12 16 9 17 6 18 7 19 93 20 8 21 92 22 4 23 5 24
REMARK SMILES IDX 3 25 2 26 1 27 24 28 25 29 26 30 27 31 28 33 29 34 30 35
REMARK SMILES IDX 91 36 31 37 90 38 32 39 33 40 34 41 84 42 35 43 89 44 83 45
REMARK SMILES IDX 85 46 36 47 88 48 82 49 81 50 37 52 69 53 49 54 68 55 50 56
REMARK SMILES IDX 53 57 67 58 86 59 51 60 52 61 66 63 87 64 54 65 38 66 39 67
REMARK SMILES IDX 47 68 40 69 46 70 48 71 45 72 41 73 42 74 43 75 44 76 70 77
REMARK SMILES IDX 71 78 79 79 72 80 78 81 80 82 77 83 73 84 74 85 75 86 76 87
REMARK SMILES IDX 55 88 56 89 64 90 57 91 63 92 65 93 62 94 58 95 59 96 60 97
REMARK SMILES IDX 61 98
REMARK H PARENT 22 5 10 15 26 32 85 51 53 62
REMARK Flexibility Score: inf
ROOT
ATOM      1  C   UNL A   1      33.567  25.875  25.482  1.00  0.00     0.117 C 
ENDROOT
BRANCH   1   2
ATOM      2  N   UNL A   1      34.403  25.270  24.458  1.00  0.00    -0.356 N 
ATOM      3  C   UNL A   1      34.760  23.983  24.215  1.00  0.00     0.227 C 
ATOM      4  O   UNL A   1      35.668  23.824  23.393  1.00  0.00    -0.274 OA
ATOM      5  H   UNL A   1      34.782  25.916  23.819  1.00  0.00     0.163 HD
BRANCH   3   6
ATOM      6  C   UNL A   1      34.160  22.791  24.975  1.00  0.00     0.062 C 
ATOM      7  C   UNL A   1      32.647  22.522  24.712  1.00  0.00     0.098 C 
ATOM      8  C   UNL A   1      32.176  21.220  25.418  1.00  0.00     0.041 C 
ATOM      9  C   UNL A   1      33.057  20.052  25.136  1.00  0.00    -0.030 C 
ATOM     10  C   UNL A   1      35.039  21.518  24.704  1.00  0.00     0.044 C 
ATOM     11  C   UNL A   1      34.392  23.119  26.485  1.00  0.00     0.023 C 
ATOM     12  C   UNL A   1      34.345  20.192  24.805  1.00  0.00    -0.030 C 
BRANCH   7  13
ATOM     13  C   UNL A   1      31.832  22.673  23.393  1.00  0.00     0.228 C 
ATOM     14  N   UNL A   1      30.960  23.626  23.001  1.00  0.00    -0.326 N 
ATOM     15  H   UNL A   1      30.229  23.239  22.467  1.00  0.00     0.169 HD
ATOM     16  O   UNL A   1      31.774  21.667  22.657  1.00  0.00    -0.274 OA
BRANCH  14  17
ATOM     17  C   UNL A   1      30.805  25.004  23.140  1.00  0.00     0.041 A 
ATOM     18  C   UNL A   1      30.576  27.795  23.278  1.00  0.00     0.060 A 
ATOM     19  C   UNL A   1      29.961  26.982  24.236  1.00  0.00     0.018 A 
ATOM     20  C   UNL A   1      31.378  27.221  22.293  1.00  0.00     0.018 A 
ATOM     21  C   UNL A   1      30.100  25.591  24.177  1.00  0.00     0.027 A 
ATOM     22  C   UNL A   1      31.503  25.827  22.239  1.00  0.00     0.027 A 
BRANCH  18  23
ATOM     23  C   UNL A   1      30.379  29.255  23.381  1.00  0.00     0.338 C 
ATOM     24  O   UNL A   1      30.594  29.886  24.402  1.00  0.00    -0.246 OA
BRANCH  23  25
ATOM     25  O   UNL A   1      29.814  29.717  22.237  1.00  0.00    -0.462 OA
BRANCH  25  26
ATOM     26  C   UNL A   1      28.377  29.675  22.212  1.00  0.00     0.230 C 
ATOM     27  C   UNL A   1      27.810  30.979  22.748  1.00  0.00     0.049 C 
ENDBRANCH  25  26
ENDBRANCH  23  25
ENDBRANCH  18  23
ENDBRANCH  14  17
ENDBRANCH   7  13
ENDBRANCH   3   6
ENDBRANCH   1   2
BRANCH   1  28
ATOM     28  C   UNL A   1      33.672  27.391  25.453  1.00  0.00     0.042 C 
BRANCH  28  29
ATOM     29  C   UNL A   1      33.590  27.987  26.853  1.00  0.00     0.118 C 
BRANCH  29  30
ATOM     30  N   UNL A   1      33.424  29.434  26.817  1.00  0.00    -0.352 N 
ATOM     31  C   UNL A   1      34.179  30.425  27.402  1.00  0.00     0.251 C 
ATOM     32  H   UNL A   1      32.652  29.752  26.294  1.00  0.00     0.163 HD
ATOM     33  O   UNL A   1      33.732  31.568  27.451  1.00  0.00    -0.269 OA
BRANCH  31  34
ATOM     34  C   UNL A   1      35.499  30.115  27.998  1.00  0.00     0.039 A 
ATOM     35  C   UNL A   1      35.554  29.603  29.296  1.00  0.00     0.014 A 
ATOM     36  C   UNL A   1      36.684  30.333  27.290  1.00  0.00     0.014 A 
ATOM     37  C   UNL A   1      36.784  29.232  29.845  1.00  0.00     0.010 A 
ATOM     38  C   UNL A   1      37.895  29.868  27.796  1.00  0.00     0.010 A 
ATOM     39  C   UNL A   1      37.962  29.316  29.083  1.00  0.00    -0.014 A 
BRANCH  39  40
ATOM     40  C   UNL A   1      39.256  28.816  29.618  1.00  0.00     0.031 A 
ATOM     41  C   UNL A   1      39.883  29.444  30.834  1.00  0.00     0.074 A 
ATOM     42  C   UNL A   1      39.896  27.821  28.970  1.00  0.00     0.049 A 
ATOM     43  N   UNL A   1      40.997  29.132  31.447  1.00  0.00    -0.248 NA
ATOM     44  C   UNL A   1      39.183  30.598  31.415  1.00  0.00     0.031 C 
ATOM     45  C   UNL A   1      39.431  27.179  27.738  1.00  0.00     0.029 A 
ATOM     46  N   UNL A   1      41.068  27.171  29.259  1.00  0.00    -0.354 N 
ATOM     47  C   UNL A   1      41.139  30.056  32.477  1.00  0.00     0.074 A 
ATOM     48  C   UNL A   1      40.034  30.984  32.353  1.00  0.00     0.031 C 
ATOM     49  C   UNL A   1      40.280  26.192  27.410  1.00  0.00     0.029 A 
ATOM     50  C   UNL A   1      41.366  26.155  28.381  1.00  0.00     0.049 A 
ATOM     51  H   UNL A   1      41.642  27.408  30.024  1.00  0.00     0.167 HD
ATOM     52  C   UNL A   1      42.083  30.111  33.451  1.00  0.00     0.034 A 
ATOM     53  C   UNL A   1      42.393  25.283  28.366  1.00  0.00     0.034 A 
ATOM     54  C   UNL A   1      43.173  29.170  33.563  1.00  0.00     0.049 A 
ATOM     55  C   UNL A   1      43.426  25.356  29.458  1.00  0.00     0.074 A 
ATOM     56  C   UNL A   1      44.140  29.081  34.551  1.00  0.00     0.029 A 
ATOM     57  N   UNL A   1      43.451  28.159  32.650  1.00  0.00    -0.354 N 
ATOM     58  N   UNL A   1      43.502  26.186  30.473  1.00  0.00    -0.248 NA
ATOM     59  C   UNL A   1      44.503  24.361  29.407  1.00  0.00     0.031 C 
ATOM     60  C   UNL A   1      45.039  28.068  34.197  1.00  0.00     0.029 A 
ATOM     61  C   UNL A   1      44.594  27.469  33.030  1.00  0.00     0.049 A 
ATOM     62  H   UNL A   1      42.914  27.961  31.849  1.00  0.00     0.167 HD
ATOM     63  C   UNL A   1      44.628  25.798  31.194  1.00  0.00     0.074 A 
ATOM     64  C   UNL A   1      45.178  24.643  30.511  1.00  0.00     0.031 C 
ATOM     65  C   UNL A   1      45.157  26.343  32.320  1.00  0.00     0.034 A 
BRANCH  52  66
ATOM     66  C   UNL A   1      41.982  31.246  34.446  1.00  0.00     0.023 A 
ATOM     67  C   UNL A   1      41.022  31.244  35.476  1.00  0.00     0.031 A 
ATOM     68  C   UNL A   1      42.817  32.372  34.333  1.00  0.00     0.131 A 
ATOM     69  C   UNL A   1      40.854  32.381  36.281  1.00  0.00     0.055 A 
ATOM     70  C   UNL A   1      42.707  33.462  35.200  1.00  0.00     0.041 A 
ATOM     71  F   UNL A   1      43.740  32.444  33.361  1.00  0.00    -0.206 F 
ATOM     72  C   UNL A   1      41.707  33.480  36.168  1.00  0.00     0.022 A 
BRANCH  69  73
ATOM     73  S   UNL A   1      39.391  32.472  37.351  1.00  0.00     0.124 S 
ATOM     74  O   UNL A   1      38.720  31.212  37.041  1.00  0.00    -0.237 OA
ATOM     75  O   UNL A   1      39.979  32.574  38.681  1.00  0.00    -0.237 OA
ATOM     76  O   UNL A   1      38.697  33.669  36.881  1.00  0.00    -0.744 OA
ENDBRANCH  69  73
ENDBRANCH  52  66
BRANCH  53  77
ATOM     77  C   UNL A   1      42.484  24.250  27.298  1.00  0.00     0.023 A 
ATOM     78  C   UNL A   1      41.683  23.098  27.346  1.00  0.00     0.031 A 
ATOM     79  C   UNL A   1      43.382  24.388  26.227  1.00  0.00     0.131 A 
ATOM     80  C   UNL A   1      41.821  22.110  26.359  1.00  0.00     0.055 A 
ATOM     81  C   UNL A   1      43.486  23.423  25.224  1.00  0.00     0.041 A 
ATOM     82  F   UNL A   1      44.161  25.478  26.132  1.00  0.00    -0.206 F 
ATOM     83  C   UNL A   1      42.709  22.270  25.292  1.00  0.00     0.022 A 
BRANCH  80  84
ATOM     84  S   UNL A   1      40.857  20.582  26.519  1.00  0.00     0.124 S 
ATOM     85  O   UNL A   1      39.552  20.999  26.018  1.00  0.00    -0.237 OA
ATOM     86  O   UNL A   1      41.606  19.661  25.670  1.00  0.00    -0.237 OA
ATOM     87  O   UNL A   1      40.915  20.292  27.950  1.00  0.00    -0.744 OA
ENDBRANCH  80  84
ENDBRANCH  53  77
BRANCH  65  88
ATOM     88  C   UNL A   1      46.390  25.671  32.878  1.00  0.00     0.023 A 
ATOM     89  C   UNL A   1      47.670  25.926  32.354  1.00  0.00     0.031 A 
ATOM     90  C   UNL A   1      46.277  24.718  33.907  1.00  0.00     0.131 A 
ATOM     91  C   UNL A   1      48.771  25.181  32.799  1.00  0.00     0.055 A 
ATOM     92  C   UNL A   1      47.388  24.030  34.396  1.00  0.00     0.041 A 
ATOM     93  F   UNL A   1      45.082  24.431  34.446  1.00  0.00    -0.206 F 
ATOM     94  C   UNL A   1      48.642  24.245  33.828  1.00  0.00     0.022 A 
BRANCH  91  95
ATOM     95  S   UNL A   1      50.349  25.352  31.920  1.00  0.00     0.124 S 
ATOM     96  O   UNL A   1      49.943  26.038  30.697  1.00  0.00    -0.237 OA
ATOM     97  O   UNL A   1      51.143  26.138  32.858  1.00  0.00    -0.237 OA
ATOM     98  O   UNL A   1      50.792  23.971  31.737  1.00  0.00    -0.744 OA
ENDBRANCH  91  95
ENDBRANCH  65  88
ENDBRANCH  39  40
ENDBRANCH  31  34
ENDBRANCH  29  30
ENDBRANCH  28  29
ENDBRANCH   1  28
TORSDOF 18
ENDMDL
