MODEL 1
REMARK VINA RESULT:     -12.3      0.000      0.000
REMARK SMILES O=C(NCCCNC(=O)[C@@H]1C[C@@H]2CC[C@H]1N2C(=O)c1ccncc1Cl)c1ccc(-c2c3nc(c(-c4cc(S(=O)(=O)[O-])ccc4F)c4ccc([nH]4)c(-c4cc(S(=O)(=O)[O-])ccc4F)c4nc(c(-c5cc(S(=O)(=O)[O-])ccc5F)c5ccc2[nH]5)C=C4)C=C3)cc1
REMARK SMILES IDX 4 1 3 2 1 3 2 4 26 6 27 7 88 8 28 9 87 10 29 11 30 12 31 13
REMARK SMILES IDX 81 14 32 15 86 16 80 17 82 18 33 19 85 20 79 21 78 22 34 24
REMARK SMILES IDX 66 25 46 26 65 27 47 28 50 29 64 30 83 31 48 32 49 33 63 35
REMARK SMILES IDX 84 36 51 37 35 38 36 39 44 40 37 41 43 42 45 43 42 44 38 45
REMARK SMILES IDX 39 46 40 47 41 48 67 49 68 50 76 51 69 52 75 53 77 54 74 55
REMARK SMILES IDX 70 56 71 57 72 58 73 59 52 60 53 61 61 62 54 63 60 64 62 65
REMARK SMILES IDX 59 66 55 67 56 68 57 69 58 70 5 71 6 72 7 73 8 74 9 76 10 77
REMARK SMILES IDX 11 78 15 79 12 80 14 81 16 82 13 83 17 84 18 85 19 86 20 87
REMARK SMILES IDX 24 88 21 89 23 90 25 91 22 92
REMARK H PARENT 3 5 82 23 50 34 7 75
REMARK Flexibility Score: inf
ROOT
ATOM      1  C   UNL A   1      35.866  22.143  25.852  1.00  0.00     0.118 C 
ENDROOT
BRANCH   1   2
ATOM      2  N   UNL A   1      36.842  21.082  25.644  1.00  0.00    -0.352 N 
ATOM      3  O   UNL A   1      38.858  20.130  25.329  1.00  0.00    -0.269 OA
ATOM      4  C   UNL A   1      38.217  21.114  25.694  1.00  0.00     0.251 C 
ATOM      5  H   UNL A   1      36.457  20.201  25.435  1.00  0.00     0.163 HD
BRANCH   4   6
ATOM      6  C   UNL A   1      38.924  22.331  26.156  1.00  0.00     0.039 A 
ATOM      7  C   UNL A   1      38.456  23.598  25.815  1.00  0.00     0.014 A 
ATOM      8  C   UNL A   1      40.066  22.208  26.955  1.00  0.00     0.014 A 
ATOM      9  C   UNL A   1      39.228  24.718  26.085  1.00  0.00     0.010 A 
ATOM     10  C   UNL A   1      40.770  23.353  27.347  1.00  0.00     0.010 A 
ATOM     11  C   UNL A   1      40.377  24.618  26.885  1.00  0.00    -0.014 A 
BRANCH  11  12
ATOM     12  C   UNL A   1      41.080  25.867  27.283  1.00  0.00     0.031 A 
ATOM     13  C   UNL A   1      42.451  26.197  26.758  1.00  0.00     0.074 A 
ATOM     14  C   UNL A   1      40.435  26.731  28.094  1.00  0.00     0.049 A 
ATOM     15  N   UNL A   1      43.191  27.249  26.999  1.00  0.00    -0.248 NA
ATOM     16  C   UNL A   1      43.078  25.219  25.855  1.00  0.00     0.031 C 
ATOM     17  C   UNL A   1      39.103  26.509  28.668  1.00  0.00     0.029 A 
ATOM     18  N   UNL A   1      40.785  27.973  28.555  1.00  0.00    -0.354 N 
ATOM     19  C   UNL A   1      44.380  27.051  26.304  1.00  0.00     0.074 A 
ATOM     20  C   UNL A   1      44.268  25.767  25.645  1.00  0.00     0.031 C 
ATOM     21  C   UNL A   1      38.724  27.600  29.345  1.00  0.00     0.029 A 
ATOM     22  C   UNL A   1      39.817  28.564  29.336  1.00  0.00     0.049 A 
ATOM     23  H   UNL A   1      41.646  28.402  28.349  1.00  0.00     0.167 HD
ATOM     24  C   UNL A   1      45.459  27.870  26.226  1.00  0.00     0.034 A 
ATOM     25  C   UNL A   1      39.814  29.735  29.998  1.00  0.00     0.034 A 
ATOM     26  C   UNL A   1      45.542  29.157  26.877  1.00  0.00     0.049 A 
ATOM     27  C   UNL A   1      41.033  30.609  29.907  1.00  0.00     0.074 A 
ATOM     28  C   UNL A   1      46.573  30.080  26.833  1.00  0.00     0.029 A 
ATOM     29  N   UNL A   1      44.559  29.702  27.694  1.00  0.00    -0.354 N 
ATOM     30  N   UNL A   1      42.144  30.406  29.238  1.00  0.00    -0.248 NA
ATOM     31  C   UNL A   1      41.000  31.867  30.661  1.00  0.00     0.031 C 
ATOM     32  C   UNL A   1      46.241  31.151  27.670  1.00  0.00     0.029 A 
ATOM     33  C   UNL A   1      44.974  30.932  28.183  1.00  0.00     0.049 A 
ATOM     34  H   UNL A   1      43.695  29.277  27.896  1.00  0.00     0.167 HD
ATOM     35  C   UNL A   1      42.940  31.519  29.483  1.00  0.00     0.074 A 
ATOM     36  C   UNL A   1      42.169  32.400  30.337  1.00  0.00     0.031 C 
ATOM     37  C   UNL A   1      44.198  31.786  29.049  1.00  0.00     0.034 A 
BRANCH  24  38
ATOM     38  C   UNL A   1      46.658  27.381  25.450  1.00  0.00     0.023 A 
ATOM     39  C   UNL A   1      46.939  27.830  24.149  1.00  0.00     0.031 A 
ATOM     40  C   UNL A   1      47.542  26.453  26.032  1.00  0.00     0.131 A 
ATOM     41  C   UNL A   1      48.048  27.317  23.455  1.00  0.00     0.055 A 
ATOM     42  C   UNL A   1      48.679  25.996  25.362  1.00  0.00     0.041 A 
ATOM     43  F   UNL A   1      47.313  25.975  27.265  1.00  0.00    -0.206 F 
ATOM     44  C   UNL A   1      48.932  26.422  24.062  1.00  0.00     0.022 A 
BRANCH  41  45
ATOM     45  S   UNL A   1      48.265  27.761  21.710  1.00  0.00     0.124 S 
ATOM     46  O   UNL A   1      49.336  28.753  21.787  1.00  0.00    -0.237 OA
ATOM     47  O   UNL A   1      48.621  26.486  21.100  1.00  0.00    -0.237 OA
ATOM     48  O   UNL A   1      46.958  28.293  21.326  1.00  0.00    -0.744 OA
ENDBRANCH  41  45
ENDBRANCH  24  38
BRANCH  25  49
ATOM     49  C   UNL A   1      38.648  30.121  30.842  1.00  0.00     0.023 A 
ATOM     50  C   UNL A   1      37.617  30.925  30.334  1.00  0.00     0.031 A 
ATOM     51  C   UNL A   1      38.565  29.712  32.186  1.00  0.00     0.131 A 
ATOM     52  C   UNL A   1      36.569  31.329  31.176  1.00  0.00     0.055 A 
ATOM     53  C   UNL A   1      37.491  30.068  33.002  1.00  0.00     0.041 A 
ATOM     54  F   UNL A   1      39.523  28.939  32.722  1.00  0.00    -0.206 F 
ATOM     55  C   UNL A   1      36.491  30.894  32.501  1.00  0.00     0.022 A 
BRANCH  52  56
ATOM     56  S   UNL A   1      35.353  32.514  30.538  1.00  0.00     0.124 S 
ATOM     57  O   UNL A   1      36.169  33.709  30.352  1.00  0.00    -0.237 OA
ATOM     58  O   UNL A   1      34.897  31.852  29.321  1.00  0.00    -0.237 OA
ATOM     59  O   UNL A   1      34.363  32.596  31.610  1.00  0.00    -0.744 OA
ENDBRANCH  52  56
ENDBRANCH  25  49
BRANCH  37  60
ATOM     60  C   UNL A   1      44.787  33.105  29.479  1.00  0.00     0.023 A 
ATOM     61  C   UNL A   1      44.620  34.269  28.707  1.00  0.00     0.031 A 
ATOM     62  C   UNL A   1      45.555  33.188  30.652  1.00  0.00     0.131 A 
ATOM     63  C   UNL A   1      45.267  35.454  29.085  1.00  0.00     0.055 A 
ATOM     64  C   UNL A   1      46.148  34.386  31.055  1.00  0.00     0.041 A 
ATOM     65  F   UNL A   1      45.747  32.105  31.422  1.00  0.00    -0.206 F 
ATOM     66  C   UNL A   1      46.019  35.523  30.261  1.00  0.00     0.022 A 
BRANCH  63  67
ATOM     67  S   UNL A   1      45.193  36.879  27.967  1.00  0.00     0.124 S 
ATOM     68  O   UNL A   1      46.268  36.581  27.024  1.00  0.00    -0.237 OA
ATOM     69  O   UNL A   1      43.837  36.790  27.436  1.00  0.00    -0.237 OA
ATOM     70  O   UNL A   1      45.440  38.019  28.848  1.00  0.00    -0.744 OA
ENDBRANCH  63  67
ENDBRANCH  37  60
ENDBRANCH  11  12
ENDBRANCH   4   6
ENDBRANCH   1   2
BRANCH   1  71
ATOM     71  C   UNL A   1      34.704  21.728  26.738  1.00  0.00     0.042 C 
BRANCH  71  72
ATOM     72  C   UNL A   1      33.955  22.888  27.367  1.00  0.00     0.117 C 
BRANCH  72  73
ATOM     73  N   UNL A   1      32.524  22.658  27.463  1.00  0.00    -0.356 N 
ATOM     74  C   UNL A   1      31.491  23.414  26.998  1.00  0.00     0.225 C 
ATOM     75  H   UNL A   1      32.262  21.835  27.934  1.00  0.00     0.163 HD
ATOM     76  O   UNL A   1      30.349  22.983  27.151  1.00  0.00    -0.275 OA
BRANCH  74  77
ATOM     77  C   UNL A   1      31.784  24.748  26.340  1.00  0.00     0.103 C 
ATOM     78  C   UNL A   1      30.500  25.527  25.913  1.00  0.00     0.040 C 
ATOM     79  C   UNL A   1      32.550  24.647  25.002  1.00  0.00     0.098 C 
ATOM     80  C   UNL A   1      30.731  25.761  24.406  1.00  0.00     0.086 C 
ATOM     81  C   UNL A   1      31.845  23.658  24.057  1.00  0.00     0.028 C 
ATOM     82  N   UNL A   1      32.168  25.904  24.389  1.00  0.00    -0.332 N 
ATOM     83  C   UNL A   1      30.563  24.424  23.667  1.00  0.00     0.027 C 
BRANCH  82  84
ATOM     84  C   UNL A   1      32.846  27.068  24.146  1.00  0.00     0.256 C 
ATOM     85  O   UNL A   1      33.393  27.316  23.075  1.00  0.00    -0.269 OA
BRANCH  84  86
ATOM     86  C   UNL A   1      32.846  28.115  25.183  1.00  0.00     0.061 A 
ATOM     87  C   UNL A   1      33.809  27.996  26.192  1.00  0.00     0.035 A 
ATOM     88  C   UNL A   1      31.917  29.153  25.228  1.00  0.00     0.072 A 
ATOM     89  C   UNL A   1      33.833  28.950  27.191  1.00  0.00     0.112 A 
ATOM     90  C   UNL A   1      32.039  30.066  26.264  1.00  0.00     0.132 A 
ATOM     91  Cl  UNL A   1      30.620  29.331  24.112  1.00  0.00    -0.082 Cl
ATOM     92  N   UNL A   1      32.976  29.991  27.239  1.00  0.00    -0.263 NA
ENDBRANCH  84  86
ENDBRANCH  82  84
ENDBRANCH  74  77
ENDBRANCH  72  73
ENDBRANCH  71  72
ENDBRANCH   1  71
TORSDOF 15
ENDMDL
MODEL 2
REMARK VINA RESULT:     -12.2      5.687      8.655
REMARK SMILES O=C(NCCCNC(=O)[C@@H]1C[C@@H]2CC[C@H]1N2C(=O)c1ccncc1Cl)c1ccc(-c2c3nc(c(-c4cc(S(=O)(=O)[O-])ccc4F)c4ccc([nH]4)c(-c4cc(S(=O)(=O)[O-])ccc4F)c4nc(c(-c5cc(S(=O)(=O)[O-])ccc5F)c5ccc2[nH]5)C=C4)C=C3)cc1
REMARK SMILES IDX 4 1 3 2 1 3 2 4 26 6 27 7 88 8 28 9 87 10 29 11 30 12 31 13
REMARK SMILES IDX 81 14 32 15 86 16 80 17 82 18 33 19 85 20 79 21 78 22 34 24
REMARK SMILES IDX 66 25 46 26 65 27 47 28 50 29 64 30 83 31 48 32 49 33 63 35
REMARK SMILES IDX 84 36 51 37 35 38 36 39 44 40 37 41 43 42 45 43 42 44 38 45
REMARK SMILES IDX 39 46 40 47 41 48 67 49 68 50 76 51 69 52 75 53 77 54 74 55
REMARK SMILES IDX 70 56 71 57 72 58 73 59 52 60 53 61 61 62 54 63 60 64 62 65
REMARK SMILES IDX 59 66 55 67 56 68 57 69 58 70 5 71 6 72 7 73 8 74 9 76 10 77
REMARK SMILES IDX 11 78 15 79 12 80 14 81 16 82 13 83 17 84 18 85 19 86 20 87
REMARK SMILES IDX 24 88 21 89 23 90 25 91 22 92
REMARK H PARENT 3 5 82 23 50 34 7 75
REMARK Flexibility Score: inf
ROOT
ATOM      1  C   UNL A   1      32.932  33.237  27.337  1.00  0.00     0.118 C 
ENDROOT
BRANCH   1   2
ATOM      2  N   UNL A   1      32.755  34.558  27.924  1.00  0.00    -0.352 N 
ATOM      3  O   UNL A   1      32.928  36.209  29.444  1.00  0.00    -0.269 OA
ATOM      4  C   UNL A   1      33.343  35.128  29.030  1.00  0.00     0.251 C 
ATOM      5  H   UNL A   1      32.112  35.136  27.454  1.00  0.00     0.163 HD
BRANCH   4   6
ATOM      6  C   UNL A   1      34.445  34.436  29.735  1.00  0.00     0.039 A 
ATOM      7  C   UNL A   1      35.770  34.626  29.346  1.00  0.00     0.014 A 
ATOM      8  C   UNL A   1      34.157  33.593  30.814  1.00  0.00     0.014 A 
ATOM      9  C   UNL A   1      36.771  33.829  29.882  1.00  0.00     0.010 A 
ATOM     10  C   UNL A   1      35.190  32.892  31.449  1.00  0.00     0.010 A 
ATOM     11  C   UNL A   1      36.503  32.977  30.964  1.00  0.00    -0.014 A 
BRANCH  11  12
ATOM     12  C   UNL A   1      37.640  32.266  31.610  1.00  0.00     0.031 A 
ATOM     13  C   UNL A   1      38.385  31.170  30.898  1.00  0.00     0.074 A 
ATOM     14  C   UNL A   1      38.023  32.662  32.841  1.00  0.00     0.049 A 
ATOM     15  N   UNL A   1      39.403  30.463  31.318  1.00  0.00    -0.248 NA
ATOM     16  C   UNL A   1      37.926  30.813  29.546  1.00  0.00     0.031 C 
ATOM     17  C   UNL A   1      37.365  33.712  33.627  1.00  0.00     0.029 A 
ATOM     18  N   UNL A   1      39.063  32.262  33.638  1.00  0.00    -0.354 N 
ATOM     19  C   UNL A   1      39.691  29.560  30.300  1.00  0.00     0.074 A 
ATOM     20  C   UNL A   1      38.726  29.798  29.246  1.00  0.00     0.031 C 
ATOM     21  C   UNL A   1      38.055  33.917  34.757  1.00  0.00     0.029 A 
ATOM     22  C   UNL A   1      39.146  32.955  34.824  1.00  0.00     0.049 A 
ATOM     23  H   UNL A   1      39.692  31.548  33.386  1.00  0.00     0.167 HD
ATOM     24  C   UNL A   1      40.672  28.624  30.254  1.00  0.00     0.034 A 
ATOM     25  C   UNL A   1      39.985  32.817  35.868  1.00  0.00     0.034 A 
ATOM     26  C   UNL A   1      41.636  28.415  31.308  1.00  0.00     0.049 A 
ATOM     27  C   UNL A   1      41.048  31.756  35.793  1.00  0.00     0.074 A 
ATOM     28  C   UNL A   1      42.692  27.519  31.347  1.00  0.00     0.029 A 
ATOM     29  N   UNL A   1      41.663  29.107  32.513  1.00  0.00    -0.354 N 
ATOM     30  N   UNL A   1      41.307  30.917  34.816  1.00  0.00    -0.248 NA
ATOM     31  C   UNL A   1      41.927  31.621  36.959  1.00  0.00     0.031 C 
ATOM     32  C   UNL A   1      43.315  27.626  32.595  1.00  0.00     0.029 A 
ATOM     33  C   UNL A   1      42.695  28.636  33.312  1.00  0.00     0.049 A 
ATOM     34  H   UNL A   1      41.039  29.826  32.764  1.00  0.00     0.167 HD
ATOM     35  C   UNL A   1      42.390  30.161  35.249  1.00  0.00     0.074 A 
ATOM     36  C   UNL A   1      42.750  30.663  36.560  1.00  0.00     0.031 C 
ATOM     37  C   UNL A   1      43.025  29.137  34.624  1.00  0.00     0.034 A 
BRANCH  24  38
ATOM     38  C   UNL A   1      40.724  27.718  29.046  1.00  0.00     0.023 A 
ATOM     39  C   UNL A   1      41.660  27.902  28.015  1.00  0.00     0.031 A 
ATOM     40  C   UNL A   1      39.822  26.644  28.933  1.00  0.00     0.131 A 
ATOM     41  C   UNL A   1      41.644  27.054  26.895  1.00  0.00     0.055 A 
ATOM     42  C   UNL A   1      39.853  25.765  27.849  1.00  0.00     0.041 A 
ATOM     43  F   UNL A   1      38.894  26.431  29.879  1.00  0.00    -0.206 F 
ATOM     44  C   UNL A   1      40.763  25.973  26.817  1.00  0.00     0.022 A 
BRANCH  41  45
ATOM     45  S   UNL A   1      42.727  27.443  25.492  1.00  0.00     0.124 S 
ATOM     46  O   UNL A   1      43.970  27.807  26.170  1.00  0.00    -0.237 OA
ATOM     47  O   UNL A   1      42.749  26.187  24.752  1.00  0.00    -0.237 OA
ATOM     48  O   UNL A   1      42.041  28.549  24.826  1.00  0.00    -0.744 OA
ENDBRANCH  41  45
ENDBRANCH  24  38
BRANCH  25  49
ATOM     49  C   UNL A   1      39.821  33.661  37.084  1.00  0.00     0.023 A 
ATOM     50  C   UNL A   1      39.292  33.132  38.272  1.00  0.00     0.031 A 
ATOM     51  C   UNL A   1      40.164  35.026  37.065  1.00  0.00     0.131 A 
ATOM     52  C   UNL A   1      39.085  33.971  39.377  1.00  0.00     0.055 A 
ATOM     53  C   UNL A   1      40.011  35.842  38.186  1.00  0.00     0.041 A 
ATOM     54  F   UNL A   1      40.677  35.582  35.956  1.00  0.00    -0.206 F 
ATOM     55  C   UNL A   1      39.454  35.318  39.347  1.00  0.00     0.022 A 
BRANCH  52  56
ATOM     56  S   UNL A   1      38.233  33.297  40.830  1.00  0.00     0.124 S 
ATOM     57  O   UNL A   1      38.618  31.891  40.775  1.00  0.00    -0.237 OA
ATOM     58  O   UNL A   1      38.818  34.081  41.913  1.00  0.00    -0.237 OA
ATOM     59  O   UNL A   1      36.825  33.569  40.554  1.00  0.00    -0.744 OA
ENDBRANCH  52  56
ENDBRANCH  25  49
BRANCH  37  60
ATOM     60  C   UNL A   1      44.192  28.527  35.356  1.00  0.00     0.023 A 
ATOM     61  C   UNL A   1      44.014  27.476  36.273  1.00  0.00     0.031 A 
ATOM     62  C   UNL A   1      45.490  29.028  35.161  1.00  0.00     0.131 A 
ATOM     63  C   UNL A   1      45.109  27.002  37.010  1.00  0.00     0.055 A 
ATOM     64  C   UNL A   1      46.586  28.512  35.854  1.00  0.00     0.041 A 
ATOM     65  F   UNL A   1      45.713  30.032  34.297  1.00  0.00    -0.206 F 
ATOM     66  C   UNL A   1      46.395  27.503  36.796  1.00  0.00     0.022 A 
BRANCH  63  67
ATOM     67  S   UNL A   1      44.812  25.787  38.322  1.00  0.00     0.124 S 
ATOM     68  O   UNL A   1      44.035  26.564  39.284  1.00  0.00    -0.237 OA
ATOM     69  O   UNL A   1      44.086  24.736  37.617  1.00  0.00    -0.237 OA
ATOM     70  O   UNL A   1      46.157  25.422  38.763  1.00  0.00    -0.744 OA
ENDBRANCH  63  67
ENDBRANCH  37  60
ENDBRANCH  11  12
ENDBRANCH   4   6
ENDBRANCH   1   2
BRANCH   1  71
ATOM     71  C   UNL A   1      31.622  32.521  27.056  1.00  0.00     0.042 C 
BRANCH  71  72
ATOM     72  C   UNL A   1      31.777  31.196  26.333  1.00  0.00     0.117 C 
BRANCH  72  73
ATOM     73  N   UNL A   1      32.117  30.098  27.219  1.00  0.00    -0.356 N 
ATOM     74  C   UNL A   1      32.028  28.755  27.010  1.00  0.00     0.225 C 
ATOM     75  H   UNL A   1      32.461  30.362  28.102  1.00  0.00     0.163 HD
ATOM     76  O   UNL A   1      32.432  28.007  27.899  1.00  0.00    -0.275 OA
BRANCH  74  77
ATOM     77  C   UNL A   1      31.423  28.242  25.718  1.00  0.00     0.103 C 
ATOM     78  C   UNL A   1      31.318  26.686  25.653  1.00  0.00     0.040 C 
ATOM     79  C   UNL A   1      32.254  28.555  24.454  1.00  0.00     0.098 C 
ATOM     80  C   UNL A   1      32.092  26.348  24.363  1.00  0.00     0.086 C 
ATOM     81  C   UNL A   1      33.712  28.104  24.649  1.00  0.00     0.028 C 
ATOM     82  N   UNL A   1      31.779  27.512  23.567  1.00  0.00    -0.332 N 
ATOM     83  C   UNL A   1      33.593  26.565  24.616  1.00  0.00     0.027 C 
BRANCH  82  84
ATOM     84  C   UNL A   1      30.971  27.522  22.462  1.00  0.00     0.256 C 
ATOM     85  O   UNL A   1      31.110  26.747  21.520  1.00  0.00    -0.269 OA
BRANCH  84  86
ATOM     86  C   UNL A   1      29.820  28.443  22.437  1.00  0.00     0.061 A 
ATOM     87  C   UNL A   1      30.033  29.694  21.846  1.00  0.00     0.035 A 
ATOM     88  C   UNL A   1      28.586  28.149  23.014  1.00  0.00     0.072 A 
ATOM     89  C   UNL A   1      28.983  30.591  21.814  1.00  0.00     0.112 A 
ATOM     90  C   UNL A   1      27.595  29.113  22.915  1.00  0.00     0.132 A 
ATOM     91  Cl  UNL A   1      28.248  26.696  23.871  1.00  0.00    -0.082 Cl
ATOM     92  N   UNL A   1      27.764  30.320  22.324  1.00  0.00    -0.263 NA
ENDBRANCH  84  86
ENDBRANCH  82  84
ENDBRANCH  74  77
ENDBRANCH  72  73
ENDBRANCH  71  72
ENDBRANCH   1  71
TORSDOF 15
ENDMDL
MODEL 3
REMARK VINA RESULT:     -12.2      5.045      7.474
REMARK SMILES O=C(NCCCNC(=O)[C@@H]1C[C@@H]2CC[C@H]1N2C(=O)c1ccncc1Cl)c1ccc(-c2c3nc(c(-c4cc(S(=O)(=O)[O-])ccc4F)c4ccc([nH]4)c(-c4cc(S(=O)(=O)[O-])ccc4F)c4nc(c(-c5cc(S(=O)(=O)[O-])ccc5F)c5ccc2[nH]5)C=C4)C=C3)cc1
REMARK SMILES IDX 4 1 3 2 1 3 2 4 26 6 27 7 88 8 28 9 87 10 29 11 30 12 31 13
REMARK SMILES IDX 81 14 32 15 86 16 80 17 82 18 33 19 85 20 79 21 78 22 34 24
REMARK SMILES IDX 66 25 46 26 65 27 47 28 50 29 64 30 83 31 48 32 49 33 63 35
REMARK SMILES IDX 84 36 51 37 35 38 36 39 44 40 37 41 43 42 45 43 42 44 38 45
REMARK SMILES IDX 39 46 40 47 41 48 67 49 68 50 76 51 69 52 75 53 77 54 74 55
REMARK SMILES IDX 70 56 71 57 72 58 73 59 52 60 53 61 61 62 54 63 60 64 62 65
REMARK SMILES IDX 59 66 55 67 56 68 57 69 58 70 5 71 6 72 7 73 8 74 9 76 10 77
REMARK SMILES IDX 11 78 15 79 12 80 14 81 16 82 13 83 17 84 18 85 19 86 20 87
REMARK SMILES IDX 24 88 21 89 23 90 25 91 22 92
REMARK H PARENT 3 5 82 23 50 34 7 75
REMARK Flexibility Score: inf
ROOT
ATOM      1  C   UNL A   1      33.085  29.200  25.189  1.00  0.00     0.118 C 
ENDROOT
BRANCH   1   2
ATOM      2  N   UNL A   1      32.559  30.449  25.723  1.00  0.00    -0.352 N 
ATOM      3  O   UNL A   1      32.288  32.152  27.170  1.00  0.00    -0.269 OA
ATOM      4  C   UNL A   1      32.977  31.205  26.794  1.00  0.00     0.251 C 
ATOM      5  H   UNL A   1      31.781  30.809  25.241  1.00  0.00     0.163 HD
BRANCH   4   6
ATOM      6  C   UNL A   1      34.230  30.869  27.508  1.00  0.00     0.039 A 
ATOM      7  C   UNL A   1      34.450  29.580  27.991  1.00  0.00     0.014 A 
ATOM      8  C   UNL A   1      35.210  31.851  27.689  1.00  0.00     0.014 A 
ATOM      9  C   UNL A   1      35.530  29.327  28.823  1.00  0.00     0.010 A 
ATOM     10  C   UNL A   1      36.371  31.553  28.413  1.00  0.00     0.010 A 
ATOM     11  C   UNL A   1      36.525  30.297  29.017  1.00  0.00    -0.014 A 
BRANCH  11  12
ATOM     12  C   UNL A   1      37.744  29.924  29.784  1.00  0.00     0.031 A 
ATOM     13  C   UNL A   1      38.802  29.033  29.190  1.00  0.00     0.074 A 
ATOM     14  C   UNL A   1      37.906  30.446  31.017  1.00  0.00     0.049 A 
ATOM     15  N   UNL A   1      39.925  28.626  29.724  1.00  0.00    -0.248 NA
ATOM     16  C   UNL A   1      38.567  28.525  27.829  1.00  0.00     0.031 C 
ATOM     17  C   UNL A   1      36.939  31.317  31.694  1.00  0.00     0.029 A 
ATOM     18  N   UNL A   1      38.942  30.354  31.910  1.00  0.00    -0.354 N 
ATOM     19  C   UNL A   1      40.520  27.794  28.780  1.00  0.00     0.074 A 
ATOM     20  C   UNL A   1      39.621  27.741  27.646  1.00  0.00     0.031 C 
ATOM     21  C   UNL A   1      37.454  31.730  32.859  1.00  0.00     0.029 A 
ATOM     22  C   UNL A   1      38.744  31.083  33.060  1.00  0.00     0.049 A 
ATOM     23  H   UNL A   1      39.750  29.817  31.745  1.00  0.00     0.167 HD
ATOM     24  C   UNL A   1      41.706  27.140  28.859  1.00  0.00     0.034 A 
ATOM     25  C   UNL A   1      39.496  31.200  34.170  1.00  0.00     0.034 A 
ATOM     26  C   UNL A   1      42.597  27.222  29.992  1.00  0.00     0.049 A 
ATOM     27  C   UNL A   1      40.796  30.446  34.233  1.00  0.00     0.074 A 
ATOM     28  C   UNL A   1      43.838  26.629  30.159  1.00  0.00     0.029 A 
ATOM     29  N   UNL A   1      42.343  27.937  31.157  1.00  0.00    -0.354 N 
ATOM     30  N   UNL A   1      41.342  29.671  33.325  1.00  0.00    -0.248 NA
ATOM     31  C   UNL A   1      41.576  30.580  35.467  1.00  0.00     0.031 C 
ATOM     32  C   UNL A   1      44.303  26.934  31.443  1.00  0.00     0.029 A 
ATOM     33  C   UNL A   1      43.388  27.774  32.055  1.00  0.00     0.049 A 
ATOM     34  H   UNL A   1      41.538  28.479  31.321  1.00  0.00     0.167 HD
ATOM     35  C   UNL A   1      42.540  29.232  33.879  1.00  0.00     0.074 A 
ATOM     36  C   UNL A   1      42.647  29.854  35.183  1.00  0.00     0.031 C 
ATOM     37  C   UNL A   1      43.465  28.386  33.359  1.00  0.00     0.034 A 
BRANCH  24  38
ATOM     38  C   UNL A   1      42.090  26.239  27.710  1.00  0.00     0.023 A 
ATOM     39  C   UNL A   1      41.699  24.890  27.655  1.00  0.00     0.031 A 
ATOM     40  C   UNL A   1      42.855  26.746  26.643  1.00  0.00     0.131 A 
ATOM     41  C   UNL A   1      42.111  24.084  26.582  1.00  0.00     0.055 A 
ATOM     42  C   UNL A   1      43.208  25.957  25.547  1.00  0.00     0.041 A 
ATOM     43  F   UNL A   1      43.273  28.022  26.651  1.00  0.00    -0.206 F 
ATOM     44  C   UNL A   1      42.843  24.614  25.517  1.00  0.00     0.022 A 
BRANCH  41  45
ATOM     45  S   UNL A   1      41.763  22.305  26.645  1.00  0.00     0.124 S 
ATOM     46  O   UNL A   1      40.307  22.292  26.766  1.00  0.00    -0.237 OA
ATOM     47  O   UNL A   1      42.301  21.832  25.374  1.00  0.00    -0.237 OA
ATOM     48  O   UNL A   1      42.485  21.856  27.834  1.00  0.00    -0.744 OA
ENDBRANCH  41  45
ENDBRANCH  24  38
BRANCH  25  49
ATOM     49  C   UNL A   1      39.019  32.014  35.323  1.00  0.00     0.023 A 
ATOM     50  C   UNL A   1      38.438  31.410  36.449  1.00  0.00     0.031 A 
ATOM     51  C   UNL A   1      39.110  33.418  35.300  1.00  0.00     0.131 A 
ATOM     52  C   UNL A   1      37.934  32.210  37.487  1.00  0.00     0.055 A 
ATOM     53  C   UNL A   1      38.662  34.205  36.361  1.00  0.00     0.041 A 
ATOM     54  F   UNL A   1      39.661  34.046  34.249  1.00  0.00    -0.206 F 
ATOM     55  C   UNL A   1      38.056  33.601  37.457  1.00  0.00     0.022 A 
BRANCH  52  56
ATOM     56  S   UNL A   1      37.029  31.407  38.837  1.00  0.00     0.124 S 
ATOM     57  O   UNL A   1      35.797  32.189  38.878  1.00  0.00    -0.237 OA
ATOM     58  O   UNL A   1      36.904  30.039  38.346  1.00  0.00    -0.237 OA
ATOM     59  O   UNL A   1      37.914  31.577  39.987  1.00  0.00    -0.744 OA
ENDBRANCH  52  56
ENDBRANCH  25  49
BRANCH  37  60
ATOM     60  C   UNL A   1      44.682  28.121  34.209  1.00  0.00     0.023 A 
ATOM     61  C   UNL A   1      44.720  27.053  35.121  1.00  0.00     0.031 A 
ATOM     62  C   UNL A   1      45.798  28.970  34.130  1.00  0.00     0.131 A 
ATOM     63  C   UNL A   1      45.827  26.898  35.967  1.00  0.00     0.055 A 
ATOM     64  C   UNL A   1      46.923  28.775  34.932  1.00  0.00     0.041 A 
ATOM     65  F   UNL A   1      45.811  30.006  33.276  1.00  0.00    -0.206 F 
ATOM     66  C   UNL A   1      46.935  27.744  35.868  1.00  0.00     0.022 A 
BRANCH  63  67
ATOM     67  S   UNL A   1      45.760  25.633  37.265  1.00  0.00     0.124 S 
ATOM     68  O   UNL A   1      44.411  25.100  37.098  1.00  0.00    -0.237 OA
ATOM     69  O   UNL A   1      46.850  24.740  36.887  1.00  0.00    -0.237 OA
ATOM     70  O   UNL A   1      45.979  26.392  38.494  1.00  0.00    -0.744 OA
ENDBRANCH  63  67
ENDBRANCH  37  60
ENDBRANCH  11  12
ENDBRANCH   4   6
ENDBRANCH   1   2
BRANCH   1  71
ATOM     71  C   UNL A   1      32.907  29.065  23.686  1.00  0.00     0.042 C 
BRANCH  71  72
ATOM     72  C   UNL A   1      34.018  28.299  22.993  1.00  0.00     0.117 C 
BRANCH  72  73
ATOM     73  N   UNL A   1      33.564  27.564  21.825  1.00  0.00    -0.356 N 
ATOM     74  C   UNL A   1      33.262  26.243  21.695  1.00  0.00     0.225 C 
ATOM     75  H   UNL A   1      33.458  28.100  21.008  1.00  0.00     0.163 HD
ATOM     76  O   UNL A   1      32.838  25.855  20.608  1.00  0.00    -0.275 OA
BRANCH  74  77
ATOM     77  C   UNL A   1      33.480  25.311  22.871  1.00  0.00     0.103 C 
ATOM     78  C   UNL A   1      33.278  23.804  22.519  1.00  0.00     0.040 C 
ATOM     79  C   UNL A   1      32.478  25.500  24.031  1.00  0.00     0.098 C 
ATOM     80  C   UNL A   1      32.204  23.360  23.532  1.00  0.00     0.086 C 
ATOM     81  C   UNL A   1      31.034  25.462  23.500  1.00  0.00     0.028 C 
ATOM     82  N   UNL A   1      32.556  24.194  24.657  1.00  0.00    -0.332 N 
ATOM     83  C   UNL A   1      30.856  23.975  23.125  1.00  0.00     0.027 C 
BRANCH  82  84
ATOM     84  C   UNL A   1      33.105  23.753  25.830  1.00  0.00     0.256 C 
ATOM     85  O   UNL A   1      32.492  23.732  26.894  1.00  0.00    -0.269 OA
BRANCH  84  86
ATOM     86  C   UNL A   1      34.467  23.189  25.805  1.00  0.00     0.061 A 
ATOM     87  C   UNL A   1      35.523  24.106  25.753  1.00  0.00     0.035 A 
ATOM     88  C   UNL A   1      34.733  21.821  25.771  1.00  0.00     0.072 A 
ATOM     89  C   UNL A   1      36.815  23.617  25.714  1.00  0.00     0.112 A 
ATOM     90  C   UNL A   1      36.064  21.437  25.748  1.00  0.00     0.132 A 
ATOM     91  Cl  UNL A   1      33.516  20.607  25.710  1.00  0.00    -0.082 Cl
ATOM     92  N   UNL A   1      37.106  22.301  25.725  1.00  0.00    -0.263 NA
ENDBRANCH  84  86
ENDBRANCH  82  84
ENDBRANCH  74  77
ENDBRANCH  72  73
ENDBRANCH  71  72
ENDBRANCH   1  71
TORSDOF 15
ENDMDL
