MODEL 1
REMARK VINA RESULT:     -12.9      0.000      0.000
REMARK SMILES Nc1nc2ccccc2nc1N1CCC(C(=O)NCCCNC(=O)c2ccc(-c3c4nc(c(-c5cc(S(=O)(=O)[O-])ccc5F)c5ccc([nH]5)c(-c5cc(S(=O)(=O)[O-])ccc5F)c5nc(c(-c6cc(S(=O)(=O)[O-])ccc6F)c6ccc3[nH]6)C=C5)C=C4)cc2)CC1
REMARK SMILES IDX 20 1 19 2 18 3 16 4 17 5 15 7 12 8 13 9 89 10 14 11 88 12
REMARK SMILES IDX 11 13 2 14 3 15 4 16 10 17 5 18 9 19 6 20 8 21 7 22 1 23
REMARK SMILES IDX 21 26 22 27 23 28 24 30 25 31 26 32 87 33 27 34 86 35 28 36
REMARK SMILES IDX 29 37 30 38 80 39 31 40 85 41 79 42 81 43 32 44 84 45 78 46
REMARK SMILES IDX 77 47 33 49 65 50 45 51 64 52 46 53 49 54 63 55 82 56 47 57
REMARK SMILES IDX 48 58 62 60 83 61 50 62 34 63 35 64 43 65 36 66 42 67 44 68
REMARK SMILES IDX 41 69 37 70 38 71 39 72 40 73 66 74 67 75 75 76 68 77 74 78
REMARK SMILES IDX 76 79 73 80 69 81 70 82 71 83 72 84 51 85 52 86 60 87 53 88
REMARK SMILES IDX 59 89 61 90 58 91 54 92 55 93 56 94 57 95
REMARK H PARENT 18 6 1 24 1 25 22 29 81 48 49 59
REMARK Flexibility Score: inf
ROOT
ATOM      1  C   UNL A   1      31.378  30.334  25.342  1.00  0.00     0.042 C 
ENDROOT
BRANCH   1   2
ATOM      2  C   UNL A   1      32.224  29.288  24.629  1.00  0.00     0.117 C 
BRANCH   2   3
ATOM      3  N   UNL A   1      31.416  28.316  23.904  1.00  0.00    -0.356 N 
ATOM      4  C   UNL A   1      31.264  26.973  24.064  1.00  0.00     0.223 C 
ATOM      5  O   UNL A   1      30.498  26.388  23.295  1.00  0.00    -0.275 OA
ATOM      6  H   UNL A   1      30.888  28.697  23.167  1.00  0.00     0.163 HD
BRANCH   4   7
ATOM      7  C   UNL A   1      31.978  26.202  25.164  1.00  0.00     0.082 C 
ATOM      8  N   UNL A   1      33.082  23.759  26.119  1.00  0.00    -0.353 N 
ATOM      9  C   UNL A   1      31.836  24.197  26.716  1.00  0.00     0.119 C 
ATOM     10  C   UNL A   1      34.027  24.770  25.674  1.00  0.00     0.119 C 
ATOM     11  C   UNL A   1      31.081  25.119  25.775  1.00  0.00     0.035 C 
ATOM     12  C   UNL A   1      33.360  25.727  24.694  1.00  0.00     0.035 C 
BRANCH   8  13
ATOM     13  C   UNL A   1      33.198  22.454  25.655  1.00  0.00     0.172 A 
ATOM     14  C   UNL A   1      33.836  21.459  26.445  1.00  0.00     0.167 A 
ATOM     15  N   UNL A   1      33.943  20.174  26.060  1.00  0.00    -0.226 NA
ATOM     16  C   UNL A   1      33.374  19.855  24.886  1.00  0.00     0.091 A 
ATOM     17  N   UNL A   1      32.628  22.118  24.474  1.00  0.00    -0.225 NA
ATOM     18  C   UNL A   1      33.422  18.533  24.461  1.00  0.00     0.031 A 
ATOM     19  C   UNL A   1      32.719  20.825  24.087  1.00  0.00     0.091 A 
ATOM     20  C   UNL A   1      32.848  18.137  23.255  1.00  0.00     0.002 A 
ATOM     21  C   UNL A   1      32.157  20.414  22.880  1.00  0.00     0.031 A 
ATOM     22  C   UNL A   1      32.217  19.082  22.458  1.00  0.00     0.002 A 
BRANCH  14  23
ATOM     23  N   UNL A   1      34.374  21.751  27.698  1.00  0.00    -0.381 N 
ATOM     24  H   UNL A   1      35.178  21.275  28.012  1.00  0.00     0.158 HD
ATOM     25  H   UNL A   1      33.952  22.433  28.268  1.00  0.00     0.158 HD
ENDBRANCH  14  23
ENDBRANCH   8  13
ENDBRANCH   4   7
ENDBRANCH   2   3
ENDBRANCH   1   2
BRANCH   1  26
ATOM     26  C   UNL A   1      31.925  30.748  26.699  1.00  0.00     0.118 C 
BRANCH  26  27
ATOM     27  N   UNL A   1      31.911  32.191  26.902  1.00  0.00    -0.352 N 
ATOM     28  C   UNL A   1      32.834  33.008  27.513  1.00  0.00     0.251 C 
ATOM     29  H   UNL A   1      31.118  32.653  26.545  1.00  0.00     0.163 HD
ATOM     30  O   UNL A   1      32.550  34.185  27.729  1.00  0.00    -0.269 OA
BRANCH  28  31
ATOM     31  C   UNL A   1      34.138  32.464  27.949  1.00  0.00     0.039 A 
ATOM     32  C   UNL A   1      34.293  31.102  28.205  1.00  0.00     0.014 A 
ATOM     33  C   UNL A   1      35.218  33.333  28.129  1.00  0.00     0.014 A 
ATOM     34  C   UNL A   1      35.443  30.646  28.839  1.00  0.00     0.010 A 
ATOM     35  C   UNL A   1      36.416  32.851  28.668  1.00  0.00     0.010 A 
ATOM     36  C   UNL A   1      36.517  31.516  29.087  1.00  0.00    -0.014 A 
BRANCH  36  37
ATOM     37  C   UNL A   1      37.725  31.004  29.791  1.00  0.00     0.031 A 
ATOM     38  C   UNL A   1      38.013  31.396  31.216  1.00  0.00     0.074 A 
ATOM     39  C   UNL A   1      38.530  30.128  29.158  1.00  0.00     0.049 A 
ATOM     40  N   UNL A   1      38.995  31.011  31.992  1.00  0.00    -0.248 NA
ATOM     41  C   UNL A   1      37.086  32.342  31.857  1.00  0.00     0.031 C 
ATOM     42  C   UNL A   1      38.346  29.672  27.780  1.00  0.00     0.029 A 
ATOM     43  N   UNL A   1      39.638  29.443  29.589  1.00  0.00    -0.354 N 
ATOM     44  C   UNL A   1      38.816  31.680  33.198  1.00  0.00     0.074 A 
ATOM     45  C   UNL A   1      37.652  32.523  33.042  1.00  0.00     0.031 C 
ATOM     46  C   UNL A   1      39.262  28.737  27.500  1.00  0.00     0.029 A 
ATOM     47  C   UNL A   1      40.151  28.578  28.649  1.00  0.00     0.049 A 
ATOM     48  H   UNL A   1      40.029  29.558  30.485  1.00  0.00     0.167 HD
ATOM     49  C   UNL A   1      39.547  31.584  34.336  1.00  0.00     0.034 A 
ATOM     50  C   UNL A   1      41.219  27.756  28.694  1.00  0.00     0.034 A 
ATOM     51  C   UNL A   1      40.688  30.719  34.486  1.00  0.00     0.049 A 
ATOM     52  C   UNL A   1      42.028  27.687  29.962  1.00  0.00     0.074 A 
ATOM     53  C   UNL A   1      41.477  30.535  35.608  1.00  0.00     0.029 A 
ATOM     54  N   UNL A   1      41.201  29.890  33.499  1.00  0.00    -0.354 N 
ATOM     55  N   UNL A   1      41.823  28.301  31.104  1.00  0.00    -0.248 NA
ATOM     56  C   UNL A   1      43.214  26.819  29.953  1.00  0.00     0.031 C 
ATOM     57  C   UNL A   1      42.495  29.638  35.285  1.00  0.00     0.029 A 
ATOM     58  C   UNL A   1      42.309  29.210  33.980  1.00  0.00     0.049 A 
ATOM     59  H   UNL A   1      40.833  29.798  32.591  1.00  0.00     0.167 HD
ATOM     60  C   UNL A   1      42.845  27.887  31.951  1.00  0.00     0.074 A 
ATOM     61  C   UNL A   1      43.649  26.945  31.201  1.00  0.00     0.031 C 
ATOM     62  C   UNL A   1      43.100  28.265  33.230  1.00  0.00     0.034 A 
BRANCH  49  63
ATOM     63  C   UNL A   1      39.143  32.419  35.526  1.00  0.00     0.023 A 
ATOM     64  C   UNL A   1      39.626  33.734  35.662  1.00  0.00     0.031 A 
ATOM     65  C   UNL A   1      38.389  31.875  36.581  1.00  0.00     0.131 A 
ATOM     66  C   UNL A   1      39.376  34.450  36.840  1.00  0.00     0.055 A 
ATOM     67  C   UNL A   1      38.112  32.606  37.738  1.00  0.00     0.041 A 
ATOM     68  F   UNL A   1      37.903  30.625  36.499  1.00  0.00    -0.206 F 
ATOM     69  C   UNL A   1      38.617  33.894  37.876  1.00  0.00     0.022 A 
BRANCH  66  70
ATOM     70  S   UNL A   1      40.072  36.105  37.100  1.00  0.00     0.124 S 
ATOM     71  O   UNL A   1      41.459  35.794  37.436  1.00  0.00    -0.237 OA
ATOM     72  O   UNL A   1      39.871  36.730  35.796  1.00  0.00    -0.237 OA
ATOM     73  O   UNL A   1      39.276  36.652  38.193  1.00  0.00    -0.744 OA
ENDBRANCH  66  70
ENDBRANCH  49  63
BRANCH  50  74
ATOM     74  C   UNL A   1      41.534  26.912  27.505  1.00  0.00     0.023 A 
ATOM     75  C   UNL A   1      41.196  25.545  27.480  1.00  0.00     0.031 A 
ATOM     76  C   UNL A   1      42.283  27.426  26.435  1.00  0.00     0.131 A 
ATOM     77  C   UNL A   1      41.677  24.726  26.451  1.00  0.00     0.055 A 
ATOM     78  C   UNL A   1      42.695  26.621  25.370  1.00  0.00     0.041 A 
ATOM     79  F   UNL A   1      42.639  28.719  26.418  1.00  0.00    -0.206 F 
ATOM     80  C   UNL A   1      42.410  25.258  25.387  1.00  0.00     0.022 A 
BRANCH  77  81
ATOM     81  S   UNL A   1      41.498  22.923  26.541  1.00  0.00     0.124 S 
ATOM     82  O   UNL A   1      40.049  22.758  26.481  1.00  0.00    -0.237 OA
ATOM     83  O   UNL A   1      42.233  22.490  25.354  1.00  0.00    -0.237 OA
ATOM     84  O   UNL A   1      42.122  22.578  27.814  1.00  0.00    -0.744 OA
ENDBRANCH  77  81
ENDBRANCH  50  74
BRANCH  62  85
ATOM     85  C   UNL A   1      44.301  27.676  33.928  1.00  0.00     0.023 A 
ATOM     86  C   UNL A   1      44.160  26.523  34.725  1.00  0.00     0.031 A 
ATOM     87  C   UNL A   1      45.539  28.339  33.929  1.00  0.00     0.131 A 
ATOM     88  C   UNL A   1      45.227  26.094  35.523  1.00  0.00     0.055 A 
ATOM     89  C   UNL A   1      46.615  27.881  34.691  1.00  0.00     0.041 A 
ATOM     90  F   UNL A   1      45.720  29.447  33.192  1.00  0.00    -0.206 F 
ATOM     91  C   UNL A   1      46.456  26.762  35.504  1.00  0.00     0.022 A 
BRANCH  88  92
ATOM     92  S   UNL A   1      45.035  24.709  36.679  1.00  0.00     0.124 S 
ATOM     93  O   UNL A   1      44.567  23.643  35.796  1.00  0.00    -0.237 OA
ATOM     94  O   UNL A   1      46.392  24.545  37.192  1.00  0.00    -0.237 OA
ATOM     95  O   UNL A   1      44.052  25.190  37.645  1.00  0.00    -0.744 OA
ENDBRANCH  88  92
ENDBRANCH  62  85
ENDBRANCH  36  37
ENDBRANCH  28  31
ENDBRANCH  26  27
ENDBRANCH   1  26
TORSDOF 15
ENDMDL
MODEL 2
REMARK VINA RESULT:     -12.7      1.779      2.207
REMARK SMILES Nc1nc2ccccc2nc1N1CCC(C(=O)NCCCNC(=O)c2ccc(-c3c4nc(c(-c5cc(S(=O)(=O)[O-])ccc5F)c5ccc([nH]5)c(-c5cc(S(=O)(=O)[O-])ccc5F)c5nc(c(-c6cc(S(=O)(=O)[O-])ccc6F)c6ccc3[nH]6)C=C5)C=C4)cc2)CC1
REMARK SMILES IDX 20 1 19 2 18 3 16 4 17 5 15 7 12 8 13 9 89 10 14 11 88 12
REMARK SMILES IDX 11 13 2 14 3 15 4 16 10 17 5 18 9 19 6 20 8 21 7 22 1 23
REMARK SMILES IDX 21 26 22 27 23 28 24 30 25 31 26 32 87 33 27 34 86 35 28 36
REMARK SMILES IDX 29 37 30 38 80 39 31 40 85 41 79 42 81 43 32 44 84 45 78 46
REMARK SMILES IDX 77 47 33 49 65 50 45 51 64 52 46 53 49 54 63 55 82 56 47 57
REMARK SMILES IDX 48 58 62 60 83 61 50 62 34 63 35 64 43 65 36 66 42 67 44 68
REMARK SMILES IDX 41 69 37 70 38 71 39 72 40 73 66 74 67 75 75 76 68 77 74 78
REMARK SMILES IDX 76 79 73 80 69 81 70 82 71 83 72 84 51 85 52 86 60 87 53 88
REMARK SMILES IDX 59 89 61 90 58 91 54 92 55 93 56 94 57 95
REMARK H PARENT 18 6 1 24 1 25 22 29 81 48 49 59
REMARK Flexibility Score: inf
ROOT
ATOM      1  C   UNL A   1      32.983  29.337  25.030  1.00  0.00     0.042 C 
ENDROOT
BRANCH   1   2
ATOM      2  C   UNL A   1      32.984  27.859  24.666  1.00  0.00     0.117 C 
BRANCH   2   3
ATOM      3  N   UNL A   1      32.171  27.059  25.574  1.00  0.00    -0.356 N 
ATOM      4  C   UNL A   1      32.292  25.772  25.995  1.00  0.00     0.223 C 
ATOM      5  O   UNL A   1      31.446  25.344  26.784  1.00  0.00    -0.275 OA
ATOM      6  H   UNL A   1      31.395  27.536  25.949  1.00  0.00     0.163 HD
BRANCH   4   7
ATOM      7  C   UNL A   1      33.439  24.878  25.547  1.00  0.00     0.082 C 
ATOM      8  N   UNL A   1      34.432  22.273  24.974  1.00  0.00    -0.353 N 
ATOM      9  C   UNL A   1      34.901  22.904  26.192  1.00  0.00     0.119 C 
ATOM     10  C   UNL A   1      34.128  23.120  23.832  1.00  0.00     0.119 C 
ATOM     11  C   UNL A   1      33.912  23.951  26.673  1.00  0.00     0.035 C 
ATOM     12  C   UNL A   1      33.111  24.187  24.217  1.00  0.00     0.035 C 
BRANCH   8  13
ATOM     13  C   UNL A   1      33.942  20.973  25.020  1.00  0.00     0.172 A 
ATOM     14  C   UNL A   1      32.588  20.722  25.369  1.00  0.00     0.167 A 
ATOM     15  N   UNL A   1      32.055  19.486  25.394  1.00  0.00    -0.226 NA
ATOM     16  C   UNL A   1      32.864  18.480  25.027  1.00  0.00     0.091 A 
ATOM     17  N   UNL A   1      34.748  19.950  24.652  1.00  0.00    -0.225 NA
ATOM     18  C   UNL A   1      32.351  17.189  24.998  1.00  0.00     0.031 A 
ATOM     19  C   UNL A   1      34.215  18.706  24.660  1.00  0.00     0.091 A 
ATOM     20  C   UNL A   1      33.140  16.103  24.623  1.00  0.00     0.002 A 
ATOM     21  C   UNL A   1      34.992  17.608  24.296  1.00  0.00     0.031 A 
ATOM     22  C   UNL A   1      34.467  16.312  24.276  1.00  0.00     0.002 A 
BRANCH  14  23
ATOM     23  N   UNL A   1      31.707  21.756  25.687  1.00  0.00    -0.381 N 
ATOM     24  H   UNL A   1      31.756  22.611  25.200  1.00  0.00     0.158 HD
ATOM     25  H   UNL A   1      31.036  21.630  26.396  1.00  0.00     0.158 HD
ENDBRANCH  14  23
ENDBRANCH   8  13
ENDBRANCH   4   7
ENDBRANCH   2   3
ENDBRANCH   1   2
BRANCH   1  26
ATOM     26  C   UNL A   1      32.515  29.622  26.449  1.00  0.00     0.118 C 
BRANCH  26  27
ATOM     27  N   UNL A   1      32.363  31.046  26.722  1.00  0.00    -0.352 N 
ATOM     28  C   UNL A   1      33.197  31.913  27.388  1.00  0.00     0.251 C 
ATOM     29  H   UNL A   1      31.535  31.449  26.376  1.00  0.00     0.163 HD
ATOM     30  O   UNL A   1      32.802  33.046  27.656  1.00  0.00    -0.269 OA
BRANCH  28  31
ATOM     31  C   UNL A   1      34.542  31.472  27.818  1.00  0.00     0.039 A 
ATOM     32  C   UNL A   1      34.786  30.136  28.139  1.00  0.00     0.014 A 
ATOM     33  C   UNL A   1      35.570  32.412  27.926  1.00  0.00     0.014 A 
ATOM     34  C   UNL A   1      35.975  29.785  28.767  1.00  0.00     0.010 A 
ATOM     35  C   UNL A   1      36.807  32.032  28.458  1.00  0.00     0.010 A 
ATOM     36  C   UNL A   1      36.999  30.729  28.942  1.00  0.00    -0.014 A 
BRANCH  36  37
ATOM     37  C   UNL A   1      38.251  30.328  29.640  1.00  0.00     0.031 A 
ATOM     38  C   UNL A   1      38.534  30.789  31.046  1.00  0.00     0.074 A 
ATOM     39  C   UNL A   1      39.106  29.489  29.023  1.00  0.00     0.049 A 
ATOM     40  N   UNL A   1      39.553  30.501  31.816  1.00  0.00    -0.248 NA
ATOM     41  C   UNL A   1      37.553  31.690  31.672  1.00  0.00     0.031 C 
ATOM     42  C   UNL A   1      38.932  28.973  27.665  1.00  0.00     0.029 A 
ATOM     43  N   UNL A   1      40.267  28.898  29.457  1.00  0.00    -0.354 N 
ATOM     44  C   UNL A   1      39.347  31.198  33.002  1.00  0.00     0.074 A 
ATOM     45  C   UNL A   1      38.124  31.951  32.839  1.00  0.00     0.031 C 
ATOM     46  C   UNL A   1      39.907  28.095  27.400  1.00  0.00     0.029 A 
ATOM     47  C   UNL A   1      40.824  28.039  28.537  1.00  0.00     0.049 A 
ATOM     48  H   UNL A   1      40.662  29.072  30.341  1.00  0.00     0.167 HD
ATOM     49  C   UNL A   1      40.101  31.194  34.128  1.00  0.00     0.034 A 
ATOM     50  C   UNL A   1      41.948  27.296  28.590  1.00  0.00     0.034 A 
ATOM     51  C   UNL A   1      41.303  30.417  34.287  1.00  0.00     0.049 A 
ATOM     52  C   UNL A   1      42.781  27.328  29.845  1.00  0.00     0.074 A 
ATOM     53  C   UNL A   1      42.120  30.328  35.400  1.00  0.00     0.029 A 
ATOM     54  N   UNL A   1      41.857  29.591  33.319  1.00  0.00    -0.354 N 
ATOM     55  N   UNL A   1      42.550  27.966  30.968  1.00  0.00    -0.248 NA
ATOM     56  C   UNL A   1      44.024  26.546  29.843  1.00  0.00     0.031 C 
ATOM     57  C   UNL A   1      43.194  29.493  35.089  1.00  0.00     0.029 A 
ATOM     58  C   UNL A   1      43.017  29.008  33.802  1.00  0.00     0.049 A 
ATOM     59  H   UNL A   1      41.481  29.442  32.421  1.00  0.00     0.167 HD
ATOM     60  C   UNL A   1      43.613  27.655  31.810  1.00  0.00     0.074 A 
ATOM     61  C   UNL A   1      44.470  26.745  31.078  1.00  0.00     0.031 C 
ATOM     62  C   UNL A   1      43.861  28.095  33.070  1.00  0.00     0.034 A 
BRANCH  49  63
ATOM     63  C   UNL A   1      39.659  32.040  35.297  1.00  0.00     0.023 A 
ATOM     64  C   UNL A   1      38.890  31.470  36.329  1.00  0.00     0.031 A 
ATOM     65  C   UNL A   1      39.888  33.427  35.326  1.00  0.00     0.131 A 
ATOM     66  C   UNL A   1      38.353  32.289  37.331  1.00  0.00     0.055 A 
ATOM     67  C   UNL A   1      39.380  34.233  36.346  1.00  0.00     0.041 A 
ATOM     68  F   UNL A   1      40.617  34.018  34.365  1.00  0.00    -0.206 F 
ATOM     69  C   UNL A   1      38.599  33.667  37.347  1.00  0.00     0.022 A 
BRANCH  66  70
ATOM     70  S   UNL A   1      37.268  31.612  38.618  1.00  0.00     0.124 S 
ATOM     71  O   UNL A   1      36.107  32.494  38.521  1.00  0.00    -0.237 OA
ATOM     72  O   UNL A   1      37.054  30.246  38.150  1.00  0.00    -0.237 OA
ATOM     73  O   UNL A   1      38.049  31.747  39.842  1.00  0.00    -0.744 OA
ENDBRANCH  66  70
ENDBRANCH  49  63
BRANCH  50  74
ATOM     74  C   UNL A   1      42.303  26.434  27.425  1.00  0.00     0.023 A 
ATOM     75  C   UNL A   1      41.867  25.097  27.356  1.00  0.00     0.031 A 
ATOM     76  C   UNL A   1      43.179  26.894  26.429  1.00  0.00     0.131 A 
ATOM     77  C   UNL A   1      42.374  24.248  26.365  1.00  0.00     0.055 A 
ATOM     78  C   UNL A   1      43.622  26.064  25.397  1.00  0.00     0.041 A 
ATOM     79  F   UNL A   1      43.631  28.158  26.456  1.00  0.00    -0.206 F 
ATOM     80  C   UNL A   1      43.236  24.727  25.375  1.00  0.00     0.022 A 
BRANCH  77  81
ATOM     81  S   UNL A   1      42.053  22.463  26.421  1.00  0.00     0.124 S 
ATOM     82  O   UNL A   1      42.656  22.086  27.696  1.00  0.00    -0.237 OA
ATOM     83  O   UNL A   1      40.593  22.420  26.374  1.00  0.00    -0.237 OA
ATOM     84  O   UNL A   1      42.724  21.955  25.229  1.00  0.00    -0.744 OA
ENDBRANCH  77  81
ENDBRANCH  50  74
BRANCH  62  85
ATOM     85  C   UNL A   1      45.111  27.616  33.765  1.00  0.00     0.023 A 
ATOM     86  C   UNL A   1      45.077  26.456  34.563  1.00  0.00     0.031 A 
ATOM     87  C   UNL A   1      46.286  28.388  33.764  1.00  0.00     0.131 A 
ATOM     88  C   UNL A   1      46.180  26.125  35.359  1.00  0.00     0.055 A 
ATOM     89  C   UNL A   1      47.400  28.028  34.523  1.00  0.00     0.041 A 
ATOM     90  F   UNL A   1      46.364  29.507  33.026  1.00  0.00    -0.206 F 
ATOM     91  C   UNL A   1      47.344  26.900  35.337  1.00  0.00     0.022 A 
BRANCH  88  92
ATOM     92  S   UNL A   1      46.115  24.729  36.516  1.00  0.00     0.124 S 
ATOM     93  O   UNL A   1      47.362  24.029  36.214  1.00  0.00    -0.237 OA
ATOM     94  O   UNL A   1      46.078  25.404  37.810  1.00  0.00    -0.237 OA
ATOM     95  O   UNL A   1      44.897  24.017  36.143  1.00  0.00    -0.744 OA
ENDBRANCH  88  92
ENDBRANCH  62  85
ENDBRANCH  36  37
ENDBRANCH  28  31
ENDBRANCH  26  27
ENDBRANCH   1  26
TORSDOF 15
ENDMDL
MODEL 3
REMARK VINA RESULT:     -12.7      1.867      2.140
REMARK SMILES Nc1nc2ccccc2nc1N1CCC(C(=O)NCCCNC(=O)c2ccc(-c3c4nc(c(-c5cc(S(=O)(=O)[O-])ccc5F)c5ccc([nH]5)c(-c5cc(S(=O)(=O)[O-])ccc5F)c5nc(c(-c6cc(S(=O)(=O)[O-])ccc6F)c6ccc3[nH]6)C=C5)C=C4)cc2)CC1
REMARK SMILES IDX 20 1 19 2 18 3 16 4 17 5 15 7 12 8 13 9 89 10 14 11 88 12
REMARK SMILES IDX 11 13 2 14 3 15 4 16 10 17 5 18 9 19 6 20 8 21 7 22 1 23
REMARK SMILES IDX 21 26 22 27 23 28 24 30 25 31 26 32 87 33 27 34 86 35 28 36
REMARK SMILES IDX 29 37 30 38 80 39 31 40 85 41 79 42 81 43 32 44 84 45 78 46
REMARK SMILES IDX 77 47 33 49 65 50 45 51 64 52 46 53 49 54 63 55 82 56 47 57
REMARK SMILES IDX 48 58 62 60 83 61 50 62 34 63 35 64 43 65 36 66 42 67 44 68
REMARK SMILES IDX 41 69 37 70 38 71 39 72 40 73 66 74 67 75 75 76 68 77 74 78
REMARK SMILES IDX 76 79 73 80 69 81 70 82 71 83 72 84 51 85 52 86 60 87 53 88
REMARK SMILES IDX 59 89 61 90 58 91 54 92 55 93 56 94 57 95
REMARK H PARENT 18 6 1 24 1 25 22 29 81 48 49 59
REMARK Flexibility Score: inf
ROOT
ATOM      1  C   UNL A   1      32.086  30.054  25.166  1.00  0.00     0.042 C 
ENDROOT
BRANCH   1   2
ATOM      2  C   UNL A   1      30.759  29.529  24.637  1.00  0.00     0.117 C 
BRANCH   2   3
ATOM      3  N   UNL A   1      30.900  28.833  23.365  1.00  0.00    -0.356 N 
ATOM      4  C   UNL A   1      30.892  27.508  23.057  1.00  0.00     0.223 C 
ATOM      5  O   UNL A   1      31.033  27.194  21.872  1.00  0.00    -0.275 OA
ATOM      6  H   UNL A   1      31.024  29.428  22.589  1.00  0.00     0.163 HD
BRANCH   4   7
ATOM      7  C   UNL A   1      30.690  26.433  24.113  1.00  0.00     0.082 C 
ATOM      8  N   UNL A   1      31.708  24.207  25.566  1.00  0.00    -0.353 N 
ATOM      9  C   UNL A   1      30.708  23.931  24.553  1.00  0.00     0.119 C 
ATOM     10  C   UNL A   1      31.638  25.472  26.278  1.00  0.00     0.119 C 
ATOM     11  C   UNL A   1      30.688  25.026  23.502  1.00  0.00     0.035 C 
ATOM     12  C   UNL A   1      31.647  26.637  25.296  1.00  0.00     0.035 C 
BRANCH   8  13
ATOM     13  C   UNL A   1      32.885  23.467  25.586  1.00  0.00     0.172 A 
ATOM     14  C   UNL A   1      33.098  22.474  26.580  1.00  0.00     0.167 A 
ATOM     15  N   UNL A   1      34.202  21.705  26.623  1.00  0.00    -0.226 NA
ATOM     16  C   UNL A   1      35.098  21.894  25.642  1.00  0.00     0.091 A 
ATOM     17  N   UNL A   1      33.796  23.647  24.602  1.00  0.00    -0.225 NA
ATOM     18  C   UNL A   1      36.237  21.099  25.618  1.00  0.00     0.031 A 
ATOM     19  C   UNL A   1      34.902  22.867  24.630  1.00  0.00     0.091 A 
ATOM     20  C   UNL A   1      37.203  21.243  24.624  1.00  0.00     0.002 A 
ATOM     21  C   UNL A   1      35.881  23.005  23.649  1.00  0.00     0.031 A 
ATOM     22  C   UNL A   1      37.028  22.203  23.638  1.00  0.00     0.002 A 
BRANCH  14  23
ATOM     23  N   UNL A   1      32.151  22.211  27.570  1.00  0.00    -0.381 N 
ATOM     24  H   UNL A   1      32.428  22.154  28.513  1.00  0.00     0.158 HD
ATOM     25  H   UNL A   1      31.206  22.084  27.325  1.00  0.00     0.158 HD
ENDBRANCH  14  23
ENDBRANCH   8  13
ENDBRANCH   4   7
ENDBRANCH   2   3
ENDBRANCH   1   2
BRANCH   1  26
ATOM     26  C   UNL A   1      32.058  30.423  26.641  1.00  0.00     0.118 C 
BRANCH  26  27
ATOM     27  N   UNL A   1      32.048  31.863  26.867  1.00  0.00    -0.352 N 
ATOM     28  C   UNL A   1      32.967  32.666  27.503  1.00  0.00     0.251 C 
ATOM     29  H   UNL A   1      31.262  32.334  26.508  1.00  0.00     0.163 HD
ATOM     30  O   UNL A   1      32.686  33.841  27.734  1.00  0.00    -0.269 OA
BRANCH  28  31
ATOM     31  C   UNL A   1      34.263  32.109  27.946  1.00  0.00     0.039 A 
ATOM     32  C   UNL A   1      34.380  30.764  28.296  1.00  0.00     0.014 A 
ATOM     33  C   UNL A   1      35.376  32.950  28.037  1.00  0.00     0.014 A 
ATOM     34  C   UNL A   1      35.530  30.315  28.934  1.00  0.00     0.010 A 
ATOM     35  C   UNL A   1      36.571  32.466  28.580  1.00  0.00     0.010 A 
ATOM     36  C   UNL A   1      36.639  31.162  29.092  1.00  0.00    -0.014 A 
BRANCH  36  37
ATOM     37  C   UNL A   1      37.847  30.660  29.802  1.00  0.00     0.031 A 
ATOM     38  C   UNL A   1      38.114  31.037  31.236  1.00  0.00     0.074 A 
ATOM     39  C   UNL A   1      38.672  29.804  29.167  1.00  0.00     0.049 A 
ATOM     40  N   UNL A   1      39.094  30.657  32.017  1.00  0.00    -0.248 NA
ATOM     41  C   UNL A   1      37.166  31.961  31.878  1.00  0.00     0.031 C 
ATOM     42  C   UNL A   1      38.509  29.362  27.781  1.00  0.00     0.029 A 
ATOM     43  N   UNL A   1      39.786  29.130  29.601  1.00  0.00    -0.354 N 
ATOM     44  C   UNL A   1      38.892  31.308  33.229  1.00  0.00     0.074 A 
ATOM     45  C   UNL A   1      37.718  32.135  33.072  1.00  0.00     0.031 C 
ATOM     46  C   UNL A   1      39.442  28.445  27.500  1.00  0.00     0.029 A 
ATOM     47  C   UNL A   1      40.322  28.285  28.655  1.00  0.00     0.049 A 
ATOM     48  H   UNL A   1      40.165  29.239  30.503  1.00  0.00     0.167 HD
ATOM     49  C   UNL A   1      39.612  31.209  34.373  1.00  0.00     0.034 A 
ATOM     50  C   UNL A   1      41.402  27.479  28.702  1.00  0.00     0.034 A 
ATOM     51  C   UNL A   1      40.766  30.360  34.525  1.00  0.00     0.049 A 
ATOM     52  C   UNL A   1      42.199  27.406  29.978  1.00  0.00     0.074 A 
ATOM     53  C   UNL A   1      41.545  30.173  35.653  1.00  0.00     0.029 A 
ATOM     54  N   UNL A   1      41.301  29.551  33.533  1.00  0.00    -0.354 N 
ATOM     55  N   UNL A   1      41.972  28.002  31.124  1.00  0.00    -0.248 NA
ATOM     56  C   UNL A   1      43.398  26.557  29.971  1.00  0.00     0.031 C 
ATOM     57  C   UNL A   1      42.580  29.296  35.329  1.00  0.00     0.029 A 
ATOM     58  C   UNL A   1      42.414  28.882  34.017  1.00  0.00     0.049 A 
ATOM     59  H   UNL A   1      40.944  29.465  32.619  1.00  0.00     0.167 HD
ATOM     60  C   UNL A   1      42.992  27.593  31.977  1.00  0.00     0.074 A 
ATOM     61  C   UNL A   1      43.818  26.673  31.224  1.00  0.00     0.031 C 
ATOM     62  C   UNL A   1      43.227  27.959  33.263  1.00  0.00     0.034 A 
BRANCH  49  63
ATOM     63  C   UNL A   1      39.184  32.023  35.569  1.00  0.00     0.023 A 
ATOM     64  C   UNL A   1      38.480  31.410  36.623  1.00  0.00     0.031 A 
ATOM     65  C   UNL A   1      39.360  33.418  35.608  1.00  0.00     0.131 A 
ATOM     66  C   UNL A   1      37.951  32.195  37.657  1.00  0.00     0.055 A 
ATOM     67  C   UNL A   1      38.861  34.191  36.659  1.00  0.00     0.041 A 
ATOM     68  F   UNL A   1      40.026  34.049  34.628  1.00  0.00    -0.206 F 
ATOM     69  C   UNL A   1      38.143  33.581  37.682  1.00  0.00     0.022 A 
BRANCH  66  70
ATOM     70  S   UNL A   1      36.945  31.460  38.975  1.00  0.00     0.124 S 
ATOM     71  O   UNL A   1      35.758  32.312  38.953  1.00  0.00    -0.237 OA
ATOM     72  O   UNL A   1      36.746  30.099  38.485  1.00  0.00    -0.237 OA
ATOM     73  O   UNL A   1      37.779  31.588  40.165  1.00  0.00    -0.744 OA
ENDBRANCH  66  70
ENDBRANCH  49  63
BRANCH  50  74
ATOM     74  C   UNL A   1      41.742  26.655  27.506  1.00  0.00     0.023 A 
ATOM     75  C   UNL A   1      41.401  25.290  27.449  1.00  0.00     0.031 A 
ATOM     76  C   UNL A   1      42.517  27.185  26.462  1.00  0.00     0.131 A 
ATOM     77  C   UNL A   1      41.903  24.488  26.417  1.00  0.00     0.055 A 
ATOM     78  C   UNL A   1      42.951  26.398  25.393  1.00  0.00     0.041 A 
ATOM     79  F   UNL A   1      42.876  28.478  26.476  1.00  0.00    -0.206 F 
ATOM     80  C   UNL A   1      42.663  25.036  25.379  1.00  0.00     0.022 A 
BRANCH  77  81
ATOM     81  S   UNL A   1      41.718  22.683  26.471  1.00  0.00     0.124 S 
ATOM     82  O   UNL A   1      40.269  22.525  26.411  1.00  0.00    -0.237 OA
ATOM     83  O   UNL A   1      42.450  22.271  25.275  1.00  0.00    -0.237 OA
ATOM     84  O   UNL A   1      42.343  22.311  27.736  1.00  0.00    -0.744 OA
ENDBRANCH  77  81
ENDBRANCH  50  74
BRANCH  62  85
ATOM     85  C   UNL A   1      44.430  27.379  33.967  1.00  0.00     0.023 A 
ATOM     86  C   UNL A   1      44.321  26.161  34.666  1.00  0.00     0.031 A 
ATOM     87  C   UNL A   1      45.629  28.103  34.074  1.00  0.00     0.131 A 
ATOM     88  C   UNL A   1      45.377  25.726  35.475  1.00  0.00     0.055 A 
ATOM     89  C   UNL A   1      46.696  27.643  34.845  1.00  0.00     0.041 A 
ATOM     90  F   UNL A   1      45.778  29.274  33.433  1.00  0.00    -0.206 F 
ATOM     91  C   UNL A   1      46.567  26.456  35.562  1.00  0.00     0.022 A 
BRANCH  88  92
ATOM     92  S   UNL A   1      45.215  24.247  36.512  1.00  0.00     0.124 S 
ATOM     93  O   UNL A   1      46.573  23.707  36.482  1.00  0.00    -0.237 OA
ATOM     94  O   UNL A   1      44.797  24.812  37.792  1.00  0.00    -0.237 OA
ATOM     95  O   UNL A   1      44.212  23.441  35.823  1.00  0.00    -0.744 OA
ENDBRANCH  88  92
ENDBRANCH  62  85
ENDBRANCH  36  37
ENDBRANCH  28  31
ENDBRANCH  26  27
ENDBRANCH   1  26
TORSDOF 15
ENDMDL
