MODEL 1
REMARK VINA RESULT:     -13.4      0.000      0.000
REMARK SMILES Cc1cc(NC(=O)c2ccc(Br)cc2N)ccc1C(=O)NCCCNC(=O)c1ccc(-c2c3nc(c(-c4cc(S(=O)(=O)[O-])ccc4F)c4ccc([nH]4)c(-c4cc(S(=O)(=O)[O-])ccc4F)c4nc(c(-c5cc(S(=O)(=O)[O-])ccc5F)c5ccc2[nH]5)C=C4)C=C3)cc1
REMARK SMILES IDX 23 1 22 2 21 3 19 4 20 5 18 7 1 8 2 9 3 10 4 11 17 12 16 13
REMARK SMILES IDX 5 14 6 15 7 17 8 18 9 19 14 20 10 21 13 22 11 23 12 24 15 25
REMARK SMILES IDX 24 28 25 29 26 30 27 32 28 33 29 34 90 35 30 36 89 37 31 38
REMARK SMILES IDX 32 39 33 40 83 41 34 42 88 43 82 44 84 45 35 46 87 47 81 48
REMARK SMILES IDX 80 49 36 51 68 52 48 53 67 54 49 55 52 56 66 57 85 58 50 59
REMARK SMILES IDX 51 60 65 62 86 63 53 64 37 65 38 66 46 67 39 68 45 69 47 70
REMARK SMILES IDX 44 71 40 72 41 73 42 74 43 75 69 76 70 77 78 78 71 79 77 80
REMARK SMILES IDX 79 81 76 82 72 83 73 84 74 85 75 86 54 87 55 88 63 89 56 90
REMARK SMILES IDX 62 91 64 92 61 93 57 94 58 95 59 96 60 97
REMARK H PARENT 21 6 5 16 15 26 15 27 25 31 84 50 52 61
REMARK Flexibility Score: inf
ROOT
ATOM      1  C   UNL A   1      32.595  31.716  27.271  1.00  0.00     0.042 C 
ENDROOT
BRANCH   1   2
ATOM      2  C   UNL A   1      31.593  30.861  26.497  1.00  0.00     0.118 C 
BRANCH   2   3
ATOM      3  N   UNL A   1      32.164  30.335  25.263  1.00  0.00    -0.352 N 
ATOM      4  C   UNL A   1      32.072  29.172  24.549  1.00  0.00     0.251 C 
ATOM      5  O   UNL A   1      32.572  29.227  23.415  1.00  0.00    -0.269 OA
ATOM      6  H   UNL A   1      32.770  30.982  24.834  1.00  0.00     0.163 HD
BRANCH   4   7
ATOM      7  C   UNL A   1      31.448  27.857  24.948  1.00  0.00     0.042 A 
ATOM      8  C   UNL A   1      29.458  27.568  23.296  1.00  0.00     0.045 C 
ATOM      9  C   UNL A   1      30.312  27.197  24.451  1.00  0.00    -0.036 A 
ATOM     10  C   UNL A   1      29.877  26.008  25.056  1.00  0.00     0.030 A 
ATOM     11  C   UNL A   1      30.565  25.394  26.083  1.00  0.00     0.041 A 
ATOM     12  C   UNL A   1      32.062  27.270  26.090  1.00  0.00     0.016 A 
ATOM     13  C   UNL A   1      31.623  26.066  26.667  1.00  0.00     0.027 A 
BRANCH  11  14
ATOM     14  N   UNL A   1      30.230  24.090  26.469  1.00  0.00    -0.322 N 
ATOM     15  C   UNL A   1      30.726  22.902  25.944  1.00  0.00     0.257 C 
ATOM     16  H   UNL A   1      29.569  24.005  27.193  1.00  0.00     0.170 HD
ATOM     17  O   UNL A   1      30.068  21.867  26.067  1.00  0.00    -0.269 OA
BRANCH  15  18
ATOM     18  C   UNL A   1      32.070  22.831  25.268  1.00  0.00     0.063 A 
ATOM     19  C   UNL A   1      33.189  22.721  26.118  1.00  0.00     0.017 A 
ATOM     20  C   UNL A   1      32.264  22.877  23.867  1.00  0.00     0.045 A 
ATOM     21  C   UNL A   1      34.485  22.675  25.596  1.00  0.00     0.016 A 
ATOM     22  C   UNL A   1      33.577  22.840  23.365  1.00  0.00     0.042 A 
ATOM     23  C   UNL A   1      34.673  22.740  24.220  1.00  0.00     0.020 A 
ATOM     24  Br  UNL A   1      36.425  22.747  23.508  1.00  0.00    -0.051 Br
BRANCH  20  25
ATOM     25  N   UNL A   1      31.244  23.133  22.946  1.00  0.00    -0.398 N 
ATOM     26  H   UNL A   1      30.859  24.036  22.876  1.00  0.00     0.156 HD
ATOM     27  H   UNL A   1      30.910  22.410  22.368  1.00  0.00     0.156 HD
ENDBRANCH  20  25
ENDBRANCH  15  18
ENDBRANCH  11  14
ENDBRANCH   4   7
ENDBRANCH   2   3
ENDBRANCH   1   2
BRANCH   1  28
ATOM     28  C   UNL A   1      33.906  31.063  27.636  1.00  0.00     0.118 C 
BRANCH  28  29
ATOM     29  N   UNL A   1      34.656  31.763  28.687  1.00  0.00    -0.352 N 
ATOM     30  C   UNL A   1      35.683  31.291  29.495  1.00  0.00     0.251 C 
ATOM     31  H   UNL A   1      34.394  32.700  28.840  1.00  0.00     0.163 HD
ATOM     32  O   UNL A   1      36.236  32.000  30.326  1.00  0.00    -0.269 OA
BRANCH  30  33
ATOM     33  C   UNL A   1      36.228  29.936  29.217  1.00  0.00     0.039 A 
ATOM     34  C   UNL A   1      36.798  29.312  30.332  1.00  0.00     0.014 A 
ATOM     35  C   UNL A   1      36.698  29.676  27.938  1.00  0.00     0.014 A 
ATOM     36  C   UNL A   1      38.083  28.807  30.218  1.00  0.00     0.010 A 
ATOM     37  C   UNL A   1      38.022  29.309  27.843  1.00  0.00     0.010 A 
ATOM     38  C   UNL A   1      38.732  28.972  29.000  1.00  0.00    -0.014 A 
BRANCH  38  39
ATOM     39  C   UNL A   1      40.149  28.733  28.814  1.00  0.00     0.031 A 
ATOM     40  C   UNL A   1      40.511  27.351  28.482  1.00  0.00     0.074 A 
ATOM     41  C   UNL A   1      41.064  29.719  28.927  1.00  0.00     0.049 A 
ATOM     42  N   UNL A   1      41.623  26.793  28.794  1.00  0.00    -0.248 NA
ATOM     43  C   UNL A   1      39.561  26.439  27.854  1.00  0.00     0.031 C 
ATOM     44  C   UNL A   1      42.485  29.661  28.600  1.00  0.00     0.029 A 
ATOM     45  N   UNL A   1      40.913  30.947  29.567  1.00  0.00    -0.354 N 
ATOM     46  C   UNL A   1      41.654  25.572  28.160  1.00  0.00     0.074 A 
ATOM     47  C   UNL A   1      40.307  25.347  27.708  1.00  0.00     0.031 C 
ATOM     48  C   UNL A   1      43.123  30.656  29.242  1.00  0.00     0.029 A 
ATOM     49  C   UNL A   1      42.162  31.302  30.120  1.00  0.00     0.049 A 
ATOM     50  H   UNL A   1      40.082  31.473  29.625  1.00  0.00     0.167 HD
ATOM     51  C   UNL A   1      42.861  24.978  27.957  1.00  0.00     0.034 A 
ATOM     52  C   UNL A   1      42.290  31.414  31.477  1.00  0.00     0.034 A 
ATOM     53  C   UNL A   1      43.920  25.758  28.614  1.00  0.00     0.049 A 
ATOM     54  C   UNL A   1      43.098  30.275  32.090  1.00  0.00     0.074 A 
ATOM     55  C   UNL A   1      44.826  26.707  28.168  1.00  0.00     0.029 A 
ATOM     56  N   UNL A   1      43.883  25.893  29.994  1.00  0.00    -0.354 N 
ATOM     57  N   UNL A   1      43.629  29.284  31.423  1.00  0.00    -0.248 NA
ATOM     58  C   UNL A   1      43.291  30.135  33.531  1.00  0.00     0.031 C 
ATOM     59  C   UNL A   1      45.285  27.448  29.302  1.00  0.00     0.029 A 
ATOM     60  C   UNL A   1      44.703  26.916  30.439  1.00  0.00     0.049 A 
ATOM     61  H   UNL A   1      43.336  25.329  30.587  1.00  0.00     0.167 HD
ATOM     62  C   UNL A   1      44.169  28.366  32.291  1.00  0.00     0.074 A 
ATOM     63  C   UNL A   1      43.907  28.943  33.604  1.00  0.00     0.031 C 
ATOM     64  C   UNL A   1      44.757  27.196  31.872  1.00  0.00     0.034 A 
BRANCH  51  65
ATOM     65  C   UNL A   1      43.111  23.894  26.928  1.00  0.00     0.023 A 
ATOM     66  C   UNL A   1      42.413  22.679  27.061  1.00  0.00     0.031 A 
ATOM     67  C   UNL A   1      44.033  23.934  25.859  1.00  0.00     0.131 A 
ATOM     68  C   UNL A   1      42.699  21.570  26.242  1.00  0.00     0.055 A 
ATOM     69  C   UNL A   1      44.354  22.819  25.074  1.00  0.00     0.041 A 
ATOM     70  F   UNL A   1      44.632  25.062  25.466  1.00  0.00    -0.206 F 
ATOM     71  C   UNL A   1      43.690  21.622  25.268  1.00  0.00     0.022 A 
BRANCH  68  72
ATOM     72  S   UNL A   1      41.744  20.049  26.468  1.00  0.00     0.124 S 
ATOM     73  O   UNL A   1      40.372  20.544  26.442  1.00  0.00    -0.237 OA
ATOM     74  O   UNL A   1      42.166  19.248  25.324  1.00  0.00    -0.237 OA
ATOM     75  O   UNL A   1      42.199  19.555  27.767  1.00  0.00    -0.744 OA
ENDBRANCH  68  72
ENDBRANCH  51  65
BRANCH  52  76
ATOM     76  C   UNL A   1      41.070  32.049  32.080  1.00  0.00     0.023 A 
ATOM     77  C   UNL A   1      40.174  31.198  32.772  1.00  0.00     0.031 A 
ATOM     78  C   UNL A   1      41.101  33.402  32.439  1.00  0.00     0.131 A 
ATOM     79  C   UNL A   1      39.537  31.656  33.936  1.00  0.00     0.055 A 
ATOM     80  C   UNL A   1      40.438  33.854  33.583  1.00  0.00     0.041 A 
ATOM     81  F   UNL A   1      41.905  34.264  31.799  1.00  0.00    -0.206 F 
ATOM     82  C   UNL A   1      39.720  32.966  34.379  1.00  0.00     0.022 A 
BRANCH  79  83
ATOM     83  S   UNL A   1      38.672  30.482  35.021  1.00  0.00     0.124 S 
ATOM     84  O   UNL A   1      37.673  31.326  35.662  1.00  0.00    -0.237 OA
ATOM     85  O   UNL A   1      38.158  29.485  34.086  1.00  0.00    -0.237 OA
ATOM     86  O   UNL A   1      39.740  29.987  35.893  1.00  0.00    -0.744 OA
ENDBRANCH  79  83
ENDBRANCH  52  76
BRANCH  64  87
ATOM     87  C   UNL A   1      45.401  26.171  32.797  1.00  0.00     0.023 A 
ATOM     88  C   UNL A   1      44.653  25.381  33.676  1.00  0.00     0.031 A 
ATOM     89  C   UNL A   1      46.805  25.979  32.870  1.00  0.00     0.131 A 
ATOM     90  C   UNL A   1      45.248  24.352  34.426  1.00  0.00     0.055 A 
ATOM     91  C   UNL A   1      47.407  25.007  33.675  1.00  0.00     0.041 A 
ATOM     92  F   UNL A   1      47.673  26.715  32.166  1.00  0.00    -0.206 F 
ATOM     93  C   UNL A   1      46.625  24.158  34.435  1.00  0.00     0.022 A 
BRANCH  90  94
ATOM     94  S   UNL A   1      44.158  23.231  35.336  1.00  0.00     0.124 S 
ATOM     95  O   UNL A   1      43.042  24.094  35.693  1.00  0.00    -0.237 OA
ATOM     96  O   UNL A   1      43.879  22.212  34.330  1.00  0.00    -0.237 OA
ATOM     97  O   UNL A   1      44.987  22.785  36.459  1.00  0.00    -0.744 OA
ENDBRANCH  90  94
ENDBRANCH  64  87
ENDBRANCH  38  39
ENDBRANCH  30  33
ENDBRANCH  28  29
ENDBRANCH   1  28
TORSDOF 16
ENDMDL
MODEL 2
REMARK VINA RESULT:     -13.3      4.028      9.531
REMARK SMILES Cc1cc(NC(=O)c2ccc(Br)cc2N)ccc1C(=O)NCCCNC(=O)c1ccc(-c2c3nc(c(-c4cc(S(=O)(=O)[O-])ccc4F)c4ccc([nH]4)c(-c4cc(S(=O)(=O)[O-])ccc4F)c4nc(c(-c5cc(S(=O)(=O)[O-])ccc5F)c5ccc2[nH]5)C=C4)C=C3)cc1
REMARK SMILES IDX 23 1 22 2 21 3 19 4 20 5 18 7 1 8 2 9 3 10 4 11 17 12 16 13
REMARK SMILES IDX 5 14 6 15 7 17 8 18 9 19 14 20 10 21 13 22 11 23 12 24 15 25
REMARK SMILES IDX 24 28 25 29 26 30 27 32 28 33 29 34 90 35 30 36 89 37 31 38
REMARK SMILES IDX 32 39 33 40 83 41 34 42 88 43 82 44 84 45 35 46 87 47 81 48
REMARK SMILES IDX 80 49 36 51 68 52 48 53 67 54 49 55 52 56 66 57 85 58 50 59
REMARK SMILES IDX 51 60 65 62 86 63 53 64 37 65 38 66 46 67 39 68 45 69 47 70
REMARK SMILES IDX 44 71 40 72 41 73 42 74 43 75 69 76 70 77 78 78 71 79 77 80
REMARK SMILES IDX 79 81 76 82 72 83 73 84 74 85 75 86 54 87 55 88 63 89 56 90
REMARK SMILES IDX 62 91 64 92 61 93 57 94 58 95 59 96 60 97
REMARK H PARENT 21 6 5 16 15 26 15 27 25 31 84 50 52 61
REMARK Flexibility Score: inf
ROOT
ATOM      1  C   UNL A   1      38.524  20.820  25.474  1.00  0.00     0.042 C 
ENDROOT
BRANCH   1   2
ATOM      2  C   UNL A   1      37.159  20.540  24.846  1.00  0.00     0.118 C 
BRANCH   2   3
ATOM      3  N   UNL A   1      36.067  20.820  25.771  1.00  0.00    -0.352 N 
ATOM      4  C   UNL A   1      34.824  21.385  25.689  1.00  0.00     0.251 C 
ATOM      5  O   UNL A   1      34.123  21.227  26.700  1.00  0.00    -0.269 OA
ATOM      6  H   UNL A   1      36.277  20.528  26.687  1.00  0.00     0.163 HD
BRANCH   4   7
ATOM      7  C   UNL A   1      34.202  22.156  24.551  1.00  0.00     0.042 A 
ATOM      8  C   UNL A   1      32.355  20.566  23.638  1.00  0.00     0.045 C 
ATOM      9  C   UNL A   1      33.188  21.794  23.649  1.00  0.00    -0.036 A 
ATOM     10  C   UNL A   1      32.839  22.666  22.606  1.00  0.00     0.030 A 
ATOM     11  C   UNL A   1      33.392  23.922  22.463  1.00  0.00     0.041 A 
ATOM     12  C   UNL A   1      34.844  23.402  24.301  1.00  0.00     0.016 A 
ATOM     13  C   UNL A   1      34.463  24.271  23.264  1.00  0.00     0.027 A 
BRANCH  11  14
ATOM     14  N   UNL A   1      32.824  24.839  21.568  1.00  0.00    -0.322 N 
ATOM     15  C   UNL A   1      31.883  25.821  21.852  1.00  0.00     0.257 C 
ATOM     16  H   UNL A   1      33.127  24.781  20.633  1.00  0.00     0.170 HD
ATOM     17  O   UNL A   1      31.178  26.262  20.942  1.00  0.00    -0.269 OA
BRANCH  15  18
ATOM     18  C   UNL A   1      31.729  26.400  23.234  1.00  0.00     0.063 A 
ATOM     19  C   UNL A   1      32.622  27.435  23.578  1.00  0.00     0.017 A 
ATOM     20  C   UNL A   1      30.770  25.966  24.181  1.00  0.00     0.045 A 
ATOM     21  C   UNL A   1      32.584  28.023  24.846  1.00  0.00     0.016 A 
ATOM     22  C   UNL A   1      30.756  26.567  25.453  1.00  0.00     0.042 A 
ATOM     23  C   UNL A   1      31.653  27.582  25.780  1.00  0.00     0.020 A 
ATOM     24  Br  UNL A   1      31.639  28.325  27.518  1.00  0.00    -0.051 Br
BRANCH  20  25
ATOM     25  N   UNL A   1      29.940  24.856  23.999  1.00  0.00    -0.398 N 
ATOM     26  H   UNL A   1      29.202  24.686  24.627  1.00  0.00     0.156 HD
ATOM     27  H   UNL A   1      30.096  24.244  23.244  1.00  0.00     0.156 HD
ENDBRANCH  20  25
ENDBRANCH  15  18
ENDBRANCH  11  14
ENDBRANCH   4   7
ENDBRANCH   2   3
ENDBRANCH   1   2
BRANCH   1  28
ATOM     28  C   UNL A   1      38.847  22.261  25.782  1.00  0.00     0.118 C 
BRANCH  28  29
ATOM     29  N   UNL A   1      40.252  22.502  26.134  1.00  0.00    -0.352 N 
ATOM     30  C   UNL A   1      40.903  23.707  26.373  1.00  0.00     0.251 C 
ATOM     31  H   UNL A   1      40.812  21.696  26.214  1.00  0.00     0.163 HD
ATOM     32  O   UNL A   1      42.087  23.757  26.679  1.00  0.00    -0.269 OA
BRANCH  30  33
ATOM     33  C   UNL A   1      40.088  24.948  26.417  1.00  0.00     0.039 A 
ATOM     34  C   UNL A   1      40.787  26.101  26.042  1.00  0.00     0.014 A 
ATOM     35  C   UNL A   1      39.051  25.012  27.335  1.00  0.00     0.014 A 
ATOM     36  C   UNL A   1      40.759  27.193  26.894  1.00  0.00     0.010 A 
ATOM     37  C   UNL A   1      39.123  26.029  28.260  1.00  0.00     0.010 A 
ATOM     38  C   UNL A   1      40.048  27.063  28.081  1.00  0.00    -0.014 A 
BRANCH  38  39
ATOM     39  C   UNL A   1      40.142  28.010  29.174  1.00  0.00     0.031 A 
ATOM     40  C   UNL A   1      39.208  29.139  29.104  1.00  0.00     0.074 A 
ATOM     41  C   UNL A   1      41.020  27.853  30.187  1.00  0.00     0.049 A 
ATOM     42  N   UNL A   1      39.436  30.306  29.583  1.00  0.00    -0.248 NA
ATOM     43  C   UNL A   1      37.956  29.052  28.360  1.00  0.00     0.031 C 
ATOM     44  C   UNL A   1      41.105  28.623  31.424  1.00  0.00     0.029 A 
ATOM     45  N   UNL A   1      42.168  27.063  30.200  1.00  0.00    -0.354 N 
ATOM     46  C   UNL A   1      38.266  31.023  29.478  1.00  0.00     0.074 A 
ATOM     47  C   UNL A   1      37.430  30.252  28.597  1.00  0.00     0.031 C 
ATOM     48  C   UNL A   1      42.332  28.469  31.952  1.00  0.00     0.029 A 
ATOM     49  C   UNL A   1      43.130  27.713  31.002  1.00  0.00     0.049 A 
ATOM     50  H   UNL A   1      42.287  26.205  29.731  1.00  0.00     0.167 HD
ATOM     51  C   UNL A   1      38.094  32.104  30.284  1.00  0.00     0.034 A 
ATOM     52  C   UNL A   1      44.296  28.148  30.435  1.00  0.00     0.034 A 
ATOM     53  C   UNL A   1      39.325  32.362  31.046  1.00  0.00     0.049 A 
ATOM     54  C   UNL A   1      44.359  29.666  30.305  1.00  0.00     0.074 A 
ATOM     55  C   UNL A   1      39.740  32.044  32.330  1.00  0.00     0.029 A 
ATOM     56  N   UNL A   1      40.478  32.690  30.349  1.00  0.00    -0.354 N 
ATOM     57  N   UNL A   1      43.423  30.495  30.686  1.00  0.00    -0.248 NA
ATOM     58  C   UNL A   1      45.468  30.353  29.650  1.00  0.00     0.031 C 
ATOM     59  C   UNL A   1      41.166  32.134  32.369  1.00  0.00     0.029 A 
ATOM     60  C   UNL A   1      41.614  32.559  31.130  1.00  0.00     0.049 A 
ATOM     61  H   UNL A   1      40.489  32.982  29.409  1.00  0.00     0.167 HD
ATOM     62  C   UNL A   1      43.739  31.775  30.302  1.00  0.00     0.074 A 
ATOM     63  C   UNL A   1      45.026  31.622  29.634  1.00  0.00     0.031 C 
ATOM     64  C   UNL A   1      42.913  32.850  30.530  1.00  0.00     0.034 A 
BRANCH  51  65
ATOM     65  C   UNL A   1      36.747  32.719  30.604  1.00  0.00     0.023 A 
ATOM     66  C   UNL A   1      36.049  33.365  29.566  1.00  0.00     0.031 A 
ATOM     67  C   UNL A   1      36.118  32.778  31.867  1.00  0.00     0.131 A 
ATOM     68  C   UNL A   1      34.868  34.091  29.812  1.00  0.00     0.055 A 
ATOM     69  C   UNL A   1      34.971  33.540  32.124  1.00  0.00     0.041 A 
ATOM     70  F   UNL A   1      36.534  32.058  32.913  1.00  0.00    -0.206 F 
ATOM     71  C   UNL A   1      34.340  34.210  31.093  1.00  0.00     0.022 A 
BRANCH  68  72
ATOM     72  S   UNL A   1      34.023  34.880  28.419  1.00  0.00     0.124 S 
ATOM     73  O   UNL A   1      34.099  36.293  28.777  1.00  0.00    -0.237 OA
ATOM     74  O   UNL A   1      34.834  34.454  27.285  1.00  0.00    -0.237 OA
ATOM     75  O   UNL A   1      32.680  34.302  28.467  1.00  0.00    -0.744 OA
ENDBRANCH  68  72
ENDBRANCH  51  65
BRANCH  52  76
ATOM     76  C   UNL A   1      44.802  27.159  29.425  1.00  0.00     0.023 A 
ATOM     77  C   UNL A   1      44.546  27.439  28.061  1.00  0.00     0.031 A 
ATOM     78  C   UNL A   1      45.912  26.361  29.735  1.00  0.00     0.131 A 
ATOM     79  C   UNL A   1      45.516  27.136  27.093  1.00  0.00     0.055 A 
ATOM     80  C   UNL A   1      46.856  26.038  28.757  1.00  0.00     0.041 A 
ATOM     81  F   UNL A   1      46.188  26.034  31.006  1.00  0.00    -0.206 F 
ATOM     82  C   UNL A   1      46.701  26.492  27.450  1.00  0.00     0.022 A 
BRANCH  79  83
ATOM     83  S   UNL A   1      45.359  27.800  25.408  1.00  0.00     0.124 S 
ATOM     84  O   UNL A   1      43.914  27.890  25.242  1.00  0.00    -0.237 OA
ATOM     85  O   UNL A   1      46.072  29.072  25.487  1.00  0.00    -0.237 OA
ATOM     86  O   UNL A   1      46.030  26.788  24.589  1.00  0.00    -0.744 OA
ENDBRANCH  79  83
ENDBRANCH  52  76
BRANCH  64  87
ATOM     87  C   UNL A   1      43.243  34.290  30.156  1.00  0.00     0.023 A 
ATOM     88  C   UNL A   1      43.148  34.763  28.842  1.00  0.00     0.031 A 
ATOM     89  C   UNL A   1      43.716  35.239  31.098  1.00  0.00     0.131 A 
ATOM     90  C   UNL A   1      43.329  36.123  28.537  1.00  0.00     0.055 A 
ATOM     91  C   UNL A   1      43.973  36.576  30.781  1.00  0.00     0.041 A 
ATOM     92  F   UNL A   1      43.954  34.930  32.379  1.00  0.00    -0.206 F 
ATOM     93  C   UNL A   1      43.745  37.037  29.498  1.00  0.00     0.022 A 
BRANCH  90  94
ATOM     94  S   UNL A   1      42.937  36.670  26.858  1.00  0.00     0.124 S 
ATOM     95  O   UNL A   1      41.602  37.229  27.009  1.00  0.00    -0.237 OA
ATOM     96  O   UNL A   1      44.005  37.632  26.606  1.00  0.00    -0.237 OA
ATOM     97  O   UNL A   1      43.014  35.437  26.070  1.00  0.00    -0.744 OA
ENDBRANCH  90  94
ENDBRANCH  64  87
ENDBRANCH  38  39
ENDBRANCH  30  33
ENDBRANCH  28  29
ENDBRANCH   1  28
TORSDOF 16
ENDMDL
MODEL 3
REMARK VINA RESULT:     -13.3      1.799      2.039
REMARK SMILES Cc1cc(NC(=O)c2ccc(Br)cc2N)ccc1C(=O)NCCCNC(=O)c1ccc(-c2c3nc(c(-c4cc(S(=O)(=O)[O-])ccc4F)c4ccc([nH]4)c(-c4cc(S(=O)(=O)[O-])ccc4F)c4nc(c(-c5cc(S(=O)(=O)[O-])ccc5F)c5ccc2[nH]5)C=C4)C=C3)cc1
REMARK SMILES IDX 23 1 22 2 21 3 19 4 20 5 18 7 1 8 2 9 3 10 4 11 17 12 16 13
REMARK SMILES IDX 5 14 6 15 7 17 8 18 9 19 14 20 10 21 13 22 11 23 12 24 15 25
REMARK SMILES IDX 24 28 25 29 26 30 27 32 28 33 29 34 90 35 30 36 89 37 31 38
REMARK SMILES IDX 32 39 33 40 83 41 34 42 88 43 82 44 84 45 35 46 87 47 81 48
REMARK SMILES IDX 80 49 36 51 68 52 48 53 67 54 49 55 52 56 66 57 85 58 50 59
REMARK SMILES IDX 51 60 65 62 86 63 53 64 37 65 38 66 46 67 39 68 45 69 47 70
REMARK SMILES IDX 44 71 40 72 41 73 42 74 43 75 69 76 70 77 78 78 71 79 77 80
REMARK SMILES IDX 79 81 76 82 72 83 73 84 74 85 75 86 54 87 55 88 63 89 56 90
REMARK SMILES IDX 62 91 64 92 61 93 57 94 58 95 59 96 60 97
REMARK H PARENT 21 6 5 16 15 26 15 27 25 31 84 50 52 61
REMARK Flexibility Score: inf
ROOT
ATOM      1  C   UNL A   1      32.610  31.626  27.249  1.00  0.00     0.042 C 
ENDROOT
BRANCH   1   2
ATOM      2  C   UNL A   1      31.640  30.910  26.310  1.00  0.00     0.118 C 
BRANCH   2   3
ATOM      3  N   UNL A   1      32.325  30.323  25.164  1.00  0.00    -0.352 N 
ATOM      4  C   UNL A   1      32.308  29.119  24.513  1.00  0.00     0.251 C 
ATOM      5  O   UNL A   1      32.908  29.117  23.428  1.00  0.00    -0.269 OA
ATOM      6  H   UNL A   1      32.962  30.952  24.756  1.00  0.00     0.163 HD
BRANCH   4   7
ATOM      7  C   UNL A   1      31.661  27.821  24.930  1.00  0.00     0.042 A 
ATOM      8  C   UNL A   1      29.656  27.554  23.293  1.00  0.00     0.045 C 
ATOM      9  C   UNL A   1      30.510  27.179  24.447  1.00  0.00    -0.036 A 
ATOM     10  C   UNL A   1      30.055  26.004  25.067  1.00  0.00     0.030 A 
ATOM     11  C   UNL A   1      30.737  25.388  26.096  1.00  0.00     0.041 A 
ATOM     12  C   UNL A   1      32.270  27.234  26.075  1.00  0.00     0.016 A 
ATOM     13  C   UNL A   1      31.812  26.045  26.667  1.00  0.00     0.027 A 
BRANCH  11  14
ATOM     14  N   UNL A   1      30.379  24.094  26.497  1.00  0.00    -0.322 N 
ATOM     15  C   UNL A   1      30.860  22.892  25.992  1.00  0.00     0.257 C 
ATOM     16  H   UNL A   1      29.712  24.030  27.219  1.00  0.00     0.170 HD
ATOM     17  O   UNL A   1      30.186  21.869  26.126  1.00  0.00    -0.269 OA
BRANCH  15  18
ATOM     18  C   UNL A   1      32.207  22.790  25.327  1.00  0.00     0.063 A 
ATOM     19  C   UNL A   1      33.317  22.654  26.185  1.00  0.00     0.017 A 
ATOM     20  C   UNL A   1      32.413  22.834  23.927  1.00  0.00     0.045 A 
ATOM     21  C   UNL A   1      34.615  22.579  25.673  1.00  0.00     0.016 A 
ATOM     22  C   UNL A   1      33.728  22.766  23.435  1.00  0.00     0.042 A 
ATOM     23  C   UNL A   1      34.815  22.641  24.298  1.00  0.00     0.020 A 
ATOM     24  Br  UNL A   1      36.572  22.609  23.600  1.00  0.00    -0.051 Br
BRANCH  20  25
ATOM     25  N   UNL A   1      31.406  23.114  22.998  1.00  0.00    -0.398 N 
ATOM     26  H   UNL A   1      31.394  22.649  22.131  1.00  0.00     0.156 HD
ATOM     27  H   UNL A   1      30.711  23.777  23.212  1.00  0.00     0.156 HD
ENDBRANCH  20  25
ENDBRANCH  15  18
ENDBRANCH  11  14
ENDBRANCH   4   7
ENDBRANCH   2   3
ENDBRANCH   1   2
BRANCH   1  28
ATOM     28  C   UNL A   1      33.884  30.896  27.595  1.00  0.00     0.118 C 
BRANCH  28  29
ATOM     29  N   UNL A   1      34.897  31.731  28.253  1.00  0.00    -0.352 N 
ATOM     30  C   UNL A   1      36.104  31.356  28.830  1.00  0.00     0.251 C 
ATOM     31  H   UNL A   1      34.692  32.694  28.290  1.00  0.00     0.163 HD
ATOM     32  O   UNL A   1      36.867  32.171  29.332  1.00  0.00    -0.269 OA
BRANCH  30  33
ATOM     33  C   UNL A   1      36.546  29.945  28.678  1.00  0.00     0.039 A 
ATOM     34  C   UNL A   1      36.902  29.328  29.882  1.00  0.00     0.014 A 
ATOM     35  C   UNL A   1      37.149  29.578  27.485  1.00  0.00     0.014 A 
ATOM     36  C   UNL A   1      38.135  28.701  29.960  1.00  0.00     0.010 A 
ATOM     37  C   UNL A   1      38.431  29.087  27.581  1.00  0.00     0.010 A 
ATOM     38  C   UNL A   1      38.950  28.744  28.835  1.00  0.00    -0.014 A 
BRANCH  38  39
ATOM     39  C   UNL A   1      40.348  28.367  28.848  1.00  0.00     0.031 A 
ATOM     40  C   UNL A   1      40.613  26.940  28.631  1.00  0.00     0.074 A 
ATOM     41  C   UNL A   1      41.334  29.270  29.036  1.00  0.00     0.049 A 
ATOM     42  N   UNL A   1      41.616  26.303  29.112  1.00  0.00    -0.248 NA
ATOM     43  C   UNL A   1      39.665  26.084  27.926  1.00  0.00     0.031 C 
ATOM     44  C   UNL A   1      42.773  29.064  28.903  1.00  0.00     0.029 A 
ATOM     45  N   UNL A   1      41.223  30.542  29.594  1.00  0.00    -0.354 N 
ATOM     46  C   UNL A   1      41.608  25.049  28.545  1.00  0.00     0.074 A 
ATOM     47  C   UNL A   1      40.314  24.922  27.930  1.00  0.00     0.031 C 
ATOM     48  C   UNL A   1      43.418  30.032  29.578  1.00  0.00     0.029 A 
ATOM     49  C   UNL A   1      42.421  30.813  30.290  1.00  0.00     0.049 A 
ATOM     50  H   UNL A   1      40.448  31.144  29.517  1.00  0.00     0.167 HD
ATOM     51  C   UNL A   1      42.766  24.336  28.531  1.00  0.00     0.034 A 
ATOM     52  C   UNL A   1      42.386  30.992  31.645  1.00  0.00     0.034 A 
ATOM     53  C   UNL A   1      43.804  25.053  29.286  1.00  0.00     0.049 A 
ATOM     54  C   UNL A   1      42.993  29.821  32.412  1.00  0.00     0.074 A 
ATOM     55  C   UNL A   1      44.848  25.889  28.920  1.00  0.00     0.029 A 
ATOM     56  N   UNL A   1      43.605  25.272  30.641  1.00  0.00    -0.354 N 
ATOM     57  N   UNL A   1      43.505  28.749  31.867  1.00  0.00    -0.248 NA
ATOM     58  C   UNL A   1      42.987  29.749  33.870  1.00  0.00     0.031 C 
ATOM     59  C   UNL A   1      45.230  26.649  30.069  1.00  0.00     0.029 A 
ATOM     60  C   UNL A   1      44.458  26.239  31.143  1.00  0.00     0.049 A 
ATOM     61  H   UNL A   1      42.935  24.796  31.182  1.00  0.00     0.167 HD
ATOM     62  C   UNL A   1      43.838  27.838  32.839  1.00  0.00     0.074 A 
ATOM     63  C   UNL A   1      43.469  28.512  34.078  1.00  0.00     0.031 C 
ATOM     64  C   UNL A   1      44.357  26.597  32.556  1.00  0.00     0.034 A 
BRANCH  51  65
ATOM     65  C   UNL A   1      43.038  23.176  27.595  1.00  0.00     0.023 A 
ATOM     66  C   UNL A   1      44.185  23.235  26.781  1.00  0.00     0.031 A 
ATOM     67  C   UNL A   1      42.224  22.040  27.390  1.00  0.00     0.131 A 
ATOM     68  C   UNL A   1      44.429  22.276  25.779  1.00  0.00     0.055 A 
ATOM     69  C   UNL A   1      42.438  21.112  26.363  1.00  0.00     0.041 A 
ATOM     70  F   UNL A   1      41.213  21.723  28.204  1.00  0.00    -0.206 F 
ATOM     71  C   UNL A   1      43.543  21.230  25.543  1.00  0.00     0.022 A 
BRANCH  68  72
ATOM     72  S   UNL A   1      45.935  22.416  24.786  1.00  0.00     0.124 S 
ATOM     73  O   UNL A   1      46.739  23.339  25.580  1.00  0.00    -0.237 OA
ATOM     74  O   UNL A   1      46.398  21.034  24.732  1.00  0.00    -0.237 OA
ATOM     75  O   UNL A   1      45.453  22.953  23.514  1.00  0.00    -0.744 OA
ENDBRANCH  68  72
ENDBRANCH  51  65
BRANCH  52  76
ATOM     76  C   UNL A   1      41.167  31.769  32.051  1.00  0.00     0.023 A 
ATOM     77  C   UNL A   1      40.146  31.061  32.732  1.00  0.00     0.031 A 
ATOM     78  C   UNL A   1      41.268  33.149  32.271  1.00  0.00     0.131 A 
ATOM     79  C   UNL A   1      39.440  31.686  33.772  1.00  0.00     0.055 A 
ATOM     80  C   UNL A   1      40.538  33.767  33.288  1.00  0.00     0.041 A 
ATOM     81  F   UNL A   1      42.194  33.879  31.631  1.00  0.00    -0.206 F 
ATOM     82  C   UNL A   1      39.681  33.021  34.094  1.00  0.00     0.022 A 
BRANCH  79  83
ATOM     83  S   UNL A   1      38.388  30.699  34.878  1.00  0.00     0.124 S 
ATOM     84  O   UNL A   1      37.422  31.682  35.351  1.00  0.00    -0.237 OA
ATOM     85  O   UNL A   1      37.860  29.663  33.994  1.00  0.00    -0.237 OA
ATOM     86  O   UNL A   1      39.333  30.204  35.880  1.00  0.00    -0.744 OA
ENDBRANCH  79  83
ENDBRANCH  52  76
BRANCH  64  87
ATOM     87  C   UNL A   1      44.775  25.573  33.604  1.00  0.00     0.023 A 
ATOM     88  C   UNL A   1      46.066  25.036  33.653  1.00  0.00     0.031 A 
ATOM     89  C   UNL A   1      43.876  25.054  34.572  1.00  0.00     0.131 A 
ATOM     90  C   UNL A   1      46.472  24.194  34.703  1.00  0.00     0.055 A 
ATOM     91  C   UNL A   1      44.258  24.155  35.572  1.00  0.00     0.041 A 
ATOM     92  F   UNL A   1      42.581  25.389  34.609  1.00  0.00    -0.206 F 
ATOM     93  C   UNL A   1      45.575  23.745  35.666  1.00  0.00     0.022 A 
BRANCH  90  94
ATOM     94  S   UNL A   1      48.224  23.761  34.808  1.00  0.00     0.124 S 
ATOM     95  O   UNL A   1      48.219  22.339  34.495  1.00  0.00    -0.237 OA
ATOM     96  O   UNL A   1      48.805  24.634  33.795  1.00  0.00    -0.237 OA
ATOM     97  O   UNL A   1      48.577  24.094  36.192  1.00  0.00    -0.744 OA
ENDBRANCH  90  94
ENDBRANCH  64  87
ENDBRANCH  38  39
ENDBRANCH  30  33
ENDBRANCH  28  29
ENDBRANCH   1  28
TORSDOF 16
ENDMDL
