MODEL 1
REMARK VINA RESULT:     -13.8      0.000      0.000
REMARK SMILES Cc1cc(C)n(C)c(=O)c1C(=O)N1CCC2(CC1)C[NH2+][C@@H](C(=O)NCCCNC(=O)c1ccc(-c3c4nc(c(-c5cc(S(=O)(=O)[O-])ccc5F)c5ccc([nH]5)c(-c5cc(S(=O)(=O)[O-])ccc5F)c5nc(c(-c6cc(S(=O)(=O)[O-])ccc6F)c6ccc3[nH]6)C=C5)C=C4)cc1)C2
REMARK SMILES IDX 27 1 26 2 25 3 24 4 22 5 23 6 21 8 11 9 12 10 13 11 14 12
REMARK SMILES IDX 18 13 15 14 17 15 16 16 19 17 94 18 20 19 10 22 1 23 2 24
REMARK SMILES IDX 3 25 4 26 8 27 5 28 6 29 9 30 7 31 28 32 29 33 30 35 31 36
REMARK SMILES IDX 32 37 93 38 33 39 92 40 34 41 35 42 36 43 86 44 37 45 91 46
REMARK SMILES IDX 85 47 87 48 38 49 90 50 84 51 83 52 39 54 71 55 51 56 70 57
REMARK SMILES IDX 52 58 55 59 69 60 88 61 53 62 54 63 68 65 89 66 56 67 40 68
REMARK SMILES IDX 41 69 49 70 42 71 48 72 50 73 47 74 43 75 44 76 45 77 46 78
REMARK SMILES IDX 72 79 73 80 81 81 74 82 80 83 82 84 79 85 75 86 76 87 77 88
REMARK SMILES IDX 78 89 57 90 58 91 66 92 59 93 65 94 67 95 64 96 60 97 61 98
REMARK SMILES IDX 62 99 63 100
REMARK H PARENT 24 7 20 20 20 21 28 34 87 53 55 64
REMARK Flexibility Score: inf
ROOT
ATOM      1  C   UNL A   1      32.718  32.601  27.295  1.00  0.00     0.118 C 
ENDROOT
BRANCH   1   2
ATOM      2  C   UNL A   1      31.441  31.958  26.781  1.00  0.00     0.042 C 
BRANCH   2   3
ATOM      3  C   UNL A   1      31.680  30.868  25.748  1.00  0.00     0.118 C 
BRANCH   3   4
ATOM      4  N   UNL A   1      30.565  30.723  24.827  1.00  0.00    -0.351 N 
ATOM      5  C   UNL A   1      30.366  29.825  23.819  1.00  0.00     0.278 C 
ATOM      6  O   UNL A   1      29.300  29.883  23.198  1.00  0.00    -0.268 OA
ATOM      7  H   UNL A   1      29.839  31.376  24.949  1.00  0.00     0.163 HD
BRANCH   5   8
ATOM      8  C   UNL A   1      31.430  28.791  23.437  1.00  0.00     0.273 C 
ATOM      9  C   UNL A   1      33.477  22.804  25.161  1.00  0.00     0.259 C 
ATOM     10  O   UNL A   1      34.650  22.742  25.542  1.00  0.00    -0.269 OA
ATOM     11  N   UNL A   1      32.811  24.026  25.145  1.00  0.00    -0.338 N 
ATOM     12  C   UNL A   1      33.619  25.232  25.237  1.00  0.00     0.120 C 
ATOM     13  C   UNL A   1      31.375  24.282  25.118  1.00  0.00     0.120 C 
ATOM     14  C   UNL A   1      33.451  26.004  23.939  1.00  0.00     0.034 C 
ATOM     15  C   UNL A   1      30.965  25.290  24.022  1.00  0.00     0.034 C 
ATOM     16  C   UNL A   1      31.987  26.423  23.688  1.00  0.00     0.029 C 
ATOM     17  C   UNL A   1      31.873  26.866  22.205  1.00  0.00     0.268 C 
ATOM     18  C   UNL A   1      31.649  27.706  24.485  1.00  0.00     0.088 C 
ATOM     19  N   UNL A   1      31.069  28.075  22.202  1.00  0.00    -0.336 N 
ATOM     20  H   UNL A   1      30.076  27.844  22.203  1.00  0.00     0.346 HD
ATOM     21  H   UNL A   1      31.243  28.642  21.372  1.00  0.00     0.346 HD
BRANCH   9  22
ATOM     22  C   UNL A   1      32.872  21.556  24.580  1.00  0.00     0.108 A 
ATOM     23  C   UNL A   1      32.670  22.454  22.188  1.00  0.00     0.045 C 
ATOM     24  C   UNL A   1      32.579  21.420  23.266  1.00  0.00    -0.031 A 
ATOM     25  C   UNL A   1      32.254  20.123  22.712  1.00  0.00     0.026 A 
ATOM     26  C   UNL A   1      32.462  18.990  23.393  1.00  0.00     0.018 A 
ATOM     27  C   UNL A   1      32.941  20.289  25.411  1.00  0.00     0.263 A 
ATOM     28  C   UNL A   1      32.267  17.680  22.678  1.00  0.00     0.064 C 
ATOM     29  N   UNL A   1      32.848  19.061  24.726  1.00  0.00    -0.315 N 
ATOM     30  O   UNL A   1      33.093  20.351  26.632  1.00  0.00    -0.268 OA
ATOM     31  C   UNL A   1      33.125  17.843  25.477  1.00  0.00     0.153 C 
ENDBRANCH   9  22
ENDBRANCH   5   8
ENDBRANCH   3   4
ENDBRANCH   2   3
ENDBRANCH   1   2
BRANCH   1  32
ATOM     32  N   UNL A   1      32.530  34.003  27.635  1.00  0.00    -0.352 N 
ATOM     33  C   UNL A   1      33.104  34.752  28.633  1.00  0.00     0.251 C 
ATOM     34  H   UNL A   1      31.896  34.490  27.061  1.00  0.00     0.163 HD
ATOM     35  O   UNL A   1      32.644  35.857  28.895  1.00  0.00    -0.269 OA
BRANCH  33  36
ATOM     36  C   UNL A   1      34.252  34.215  29.396  1.00  0.00     0.039 A 
ATOM     37  C   UNL A   1      34.004  33.429  30.524  1.00  0.00     0.014 A 
ATOM     38  C   UNL A   1      35.566  34.498  29.013  1.00  0.00     0.014 A 
ATOM     39  C   UNL A   1      35.075  32.882  31.233  1.00  0.00     0.010 A 
ATOM     40  C   UNL A   1      36.628  33.883  29.667  1.00  0.00     0.010 A 
ATOM     41  C   UNL A   1      36.392  33.079  30.792  1.00  0.00    -0.014 A 
BRANCH  41  42
ATOM     42  C   UNL A   1      37.542  32.479  31.514  1.00  0.00     0.031 A 
ATOM     43  C   UNL A   1      38.298  31.335  30.900  1.00  0.00     0.074 A 
ATOM     44  C   UNL A   1      37.878  32.940  32.734  1.00  0.00     0.049 A 
ATOM     45  N   UNL A   1      39.291  30.641  31.394  1.00  0.00    -0.248 NA
ATOM     46  C   UNL A   1      37.864  30.895  29.564  1.00  0.00     0.031 C 
ATOM     47  C   UNL A   1      37.204  34.033  33.438  1.00  0.00     0.029 A 
ATOM     48  N   UNL A   1      38.872  32.553  33.596  1.00  0.00    -0.354 N 
ATOM     49  C   UNL A   1      39.596  29.683  30.435  1.00  0.00     0.074 A 
ATOM     50  C   UNL A   1      38.642  29.843  29.360  1.00  0.00     0.031 C 
ATOM     51  C   UNL A   1      37.828  34.253  34.606  1.00  0.00     0.029 A 
ATOM     52  C   UNL A   1      38.912  33.287  34.758  1.00  0.00     0.049 A 
ATOM     53  H   UNL A   1      39.498  31.818  33.402  1.00  0.00     0.167 HD
ATOM     54  C   UNL A   1      40.597  28.770  30.440  1.00  0.00     0.034 A 
ATOM     55  C   UNL A   1      39.725  33.191  35.828  1.00  0.00     0.034 A 
ATOM     56  C   UNL A   1      41.550  28.633  31.513  1.00  0.00     0.049 A 
ATOM     57  C   UNL A   1      40.799  32.138  35.836  1.00  0.00     0.074 A 
ATOM     58  C   UNL A   1      42.631  27.774  31.597  1.00  0.00     0.029 A 
ATOM     59  N   UNL A   1      41.530  29.367  32.692  1.00  0.00    -0.354 N 
ATOM     60  N   UNL A   1      41.091  31.253  34.911  1.00  0.00    -0.248 NA
ATOM     61  C   UNL A   1      41.652  32.069  37.029  1.00  0.00     0.031 C 
ATOM     62  C   UNL A   1      43.221  27.937  32.854  1.00  0.00     0.029 A 
ATOM     63  C   UNL A   1      42.557  28.951  33.525  1.00  0.00     0.049 A 
ATOM     64  H   UNL A   1      40.883  30.077  32.904  1.00  0.00     0.167 HD
ATOM     65  C   UNL A   1      42.172  30.530  35.405  1.00  0.00     0.074 A 
ATOM     66  C   UNL A   1      42.486  31.089  36.705  1.00  0.00     0.031 C 
ATOM     67  C   UNL A   1      42.844  29.500  34.831  1.00  0.00     0.034 A 
BRANCH  54  68
ATOM     68  C   UNL A   1      40.697  27.840  29.257  1.00  0.00     0.023 A 
ATOM     69  C   UNL A   1      41.621  28.060  28.221  1.00  0.00     0.031 A 
ATOM     70  C   UNL A   1      39.851  26.721  29.160  1.00  0.00     0.131 A 
ATOM     71  C   UNL A   1      41.637  27.210  27.106  1.00  0.00     0.055 A 
ATOM     72  C   UNL A   1      39.922  25.837  28.083  1.00  0.00     0.041 A 
ATOM     73  F   UNL A   1      38.934  26.474  30.109  1.00  0.00    -0.206 F 
ATOM     74  C   UNL A   1      40.812  26.085  27.041  1.00  0.00     0.022 A 
BRANCH  71  75
ATOM     75  S   UNL A   1      42.678  27.657  25.690  1.00  0.00     0.124 S 
ATOM     76  O   UNL A   1      42.258  26.672  24.695  1.00  0.00    -0.237 OA
ATOM     77  O   UNL A   1      42.283  29.036  25.429  1.00  0.00    -0.237 OA
ATOM     78  O   UNL A   1      44.038  27.482  26.194  1.00  0.00    -0.744 OA
ENDBRANCH  71  75
ENDBRANCH  54  68
BRANCH  55  79
ATOM     79  C   UNL A   1      39.541  34.122  36.975  1.00  0.00     0.023 A 
ATOM     80  C   UNL A   1      38.959  33.684  38.173  1.00  0.00     0.031 A 
ATOM     81  C   UNL A   1      39.989  35.454  36.901  1.00  0.00     0.131 A 
ATOM     82  C   UNL A   1      38.834  34.573  39.253  1.00  0.00     0.055 A 
ATOM     83  C   UNL A   1      39.893  36.323  37.987  1.00  0.00     0.041 A 
ATOM     84  F   UNL A   1      40.566  35.913  35.779  1.00  0.00    -0.206 F 
ATOM     85  C   UNL A   1      39.311  35.884  39.173  1.00  0.00     0.022 A 
BRANCH  82  86
ATOM     86  S   UNL A   1      38.042  33.989  40.777  1.00  0.00     0.124 S 
ATOM     87  O   UNL A   1      37.677  35.246  41.421  1.00  0.00    -0.237 OA
ATOM     88  O   UNL A   1      36.938  33.187  40.260  1.00  0.00    -0.237 OA
ATOM     89  O   UNL A   1      39.099  33.230  41.441  1.00  0.00    -0.744 OA
ENDBRANCH  82  86
ENDBRANCH  55  79
BRANCH  67  90
ATOM     90  C   UNL A   1      43.999  28.910  35.599  1.00  0.00     0.023 A 
ATOM     91  C   UNL A   1      43.823  27.815  36.460  1.00  0.00     0.031 A 
ATOM     92  C   UNL A   1      45.299  29.420  35.427  1.00  0.00     0.131 A 
ATOM     93  C   UNL A   1      44.926  27.280  37.142  1.00  0.00     0.055 A 
ATOM     94  C   UNL A   1      46.400  28.851  36.068  1.00  0.00     0.041 A 
ATOM     95  F   UNL A   1      45.521  30.464  34.614  1.00  0.00    -0.206 F 
ATOM     96  C   UNL A   1      46.216  27.778  36.936  1.00  0.00     0.022 A 
BRANCH  93  97
ATOM     97  S   UNL A   1      44.648  25.949  38.342  1.00  0.00     0.124 S 
ATOM     98  O   UNL A   1      43.760  26.593  39.305  1.00  0.00    -0.237 OA
ATOM     99  O   UNL A   1      44.048  24.905  37.520  1.00  0.00    -0.237 OA
ATOM    100  O   UNL A   1      45.990  25.651  38.840  1.00  0.00    -0.744 OA
ENDBRANCH  93  97
ENDBRANCH  67  90
ENDBRANCH  41  42
ENDBRANCH  33  36
ENDBRANCH   1  32
TORSDOF 14
ENDMDL
MODEL 2
REMARK VINA RESULT:     -13.8      5.690     12.001
REMARK SMILES Cc1cc(C)n(C)c(=O)c1C(=O)N1CCC2(CC1)C[NH2+][C@@H](C(=O)NCCCNC(=O)c1ccc(-c3c4nc(c(-c5cc(S(=O)(=O)[O-])ccc5F)c5ccc([nH]5)c(-c5cc(S(=O)(=O)[O-])ccc5F)c5nc(c(-c6cc(S(=O)(=O)[O-])ccc6F)c6ccc3[nH]6)C=C5)C=C4)cc1)C2
REMARK SMILES IDX 27 1 26 2 25 3 24 4 22 5 23 6 21 8 11 9 12 10 13 11 14 12
REMARK SMILES IDX 18 13 15 14 17 15 16 16 19 17 94 18 20 19 10 22 1 23 2 24
REMARK SMILES IDX 3 25 4 26 8 27 5 28 6 29 9 30 7 31 28 32 29 33 30 35 31 36
REMARK SMILES IDX 32 37 93 38 33 39 92 40 34 41 35 42 36 43 86 44 37 45 91 46
REMARK SMILES IDX 85 47 87 48 38 49 90 50 84 51 83 52 39 54 71 55 51 56 70 57
REMARK SMILES IDX 52 58 55 59 69 60 88 61 53 62 54 63 68 65 89 66 56 67 40 68
REMARK SMILES IDX 41 69 49 70 42 71 48 72 50 73 47 74 43 75 44 76 45 77 46 78
REMARK SMILES IDX 72 79 73 80 81 81 74 82 80 83 82 84 79 85 75 86 76 87 77 88
REMARK SMILES IDX 78 89 57 90 58 91 66 92 59 93 65 94 67 95 64 96 60 97 61 98
REMARK SMILES IDX 62 99 63 100
REMARK H PARENT 24 7 20 20 20 21 28 34 87 53 55 64
REMARK Flexibility Score: inf
ROOT
ATOM      1  C   UNL A   1      39.294  20.136  25.847  1.00  0.00     0.118 C 
ENDROOT
BRANCH   1   2
ATOM      2  C   UNL A   1      38.218  19.695  24.868  1.00  0.00     0.042 C 
BRANCH   2   3
ATOM      3  C   UNL A   1      36.847  20.284  25.162  1.00  0.00     0.118 C 
BRANCH   3   4
ATOM      4  N   UNL A   1      35.766  19.393  24.776  1.00  0.00    -0.351 N 
ATOM      5  C   UNL A   1      34.415  19.548  24.881  1.00  0.00     0.278 C 
ATOM      6  O   UNL A   1      33.695  18.651  24.434  1.00  0.00    -0.268 OA
ATOM      7  H   UNL A   1      36.055  18.541  24.374  1.00  0.00     0.163 HD
BRANCH   5   8
ATOM      8  C   UNL A   1      33.795  20.776  25.557  1.00  0.00     0.273 C 
ATOM      9  C   UNL A   1      32.241  27.005  24.220  1.00  0.00     0.259 C 
ATOM     10  O   UNL A   1      32.799  27.848  24.931  1.00  0.00    -0.269 OA
ATOM     11  N   UNL A   1      32.758  25.717  24.127  1.00  0.00    -0.338 N 
ATOM     12  C   UNL A   1      33.722  25.306  25.136  1.00  0.00     0.120 C 
ATOM     13  C   UNL A   1      32.521  24.711  23.096  1.00  0.00     0.120 C 
ATOM     14  C   UNL A   1      33.105  24.165  25.930  1.00  0.00     0.034 C 
ATOM     15  C   UNL A   1      32.136  23.334  23.678  1.00  0.00     0.034 C 
ATOM     16  C   UNL A   1      32.780  22.942  25.047  1.00  0.00     0.029 C 
ATOM     17  C   UNL A   1      31.845  22.010  25.863  1.00  0.00     0.268 C 
ATOM     18  C   UNL A   1      34.050  22.087  24.820  1.00  0.00     0.088 C 
ATOM     19  N   UNL A   1      32.330  20.659  25.650  1.00  0.00    -0.336 N 
ATOM     20  H   UNL A   1      31.948  20.274  24.786  1.00  0.00     0.346 HD
ATOM     21  H   UNL A   1      32.049  20.033  26.405  1.00  0.00     0.346 HD
BRANCH   9  22
ATOM     22  C   UNL A   1      30.922  27.384  23.606  1.00  0.00     0.108 A 
ATOM     23  C   UNL A   1      29.502  25.807  25.042  1.00  0.00     0.045 C 
ATOM     24  C   UNL A   1      29.739  26.878  24.024  1.00  0.00    -0.031 A 
ATOM     25  C   UNL A   1      28.489  27.466  23.592  1.00  0.00     0.026 A 
ATOM     26  C   UNL A   1      28.441  28.653  22.977  1.00  0.00     0.018 A 
ATOM     27  C   UNL A   1      30.878  28.640  22.755  1.00  0.00     0.263 A 
ATOM     28  C   UNL A   1      27.093  29.272  22.724  1.00  0.00     0.064 C 
ATOM     29  N   UNL A   1      29.627  29.268  22.595  1.00  0.00    -0.315 N 
ATOM     30  O   UNL A   1      31.908  29.088  22.251  1.00  0.00    -0.268 OA
ATOM     31  C   UNL A   1      29.604  30.582  21.963  1.00  0.00     0.153 C 
ENDBRANCH   9  22
ENDBRANCH   5   8
ENDBRANCH   3   4
ENDBRANCH   2   3
ENDBRANCH   1   2
BRANCH   1  32
ATOM     32  N   UNL A   1      40.327  19.126  26.021  1.00  0.00    -0.352 N 
ATOM     33  C   UNL A   1      41.684  19.272  26.175  1.00  0.00     0.251 C 
ATOM     34  H   UNL A   1      40.004  18.197  26.032  1.00  0.00     0.163 HD
ATOM     35  O   UNL A   1      42.408  18.289  26.080  1.00  0.00    -0.269 OA
BRANCH  33  36
ATOM     36  C   UNL A   1      42.262  20.610  26.429  1.00  0.00     0.039 A 
ATOM     37  C   UNL A   1      42.594  21.419  25.340  1.00  0.00     0.014 A 
ATOM     38  C   UNL A   1      42.491  21.058  27.733  1.00  0.00     0.014 A 
ATOM     39  C   UNL A   1      43.104  22.699  25.563  1.00  0.00     0.010 A 
ATOM     40  C   UNL A   1      42.916  22.364  27.954  1.00  0.00     0.010 A 
ATOM     41  C   UNL A   1      43.239  23.193  26.870  1.00  0.00    -0.014 A 
BRANCH  41  42
ATOM     42  C   UNL A   1      43.750  24.563  27.125  1.00  0.00     0.031 A 
ATOM     43  C   UNL A   1      42.819  25.626  27.635  1.00  0.00     0.074 A 
ATOM     44  C   UNL A   1      45.038  24.855  26.863  1.00  0.00     0.049 A 
ATOM     45  N   UNL A   1      43.057  26.891  27.866  1.00  0.00    -0.248 NA
ATOM     46  C   UNL A   1      41.428  25.220  27.895  1.00  0.00     0.031 C 
ATOM     47  C   UNL A   1      46.030  23.909  26.346  1.00  0.00     0.029 A 
ATOM     48  N   UNL A   1      45.736  26.027  26.998  1.00  0.00    -0.354 N 
ATOM     49  C   UNL A   1      41.850  27.432  28.293  1.00  0.00     0.074 A 
ATOM     50  C   UNL A   1      40.867  26.373  28.227  1.00  0.00     0.031 C 
ATOM     51  C   UNL A   1      47.216  24.529  26.245  1.00  0.00     0.029 A 
ATOM     52  C   UNL A   1      47.060  25.926  26.640  1.00  0.00     0.049 A 
ATOM     53  H   UNL A   1      45.329  26.864  27.320  1.00  0.00     0.167 HD
ATOM     54  C   UNL A   1      41.591  28.689  28.725  1.00  0.00     0.034 A 
ATOM     55  C   UNL A   1      48.038  26.853  26.625  1.00  0.00     0.034 A 
ATOM     56  C   UNL A   1      42.586  29.730  28.799  1.00  0.00     0.049 A 
ATOM     57  C   UNL A   1      47.719  28.256  27.061  1.00  0.00     0.074 A 
ATOM     58  C   UNL A   1      42.442  31.024  29.266  1.00  0.00     0.029 A 
ATOM     59  N   UNL A   1      43.906  29.599  28.387  1.00  0.00    -0.354 N 
ATOM     60  N   UNL A   1      46.578  28.747  27.485  1.00  0.00    -0.248 NA
ATOM     61  C   UNL A   1      48.817  29.231  27.017  1.00  0.00     0.031 C 
ATOM     62  C   UNL A   1      43.652  31.696  29.070  1.00  0.00     0.029 A 
ATOM     63  C   UNL A   1      44.575  30.802  28.553  1.00  0.00     0.049 A 
ATOM     64  H   UNL A   1      44.307  28.774  28.030  1.00  0.00     0.167 HD
ATOM     65  C   UNL A   1      46.823  30.087  27.772  1.00  0.00     0.074 A 
ATOM     66  C   UNL A   1      48.224  30.322  27.483  1.00  0.00     0.031 C 
ATOM     67  C   UNL A   1      45.966  31.031  28.237  1.00  0.00     0.034 A 
BRANCH  54  68
ATOM     68  C   UNL A   1      40.174  29.009  29.131  1.00  0.00     0.023 A 
ATOM     69  C   UNL A   1      39.780  29.028  30.480  1.00  0.00     0.031 A 
ATOM     70  C   UNL A   1      39.203  29.291  28.155  1.00  0.00     0.131 A 
ATOM     71  C   UNL A   1      38.438  29.263  30.813  1.00  0.00     0.055 A 
ATOM     72  C   UNL A   1      37.885  29.598  28.496  1.00  0.00     0.041 A 
ATOM     73  F   UNL A   1      39.517  29.266  26.850  1.00  0.00    -0.206 F 
ATOM     74  C   UNL A   1      37.493  29.574  29.832  1.00  0.00     0.022 A 
BRANCH  71  75
ATOM     75  S   UNL A   1      37.923  29.051  32.538  1.00  0.00     0.124 S 
ATOM     76  O   UNL A   1      39.022  29.696  33.254  1.00  0.00    -0.237 OA
ATOM     77  O   UNL A   1      36.642  29.747  32.574  1.00  0.00    -0.237 OA
ATOM     78  O   UNL A   1      37.850  27.600  32.699  1.00  0.00    -0.744 OA
ENDBRANCH  71  75
ENDBRANCH  54  68
BRANCH  55  79
ATOM     79  C   UNL A   1      49.405  26.469  26.176  1.00  0.00     0.023 A 
ATOM     80  C   UNL A   1      49.912  26.917  24.947  1.00  0.00     0.031 A 
ATOM     81  C   UNL A   1      50.239  25.687  26.995  1.00  0.00     0.131 A 
ATOM     82  C   UNL A   1      51.219  26.574  24.566  1.00  0.00     0.055 A 
ATOM     83  C   UNL A   1      51.548  25.378  26.627  1.00  0.00     0.041 A 
ATOM     84  F   UNL A   1      49.802  25.250  28.186  1.00  0.00    -0.206 F 
ATOM     85  C   UNL A   1      52.045  25.821  25.405  1.00  0.00     0.022 A 
BRANCH  82  86
ATOM     86  S   UNL A   1      51.834  27.134  22.954  1.00  0.00     0.124 S 
ATOM     87  O   UNL A   1      50.665  26.935  22.105  1.00  0.00    -0.237 OA
ATOM     88  O   UNL A   1      52.200  28.518  23.230  1.00  0.00    -0.237 OA
ATOM     89  O   UNL A   1      52.959  26.238  22.690  1.00  0.00    -0.744 OA
ENDBRANCH  82  86
ENDBRANCH  55  79
BRANCH  67  90
ATOM     90  C   UNL A   1      46.519  32.413  28.473  1.00  0.00     0.023 A 
ATOM     91  C   UNL A   1      46.674  33.331  27.422  1.00  0.00     0.031 A 
ATOM     92  C   UNL A   1      46.846  32.832  29.776  1.00  0.00     0.131 A 
ATOM     93  C   UNL A   1      47.172  34.616  27.686  1.00  0.00     0.055 A 
ATOM     94  C   UNL A   1      47.292  34.128  30.039  1.00  0.00     0.041 A 
ATOM     95  F   UNL A   1      46.714  31.995  30.817  1.00  0.00    -0.206 F 
ATOM     96  C   UNL A   1      47.463  35.026  28.990  1.00  0.00     0.022 A 
BRANCH  93  97
ATOM     97  S   UNL A   1      47.479  35.735  26.292  1.00  0.00     0.124 S 
ATOM     98  O   UNL A   1      47.473  34.813  25.160  1.00  0.00    -0.237 OA
ATOM     99  O   UNL A   1      46.351  36.655  26.372  1.00  0.00    -0.237 OA
ATOM    100  O   UNL A   1      48.781  36.323  26.605  1.00  0.00    -0.744 OA
ENDBRANCH  93  97
ENDBRANCH  67  90
ENDBRANCH  41  42
ENDBRANCH  33  36
ENDBRANCH   1  32
TORSDOF 14
ENDMDL
MODEL 3
REMARK VINA RESULT:     -13.4      0.900      7.618
REMARK SMILES Cc1cc(C)n(C)c(=O)c1C(=O)N1CCC2(CC1)C[NH2+][C@@H](C(=O)NCCCNC(=O)c1ccc(-c3c4nc(c(-c5cc(S(=O)(=O)[O-])ccc5F)c5ccc([nH]5)c(-c5cc(S(=O)(=O)[O-])ccc5F)c5nc(c(-c6cc(S(=O)(=O)[O-])ccc6F)c6ccc3[nH]6)C=C5)C=C4)cc1)C2
REMARK SMILES IDX 27 1 26 2 25 3 24 4 22 5 23 6 21 8 11 9 12 10 13 11 14 12
REMARK SMILES IDX 18 13 15 14 17 15 16 16 19 17 94 18 20 19 10 22 1 23 2 24
REMARK SMILES IDX 3 25 4 26 8 27 5 28 6 29 9 30 7 31 28 32 29 33 30 35 31 36
REMARK SMILES IDX 32 37 93 38 33 39 92 40 34 41 35 42 36 43 86 44 37 45 91 46
REMARK SMILES IDX 85 47 87 48 38 49 90 50 84 51 83 52 39 54 71 55 51 56 70 57
REMARK SMILES IDX 52 58 55 59 69 60 88 61 53 62 54 63 68 65 89 66 56 67 40 68
REMARK SMILES IDX 41 69 49 70 42 71 48 72 50 73 47 74 43 75 44 76 45 77 46 78
REMARK SMILES IDX 72 79 73 80 81 81 74 82 80 83 82 84 79 85 75 86 76 87 77 88
REMARK SMILES IDX 78 89 57 90 58 91 66 92 59 93 65 94 67 95 64 96 60 97 61 98
REMARK SMILES IDX 62 99 63 100
REMARK H PARENT 24 7 20 20 20 21 28 34 87 53 55 64
REMARK Flexibility Score: inf
ROOT
ATOM      1  C   UNL A   1      32.688  32.747  27.352  1.00  0.00     0.118 C 
ENDROOT
BRANCH   1   2
ATOM      2  C   UNL A   1      31.416  32.454  26.574  1.00  0.00     0.042 C 
BRANCH   2   3
ATOM      3  C   UNL A   1      31.440  31.118  25.848  1.00  0.00     0.118 C 
BRANCH   3   4
ATOM      4  N   UNL A   1      30.358  30.990  24.886  1.00  0.00    -0.351 N 
ATOM      5  C   UNL A   1      30.200  30.119  23.848  1.00  0.00     0.278 C 
ATOM      6  O   UNL A   1      29.155  30.187  23.193  1.00  0.00    -0.268 OA
ATOM      7  H   UNL A   1      29.622  31.635  25.002  1.00  0.00     0.163 HD
BRANCH   5   8
ATOM      8  C   UNL A   1      31.285  29.105  23.473  1.00  0.00     0.273 C 
ATOM      9  C   UNL A   1      33.371  23.120  25.155  1.00  0.00     0.259 C 
ATOM     10  O   UNL A   1      34.538  23.066  25.560  1.00  0.00    -0.269 OA
ATOM     11  N   UNL A   1      32.691  24.333  25.143  1.00  0.00    -0.338 N 
ATOM     12  C   UNL A   1      33.481  25.548  25.268  1.00  0.00     0.120 C 
ATOM     13  C   UNL A   1      31.252  24.572  25.089  1.00  0.00     0.120 C 
ATOM     14  C   UNL A   1      33.330  26.336  23.978  1.00  0.00     0.034 C 
ATOM     15  C   UNL A   1      30.852  25.589  24.000  1.00  0.00     0.034 C 
ATOM     16  C   UNL A   1      31.866  26.740  23.702  1.00  0.00     0.029 C 
ATOM     17  C   UNL A   1      31.777  27.203  22.224  1.00  0.00     0.268 C 
ATOM     18  C   UNL A   1      31.495  28.007  24.511  1.00  0.00     0.088 C 
ATOM     19  N   UNL A   1      30.959  28.402  22.222  1.00  0.00    -0.336 N 
ATOM     20  H   UNL A   1      29.969  28.158  22.198  1.00  0.00     0.346 HD
ATOM     21  H   UNL A   1      31.142  28.983  21.403  1.00  0.00     0.346 HD
BRANCH   9  22
ATOM     22  C   UNL A   1      32.795  21.873  24.544  1.00  0.00     0.108 A 
ATOM     23  C   UNL A   1      32.770  22.750  22.136  1.00  0.00     0.045 C 
ATOM     24  C   UNL A   1      32.593  21.727  23.214  1.00  0.00    -0.031 A 
ATOM     25  C   UNL A   1      32.293  20.428  22.650  1.00  0.00     0.026 A 
ATOM     26  C   UNL A   1      32.441  19.300  23.353  1.00  0.00     0.018 A 
ATOM     27  C   UNL A   1      32.792  20.613  25.389  1.00  0.00     0.263 A 
ATOM     28  C   UNL A   1      32.281  17.986  22.638  1.00  0.00     0.064 C 
ATOM     29  N   UNL A   1      32.733  19.379  24.710  1.00  0.00    -0.315 N 
ATOM     30  O   UNL A   1      32.859  20.684  26.617  1.00  0.00    -0.268 OA
ATOM     31  C   UNL A   1      32.943  18.165  25.489  1.00  0.00     0.153 C 
ENDBRANCH   9  22
ENDBRANCH   5   8
ENDBRANCH   3   4
ENDBRANCH   2   3
ENDBRANCH   1   2
BRANCH   1  32
ATOM     32  N   UNL A   1      32.709  34.103  27.881  1.00  0.00    -0.352 N 
ATOM     33  C   UNL A   1      33.458  34.638  28.900  1.00  0.00     0.251 C 
ATOM     34  H   UNL A   1      32.093  34.732  27.442  1.00  0.00     0.163 HD
ATOM     35  O   UNL A   1      33.166  35.742  29.344  1.00  0.00    -0.269 OA
BRANCH  33  36
ATOM     36  C   UNL A   1      34.592  33.876  29.467  1.00  0.00     0.039 A 
ATOM     37  C   UNL A   1      35.893  34.233  29.106  1.00  0.00     0.014 A 
ATOM     38  C   UNL A   1      34.374  32.803  30.337  1.00  0.00     0.014 A 
ATOM     39  C   UNL A   1      36.975  33.549  29.662  1.00  0.00     0.010 A 
ATOM     40  C   UNL A   1      35.452  32.182  30.956  1.00  0.00     0.010 A 
ATOM     41  C   UNL A   1      36.764  32.540  30.615  1.00  0.00    -0.014 A 
BRANCH  41  42
ATOM     42  C   UNL A   1      37.904  31.824  31.240  1.00  0.00     0.031 A 
ATOM     43  C   UNL A   1      38.362  32.206  32.620  1.00  0.00     0.074 A 
ATOM     44  C   UNL A   1      38.545  30.859  30.553  1.00  0.00     0.049 A 
ATOM     45  N   UNL A   1      39.368  31.741  33.314  1.00  0.00    -0.248 NA
ATOM     46  C   UNL A   1      37.604  33.269  33.299  1.00  0.00     0.031 C 
ATOM     47  C   UNL A   1      38.201  30.418  29.199  1.00  0.00     0.029 A 
ATOM     48  N   UNL A   1      39.614  30.074  30.897  1.00  0.00    -0.354 N 
ATOM     49  C   UNL A   1      39.368  32.456  34.505  1.00  0.00     0.074 A 
ATOM     50  C   UNL A   1      38.302  33.429  34.413  1.00  0.00     0.031 C 
ATOM     51  C   UNL A   1      39.020  29.415  28.845  1.00  0.00     0.029 A 
ATOM     52  C   UNL A   1      39.976  29.175  29.921  1.00  0.00     0.049 A 
ATOM     53  H   UNL A   1      40.080  30.146  31.762  1.00  0.00     0.167 HD
ATOM     54  C   UNL A   1      40.167  32.297  35.588  1.00  0.00     0.034 A 
ATOM     55  C   UNL A   1      40.970  28.265  29.892  1.00  0.00     0.034 A 
ATOM     56  C   UNL A   1      41.216  31.312  35.670  1.00  0.00     0.049 A 
ATOM     57  C   UNL A   1      41.878  28.139  31.084  1.00  0.00     0.074 A 
ATOM     58  C   UNL A   1      42.052  31.035  36.736  1.00  0.00     0.029 A 
ATOM     59  N   UNL A   1      41.580  30.450  34.643  1.00  0.00    -0.354 N 
ATOM     60  N   UNL A   1      41.851  28.806  32.214  1.00  0.00    -0.248 NA
ATOM     61  C   UNL A   1      42.950  27.139  30.998  1.00  0.00     0.031 C 
ATOM     62  C   UNL A   1      42.967  30.057  36.332  1.00  0.00     0.029 A 
ATOM     63  C   UNL A   1      42.654  29.668  35.040  1.00  0.00     0.049 A 
ATOM     64  H   UNL A   1      41.139  30.400  33.765  1.00  0.00     0.167 HD
ATOM     65  C   UNL A   1      42.894  28.297  32.982  1.00  0.00     0.074 A 
ATOM     66  C   UNL A   1      43.524  27.259  32.189  1.00  0.00     0.031 C 
ATOM     67  C   UNL A   1      43.289  28.654  34.230  1.00  0.00     0.034 A 
BRANCH  54  68
ATOM     68  C   UNL A   1      39.947  33.223  36.757  1.00  0.00     0.023 A 
ATOM     69  C   UNL A   1      39.237  32.813  37.899  1.00  0.00     0.031 A 
ATOM     70  C   UNL A   1      40.448  34.537  36.728  1.00  0.00     0.131 A 
ATOM     71  C   UNL A   1      38.996  33.724  38.937  1.00  0.00     0.055 A 
ATOM     72  C   UNL A   1      40.268  35.416  37.796  1.00  0.00     0.041 A 
ATOM     73  F   UNL A   1      41.115  34.989  35.655  1.00  0.00    -0.206 F 
ATOM     74  C   UNL A   1      39.528  35.016  38.905  1.00  0.00     0.022 A 
BRANCH  71  75
ATOM     75  S   UNL A   1      37.884  33.232  40.282  1.00  0.00     0.124 S 
ATOM     76  O   UNL A   1      38.555  32.040  40.797  1.00  0.00    -0.237 OA
ATOM     77  O   UNL A   1      37.902  34.402  41.153  1.00  0.00    -0.237 OA
ATOM     78  O   UNL A   1      36.614  32.980  39.603  1.00  0.00    -0.744 OA
ENDBRANCH  71  75
ENDBRANCH  54  68
BRANCH  55  79
ATOM     79  C   UNL A   1      41.147  27.412  28.685  1.00  0.00     0.023 A 
ATOM     80  C   UNL A   1      42.111  27.724  27.716  1.00  0.00     0.031 A 
ATOM     81  C   UNL A   1      40.383  26.244  28.510  1.00  0.00     0.131 A 
ATOM     82  C   UNL A   1      42.285  26.881  26.608  1.00  0.00     0.055 A 
ATOM     83  C   UNL A   1      40.582  25.391  27.425  1.00  0.00     0.041 A 
ATOM     84  F   UNL A   1      39.459  25.896  29.419  1.00  0.00    -0.206 F 
ATOM     85  C   UNL A   1      41.538  25.708  26.465  1.00  0.00     0.022 A 
BRANCH  82  86
ATOM     86  S   UNL A   1      43.513  27.331  25.351  1.00  0.00     0.124 S 
ATOM     87  O   UNL A   1      44.353  28.273  26.081  1.00  0.00    -0.237 OA
ATOM     88  O   UNL A   1      44.116  26.040  25.036  1.00  0.00    -0.237 OA
ATOM     89  O   UNL A   1      42.706  27.913  24.280  1.00  0.00    -0.744 OA
ENDBRANCH  82  86
ENDBRANCH  55  79
BRANCH  67  90
ATOM     90  C   UNL A   1      44.456  27.911  34.827  1.00  0.00     0.023 A 
ATOM     91  C   UNL A   1      44.285  26.680  35.480  1.00  0.00     0.031 A 
ATOM     92  C   UNL A   1      45.762  28.419  34.696  1.00  0.00     0.131 A 
ATOM     93  C   UNL A   1      45.399  26.007  36.004  1.00  0.00     0.055 A 
ATOM     94  C   UNL A   1      46.872  27.720  35.174  1.00  0.00     0.041 A 
ATOM     95  F   UNL A   1      45.981  29.590  34.079  1.00  0.00    -0.206 F 
ATOM     96  C   UNL A   1      46.693  26.510  35.838  1.00  0.00     0.022 A 
BRANCH  93  97
ATOM     97  S   UNL A   1      45.132  24.484  36.951  1.00  0.00     0.124 S 
ATOM     98  O   UNL A   1      46.495  23.983  37.105  1.00  0.00    -0.237 OA
ATOM     99  O   UNL A   1      44.492  24.975  38.165  1.00  0.00    -0.237 OA
ATOM    100  O   UNL A   1      44.273  23.685  36.078  1.00  0.00    -0.744 OA
ENDBRANCH  93  97
ENDBRANCH  67  90
ENDBRANCH  41  42
ENDBRANCH  33  36
ENDBRANCH   1  32
TORSDOF 14
ENDMDL
