MODEL 1
REMARK VINA RESULT:     -14.2      0.000      0.000
REMARK SMILES Cc1cccc(-n2ncc(C(=O)Nc3cccc(C(=O)NCCCNC(=O)c4ccc(-c5c6nc(c(-c7cc(S(=O)(=O)[O-])ccc7F)c7ccc([nH]7)c(-c7cc(S(=O)(=O)[O-])ccc7F)c7nc(c(-c8cc(S(=O)(=O)[O-])ccc8F)c8ccc5[nH]8)C=C7)C=C6)cc4)c3C)c2C)c1
REMARK SMILES IDX 23 1 22 2 21 3 19 4 20 5 18 7 14 8 15 9 91 10 16 11 92 12
REMARK SMILES IDX 17 13 13 14 11 15 12 16 10 18 7 19 8 20 93 21 9 22 94 23
REMARK SMILES IDX 6 24 1 25 2 26 3 27 95 28 4 29 5 30 24 31 25 32 26 33 27 35
REMARK SMILES IDX 28 36 29 37 90 38 30 39 89 40 31 41 32 42 33 43 83 44 34 45
REMARK SMILES IDX 88 46 82 47 84 48 35 49 87 50 81 51 80 52 36 54 68 55 48 56
REMARK SMILES IDX 67 57 49 58 52 59 66 60 85 61 50 62 51 63 65 65 86 66 53 67
REMARK SMILES IDX 37 68 38 69 46 70 39 71 45 72 47 73 44 74 40 75 41 76 42 77
REMARK SMILES IDX 43 78 69 79 70 80 78 81 71 82 77 83 79 84 76 85 72 86 73 87
REMARK SMILES IDX 74 88 75 89 54 90 55 91 63 92 56 93 62 94 64 95 61 96 57 97
REMARK SMILES IDX 58 98 59 99 60 100
REMARK H PARENT 21 6 13 17 25 34 84 53 52 64
REMARK Flexibility Score: inf
ROOT
ATOM      1  C   UNL A   1      32.979  31.296  27.314  1.00  0.00     0.042 C 
ENDROOT
BRANCH   1   2
ATOM      2  C   UNL A   1      32.223  30.449  26.288  1.00  0.00     0.118 C 
BRANCH   2   3
ATOM      3  N   UNL A   1      33.140  29.738  25.405  1.00  0.00    -0.352 N 
ATOM      4  C   UNL A   1      33.042  28.617  24.613  1.00  0.00     0.251 C 
ATOM      5  O   UNL A   1      34.056  28.310  23.986  1.00  0.00    -0.269 OA
ATOM      6  H   UNL A   1      34.031  30.154  25.366  1.00  0.00     0.163 HD
BRANCH   4   7
ATOM      7  C   UNL A   1      31.785  27.792  24.459  1.00  0.00     0.044 A 
ATOM      8  C   UNL A   1      30.346  25.927  25.094  1.00  0.00     0.045 A 
ATOM      9  C   UNL A   1      29.558  26.128  23.955  1.00  0.00     0.026 A 
ATOM     10  C   UNL A   1      31.402  26.815  25.423  1.00  0.00    -0.015 A 
ATOM     11  C   UNL A   1      29.845  27.168  23.095  1.00  0.00     0.003 A 
ATOM     12  C   UNL A   1      32.160  26.601  26.714  1.00  0.00     0.047 C 
ATOM     13  C   UNL A   1      30.953  27.973  23.343  1.00  0.00     0.014 A 
BRANCH   8  14
ATOM     14  N   UNL A   1      30.083  24.804  25.898  1.00  0.00    -0.322 N 
ATOM     15  C   UNL A   1      30.651  23.548  25.840  1.00  0.00     0.259 C 
ATOM     16  O   UNL A   1      30.048  22.613  26.368  1.00  0.00    -0.269 OA
ATOM     17  H   UNL A   1      29.400  24.930  26.597  1.00  0.00     0.170 HD
BRANCH  15  18
ATOM     18  C   UNL A   1      31.992  23.378  25.271  1.00  0.00     0.081 A 
ATOM     19  N   UNL A   1      34.187  23.022  25.040  1.00  0.00    -0.237 N 
ATOM     20  N   UNL A   1      33.767  23.441  23.825  1.00  0.00    -0.175 NA
ATOM     21  C   UNL A   1      33.161  23.092  25.977  1.00  0.00     0.054 A 
ATOM     22  C   UNL A   1      32.459  23.623  23.961  1.00  0.00     0.149 A 
ATOM     23  C   UNL A   1      33.355  23.022  27.451  1.00  0.00     0.068 C 
BRANCH  19  24
ATOM     24  C   UNL A   1      35.547  22.638  25.200  1.00  0.00     0.065 A 
ATOM     25  C   UNL A   1      37.590  19.439  24.865  1.00  0.00     0.044 C 
ATOM     26  C   UNL A   1      37.220  20.869  25.123  1.00  0.00    -0.049 A 
ATOM     27  C   UNL A   1      38.210  21.815  25.410  1.00  0.00     0.003 A 
ATOM     28  C   UNL A   1      35.885  21.283  25.046  1.00  0.00     0.031 A 
ATOM     29  C   UNL A   1      37.870  23.154  25.619  1.00  0.00     0.002 A 
ATOM     30  C   UNL A   1      36.541  23.569  25.511  1.00  0.00     0.028 A 
ENDBRANCH  19  24
ENDBRANCH  15  18
ENDBRANCH   8  14
ENDBRANCH   4   7
ENDBRANCH   2   3
ENDBRANCH   1   2
BRANCH   1  31
ATOM     31  C   UNL A   1      34.323  30.716  27.737  1.00  0.00     0.118 C 
BRANCH  31  32
ATOM     32  N   UNL A   1      35.075  31.628  28.597  1.00  0.00    -0.352 N 
ATOM     33  C   UNL A   1      36.295  31.422  29.232  1.00  0.00     0.251 C 
ATOM     34  H   UNL A   1      34.661  32.509  28.747  1.00  0.00     0.163 HD
ATOM     35  O   UNL A   1      36.817  32.253  29.930  1.00  0.00    -0.269 OA
BRANCH  33  36
ATOM     36  C   UNL A   1      36.995  30.155  28.920  1.00  0.00     0.039 A 
ATOM     37  C   UNL A   1      37.139  29.243  29.970  1.00  0.00     0.014 A 
ATOM     38  C   UNL A   1      37.737  30.043  27.749  1.00  0.00     0.014 A 
ATOM     39  C   UNL A   1      38.201  28.348  29.940  1.00  0.00     0.010 A 
ATOM     40  C   UNL A   1      38.843  29.212  27.760  1.00  0.00     0.010 A 
ATOM     41  C   UNL A   1      39.115  28.423  28.888  1.00  0.00    -0.014 A 
BRANCH  41  42
ATOM     42  C   UNL A   1      40.457  27.852  28.975  1.00  0.00     0.031 A 
ATOM     43  C   UNL A   1      40.715  26.450  28.594  1.00  0.00     0.074 A 
ATOM     44  C   UNL A   1      41.491  28.628  29.371  1.00  0.00     0.049 A 
ATOM     45  N   UNL A   1      41.742  25.765  28.970  1.00  0.00    -0.248 NA
ATOM     46  C   UNL A   1      39.767  25.671  27.810  1.00  0.00     0.031 C 
ATOM     47  C   UNL A   1      42.917  28.334  29.256  1.00  0.00     0.029 A 
ATOM     48  N   UNL A   1      41.430  29.730  30.223  1.00  0.00    -0.354 N 
ATOM     49  C   UNL A   1      41.756  24.593  28.251  1.00  0.00     0.074 A 
ATOM     50  C   UNL A   1      40.454  24.539  27.633  1.00  0.00     0.031 C 
ATOM     51  C   UNL A   1      43.580  29.031  30.189  1.00  0.00     0.029 A 
ATOM     52  C   UNL A   1      42.590  29.690  31.020  1.00  0.00     0.049 A 
ATOM     53  H   UNL A   1      40.716  30.405  30.259  1.00  0.00     0.167 HD
ATOM     54  C   UNL A   1      42.924  23.889  28.156  1.00  0.00     0.034 A 
ATOM     55  C   UNL A   1      42.516  29.608  32.378  1.00  0.00     0.034 A 
ATOM     56  C   UNL A   1      43.941  24.414  29.076  1.00  0.00     0.049 A 
ATOM     57  C   UNL A   1      43.218  28.399  32.953  1.00  0.00     0.074 A 
ATOM     58  C   UNL A   1      45.082  25.182  28.905  1.00  0.00     0.029 A 
ATOM     59  N   UNL A   1      43.708  24.372  30.449  1.00  0.00    -0.354 N 
ATOM     60  N   UNL A   1      43.579  27.359  32.253  1.00  0.00    -0.248 NA
ATOM     61  C   UNL A   1      43.554  28.264  34.365  1.00  0.00     0.031 C 
ATOM     62  C   UNL A   1      45.505  25.639  30.184  1.00  0.00     0.029 A 
ATOM     63  C   UNL A   1      44.640  25.127  31.136  1.00  0.00     0.049 A 
ATOM     64  H   UNL A   1      42.976  23.868  30.875  1.00  0.00     0.167 HD
ATOM     65  C   UNL A   1      44.164  26.426  33.075  1.00  0.00     0.074 A 
ATOM     66  C   UNL A   1      44.146  27.057  34.384  1.00  0.00     0.031 C 
ATOM     67  C   UNL A   1      44.598  25.218  32.595  1.00  0.00     0.034 A 
BRANCH  54  68
ATOM     68  C   UNL A   1      43.251  22.919  27.026  1.00  0.00     0.023 A 
ATOM     69  C   UNL A   1      42.700  21.617  27.055  1.00  0.00     0.031 A 
ATOM     70  C   UNL A   1      44.140  23.154  25.957  1.00  0.00     0.131 A 
ATOM     71  C   UNL A   1      43.104  20.618  26.145  1.00  0.00     0.055 A 
ATOM     72  C   UNL A   1      44.577  22.151  25.080  1.00  0.00     0.041 A 
ATOM     73  F   UNL A   1      44.595  24.374  25.659  1.00  0.00    -0.206 F 
ATOM     74  C   UNL A   1      44.070  20.870  25.178  1.00  0.00     0.022 A 
BRANCH  71  75
ATOM     75  S   UNL A   1      42.360  18.965  26.244  1.00  0.00     0.124 S 
ATOM     76  O   UNL A   1      43.226  18.182  25.370  1.00  0.00    -0.237 OA
ATOM     77  O   UNL A   1      42.441  18.674  27.670  1.00  0.00    -0.237 OA
ATOM     78  O   UNL A   1      41.002  19.174  25.738  1.00  0.00    -0.744 OA
ENDBRANCH  71  75
ENDBRANCH  54  68
BRANCH  55  79
ATOM     79  C   UNL A   1      41.316  30.284  32.947  1.00  0.00     0.023 A 
ATOM     80  C   UNL A   1      41.319  31.695  32.928  1.00  0.00     0.031 A 
ATOM     81  C   UNL A   1      40.086  29.633  33.104  1.00  0.00     0.131 A 
ATOM     82  C   UNL A   1      40.114  32.404  32.861  1.00  0.00     0.055 A 
ATOM     83  C   UNL A   1      38.884  30.354  33.130  1.00  0.00     0.041 A 
ATOM     84  F   UNL A   1      40.015  28.294  33.103  1.00  0.00    -0.206 F 
ATOM     85  C   UNL A   1      38.891  31.741  32.958  1.00  0.00     0.022 A 
BRANCH  82  86
ATOM     86  S   UNL A   1      40.167  34.141  32.322  1.00  0.00     0.124 S 
ATOM     87  O   UNL A   1      41.102  34.730  33.274  1.00  0.00    -0.237 OA
ATOM     88  O   UNL A   1      40.640  34.040  30.941  1.00  0.00    -0.237 OA
ATOM     89  O   UNL A   1      38.779  34.581  32.438  1.00  0.00    -0.744 OA
ENDBRANCH  82  86
ENDBRANCH  55  79
BRANCH  67  90
ATOM     90  C   UNL A   1      45.093  24.034  33.416  1.00  0.00     0.023 A 
ATOM     91  C   UNL A   1      46.406  23.896  33.891  1.00  0.00     0.031 A 
ATOM     92  C   UNL A   1      44.204  22.998  33.807  1.00  0.00     0.131 A 
ATOM     93  C   UNL A   1      46.808  22.769  34.635  1.00  0.00     0.055 A 
ATOM     94  C   UNL A   1      44.588  21.912  34.602  1.00  0.00     0.041 A 
ATOM     95  F   UNL A   1      42.912  22.997  33.447  1.00  0.00    -0.206 F 
ATOM     96  C   UNL A   1      45.903  21.782  35.011  1.00  0.00     0.022 A 
BRANCH  93  97
ATOM     97  S   UNL A   1      48.563  22.602  35.065  1.00  0.00     0.124 S 
ATOM     98  O   UNL A   1      49.156  23.730  34.351  1.00  0.00    -0.237 OA
ATOM     99  O   UNL A   1      48.541  22.715  36.519  1.00  0.00    -0.237 OA
ATOM    100  O   UNL A   1      48.923  21.282  34.549  1.00  0.00    -0.744 OA
ENDBRANCH  93  97
ENDBRANCH  67  90
ENDBRANCH  41  42
ENDBRANCH  33  36
ENDBRANCH  31  32
ENDBRANCH   1  31
TORSDOF 16
ENDMDL
MODEL 2
REMARK VINA RESULT:     -14.1      3.856     10.471
REMARK SMILES Cc1cccc(-n2ncc(C(=O)Nc3cccc(C(=O)NCCCNC(=O)c4ccc(-c5c6nc(c(-c7cc(S(=O)(=O)[O-])ccc7F)c7ccc([nH]7)c(-c7cc(S(=O)(=O)[O-])ccc7F)c7nc(c(-c8cc(S(=O)(=O)[O-])ccc8F)c8ccc5[nH]8)C=C7)C=C6)cc4)c3C)c2C)c1
REMARK SMILES IDX 23 1 22 2 21 3 19 4 20 5 18 7 14 8 15 9 91 10 16 11 92 12
REMARK SMILES IDX 17 13 13 14 11 15 12 16 10 18 7 19 8 20 93 21 9 22 94 23
REMARK SMILES IDX 6 24 1 25 2 26 3 27 95 28 4 29 5 30 24 31 25 32 26 33 27 35
REMARK SMILES IDX 28 36 29 37 90 38 30 39 89 40 31 41 32 42 33 43 83 44 34 45
REMARK SMILES IDX 88 46 82 47 84 48 35 49 87 50 81 51 80 52 36 54 68 55 48 56
REMARK SMILES IDX 67 57 49 58 52 59 66 60 85 61 50 62 51 63 65 65 86 66 53 67
REMARK SMILES IDX 37 68 38 69 46 70 39 71 45 72 47 73 44 74 40 75 41 76 42 77
REMARK SMILES IDX 43 78 69 79 70 80 78 81 71 82 77 83 79 84 76 85 72 86 73 87
REMARK SMILES IDX 74 88 75 89 54 90 55 91 63 92 56 93 62 94 64 95 61 96 57 97
REMARK SMILES IDX 58 98 59 99 60 100
REMARK H PARENT 21 6 13 17 25 34 84 53 52 64
REMARK Flexibility Score: inf
ROOT
ATOM      1  C   UNL A   1      38.583  21.261  25.634  1.00  0.00     0.042 C 
ENDROOT
BRANCH   1   2
ATOM      2  C   UNL A   1      37.106  21.117  25.257  1.00  0.00     0.118 C 
BRANCH   2   3
ATOM      3  N   UNL A   1      36.247  21.857  26.175  1.00  0.00    -0.352 N 
ATOM      4  C   UNL A   1      34.963  22.343  26.113  1.00  0.00     0.251 C 
ATOM      5  O   UNL A   1      34.560  22.933  27.115  1.00  0.00    -0.269 OA
ATOM      6  H   UNL A   1      36.687  22.053  27.034  1.00  0.00     0.163 HD
BRANCH   4   7
ATOM      7  C   UNL A   1      34.044  22.167  24.926  1.00  0.00     0.044 A 
ATOM      8  C   UNL A   1      33.091  22.930  22.812  1.00  0.00     0.045 A 
ATOM      9  C   UNL A   1      32.120  21.923  22.870  1.00  0.00     0.026 A 
ATOM     10  C   UNL A   1      34.130  23.004  23.775  1.00  0.00    -0.015 A 
ATOM     11  C   UNL A   1      32.125  21.022  23.915  1.00  0.00     0.003 A 
ATOM     12  C   UNL A   1      35.204  24.056  23.609  1.00  0.00     0.047 C 
ATOM     13  C   UNL A   1      33.067  21.159  24.931  1.00  0.00     0.014 A 
BRANCH   8  14
ATOM     14  N   UNL A   1      33.000  23.887  21.786  1.00  0.00    -0.322 N 
ATOM     15  C   UNL A   1      32.376  25.116  21.805  1.00  0.00     0.259 C 
ATOM     16  O   UNL A   1      32.093  25.640  20.727  1.00  0.00    -0.269 OA
ATOM     17  H   UNL A   1      33.441  23.646  20.939  1.00  0.00     0.170 HD
BRANCH  15  18
ATOM     18  C   UNL A   1      32.177  25.816  23.079  1.00  0.00     0.081 A 
ATOM     19  N   UNL A   1      32.380  27.242  24.788  1.00  0.00    -0.237 N 
ATOM     20  N   UNL A   1      31.505  26.302  25.214  1.00  0.00    -0.175 NA
ATOM     21  C   UNL A   1      32.906  26.911  23.544  1.00  0.00     0.054 A 
ATOM     22  C   UNL A   1      31.367  25.475  24.184  1.00  0.00     0.149 A 
ATOM     23  C   UNL A   1      34.115  27.539  22.943  1.00  0.00     0.068 C 
BRANCH  19  24
ATOM     24  C   UNL A   1      32.665  28.346  25.638  1.00  0.00     0.065 A 
ATOM     25  C   UNL A   1      31.160  31.776  26.338  1.00  0.00     0.044 C 
ATOM     26  C   UNL A   1      32.068  30.584  26.393  1.00  0.00    -0.049 A 
ATOM     27  C   UNL A   1      33.103  30.526  27.332  1.00  0.00     0.003 A 
ATOM     28  C   UNL A   1      31.871  29.501  25.529  1.00  0.00     0.031 A 
ATOM     29  C   UNL A   1      33.930  29.402  27.405  1.00  0.00     0.002 A 
ATOM     30  C   UNL A   1      33.712  28.310  26.564  1.00  0.00     0.028 A 
ENDBRANCH  19  24
ENDBRANCH  15  18
ENDBRANCH   8  14
ENDBRANCH   4   7
ENDBRANCH   2   3
ENDBRANCH   1   2
BRANCH   1  31
ATOM     31  C   UNL A   1      38.979  22.660  26.093  1.00  0.00     0.118 C 
BRANCH  31  32
ATOM     32  N   UNL A   1      40.411  22.770  26.362  1.00  0.00    -0.352 N 
ATOM     33  C   UNL A   1      41.142  23.886  26.755  1.00  0.00     0.251 C 
ATOM     34  H   UNL A   1      40.930  21.940  26.251  1.00  0.00     0.163 HD
ATOM     35  O   UNL A   1      42.332  23.857  26.938  1.00  0.00    -0.269 OA
BRANCH  33  36
ATOM     36  C   UNL A   1      40.365  25.112  27.049  1.00  0.00     0.039 A 
ATOM     37  C   UNL A   1      40.682  26.251  26.304  1.00  0.00     0.014 A 
ATOM     38  C   UNL A   1      39.610  25.190  28.215  1.00  0.00     0.014 A 
ATOM     39  C   UNL A   1      40.438  27.503  26.853  1.00  0.00     0.010 A 
ATOM     40  C   UNL A   1      39.447  26.433  28.799  1.00  0.00     0.010 A 
ATOM     41  C   UNL A   1      39.929  27.580  28.151  1.00  0.00    -0.014 A 
BRANCH  41  42
ATOM     42  C   UNL A   1      40.040  28.790  28.964  1.00  0.00     0.031 A 
ATOM     43  C   UNL A   1      39.005  29.840  28.913  1.00  0.00     0.074 A 
ATOM     44  C   UNL A   1      41.086  28.935  29.810  1.00  0.00     0.049 A 
ATOM     45  N   UNL A   1      39.182  31.062  29.288  1.00  0.00    -0.248 NA
ATOM     46  C   UNL A   1      37.688  29.605  28.340  1.00  0.00     0.031 C 
ATOM     47  C   UNL A   1      41.227  29.911  30.886  1.00  0.00     0.029 A 
ATOM     48  N   UNL A   1      42.359  28.389  29.665  1.00  0.00    -0.354 N 
ATOM     49  C   UNL A   1      37.954  31.682  29.303  1.00  0.00     0.074 A 
ATOM     50  C   UNL A   1      37.086  30.768  28.602  1.00  0.00     0.031 C 
ATOM     51  C   UNL A   1      42.531  30.102  31.130  1.00  0.00     0.029 A 
ATOM     52  C   UNL A   1      43.270  29.357  30.128  1.00  0.00     0.049 A 
ATOM     53  H   UNL A   1      42.580  27.499  29.308  1.00  0.00     0.167 HD
ATOM     54  C   UNL A   1      37.800  32.826  30.034  1.00  0.00     0.034 A 
ATOM     55  C   UNL A   1      44.238  29.870  29.316  1.00  0.00     0.034 A 
ATOM     56  C   UNL A   1      39.094  33.339  30.504  1.00  0.00     0.049 A 
ATOM     57  C   UNL A   1      44.169  31.371  29.161  1.00  0.00     0.074 A 
ATOM     58  C   UNL A   1      39.731  33.345  31.735  1.00  0.00     0.029 A 
ATOM     59  N   UNL A   1      40.050  33.738  29.573  1.00  0.00    -0.354 N 
ATOM     60  N   UNL A   1      43.131  32.095  29.478  1.00  0.00    -0.248 NA
ATOM     61  C   UNL A   1      45.261  32.172  28.622  1.00  0.00     0.031 C 
ATOM     62  C   UNL A   1      41.091  33.705  31.527  1.00  0.00     0.029 A 
ATOM     63  C   UNL A   1      41.276  33.947  30.177  1.00  0.00     0.049 A 
ATOM     64  H   UNL A   1      39.876  33.856  28.610  1.00  0.00     0.167 HD
ATOM     65  C   UNL A   1      43.379  33.415  29.190  1.00  0.00     0.074 A 
ATOM     66  C   UNL A   1      44.739  33.409  28.680  1.00  0.00     0.031 C 
ATOM     67  C   UNL A   1      42.430  34.384  29.392  1.00  0.00     0.034 A 
BRANCH  54  68
ATOM     68  C   UNL A   1      36.465  33.322  30.579  1.00  0.00     0.023 A 
ATOM     69  C   UNL A   1      35.589  34.026  29.719  1.00  0.00     0.031 A 
ATOM     70  C   UNL A   1      36.023  33.228  31.913  1.00  0.00     0.131 A 
ATOM     71  C   UNL A   1      34.429  34.667  30.201  1.00  0.00     0.055 A 
ATOM     72  C   UNL A   1      34.895  33.901  32.405  1.00  0.00     0.041 A 
ATOM     73  F   UNL A   1      36.617  32.437  32.810  1.00  0.00    -0.206 F 
ATOM     74  C   UNL A   1      34.097  34.638  31.551  1.00  0.00     0.022 A 
BRANCH  71  75
ATOM     75  S   UNL A   1      33.353  35.558  29.043  1.00  0.00     0.124 S 
ATOM     76  O   UNL A   1      32.588  36.424  29.933  1.00  0.00    -0.237 OA
ATOM     77  O   UNL A   1      34.317  36.215  28.168  1.00  0.00    -0.237 OA
ATOM     78  O   UNL A   1      32.579  34.490  28.409  1.00  0.00    -0.744 OA
ENDBRANCH  71  75
ENDBRANCH  54  68
BRANCH  55  79
ATOM     79  C   UNL A   1      44.728  28.900  28.296  1.00  0.00     0.023 A 
ATOM     80  C   UNL A   1      45.594  27.885  28.757  1.00  0.00     0.031 A 
ATOM     81  C   UNL A   1      44.084  28.704  27.068  1.00  0.00     0.131 A 
ATOM     82  C   UNL A   1      45.640  26.646  28.107  1.00  0.00     0.055 A 
ATOM     83  C   UNL A   1      44.207  27.494  26.371  1.00  0.00     0.041 A 
ATOM     84  F   UNL A   1      43.229  29.620  26.590  1.00  0.00    -0.206 F 
ATOM     85  C   UNL A   1      44.946  26.441  26.914  1.00  0.00     0.022 A 
BRANCH  82  86
ATOM     86  S   UNL A   1      46.345  25.229  29.006  1.00  0.00     0.124 S 
ATOM     87  O   UNL A   1      46.069  25.578  30.394  1.00  0.00    -0.237 OA
ATOM     88  O   UNL A   1      45.592  24.096  28.469  1.00  0.00    -0.237 OA
ATOM     89  O   UNL A   1      47.753  25.239  28.615  1.00  0.00    -0.744 OA
ENDBRANCH  82  86
ENDBRANCH  55  79
BRANCH  67  90
ATOM     90  C   UNL A   1      42.505  35.840  28.952  1.00  0.00     0.023 A 
ATOM     91  C   UNL A   1      43.189  36.843  29.655  1.00  0.00     0.031 A 
ATOM     92  C   UNL A   1      41.914  36.263  27.732  1.00  0.00     0.131 A 
ATOM     93  C   UNL A   1      43.212  38.179  29.204  1.00  0.00     0.055 A 
ATOM     94  C   UNL A   1      41.993  37.575  27.251  1.00  0.00     0.041 A 
ATOM     95  F   UNL A   1      41.241  35.417  26.938  1.00  0.00    -0.206 F 
ATOM     96  C   UNL A   1      42.633  38.550  27.995  1.00  0.00     0.022 A 
BRANCH  93  97
ATOM     97  S   UNL A   1      43.982  39.433  30.264  1.00  0.00     0.124 S 
ATOM     98  O   UNL A   1      45.267  39.639  29.601  1.00  0.00    -0.237 OA
ATOM     99  O   UNL A   1      43.039  40.542  30.174  1.00  0.00    -0.237 OA
ATOM    100  O   UNL A   1      44.056  38.784  31.572  1.00  0.00    -0.744 OA
ENDBRANCH  93  97
ENDBRANCH  67  90
ENDBRANCH  41  42
ENDBRANCH  33  36
ENDBRANCH  31  32
ENDBRANCH   1  31
TORSDOF 16
ENDMDL
MODEL 3
REMARK VINA RESULT:     -13.6      1.849      2.143
REMARK SMILES Cc1cccc(-n2ncc(C(=O)Nc3cccc(C(=O)NCCCNC(=O)c4ccc(-c5c6nc(c(-c7cc(S(=O)(=O)[O-])ccc7F)c7ccc([nH]7)c(-c7cc(S(=O)(=O)[O-])ccc7F)c7nc(c(-c8cc(S(=O)(=O)[O-])ccc8F)c8ccc5[nH]8)C=C7)C=C6)cc4)c3C)c2C)c1
REMARK SMILES IDX 23 1 22 2 21 3 19 4 20 5 18 7 14 8 15 9 91 10 16 11 92 12
REMARK SMILES IDX 17 13 13 14 11 15 12 16 10 18 7 19 8 20 93 21 9 22 94 23
REMARK SMILES IDX 6 24 1 25 2 26 3 27 95 28 4 29 5 30 24 31 25 32 26 33 27 35
REMARK SMILES IDX 28 36 29 37 90 38 30 39 89 40 31 41 32 42 33 43 83 44 34 45
REMARK SMILES IDX 88 46 82 47 84 48 35 49 87 50 81 51 80 52 36 54 68 55 48 56
REMARK SMILES IDX 67 57 49 58 52 59 66 60 85 61 50 62 51 63 65 65 86 66 53 67
REMARK SMILES IDX 37 68 38 69 46 70 39 71 45 72 47 73 44 74 40 75 41 76 42 77
REMARK SMILES IDX 43 78 69 79 70 80 78 81 71 82 77 83 79 84 76 85 72 86 73 87
REMARK SMILES IDX 74 88 75 89 54 90 55 91 63 92 56 93 62 94 64 95 61 96 57 97
REMARK SMILES IDX 58 98 59 99 60 100
REMARK H PARENT 21 6 13 17 25 34 84 53 52 64
REMARK Flexibility Score: inf
ROOT
ATOM      1  C   UNL A   1      32.517  31.595  27.005  1.00  0.00     0.042 C 
ENDROOT
BRANCH   1   2
ATOM      2  C   UNL A   1      31.752  30.685  26.040  1.00  0.00     0.118 C 
BRANCH   2   3
ATOM      3  N   UNL A   1      32.662  29.898  25.216  1.00  0.00    -0.352 N 
ATOM      4  C   UNL A   1      32.581  28.680  24.584  1.00  0.00     0.251 C 
ATOM      5  O   UNL A   1      33.579  28.330  23.956  1.00  0.00    -0.269 OA
ATOM      6  H   UNL A   1      33.532  30.340  25.081  1.00  0.00     0.163 HD
BRANCH   4   7
ATOM      7  C   UNL A   1      31.355  27.794  24.599  1.00  0.00     0.044 A 
ATOM      8  C   UNL A   1      30.055  25.937  25.501  1.00  0.00     0.045 A 
ATOM      9  C   UNL A   1      29.177  26.004  24.414  1.00  0.00     0.026 A 
ATOM     10  C   UNL A   1      31.090  26.892  25.670  1.00  0.00    -0.015 A 
ATOM     11  C   UNL A   1      29.352  26.973  23.447  1.00  0.00     0.003 A 
ATOM     12  C   UNL A   1      31.949  26.825  26.912  1.00  0.00     0.047 C 
ATOM     13  C   UNL A   1      30.436  27.841  23.538  1.00  0.00     0.014 A 
BRANCH   8  14
ATOM     14  N   UNL A   1      29.905  24.881  26.417  1.00  0.00    -0.322 N 
ATOM     15  C   UNL A   1      30.514  23.644  26.416  1.00  0.00     0.259 C 
ATOM     16  O   UNL A   1      29.995  22.740  27.071  1.00  0.00    -0.269 OA
ATOM     17  H   UNL A   1      29.278  25.046  27.159  1.00  0.00     0.170 HD
BRANCH  15  18
ATOM     18  C   UNL A   1      31.808  23.466  25.748  1.00  0.00     0.081 A 
ATOM     19  N   UNL A   1      33.981  23.116  25.357  1.00  0.00    -0.237 N 
ATOM     20  N   UNL A   1      33.466  23.505  24.168  1.00  0.00    -0.175 NA
ATOM     21  C   UNL A   1      33.031  23.202  26.368  1.00  0.00     0.054 A 
ATOM     22  C   UNL A   1      32.171  23.684  24.401  1.00  0.00     0.149 A 
ATOM     23  C   UNL A   1      33.338  23.166  27.824  1.00  0.00     0.068 C 
BRANCH  19  24
ATOM     24  C   UNL A   1      35.352  22.742  25.420  1.00  0.00     0.065 A 
ATOM     25  C   UNL A   1      37.406  19.592  24.802  1.00  0.00     0.044 C 
ATOM     26  C   UNL A   1      37.036  21.002  25.155  1.00  0.00    -0.049 A 
ATOM     27  C   UNL A   1      38.031  21.944  25.436  1.00  0.00     0.003 A 
ATOM     28  C   UNL A   1      35.695  21.401  25.175  1.00  0.00     0.031 A 
ATOM     29  C   UNL A   1      37.690  23.266  25.734  1.00  0.00     0.002 A 
ATOM     30  C   UNL A   1      36.353  23.669  25.723  1.00  0.00     0.028 A 
ENDBRANCH  19  24
ENDBRANCH  15  18
ENDBRANCH   8  14
ENDBRANCH   4   7
ENDBRANCH   2   3
ENDBRANCH   1   2
BRANCH   1  31
ATOM     31  C   UNL A   1      33.648  30.902  27.756  1.00  0.00     0.118 C 
BRANCH  31  32
ATOM     32  N   UNL A   1      34.312  31.795  28.704  1.00  0.00    -0.352 N 
ATOM     33  C   UNL A   1      35.509  31.607  29.387  1.00  0.00     0.251 C 
ATOM     34  H   UNL A   1      33.851  32.646  28.882  1.00  0.00     0.163 HD
ATOM     35  O   UNL A   1      35.956  32.418  30.158  1.00  0.00    -0.269 OA
BRANCH  33  36
ATOM     36  C   UNL A   1      36.283  30.392  29.041  1.00  0.00     0.039 A 
ATOM     37  C   UNL A   1      36.631  29.547  30.098  1.00  0.00     0.014 A 
ATOM     38  C   UNL A   1      36.891  30.291  27.795  1.00  0.00     0.014 A 
ATOM     39  C   UNL A   1      37.761  28.748  29.975  1.00  0.00     0.010 A 
ATOM     40  C   UNL A   1      38.064  29.563  27.704  1.00  0.00     0.010 A 
ATOM     41  C   UNL A   1      38.536  28.854  28.818  1.00  0.00    -0.014 A 
BRANCH  41  42
ATOM     42  C   UNL A   1      39.927  28.408  28.765  1.00  0.00     0.031 A 
ATOM     43  C   UNL A   1      40.263  26.986  28.557  1.00  0.00     0.074 A 
ATOM     44  C   UNL A   1      40.926  29.314  28.868  1.00  0.00     0.049 A 
ATOM     45  N   UNL A   1      41.399  26.451  28.855  1.00  0.00    -0.248 NA
ATOM     46  C   UNL A   1      39.291  26.022  28.063  1.00  0.00     0.031 C 
ATOM     47  C   UNL A   1      42.339  29.113  28.563  1.00  0.00     0.029 A 
ATOM     48  N   UNL A   1      40.884  30.530  29.547  1.00  0.00    -0.354 N 
ATOM     49  C   UNL A   1      41.422  25.182  28.322  1.00  0.00     0.074 A 
ATOM     50  C   UNL A   1      40.053  24.932  27.942  1.00  0.00     0.031 C 
ATOM     51  C   UNL A   1      43.062  30.000  29.261  1.00  0.00     0.029 A 
ATOM     52  C   UNL A   1      42.148  30.706  30.139  1.00  0.00     0.049 A 
ATOM     53  H   UNL A   1      40.119  31.146  29.602  1.00  0.00     0.167 HD
ATOM     54  C   UNL A   1      42.626  24.564  28.140  1.00  0.00     0.034 A 
ATOM     55  C   UNL A   1      42.290  30.838  31.488  1.00  0.00     0.034 A 
ATOM     56  C   UNL A   1      43.713  25.305  28.793  1.00  0.00     0.049 A 
ATOM     57  C   UNL A   1      43.188  29.795  32.110  1.00  0.00     0.074 A 
ATOM     58  C   UNL A   1      44.732  26.119  28.324  1.00  0.00     0.029 A 
ATOM     59  N   UNL A   1      43.696  25.466  30.176  1.00  0.00    -0.354 N 
ATOM     60  N   UNL A   1      43.542  28.686  31.520  1.00  0.00    -0.248 NA
ATOM     61  C   UNL A   1      43.747  29.914  33.451  1.00  0.00     0.031 C 
ATOM     62  C   UNL A   1      45.296  26.806  29.435  1.00  0.00     0.029 A 
ATOM     63  C   UNL A   1      44.641  26.390  30.582  1.00  0.00     0.049 A 
ATOM     64  H   UNL A   1      43.091  24.984  30.786  1.00  0.00     0.167 HD
ATOM     65  C   UNL A   1      44.336  27.944  32.362  1.00  0.00     0.074 A 
ATOM     66  C   UNL A   1      44.453  28.774  33.549  1.00  0.00     0.031 C 
ATOM     67  C   UNL A   1      44.811  26.711  31.998  1.00  0.00     0.034 A 
BRANCH  54  68
ATOM     68  C   UNL A   1      42.875  23.452  27.126  1.00  0.00     0.023 A 
ATOM     69  C   UNL A   1      42.266  22.191  27.324  1.00  0.00     0.031 A 
ATOM     70  C   UNL A   1      43.739  23.516  26.015  1.00  0.00     0.131 A 
ATOM     71  C   UNL A   1      42.596  21.073  26.530  1.00  0.00     0.055 A 
ATOM     72  C   UNL A   1      44.104  22.397  25.252  1.00  0.00     0.041 A 
ATOM     73  F   UNL A   1      44.240  24.668  25.562  1.00  0.00    -0.206 F 
ATOM     74  C   UNL A   1      43.543  21.162  25.515  1.00  0.00     0.022 A 
BRANCH  71  75
ATOM     75  S   UNL A   1      41.781  19.481  26.844  1.00  0.00     0.124 S 
ATOM     76  O   UNL A   1      42.865  18.684  27.407  1.00  0.00    -0.237 OA
ATOM     77  O   UNL A   1      40.709  19.858  27.757  1.00  0.00    -0.237 OA
ATOM     78  O   UNL A   1      41.335  19.062  25.514  1.00  0.00    -0.744 OA
ENDBRANCH  71  75
ENDBRANCH  54  68
BRANCH  55  79
ATOM     79  C   UNL A   1      41.128  31.504  32.142  1.00  0.00     0.023 A 
ATOM     80  C   UNL A   1      40.503  30.794  33.190  1.00  0.00     0.031 A 
ATOM     81  C   UNL A   1      40.903  32.883  32.059  1.00  0.00     0.131 A 
ATOM     82  C   UNL A   1      39.855  31.483  34.222  1.00  0.00     0.055 A 
ATOM     83  C   UNL A   1      40.172  33.558  33.047  1.00  0.00     0.041 A 
ATOM     84  F   UNL A   1      41.490  33.617  31.102  1.00  0.00    -0.206 F 
ATOM     85  C   UNL A   1      39.687  32.867  34.160  1.00  0.00     0.022 A 
BRANCH  82  86
ATOM     86  S   UNL A   1      39.530  30.596  35.777  1.00  0.00     0.124 S 
ATOM     87  O   UNL A   1      40.476  29.489  35.703  1.00  0.00    -0.237 OA
ATOM     88  O   UNL A   1      39.810  31.609  36.795  1.00  0.00    -0.237 OA
ATOM     89  O   UNL A   1      38.118  30.233  35.679  1.00  0.00    -0.744 OA
ENDBRANCH  82  86
ENDBRANCH  55  79
BRANCH  67  90
ATOM     90  C   UNL A   1      45.541  25.715  32.891  1.00  0.00     0.023 A 
ATOM     91  C   UNL A   1      44.906  24.716  33.642  1.00  0.00     0.031 A 
ATOM     92  C   UNL A   1      46.959  25.710  32.967  1.00  0.00     0.131 A 
ATOM     93  C   UNL A   1      45.634  23.831  34.462  1.00  0.00     0.055 A 
ATOM     94  C   UNL A   1      47.686  24.789  33.729  1.00  0.00     0.041 A 
ATOM     95  F   UNL A   1      47.710  26.592  32.291  1.00  0.00    -0.206 F 
ATOM     96  C   UNL A   1      47.024  23.847  34.498  1.00  0.00     0.022 A 
BRANCH  93  97
ATOM     97  S   UNL A   1      44.713  22.681  35.520  1.00  0.00     0.124 S 
ATOM     98  O   UNL A   1      43.379  23.272  35.518  1.00  0.00    -0.237 OA
ATOM     99  O   UNL A   1      44.847  21.418  34.800  1.00  0.00    -0.237 OA
ATOM    100  O   UNL A   1      45.419  22.744  36.799  1.00  0.00    -0.744 OA
ENDBRANCH  93  97
ENDBRANCH  67  90
ENDBRANCH  41  42
ENDBRANCH  33  36
ENDBRANCH  31  32
ENDBRANCH   1  31
TORSDOF 16
ENDMDL
