MODEL 1
REMARK VINA RESULT:     -13.9      0.000      0.000
REMARK SMILES O=C(NCCCNC(=O)c1nnn(-c2cccc(Br)c2)c1[C@@H]1COc2ccccc2O1)c1ccc(-c2c3nc(c(-c4cc(S(=O)(=O)[O-])ccc4F)c4ccc([nH]4)c(-c4cc(S(=O)(=O)[O-])ccc4F)c4nc(c(-c5cc(S(=O)(=O)[O-])ccc5F)c5ccc2[nH]5)C=C4)C=C3)cc1
REMARK SMILES IDX 4 1 3 2 1 3 2 4 32 6 33 7 94 8 34 9 93 10 35 11 36 12 37 13
REMARK SMILES IDX 87 14 38 15 92 16 86 17 88 18 39 19 91 20 85 21 84 22 40 24
REMARK SMILES IDX 72 25 52 26 71 27 53 28 56 29 70 30 89 31 54 32 55 33 69 35
REMARK SMILES IDX 90 36 57 37 41 38 42 39 50 40 43 41 49 42 51 43 48 44 44 45
REMARK SMILES IDX 45 46 46 47 47 48 73 49 74 50 82 51 75 52 81 53 83 54 80 55
REMARK SMILES IDX 76 56 77 57 78 58 79 59 58 60 59 61 67 62 60 63 66 64 68 65
REMARK SMILES IDX 65 66 61 67 62 68 63 69 64 70 5 71 6 72 7 73 8 74 9 76 10 77
REMARK SMILES IDX 11 78 21 79 12 80 13 81 22 82 23 83 31 84 24 85 30 86 25 87
REMARK SMILES IDX 29 88 26 89 28 90 27 91 14 92 15 93 20 94 16 95 18 96 17 97
REMARK SMILES IDX 19 98
REMARK H PARENT 3 5 88 23 56 34 7 75
REMARK Flexibility Score: inf
ROOT
ATOM      1  C   UNL A   1      33.830  29.625  26.844  1.00  0.00     0.118 C 
ENDROOT
BRANCH   1   2
ATOM      2  N   UNL A   1      34.196  30.822  27.578  1.00  0.00    -0.352 N 
ATOM      3  O   UNL A   1      35.362  32.586  28.232  1.00  0.00    -0.269 OA
ATOM      4  C   UNL A   1      35.379  31.375  27.993  1.00  0.00     0.251 C 
ATOM      5  H   UNL A   1      33.413  31.360  27.838  1.00  0.00     0.163 HD
BRANCH   4   6
ATOM      6  C   UNL A   1      36.617  30.605  28.257  1.00  0.00     0.039 A 
ATOM      7  C   UNL A   1      36.748  29.237  28.051  1.00  0.00     0.014 A 
ATOM      8  C   UNL A   1      37.701  31.318  28.809  1.00  0.00     0.014 A 
ATOM      9  C   UNL A   1      37.875  28.568  28.503  1.00  0.00     0.010 A 
ATOM     10  C   UNL A   1      38.854  30.659  29.224  1.00  0.00     0.010 A 
ATOM     11  C   UNL A   1      38.920  29.276  29.105  1.00  0.00    -0.014 A 
BRANCH  11  12
ATOM     12  C   UNL A   1      40.139  28.524  29.378  1.00  0.00     0.031 A 
ATOM     13  C   UNL A   1      40.493  28.472  30.823  1.00  0.00     0.074 A 
ATOM     14  C   UNL A   1      40.851  27.837  28.467  1.00  0.00     0.049 A 
ATOM     15  N   UNL A   1      41.516  28.993  31.417  1.00  0.00    -0.248 NA
ATOM     16  C   UNL A   1      39.488  27.915  31.742  1.00  0.00     0.031 C 
ATOM     17  C   UNL A   1      40.494  27.544  27.081  1.00  0.00     0.029 A 
ATOM     18  N   UNL A   1      42.021  27.159  28.643  1.00  0.00    -0.354 N 
ATOM     19  C   UNL A   1      41.396  28.648  32.761  1.00  0.00     0.074 A 
ATOM     20  C   UNL A   1      40.054  28.163  32.923  1.00  0.00     0.031 C 
ATOM     21  C   UNL A   1      41.307  26.568  26.616  1.00  0.00     0.029 A 
ATOM     22  C   UNL A   1      42.310  26.260  27.625  1.00  0.00     0.049 A 
ATOM     23  H   UNL A   1      42.608  27.294  29.421  1.00  0.00     0.167 HD
ATOM     24  C   UNL A   1      42.482  28.591  33.582  1.00  0.00     0.034 A 
ATOM     25  C   UNL A   1      43.246  25.274  27.651  1.00  0.00     0.034 A 
ATOM     26  C   UNL A   1      43.590  29.338  33.027  1.00  0.00     0.049 A 
ATOM     27  C   UNL A   1      44.250  25.642  28.681  1.00  0.00     0.074 A 
ATOM     28  C   UNL A   1      43.777  30.655  32.649  1.00  0.00     0.029 A 
ATOM     29  N   UNL A   1      44.631  28.644  32.447  1.00  0.00    -0.354 N 
ATOM     30  N   UNL A   1      45.043  26.675  28.577  1.00  0.00    -0.248 NA
ATOM     31  C   UNL A   1      44.068  25.142  30.037  1.00  0.00     0.031 C 
ATOM     32  C   UNL A   1      44.588  30.593  31.477  1.00  0.00     0.029 A 
ATOM     33  C   UNL A   1      44.903  29.252  31.248  1.00  0.00     0.049 A 
ATOM     34  H   UNL A   1      45.093  27.861  32.823  1.00  0.00     0.167 HD
ATOM     35  C   UNL A   1      45.112  27.208  29.854  1.00  0.00     0.074 A 
ATOM     36  C   UNL A   1      44.580  26.165  30.728  1.00  0.00     0.031 C 
ATOM     37  C   UNL A   1      45.330  28.542  30.058  1.00  0.00     0.034 A 
BRANCH  24  38
ATOM     38  C   UNL A   1      42.674  27.547  34.670  1.00  0.00     0.023 A 
ATOM     39  C   UNL A   1      43.515  26.462  34.354  1.00  0.00     0.031 A 
ATOM     40  C   UNL A   1      41.871  27.374  35.820  1.00  0.00     0.131 A 
ATOM     41  C   UNL A   1      43.395  25.234  35.024  1.00  0.00     0.055 A 
ATOM     42  C   UNL A   1      41.811  26.172  36.532  1.00  0.00     0.041 A 
ATOM     43  F   UNL A   1      41.046  28.315  36.286  1.00  0.00    -0.206 F 
ATOM     44  C   UNL A   1      42.538  25.076  36.106  1.00  0.00     0.022 A 
BRANCH  41  45
ATOM     45  S   UNL A   1      44.214  23.793  34.297  1.00  0.00     0.124 S 
ATOM     46  O   UNL A   1      44.137  22.836  35.395  1.00  0.00    -0.237 OA
ATOM     47  O   UNL A   1      43.365  23.520  33.142  1.00  0.00    -0.237 OA
ATOM     48  O   UNL A   1      45.553  24.287  33.987  1.00  0.00    -0.744 OA
ENDBRANCH  41  45
ENDBRANCH  24  38
BRANCH  25  49
ATOM     49  C   UNL A   1      43.105  23.908  27.075  1.00  0.00     0.023 A 
ATOM     50  C   UNL A   1      43.907  23.432  26.017  1.00  0.00     0.031 A 
ATOM     51  C   UNL A   1      42.294  22.953  27.732  1.00  0.00     0.131 A 
ATOM     52  C   UNL A   1      43.865  22.065  25.652  1.00  0.00     0.055 A 
ATOM     53  C   UNL A   1      42.246  21.609  27.359  1.00  0.00     0.041 A 
ATOM     54  F   UNL A   1      41.577  23.277  28.819  1.00  0.00    -0.206 F 
ATOM     55  C   UNL A   1      43.039  21.156  26.320  1.00  0.00     0.022 A 
BRANCH  52  56
ATOM     56  S   UNL A   1      44.964  21.419  24.349  1.00  0.00     0.124 S 
ATOM     57  O   UNL A   1      46.287  21.633  24.924  1.00  0.00    -0.237 OA
ATOM     58  O   UNL A   1      44.525  20.035  24.225  1.00  0.00    -0.237 OA
ATOM     59  O   UNL A   1      44.655  22.263  23.193  1.00  0.00    -0.744 OA
ENDBRANCH  52  56
ENDBRANCH  25  49
BRANCH  37  60
ATOM     60  C   UNL A   1      45.823  29.385  28.901  1.00  0.00     0.023 A 
ATOM     61  C   UNL A   1      45.082  30.422  28.291  1.00  0.00     0.031 A 
ATOM     62  C   UNL A   1      47.156  29.207  28.495  1.00  0.00     0.131 A 
ATOM     63  C   UNL A   1      45.684  31.228  27.305  1.00  0.00     0.055 A 
ATOM     64  C   UNL A   1      47.754  30.018  27.531  1.00  0.00     0.041 A 
ATOM     65  F   UNL A   1      47.922  28.259  29.062  1.00  0.00    -0.206 F 
ATOM     66  C   UNL A   1      47.016  31.029  26.928  1.00  0.00     0.022 A 
BRANCH  63  67
ATOM     67  S   UNL A   1      44.737  32.553  26.488  1.00  0.00     0.124 S 
ATOM     68  O   UNL A   1      45.748  33.282  25.732  1.00  0.00    -0.237 OA
ATOM     69  O   UNL A   1      43.764  31.804  25.697  1.00  0.00    -0.237 OA
ATOM     70  O   UNL A   1      44.161  33.299  27.608  1.00  0.00    -0.744 OA
ENDBRANCH  63  67
ENDBRANCH  37  60
ENDBRANCH  11  12
ENDBRANCH   4   6
ENDBRANCH   1   2
BRANCH   1  71
ATOM     71  C   UNL A   1      32.512  28.926  27.191  1.00  0.00     0.042 C 
BRANCH  71  72
ATOM     72  C   UNL A   1      32.310  27.493  26.705  1.00  0.00     0.118 C 
BRANCH  72  73
ATOM     73  N   UNL A   1      30.993  27.210  26.160  1.00  0.00    -0.351 N 
ATOM     74  C   UNL A   1      30.463  25.972  25.865  1.00  0.00     0.273 C 
ATOM     75  H   UNL A   1      30.416  27.988  25.982  1.00  0.00     0.163 HD
ATOM     76  O   UNL A   1      29.306  25.894  25.447  1.00  0.00    -0.267 OA
BRANCH  74  77
ATOM     77  C   UNL A   1      31.337  24.819  25.964  1.00  0.00     0.178 A 
ATOM     78  N   UNL A   1      31.537  24.264  27.197  1.00  0.00    -0.124 NA
ATOM     79  C   UNL A   1      32.012  24.076  24.991  1.00  0.00     0.122 A 
ATOM     80  N   UNL A   1      32.205  23.143  27.037  1.00  0.00    -0.061 NA
ATOM     81  N   UNL A   1      32.464  22.974  25.720  1.00  0.00    -0.213 N 
BRANCH  79  82
ATOM     82  C   UNL A   1      32.174  24.223  23.500  1.00  0.00     0.262 C 
ATOM     83  C   UNL A   1      33.622  24.394  23.031  1.00  0.00     0.281 C 
ATOM     84  O   UNL A   1      31.341  25.274  22.992  1.00  0.00    -0.477 OA
ATOM     85  O   UNL A   1      34.183  25.648  23.431  1.00  0.00    -0.485 OA
ATOM     86  C   UNL A   1      31.970  26.486  22.889  1.00  0.00     0.162 A 
ATOM     87  C   UNL A   1      33.319  26.680  23.178  1.00  0.00     0.161 A 
ATOM     88  C   UNL A   1      31.150  27.575  22.600  1.00  0.00     0.050 A 
ATOM     89  C   UNL A   1      33.817  27.974  23.306  1.00  0.00     0.050 A 
ATOM     90  C   UNL A   1      31.647  28.871  22.732  1.00  0.00     0.004 A 
ATOM     91  C   UNL A   1      32.973  29.069  23.112  1.00  0.00     0.004 A 
ENDBRANCH  79  82
BRANCH  81  92
ATOM     92  C   UNL A   1      33.015  21.738  25.302  1.00  0.00     0.068 A 
ATOM     93  C   UNL A   1      32.227  20.636  24.960  1.00  0.00     0.028 A 
ATOM     94  C   UNL A   1      34.416  21.637  25.260  1.00  0.00     0.044 A 
ATOM     95  C   UNL A   1      32.840  19.422  24.634  1.00  0.00     0.003 A 
ATOM     96  C   UNL A   1      35.014  20.419  24.951  1.00  0.00     0.020 A 
ATOM     97  C   UNL A   1      34.231  19.308  24.647  1.00  0.00     0.016 A 
ATOM     98  Br  UNL A   1      36.897  20.273  24.965  1.00  0.00    -0.051 Br
ENDBRANCH  81  92
ENDBRANCH  74  77
ENDBRANCH  72  73
ENDBRANCH  71  72
ENDBRANCH   1  71
TORSDOF 15
ENDMDL
MODEL 2
REMARK VINA RESULT:     -13.8      3.579      9.084
REMARK SMILES O=C(NCCCNC(=O)c1nnn(-c2cccc(Br)c2)c1[C@@H]1COc2ccccc2O1)c1ccc(-c2c3nc(c(-c4cc(S(=O)(=O)[O-])ccc4F)c4ccc([nH]4)c(-c4cc(S(=O)(=O)[O-])ccc4F)c4nc(c(-c5cc(S(=O)(=O)[O-])ccc5F)c5ccc2[nH]5)C=C4)C=C3)cc1
REMARK SMILES IDX 4 1 3 2 1 3 2 4 32 6 33 7 94 8 34 9 93 10 35 11 36 12 37 13
REMARK SMILES IDX 87 14 38 15 92 16 86 17 88 18 39 19 91 20 85 21 84 22 40 24
REMARK SMILES IDX 72 25 52 26 71 27 53 28 56 29 70 30 89 31 54 32 55 33 69 35
REMARK SMILES IDX 90 36 57 37 41 38 42 39 50 40 43 41 49 42 51 43 48 44 44 45
REMARK SMILES IDX 45 46 46 47 47 48 73 49 74 50 82 51 75 52 81 53 83 54 80 55
REMARK SMILES IDX 76 56 77 57 78 58 79 59 58 60 59 61 67 62 60 63 66 64 68 65
REMARK SMILES IDX 65 66 61 67 62 68 63 69 64 70 5 71 6 72 7 73 8 74 9 76 10 77
REMARK SMILES IDX 11 78 21 79 12 80 13 81 22 82 23 83 31 84 24 85 30 86 25 87
REMARK SMILES IDX 29 88 26 89 28 90 27 91 14 92 15 93 20 94 16 95 18 96 17 97
REMARK SMILES IDX 19 98
REMARK H PARENT 3 5 88 23 56 34 7 75
REMARK Flexibility Score: inf
ROOT
ATOM      1  C   UNL A   1      37.527  23.180  25.765  1.00  0.00     0.118 C 
ENDROOT
BRANCH   1   2
ATOM      2  N   UNL A   1      38.856  22.690  26.077  1.00  0.00    -0.352 N 
ATOM      3  O   UNL A   1      40.648  22.146  27.258  1.00  0.00    -0.269 OA
ATOM      4  C   UNL A   1      39.812  23.017  27.004  1.00  0.00     0.251 C 
ATOM      5  H   UNL A   1      39.136  21.953  25.488  1.00  0.00     0.163 HD
BRANCH   4   6
ATOM      6  C   UNL A   1      39.950  24.354  27.628  1.00  0.00     0.039 A 
ATOM      7  C   UNL A   1      38.976  25.344  27.586  1.00  0.00     0.014 A 
ATOM      8  C   UNL A   1      41.185  24.639  28.249  1.00  0.00     0.014 A 
ATOM      9  C   UNL A   1      39.264  26.626  28.028  1.00  0.00     0.010 A 
ATOM     10  C   UNL A   1      41.464  25.912  28.736  1.00  0.00     0.010 A 
ATOM     11  C   UNL A   1      40.513  26.914  28.587  1.00  0.00    -0.014 A 
BRANCH  11  12
ATOM     12  C   UNL A   1      40.663  28.231  29.195  1.00  0.00     0.031 A 
ATOM     13  C   UNL A   1      41.707  29.070  28.544  1.00  0.00     0.074 A 
ATOM     14  C   UNL A   1      39.889  28.729  30.176  1.00  0.00     0.049 A 
ATOM     15  N   UNL A   1      42.825  29.486  29.041  1.00  0.00    -0.248 NA
ATOM     16  C   UNL A   1      41.559  29.330  27.103  1.00  0.00     0.031 C 
ATOM     17  C   UNL A   1      38.656  28.167  30.723  1.00  0.00     0.029 A 
ATOM     18  N   UNL A   1      40.004  29.925  30.821  1.00  0.00    -0.354 N 
ATOM     19  C   UNL A   1      43.431  30.242  28.041  1.00  0.00     0.074 A 
ATOM     20  C   UNL A   1      42.707  29.949  26.835  1.00  0.00     0.031 C 
ATOM     21  C   UNL A   1      38.023  29.119  31.445  1.00  0.00     0.029 A 
ATOM     22  C   UNL A   1      38.861  30.307  31.511  1.00  0.00     0.049 A 
ATOM     23  H   UNL A   1      40.824  30.469  30.800  1.00  0.00     0.167 HD
ATOM     24  C   UNL A   1      44.342  31.212  28.334  1.00  0.00     0.034 A 
ATOM     25  C   UNL A   1      38.588  31.539  32.015  1.00  0.00     0.034 A 
ATOM     26  C   UNL A   1      44.890  31.022  29.660  1.00  0.00     0.049 A 
ATOM     27  C   UNL A   1      39.884  32.242  32.195  1.00  0.00     0.074 A 
ATOM     28  C   UNL A   1      45.578  29.998  30.286  1.00  0.00     0.029 A 
ATOM     29  N   UNL A   1      44.454  31.841  30.680  1.00  0.00    -0.354 N 
ATOM     30  N   UNL A   1      40.794  31.866  33.053  1.00  0.00    -0.248 NA
ATOM     31  C   UNL A   1      40.373  33.084  31.112  1.00  0.00     0.031 C 
ATOM     32  C   UNL A   1      45.081  29.981  31.622  1.00  0.00     0.029 A 
ATOM     33  C   UNL A   1      44.173  31.034  31.753  1.00  0.00     0.049 A 
ATOM     34  H   UNL A   1      44.362  32.821  30.645  1.00  0.00     0.167 HD
ATOM     35  C   UNL A   1      42.004  32.052  32.402  1.00  0.00     0.074 A 
ATOM     36  C   UNL A   1      41.688  32.901  31.256  1.00  0.00     0.031 C 
ATOM     37  C   UNL A   1      43.093  31.279  32.690  1.00  0.00     0.034 A 
BRANCH  24  38
ATOM     38  C   UNL A   1      44.442  32.539  27.600  1.00  0.00     0.023 A 
ATOM     39  C   UNL A   1      43.863  33.652  28.238  1.00  0.00     0.031 A 
ATOM     40  C   UNL A   1      44.756  32.722  26.234  1.00  0.00     0.131 A 
ATOM     41  C   UNL A   1      43.449  34.775  27.503  1.00  0.00     0.055 A 
ATOM     42  C   UNL A   1      44.409  33.874  25.521  1.00  0.00     0.041 A 
ATOM     43  F   UNL A   1      45.345  31.785  25.485  1.00  0.00    -0.206 F 
ATOM     44  C   UNL A   1      43.707  34.889  26.143  1.00  0.00     0.022 A 
BRANCH  41  45
ATOM     45  S   UNL A   1      42.362  35.967  28.325  1.00  0.00     0.124 S 
ATOM     46  O   UNL A   1      41.102  35.232  28.352  1.00  0.00    -0.237 OA
ATOM     47  O   UNL A   1      43.033  36.145  29.608  1.00  0.00    -0.237 OA
ATOM     48  O   UNL A   1      42.395  37.123  27.434  1.00  0.00    -0.744 OA
ENDBRANCH  41  45
ENDBRANCH  24  38
BRANCH  25  49
ATOM     49  C   UNL A   1      37.264  32.220  32.015  1.00  0.00     0.023 A 
ATOM     50  C   UNL A   1      36.618  32.647  30.836  1.00  0.00     0.031 A 
ATOM     51  C   UNL A   1      36.500  32.264  33.205  1.00  0.00     0.131 A 
ATOM     52  C   UNL A   1      35.278  33.100  30.884  1.00  0.00     0.055 A 
ATOM     53  C   UNL A   1      35.184  32.725  33.249  1.00  0.00     0.041 A 
ATOM     54  F   UNL A   1      36.982  31.780  34.360  1.00  0.00    -0.206 F 
ATOM     55  C   UNL A   1      34.563  33.140  32.085  1.00  0.00     0.022 A 
BRANCH  52  56
ATOM     56  S   UNL A   1      34.402  33.566  29.355  1.00  0.00     0.124 S 
ATOM     57  O   UNL A   1      33.280  34.346  29.865  1.00  0.00    -0.237 OA
ATOM     58  O   UNL A   1      35.424  34.302  28.620  1.00  0.00    -0.237 OA
ATOM     59  O   UNL A   1      34.035  32.277  28.765  1.00  0.00    -0.744 OA
ENDBRANCH  52  56
ENDBRANCH  25  49
BRANCH  37  60
ATOM     60  C   UNL A   1      43.078  30.436  33.946  1.00  0.00     0.023 A 
ATOM     61  C   UNL A   1      42.437  29.182  34.065  1.00  0.00     0.031 A 
ATOM     62  C   UNL A   1      43.865  30.872  35.026  1.00  0.00     0.131 A 
ATOM     63  C   UNL A   1      42.591  28.423  35.241  1.00  0.00     0.055 A 
ATOM     64  C   UNL A   1      44.029  30.110  36.182  1.00  0.00     0.041 A 
ATOM     65  F   UNL A   1      44.526  32.040  34.961  1.00  0.00    -0.206 F 
ATOM     66  C   UNL A   1      43.386  28.883  36.295  1.00  0.00     0.022 A 
BRANCH  63  67
ATOM     67  S   UNL A   1      41.750  26.816  35.423  1.00  0.00     0.124 S 
ATOM     68  O   UNL A   1      42.828  25.846  35.277  1.00  0.00    -0.237 OA
ATOM     69  O   UNL A   1      41.158  26.919  36.755  1.00  0.00    -0.237 OA
ATOM     70  O   UNL A   1      40.780  26.816  34.327  1.00  0.00    -0.744 OA
ENDBRANCH  63  67
ENDBRANCH  37  60
ENDBRANCH  11  12
ENDBRANCH   4   6
ENDBRANCH   1   2
BRANCH   1  71
ATOM     71  C   UNL A   1      36.865  22.724  24.460  1.00  0.00     0.042 C 
BRANCH  71  72
ATOM     72  C   UNL A   1      35.716  23.562  23.908  1.00  0.00     0.118 C 
BRANCH  72  73
ATOM     73  N   UNL A   1      34.734  22.822  23.134  1.00  0.00    -0.351 N 
ATOM     74  C   UNL A   1      33.619  23.329  22.501  1.00  0.00     0.273 C 
ATOM     75  H   UNL A   1      34.881  21.852  23.053  1.00  0.00     0.163 HD
ATOM     76  O   UNL A   1      32.902  22.573  21.841  1.00  0.00    -0.267 OA
BRANCH  74  77
ATOM     77  C   UNL A   1      33.284  24.722  22.729  1.00  0.00     0.178 A 
ATOM     78  N   UNL A   1      33.944  25.672  22.002  1.00  0.00    -0.124 NA
ATOM     79  C   UNL A   1      32.325  25.327  23.547  1.00  0.00     0.122 A 
ATOM     80  N   UNL A   1      33.371  26.832  22.230  1.00  0.00    -0.061 NA
ATOM     81  N   UNL A   1      32.364  26.654  23.116  1.00  0.00    -0.213 N 
BRANCH  79  82
ATOM     82  C   UNL A   1      31.344  24.798  24.561  1.00  0.00     0.262 C 
ATOM     83  C   UNL A   1      31.557  25.320  25.985  1.00  0.00     0.281 C 
ATOM     84  O   UNL A   1      31.301  23.365  24.538  1.00  0.00    -0.477 OA
ATOM     85  O   UNL A   1      32.762  24.822  26.575  1.00  0.00    -0.485 OA
ATOM     86  C   UNL A   1      32.126  22.766  25.453  1.00  0.00     0.162 A 
ATOM     87  C   UNL A   1      32.889  23.474  26.380  1.00  0.00     0.161 A 
ATOM     88  C   UNL A   1      32.273  21.387  25.329  1.00  0.00     0.050 A 
ATOM     89  C   UNL A   1      33.892  22.819  27.089  1.00  0.00     0.050 A 
ATOM     90  C   UNL A   1      33.280  20.731  26.036  1.00  0.00     0.004 A 
ATOM     91  C   UNL A   1      34.107  21.453  26.894  1.00  0.00     0.004 A 
ENDBRANCH  79  82
BRANCH  81  92
ATOM     92  C   UNL A   1      31.493  27.744  23.365  1.00  0.00     0.068 A 
ATOM     93  C   UNL A   1      30.386  28.026  22.560  1.00  0.00     0.028 A 
ATOM     94  C   UNL A   1      31.792  28.571  24.460  1.00  0.00     0.044 A 
ATOM     95  C   UNL A   1      29.617  29.166  22.817  1.00  0.00     0.003 A 
ATOM     96  C   UNL A   1      31.031  29.712  24.695  1.00  0.00     0.020 A 
ATOM     97  C   UNL A   1      29.950  30.018  23.872  1.00  0.00     0.016 A 
ATOM     98  Br  UNL A   1      31.481  30.857  26.127  1.00  0.00    -0.051 Br
ENDBRANCH  81  92
ENDBRANCH  74  77
ENDBRANCH  72  73
ENDBRANCH  71  72
ENDBRANCH   1  71
TORSDOF 15
ENDMDL
MODEL 3
REMARK VINA RESULT:     -13.6      3.487      9.158
REMARK SMILES O=C(NCCCNC(=O)c1nnn(-c2cccc(Br)c2)c1[C@@H]1COc2ccccc2O1)c1ccc(-c2c3nc(c(-c4cc(S(=O)(=O)[O-])ccc4F)c4ccc([nH]4)c(-c4cc(S(=O)(=O)[O-])ccc4F)c4nc(c(-c5cc(S(=O)(=O)[O-])ccc5F)c5ccc2[nH]5)C=C4)C=C3)cc1
REMARK SMILES IDX 4 1 3 2 1 3 2 4 32 6 33 7 94 8 34 9 93 10 35 11 36 12 37 13
REMARK SMILES IDX 87 14 38 15 92 16 86 17 88 18 39 19 91 20 85 21 84 22 40 24
REMARK SMILES IDX 72 25 52 26 71 27 53 28 56 29 70 30 89 31 54 32 55 33 69 35
REMARK SMILES IDX 90 36 57 37 41 38 42 39 50 40 43 41 49 42 51 43 48 44 44 45
REMARK SMILES IDX 45 46 46 47 47 48 73 49 74 50 82 51 75 52 81 53 83 54 80 55
REMARK SMILES IDX 76 56 77 57 78 58 79 59 58 60 59 61 67 62 60 63 66 64 68 65
REMARK SMILES IDX 65 66 61 67 62 68 63 69 64 70 5 71 6 72 7 73 8 74 9 76 10 77
REMARK SMILES IDX 11 78 21 79 12 80 13 81 22 82 23 83 31 84 24 85 30 86 25 87
REMARK SMILES IDX 29 88 26 89 28 90 27 91 14 92 15 93 20 94 16 95 18 96 17 97
REMARK SMILES IDX 19 98
REMARK H PARENT 3 5 88 23 56 34 7 75
REMARK Flexibility Score: inf
ROOT
ATOM      1  C   UNL A   1      37.499  22.781  25.703  1.00  0.00     0.118 C 
ENDROOT
BRANCH   1   2
ATOM      2  N   UNL A   1      38.851  22.319  25.956  1.00  0.00    -0.352 N 
ATOM      3  O   UNL A   1      40.713  21.836  27.051  1.00  0.00    -0.269 OA
ATOM      4  C   UNL A   1      39.850  22.687  26.819  1.00  0.00     0.251 C 
ATOM      5  H   UNL A   1      39.109  21.568  25.375  1.00  0.00     0.163 HD
BRANCH   4   6
ATOM      6  C   UNL A   1      40.002  24.044  27.395  1.00  0.00     0.039 A 
ATOM      7  C   UNL A   1      39.116  25.092  27.176  1.00  0.00     0.014 A 
ATOM      8  C   UNL A   1      41.161  24.280  28.163  1.00  0.00     0.014 A 
ATOM      9  C   UNL A   1      39.436  26.375  27.594  1.00  0.00     0.010 A 
ATOM     10  C   UNL A   1      41.466  25.557  28.625  1.00  0.00     0.010 A 
ATOM     11  C   UNL A   1      40.618  26.610  28.303  1.00  0.00    -0.014 A 
BRANCH  11  12
ATOM     12  C   UNL A   1      40.782  27.946  28.865  1.00  0.00     0.031 A 
ATOM     13  C   UNL A   1      41.958  28.678  28.321  1.00  0.00     0.074 A 
ATOM     14  C   UNL A   1      39.925  28.545  29.711  1.00  0.00     0.049 A 
ATOM     15  N   UNL A   1      43.029  29.048  28.942  1.00  0.00    -0.248 NA
ATOM     16  C   UNL A   1      42.016  28.869  26.863  1.00  0.00     0.031 C 
ATOM     17  C   UNL A   1      38.595  28.095  30.115  1.00  0.00     0.029 A 
ATOM     18  N   UNL A   1      40.042  29.764  30.311  1.00  0.00    -0.354 N 
ATOM     19  C   UNL A   1      43.812  29.708  27.998  1.00  0.00     0.074 A 
ATOM     20  C   UNL A   1      43.231  29.397  26.721  1.00  0.00     0.031 C 
ATOM     21  C   UNL A   1      37.944  29.123  30.704  1.00  0.00     0.029 A 
ATOM     22  C   UNL A   1      38.849  30.256  30.825  1.00  0.00     0.049 A 
ATOM     23  H   UNL A   1      40.894  30.252  30.374  1.00  0.00     0.167 HD
ATOM     24  C   UNL A   1      44.745  30.631  28.364  1.00  0.00     0.034 A 
ATOM     25  C   UNL A   1      38.602  31.529  31.233  1.00  0.00     0.034 A 
ATOM     26  C   UNL A   1      45.103  30.479  29.758  1.00  0.00     0.049 A 
ATOM     27  C   UNL A   1      39.911  32.156  31.551  1.00  0.00     0.074 A 
ATOM     28  C   UNL A   1      45.629  29.448  30.516  1.00  0.00     0.029 A 
ATOM     29  N   UNL A   1      44.598  31.378  30.674  1.00  0.00    -0.354 N 
ATOM     30  N   UNL A   1      40.674  31.768  32.537  1.00  0.00    -0.248 NA
ATOM     31  C   UNL A   1      40.594  32.904  30.505  1.00  0.00     0.031 C 
ATOM     32  C   UNL A   1      44.964  29.536  31.774  1.00  0.00     0.029 A 
ATOM     33  C   UNL A   1      44.124  30.651  31.735  1.00  0.00     0.049 A 
ATOM     34  H   UNL A   1      44.581  32.358  30.582  1.00  0.00     0.167 HD
ATOM     35  C   UNL A   1      41.967  31.841  32.045  1.00  0.00     0.074 A 
ATOM     36  C   UNL A   1      41.863  32.645  30.829  1.00  0.00     0.031 C 
ATOM     37  C   UNL A   1      42.952  31.015  32.509  1.00  0.00     0.034 A 
BRANCH  24  38
ATOM     38  C   UNL A   1      45.033  31.907  27.590  1.00  0.00     0.023 A 
ATOM     39  C   UNL A   1      46.332  32.040  27.064  1.00  0.00     0.031 A 
ATOM     40  C   UNL A   1      44.265  33.094  27.612  1.00  0.00     0.131 A 
ATOM     41  C   UNL A   1      46.873  33.305  26.781  1.00  0.00     0.055 A 
ATOM     42  C   UNL A   1      44.785  34.342  27.258  1.00  0.00     0.041 A 
ATOM     43  F   UNL A   1      43.001  33.142  28.042  1.00  0.00    -0.206 F 
ATOM     44  C   UNL A   1      46.111  34.462  26.887  1.00  0.00     0.022 A 
BRANCH  41  45
ATOM     45  S   UNL A   1      48.657  33.414  26.500  1.00  0.00     0.124 S 
ATOM     46  O   UNL A   1      48.704  34.145  25.238  1.00  0.00    -0.237 OA
ATOM     47  O   UNL A   1      49.100  34.143  27.685  1.00  0.00    -0.237 OA
ATOM     48  O   UNL A   1      49.074  32.017  26.432  1.00  0.00    -0.744 OA
ENDBRANCH  41  45
ENDBRANCH  24  38
BRANCH  25  49
ATOM     49  C   UNL A   1      37.341  32.294  31.026  1.00  0.00     0.023 A 
ATOM     50  C   UNL A   1      36.561  32.794  32.089  1.00  0.00     0.031 A 
ATOM     51  C   UNL A   1      36.998  32.738  29.727  1.00  0.00     0.131 A 
ATOM     52  C   UNL A   1      35.490  33.682  31.828  1.00  0.00     0.055 A 
ATOM     53  C   UNL A   1      35.933  33.603  29.474  1.00  0.00     0.041 A 
ATOM     54  F   UNL A   1      37.743  32.410  28.659  1.00  0.00    -0.206 F 
ATOM     55  C   UNL A   1      35.176  34.085  30.527  1.00  0.00     0.022 A 
BRANCH  52  56
ATOM     56  S   UNL A   1      34.533  34.408  33.199  1.00  0.00     0.124 S 
ATOM     57  O   UNL A   1      35.303  35.605  33.516  1.00  0.00    -0.237 OA
ATOM     58  O   UNL A   1      33.224  34.618  32.592  1.00  0.00    -0.237 OA
ATOM     59  O   UNL A   1      34.568  33.366  34.228  1.00  0.00    -0.744 OA
ENDBRANCH  52  56
ENDBRANCH  25  49
BRANCH  37  60
ATOM     60  C   UNL A   1      42.715  30.244  33.789  1.00  0.00     0.023 A 
ATOM     61  C   UNL A   1      42.516  28.847  33.861  1.00  0.00     0.031 A 
ATOM     62  C   UNL A   1      42.831  30.951  34.999  1.00  0.00     0.131 A 
ATOM     63  C   UNL A   1      42.429  28.213  35.115  1.00  0.00     0.055 A 
ATOM     64  C   UNL A   1      42.763  30.317  36.239  1.00  0.00     0.041 A 
ATOM     65  F   UNL A   1      43.055  32.276  34.997  1.00  0.00    -0.206 F 
ATOM     66  C   UNL A   1      42.555  28.944  36.301  1.00  0.00     0.022 A 
BRANCH  63  67
ATOM     67  S   UNL A   1      42.145  26.417  35.228  1.00  0.00     0.124 S 
ATOM     68  O   UNL A   1      43.086  25.859  34.264  1.00  0.00    -0.237 OA
ATOM     69  O   UNL A   1      42.430  26.140  36.634  1.00  0.00    -0.237 OA
ATOM     70  O   UNL A   1      40.737  26.273  34.856  1.00  0.00    -0.744 OA
ENDBRANCH  63  67
ENDBRANCH  37  60
ENDBRANCH  11  12
ENDBRANCH   4   6
ENDBRANCH   1   2
BRANCH   1  71
ATOM     71  C   UNL A   1      36.944  22.679  24.279  1.00  0.00     0.042 C 
BRANCH  71  72
ATOM     72  C   UNL A   1      35.671  23.452  23.948  1.00  0.00     0.118 C 
BRANCH  72  73
ATOM     73  N   UNL A   1      34.699  22.721  23.153  1.00  0.00    -0.351 N 
ATOM     74  C   UNL A   1      33.602  23.239  22.497  1.00  0.00     0.273 C 
ATOM     75  H   UNL A   1      34.839  21.750  23.073  1.00  0.00     0.163 HD
ATOM     76  O   UNL A   1      32.892  22.491  21.822  1.00  0.00    -0.267 OA
BRANCH  74  77
ATOM     77  C   UNL A   1      33.275  24.635  22.720  1.00  0.00     0.178 A 
ATOM     78  N   UNL A   1      33.922  25.577  21.970  1.00  0.00    -0.124 NA
ATOM     79  C   UNL A   1      32.335  25.249  23.551  1.00  0.00     0.122 A 
ATOM     80  N   UNL A   1      33.356  26.741  22.200  1.00  0.00    -0.061 NA
ATOM     81  N   UNL A   1      32.367  26.573  23.108  1.00  0.00    -0.213 N 
BRANCH  79  82
ATOM     82  C   UNL A   1      31.374  24.732  24.590  1.00  0.00     0.262 C 
ATOM     83  C   UNL A   1      31.597  25.291  25.999  1.00  0.00     0.281 C 
ATOM     84  O   UNL A   1      31.350  23.299  24.602  1.00  0.00    -0.477 OA
ATOM     85  O   UNL A   1      32.816  24.824  26.585  1.00  0.00    -0.485 OA
ATOM     86  C   UNL A   1      32.194  22.733  25.521  1.00  0.00     0.162 A 
ATOM     87  C   UNL A   1      32.959  23.473  26.420  1.00  0.00     0.161 A 
ATOM     88  C   UNL A   1      32.359  21.353  25.427  1.00  0.00     0.050 A 
ATOM     89  C   UNL A   1      33.980  22.849  27.132  1.00  0.00     0.050 A 
ATOM     90  C   UNL A   1      33.383  20.728  26.137  1.00  0.00     0.004 A 
ATOM     91  C   UNL A   1      34.211  21.481  26.967  1.00  0.00     0.004 A 
ENDBRANCH  79  82
BRANCH  81  92
ATOM     92  C   UNL A   1      31.505  27.667  23.365  1.00  0.00     0.068 A 
ATOM     93  C   UNL A   1      30.378  27.941  22.585  1.00  0.00     0.028 A 
ATOM     94  C   UNL A   1      31.832  28.507  24.443  1.00  0.00     0.044 A 
ATOM     95  C   UNL A   1      29.617  29.085  22.847  1.00  0.00     0.003 A 
ATOM     96  C   UNL A   1      31.078  29.652  24.682  1.00  0.00     0.020 A 
ATOM     97  C   UNL A   1      29.977  29.949  23.883  1.00  0.00     0.016 A 
ATOM     98  Br  UNL A   1      31.565  30.814  26.089  1.00  0.00    -0.051 Br
ENDBRANCH  81  92
ENDBRANCH  74  77
ENDBRANCH  72  73
ENDBRANCH  71  72
ENDBRANCH   1  71
TORSDOF 15
ENDMDL
