MODEL 1
REMARK VINA RESULT:     -12.5      0.000      0.000
REMARK SMILES O=C(CC1CC[NH+](C[C@@H]2Cc3ccccc32)CC1)NCCCNC(=O)c1ccc(-c2c3nc(c(-c4cc(S(=O)(=O)[O-])ccc4F)c4ccc([nH]4)c(-c4cc(S(=O)(=O)[O-])ccc4F)c4nc(c(-c5cc(S(=O)(=O)[O-])ccc5F)c5ccc2[nH]5)C=C4)C=C3)cc1
REMARK SMILES IDX 21 1 20 2 19 3 1 4 2 5 3 7 4 8 5 9 18 10 6 11 17 12 7 13
REMARK SMILES IDX 8 15 9 16 10 17 16 18 11 19 15 20 12 21 14 22 13 23 22 24
REMARK SMILES IDX 23 25 24 26 25 28 26 29 27 30 88 31 28 32 87 33 29 34 30 35
REMARK SMILES IDX 31 36 81 37 32 38 86 39 80 40 82 41 33 42 85 43 79 44 78 45
REMARK SMILES IDX 34 47 66 48 46 49 65 50 47 51 50 52 64 53 83 54 48 55 49 56
REMARK SMILES IDX 63 58 84 59 51 60 35 61 36 62 44 63 37 64 43 65 45 66 42 67
REMARK SMILES IDX 38 68 39 69 40 70 41 71 67 72 68 73 76 74 69 75 75 76 77 77
REMARK SMILES IDX 74 78 70 79 71 80 72 81 73 82 52 83 53 84 61 85 54 86 60 87
REMARK SMILES IDX 62 88 59 89 55 90 56 91 57 92 58 93
REMARK H PARENT 19 6 7 14 23 27 82 46 50 57
REMARK Flexibility Score: inf
ROOT
ATOM      1  C   UNL A   1      35.993  21.462  25.612  1.00  0.00     0.042 C 
ENDROOT
BRANCH   1   2
ATOM      2  C   UNL A   1      34.727  21.307  24.776  1.00  0.00     0.117 C 
BRANCH   2   3
ATOM      3  N   UNL A   1      33.958  22.534  24.719  1.00  0.00    -0.356 N 
ATOM      4  O   UNL A   1      35.156  23.520  23.026  1.00  0.00    -0.275 OA
ATOM      5  C   UNL A   1      34.240  23.551  23.841  1.00  0.00     0.220 C 
ATOM      6  H   UNL A   1      33.200  22.644  25.337  1.00  0.00     0.163 HD
BRANCH   5   7
ATOM      7  C   UNL A   1      33.345  24.763  23.991  1.00  0.00     0.104 C 
BRANCH   7   8
ATOM      8  C   UNL A   1      33.268  25.323  25.431  1.00  0.00     0.009 C 
ATOM      9  C   UNL A   1      31.811  25.610  25.824  1.00  0.00     0.066 C 
ATOM     10  C   UNL A   1      34.027  26.648  25.627  1.00  0.00     0.066 C 
ATOM     11  C   UNL A   1      31.209  26.705  24.938  1.00  0.00     0.262 C 
ATOM     12  C   UNL A   1      33.427  27.794  24.806  1.00  0.00     0.262 C 
ATOM     13  N   UNL A   1      31.981  27.942  24.953  1.00  0.00    -0.334 N 
ATOM     14  H   UNL A   1      31.881  28.239  25.924  1.00  0.00     0.348 HD
BRANCH  13  15
ATOM     15  C   UNL A   1      31.398  29.055  24.173  1.00  0.00     0.270 C 
BRANCH  15  16
ATOM     16  C   UNL A   1      29.900  29.089  23.788  1.00  0.00     0.079 C 
ATOM     17  C   UNL A   1      29.393  28.583  22.385  1.00  0.00     0.050 C 
ATOM     18  C   UNL A   1      29.275  30.409  23.415  1.00  0.00    -0.036 A 
ATOM     19  C   UNL A   1      28.994  30.010  22.130  1.00  0.00    -0.043 A 
ATOM     20  C   UNL A   1      28.980  31.676  23.866  1.00  0.00     0.004 A 
ATOM     21  C   UNL A   1      28.485  30.877  21.192  1.00  0.00     0.004 A 
ATOM     22  C   UNL A   1      28.461  32.581  22.936  1.00  0.00     0.000 A 
ATOM     23  C   UNL A   1      28.231  32.189  21.603  1.00  0.00     0.000 A 
ENDBRANCH  15  16
ENDBRANCH  13  15
ENDBRANCH   7   8
ENDBRANCH   5   7
ENDBRANCH   2   3
ENDBRANCH   1   2
BRANCH   1  24
ATOM     24  C   UNL A   1      37.298  21.372  24.824  1.00  0.00     0.118 C 
BRANCH  24  25
ATOM     25  N   UNL A   1      38.248  20.426  25.393  1.00  0.00    -0.352 N 
ATOM     26  C   UNL A   1      39.410  20.648  26.093  1.00  0.00     0.251 C 
ATOM     27  H   UNL A   1      38.023  19.477  25.254  1.00  0.00     0.163 HD
ATOM     28  O   UNL A   1      40.146  19.698  26.351  1.00  0.00    -0.269 OA
BRANCH  26  29
ATOM     29  C   UNL A   1      39.794  22.018  26.501  1.00  0.00     0.039 A 
ATOM     30  C   UNL A   1      40.778  22.175  27.483  1.00  0.00     0.014 A 
ATOM     31  C   UNL A   1      39.195  23.144  25.930  1.00  0.00     0.014 A 
ATOM     32  C   UNL A   1      41.225  23.454  27.821  1.00  0.00     0.010 A 
ATOM     33  C   UNL A   1      39.691  24.415  26.218  1.00  0.00     0.010 A 
ATOM     34  C   UNL A   1      40.723  24.584  27.154  1.00  0.00    -0.014 A 
BRANCH  34  35
ATOM     35  C   UNL A   1      41.293  25.938  27.391  1.00  0.00     0.031 A 
ATOM     36  C   UNL A   1      42.660  26.293  26.872  1.00  0.00     0.074 A 
ATOM     37  C   UNL A   1      40.606  26.825  28.139  1.00  0.00     0.049 A 
ATOM     38  N   UNL A   1      43.360  27.381  27.065  1.00  0.00    -0.248 NA
ATOM     39  C   UNL A   1      43.336  25.279  26.050  1.00  0.00     0.031 C 
ATOM     40  C   UNL A   1      39.283  26.590  28.722  1.00  0.00     0.029 A 
ATOM     41  N   UNL A   1      40.926  28.095  28.550  1.00  0.00    -0.354 N 
ATOM     42  C   UNL A   1      44.564  27.183  26.396  1.00  0.00     0.074 A 
ATOM     43  C   UNL A   1      44.516  25.845  25.841  1.00  0.00     0.031 C 
ATOM     44  C   UNL A   1      38.899  27.684  29.397  1.00  0.00     0.029 A 
ATOM     45  C   UNL A   1      39.966  28.677  29.347  1.00  0.00     0.049 A 
ATOM     46  H   UNL A   1      41.763  28.547  28.299  1.00  0.00     0.167 HD
ATOM     47  C   UNL A   1      45.603  28.043  26.243  1.00  0.00     0.034 A 
ATOM     48  C   UNL A   1      39.954  29.865  29.984  1.00  0.00     0.034 A 
ATOM     49  C   UNL A   1      45.635  29.374  26.802  1.00  0.00     0.049 A 
ATOM     50  C   UNL A   1      41.143  30.781  29.846  1.00  0.00     0.074 A 
ATOM     51  C   UNL A   1      46.614  30.343  26.661  1.00  0.00     0.029 A 
ATOM     52  N   UNL A   1      44.654  29.921  27.619  1.00  0.00    -0.354 N 
ATOM     53  N   UNL A   1      42.254  30.595  29.170  1.00  0.00    -0.248 NA
ATOM     54  C   UNL A   1      41.076  32.065  30.554  1.00  0.00     0.031 C 
ATOM     55  C   UNL A   1      46.264  31.442  27.454  1.00  0.00     0.029 A 
ATOM     56  C   UNL A   1      45.025  31.196  28.024  1.00  0.00     0.049 A 
ATOM     57  H   UNL A   1      43.817  29.470  27.874  1.00  0.00     0.167 HD
ATOM     58  C   UNL A   1      43.005  31.754  29.350  1.00  0.00     0.074 A 
ATOM     59  C   UNL A   1      42.213  32.636  30.182  1.00  0.00     0.031 C 
ATOM     60  C   UNL A   1      44.237  32.062  28.870  1.00  0.00     0.034 A 
BRANCH  47  61
ATOM     61  C   UNL A   1      46.804  27.553  25.467  1.00  0.00     0.023 A 
ATOM     62  C   UNL A   1      47.051  27.971  24.147  1.00  0.00     0.031 A 
ATOM     63  C   UNL A   1      47.706  26.645  26.048  1.00  0.00     0.131 A 
ATOM     64  C   UNL A   1      48.125  27.424  23.428  1.00  0.00     0.055 A 
ATOM     65  C   UNL A   1      48.822  26.169  25.355  1.00  0.00     0.041 A 
ATOM     66  F   UNL A   1      47.513  26.193  27.297  1.00  0.00    -0.206 F 
ATOM     67  C   UNL A   1      49.027  26.546  24.033  1.00  0.00     0.022 A 
BRANCH  64  68
ATOM     68  S   UNL A   1      48.238  27.764  21.651  1.00  0.00     0.124 S 
ATOM     69  O   UNL A   1      48.542  26.437  21.117  1.00  0.00    -0.237 OA
ATOM     70  O   UNL A   1      46.913  28.288  21.345  1.00  0.00    -0.237 OA
ATOM     71  O   UNL A   1      49.331  28.730  21.555  1.00  0.00    -0.744 OA
ENDBRANCH  64  68
ENDBRANCH  47  61
BRANCH  48  72
ATOM     72  C   UNL A   1      38.792  30.254  30.837  1.00  0.00     0.023 A 
ATOM     73  C   UNL A   1      37.713  30.974  30.303  1.00  0.00     0.031 A 
ATOM     74  C   UNL A   1      38.769  29.953  32.211  1.00  0.00     0.131 A 
ATOM     75  C   UNL A   1      36.679  31.412  31.146  1.00  0.00     0.055 A 
ATOM     76  C   UNL A   1      37.710  30.341  33.033  1.00  0.00     0.041 A 
ATOM     77  F   UNL A   1      39.776  29.266  32.774  1.00  0.00    -0.206 F 
ATOM     78  C   UNL A   1      36.663  31.088  32.504  1.00  0.00     0.022 A 
BRANCH  75  79
ATOM     79  S   UNL A   1      35.398  32.497  30.456  1.00  0.00     0.124 S 
ATOM     80  O   UNL A   1      35.100  31.835  29.193  1.00  0.00    -0.237 OA
ATOM     81  O   UNL A   1      34.360  32.427  31.480  1.00  0.00    -0.237 OA
ATOM     82  O   UNL A   1      36.073  33.788  30.342  1.00  0.00    -0.744 OA
ENDBRANCH  75  79
ENDBRANCH  48  72
BRANCH  60  83
ATOM     83  C   UNL A   1      44.784  33.429  29.208  1.00  0.00     0.023 A 
ATOM     84  C   UNL A   1      44.512  34.553  28.409  1.00  0.00     0.031 A 
ATOM     85  C   UNL A   1      45.599  33.605  30.340  1.00  0.00     0.131 A 
ATOM     86  C   UNL A   1      45.098  35.790  28.720  1.00  0.00     0.055 A 
ATOM     87  C   UNL A   1      46.126  34.852  30.681  1.00  0.00     0.041 A 
ATOM     88  F   UNL A   1      45.896  32.566  31.138  1.00  0.00    -0.206 F 
ATOM     89  C   UNL A   1      45.887  35.951  29.862  1.00  0.00     0.022 A 
BRANCH  86  90
ATOM     90  S   UNL A   1      44.889  37.170  27.560  1.00  0.00     0.124 S 
ATOM     91  O   UNL A   1      44.835  38.316  28.461  1.00  0.00    -0.237 OA
ATOM     92  O   UNL A   1      46.085  37.066  26.732  1.00  0.00    -0.237 OA
ATOM     93  O   UNL A   1      43.634  36.857  26.878  1.00  0.00    -0.744 OA
ENDBRANCH  86  90
ENDBRANCH  60  83
ENDBRANCH  34  35
ENDBRANCH  26  29
ENDBRANCH  24  25
ENDBRANCH   1  24
TORSDOF 16
ENDMDL
MODEL 2
REMARK VINA RESULT:     -12.4      5.065      8.734
REMARK SMILES O=C(CC1CC[NH+](C[C@@H]2Cc3ccccc32)CC1)NCCCNC(=O)c1ccc(-c2c3nc(c(-c4cc(S(=O)(=O)[O-])ccc4F)c4ccc([nH]4)c(-c4cc(S(=O)(=O)[O-])ccc4F)c4nc(c(-c5cc(S(=O)(=O)[O-])ccc5F)c5ccc2[nH]5)C=C4)C=C3)cc1
REMARK SMILES IDX 21 1 20 2 19 3 1 4 2 5 3 7 4 8 5 9 18 10 6 11 17 12 7 13
REMARK SMILES IDX 8 15 9 16 10 17 16 18 11 19 15 20 12 21 14 22 13 23 22 24
REMARK SMILES IDX 23 25 24 26 25 28 26 29 27 30 88 31 28 32 87 33 29 34 30 35
REMARK SMILES IDX 31 36 81 37 32 38 86 39 80 40 82 41 33 42 85 43 79 44 78 45
REMARK SMILES IDX 34 47 66 48 46 49 65 50 47 51 50 52 64 53 83 54 48 55 49 56
REMARK SMILES IDX 63 58 84 59 51 60 35 61 36 62 44 63 37 64 43 65 45 66 42 67
REMARK SMILES IDX 38 68 39 69 40 70 41 71 67 72 68 73 76 74 69 75 75 76 77 77
REMARK SMILES IDX 74 78 70 79 71 80 72 81 73 82 52 83 53 84 61 85 54 86 60 87
REMARK SMILES IDX 62 88 59 89 55 90 56 91 57 92 58 93
REMARK H PARENT 19 6 7 14 23 27 82 46 50 57
REMARK Flexibility Score: inf
ROOT
ATOM      1  C   UNL A   1      32.355  29.687  25.332  1.00  0.00     0.042 C 
ENDROOT
BRANCH   1   2
ATOM      2  C   UNL A   1      31.287  28.766  24.754  1.00  0.00     0.117 C 
BRANCH   2   3
ATOM      3  N   UNL A   1      31.758  27.402  24.617  1.00  0.00    -0.356 N 
ATOM      4  O   UNL A   1      31.153  26.700  26.718  1.00  0.00    -0.275 OA
ATOM      5  C   UNL A   1      31.653  26.473  25.621  1.00  0.00     0.220 C 
ATOM      6  H   UNL A   1      32.172  27.131  23.767  1.00  0.00     0.163 HD
BRANCH   5   7
ATOM      7  C   UNL A   1      32.261  25.127  25.284  1.00  0.00     0.104 C 
BRANCH   7   8
ATOM      8  C   UNL A   1      33.654  25.207  24.616  1.00  0.00     0.009 C 
ATOM      9  C   UNL A   1      33.725  24.273  23.399  1.00  0.00     0.066 C 
ATOM     10  C   UNL A   1      34.813  24.790  25.537  1.00  0.00     0.066 C 
ATOM     11  C   UNL A   1      33.570  22.809  23.821  1.00  0.00     0.262 C 
ATOM     12  C   UNL A   1      34.738  23.314  25.942  1.00  0.00     0.262 C 
ATOM     13  N   UNL A   1      34.545  22.396  24.823  1.00  0.00    -0.334 N 
ATOM     14  H   UNL A   1      35.422  22.478  24.308  1.00  0.00     0.348 HD
BRANCH  13  15
ATOM     15  C   UNL A   1      34.485  20.968  25.206  1.00  0.00     0.270 C 
BRANCH  15  16
ATOM     16  C   UNL A   1      33.769  19.914  24.329  1.00  0.00     0.079 C 
ATOM     17  C   UNL A   1      32.279  19.481  24.602  1.00  0.00     0.050 C 
ATOM     18  C   UNL A   1      34.111  18.458  24.520  1.00  0.00    -0.036 A 
ATOM     19  C   UNL A   1      32.840  18.126  24.927  1.00  0.00    -0.043 A 
ATOM     20  C   UNL A   1      35.123  17.527  24.458  1.00  0.00     0.004 A 
ATOM     21  C   UNL A   1      32.526  16.866  25.381  1.00  0.00     0.004 A 
ATOM     22  C   UNL A   1      34.836  16.237  24.913  1.00  0.00     0.000 A 
ATOM     23  C   UNL A   1      33.550  15.914  25.388  1.00  0.00     0.000 A 
ENDBRANCH  15  16
ENDBRANCH  13  15
ENDBRANCH   7   8
ENDBRANCH   5   7
ENDBRANCH   2   3
ENDBRANCH   1   2
BRANCH   1  24
ATOM     24  C   UNL A   1      32.088  30.165  26.758  1.00  0.00     0.118 C 
BRANCH  24  25
ATOM     25  N   UNL A   1      32.023  31.615  26.876  1.00  0.00    -0.352 N 
ATOM     26  C   UNL A   1      32.910  32.500  27.439  1.00  0.00     0.251 C 
ATOM     27  H   UNL A   1      31.215  32.026  26.491  1.00  0.00     0.163 HD
ATOM     28  O   UNL A   1      32.584  33.678  27.566  1.00  0.00    -0.269 OA
BRANCH  26  29
ATOM     29  C   UNL A   1      34.231  32.039  27.923  1.00  0.00     0.039 A 
ATOM     30  C   UNL A   1      35.258  32.976  28.067  1.00  0.00     0.014 A 
ATOM     31  C   UNL A   1      34.465  30.697  28.234  1.00  0.00     0.014 A 
ATOM     32  C   UNL A   1      36.486  32.586  28.608  1.00  0.00     0.010 A 
ATOM     33  C   UNL A   1      35.666  30.323  28.838  1.00  0.00     0.010 A 
ATOM     34  C   UNL A   1      36.683  31.267  29.048  1.00  0.00    -0.014 A 
BRANCH  34  35
ATOM     35  C   UNL A   1      37.925  30.869  29.765  1.00  0.00     0.031 A 
ATOM     36  C   UNL A   1      38.893  29.902  29.139  1.00  0.00     0.074 A 
ATOM     37  C   UNL A   1      38.143  31.324  31.016  1.00  0.00     0.049 A 
ATOM     38  N   UNL A   1      39.970  29.364  29.649  1.00  0.00    -0.248 NA
ATOM     39  C   UNL A   1      38.593  29.468  27.767  1.00  0.00     0.031 C 
ATOM     40  C   UNL A   1      37.265  32.244  31.743  1.00  0.00     0.029 A 
ATOM     41  N   UNL A   1      39.158  31.069  31.903  1.00  0.00    -0.354 N 
ATOM     42  C   UNL A   1      40.476  28.519  28.666  1.00  0.00     0.074 A 
ATOM     43  C   UNL A   1      39.552  28.578  27.552  1.00  0.00     0.031 C 
ATOM     44  C   UNL A   1      37.789  32.488  32.954  1.00  0.00     0.029 A 
ATOM     45  C   UNL A   1      39.007  31.702  33.116  1.00  0.00     0.049 A 
ATOM     46  H   UNL A   1      39.923  30.486  31.692  1.00  0.00     0.167 HD
ATOM     47  C   UNL A   1      41.613  27.779  28.685  1.00  0.00     0.034 A 
ATOM     48  C   UNL A   1      39.751  31.641  34.239  1.00  0.00     0.034 A 
ATOM     49  C   UNL A   1      42.525  27.732  29.804  1.00  0.00     0.049 A 
ATOM     50  C   UNL A   1      40.979  30.768  34.256  1.00  0.00     0.074 A 
ATOM     51  C   UNL A   1      43.730  27.058  29.905  1.00  0.00     0.029 A 
ATOM     52  N   UNL A   1      42.329  28.371  31.022  1.00  0.00    -0.354 N 
ATOM     53  N   UNL A   1      41.468  30.011  33.300  1.00  0.00    -0.248 NA
ATOM     54  C   UNL A   1      41.757  30.742  35.500  1.00  0.00     0.031 C 
ATOM     55  C   UNL A   1      44.222  27.225  31.204  1.00  0.00     0.029 A 
ATOM     56  C   UNL A   1      43.368  28.072  31.892  1.00  0.00     0.049 A 
ATOM     57  H   UNL A   1      41.563  28.952  31.237  1.00  0.00     0.167 HD
ATOM     58  C   UNL A   1      42.627  29.443  33.821  1.00  0.00     0.074 A 
ATOM     59  C   UNL A   1      42.772  29.958  35.167  1.00  0.00     0.031 C 
ATOM     60  C   UNL A   1      43.494  28.575  33.240  1.00  0.00     0.034 A 
BRANCH  47  61
ATOM     61  C   UNL A   1      41.914  26.934  27.469  1.00  0.00     0.023 A 
ATOM     62  C   UNL A   1      41.600  25.564  27.424  1.00  0.00     0.031 A 
ATOM     63  C   UNL A   1      42.538  27.502  26.344  1.00  0.00     0.131 A 
ATOM     64  C   UNL A   1      41.977  24.794  26.313  1.00  0.00     0.055 A 
ATOM     65  C   UNL A   1      42.835  26.747  25.206  1.00  0.00     0.041 A 
ATOM     66  F   UNL A   1      42.882  28.799  26.334  1.00  0.00    -0.206 F 
ATOM     67  C   UNL A   1      42.568  25.382  25.193  1.00  0.00     0.022 A 
BRANCH  64  68
ATOM     68  S   UNL A   1      41.817  22.991  26.416  1.00  0.00     0.124 S 
ATOM     69  O   UNL A   1      42.486  22.565  25.188  1.00  0.00    -0.237 OA
ATOM     70  O   UNL A   1      42.509  22.683  27.661  1.00  0.00    -0.237 OA
ATOM     71  O   UNL A   1      40.371  22.776  26.434  1.00  0.00    -0.744 OA
ENDBRANCH  64  68
ENDBRANCH  47  61
BRANCH  48  72
ATOM     72  C   UNL A   1      39.345  32.403  35.457  1.00  0.00     0.023 A 
ATOM     73  C   UNL A   1      38.649  31.777  36.502  1.00  0.00     0.031 A 
ATOM     74  C   UNL A   1      39.605  33.780  35.570  1.00  0.00     0.131 A 
ATOM     75  C   UNL A   1      38.194  32.536  37.592  1.00  0.00     0.055 A 
ATOM     76  C   UNL A   1      39.201  34.519  36.683  1.00  0.00     0.041 A 
ATOM     77  F   UNL A   1      40.268  34.429  34.598  1.00  0.00    -0.206 F 
ATOM     78  C   UNL A   1      38.478  33.899  37.697  1.00  0.00     0.022 A 
BRANCH  75  79
ATOM     79  S   UNL A   1      37.141  31.730  38.830  1.00  0.00     0.124 S 
ATOM     80  O   UNL A   1      35.961  32.585  38.816  1.00  0.00    -0.237 OA
ATOM     81  O   UNL A   1      36.975  30.396  38.263  1.00  0.00    -0.237 OA
ATOM     82  O   UNL A   1      37.943  31.791  40.050  1.00  0.00    -0.744 OA
ENDBRANCH  75  79
ENDBRANCH  48  72
BRANCH  60  83
ATOM     83  C   UNL A   1      44.697  28.159  34.053  1.00  0.00     0.023 A 
ATOM     84  C   UNL A   1      44.692  26.992  34.837  1.00  0.00     0.031 A 
ATOM     85  C   UNL A   1      45.860  28.950  34.054  1.00  0.00     0.131 A 
ATOM     86  C   UNL A   1      45.806  26.679  35.633  1.00  0.00     0.055 A 
ATOM     87  C   UNL A   1      46.988  28.599  34.797  1.00  0.00     0.041 A 
ATOM     88  F   UNL A   1      45.921  30.078  33.327  1.00  0.00    -0.206 F 
ATOM     89  C   UNL A   1      46.961  27.465  35.602  1.00  0.00     0.022 A 
BRANCH  86  90
ATOM     90  S   UNL A   1      45.691  25.279  36.781  1.00  0.00     0.124 S 
ATOM     91  O   UNL A   1      46.255  24.192  35.988  1.00  0.00    -0.237 OA
ATOM     92  O   UNL A   1      46.498  25.732  37.908  1.00  0.00    -0.237 OA
ATOM     93  O   UNL A   1      44.258  25.172  37.049  1.00  0.00    -0.744 OA
ENDBRANCH  86  90
ENDBRANCH  60  83
ENDBRANCH  34  35
ENDBRANCH  26  29
ENDBRANCH  24  25
ENDBRANCH   1  24
TORSDOF 16
ENDMDL
MODEL 3
REMARK VINA RESULT:     -12.3      0.905      7.594
REMARK SMILES O=C(CC1CC[NH+](C[C@@H]2Cc3ccccc32)CC1)NCCCNC(=O)c1ccc(-c2c3nc(c(-c4cc(S(=O)(=O)[O-])ccc4F)c4ccc([nH]4)c(-c4cc(S(=O)(=O)[O-])ccc4F)c4nc(c(-c5cc(S(=O)(=O)[O-])ccc5F)c5ccc2[nH]5)C=C4)C=C3)cc1
REMARK SMILES IDX 21 1 20 2 19 3 1 4 2 5 3 7 4 8 5 9 18 10 6 11 17 12 7 13
REMARK SMILES IDX 8 15 9 16 10 17 16 18 11 19 15 20 12 21 14 22 13 23 22 24
REMARK SMILES IDX 23 25 24 26 25 28 26 29 27 30 88 31 28 32 87 33 29 34 30 35
REMARK SMILES IDX 31 36 81 37 32 38 86 39 80 40 82 41 33 42 85 43 79 44 78 45
REMARK SMILES IDX 34 47 66 48 46 49 65 50 47 51 50 52 64 53 83 54 48 55 49 56
REMARK SMILES IDX 63 58 84 59 51 60 35 61 36 62 44 63 37 64 43 65 45 66 42 67
REMARK SMILES IDX 38 68 39 69 40 70 41 71 67 72 68 73 76 74 69 75 75 76 77 77
REMARK SMILES IDX 74 78 70 79 71 80 72 81 73 82 52 83 53 84 61 85 54 86 60 87
REMARK SMILES IDX 62 88 59 89 55 90 56 91 57 92 58 93
REMARK H PARENT 19 6 7 14 23 27 82 46 50 57
REMARK Flexibility Score: inf
ROOT
ATOM      1  C   UNL A   1      35.895  21.330  25.642  1.00  0.00     0.042 C 
ENDROOT
BRANCH   1   2
ATOM      2  C   UNL A   1      34.782  20.728  24.789  1.00  0.00     0.117 C 
BRANCH   2   3
ATOM      3  N   UNL A   1      33.505  21.370  25.028  1.00  0.00    -0.356 N 
ATOM      4  O   UNL A   1      33.568  22.772  23.211  1.00  0.00    -0.275 OA
ATOM      5  C   UNL A   1      32.999  22.350  24.212  1.00  0.00     0.220 C 
ATOM      6  H   UNL A   1      32.977  21.091  25.810  1.00  0.00     0.163 HD
BRANCH   5   7
ATOM      7  C   UNL A   1      31.676  22.922  24.679  1.00  0.00     0.104 C 
BRANCH   7   8
ATOM      8  C   UNL A   1      31.671  23.394  26.152  1.00  0.00     0.009 C 
ATOM      9  C   UNL A   1      30.348  24.096  26.491  1.00  0.00     0.066 C 
ATOM     10  C   UNL A   1      32.783  24.403  26.487  1.00  0.00     0.066 C 
ATOM     11  C   UNL A   1      30.177  25.373  25.662  1.00  0.00     0.262 C 
ATOM     12  C   UNL A   1      32.625  25.724  25.728  1.00  0.00     0.262 C 
ATOM     13  N   UNL A   1      31.287  26.305  25.812  1.00  0.00    -0.334 N 
ATOM     14  H   UNL A   1      31.213  26.563  26.796  1.00  0.00     0.348 HD
BRANCH  13  15
ATOM     15  C   UNL A   1      31.131  27.588  25.092  1.00  0.00     0.270 C 
BRANCH  15  16
ATOM     16  C   UNL A   1      30.780  27.644  23.587  1.00  0.00     0.079 C 
ATOM     17  C   UNL A   1      31.454  28.686  22.615  1.00  0.00     0.050 C 
ATOM     18  C   UNL A   1      29.472  28.268  23.169  1.00  0.00    -0.036 A 
ATOM     19  C   UNL A   1      30.082  29.280  22.464  1.00  0.00    -0.043 A 
ATOM     20  C   UNL A   1      28.102  28.179  23.278  1.00  0.00     0.004 A 
ATOM     21  C   UNL A   1      29.367  30.312  21.904  1.00  0.00     0.004 A 
ATOM     22  C   UNL A   1      27.347  29.213  22.719  1.00  0.00     0.000 A 
ATOM     23  C   UNL A   1      27.976  30.282  22.051  1.00  0.00     0.000 A 
ENDBRANCH  15  16
ENDBRANCH  13  15
ENDBRANCH   7   8
ENDBRANCH   5   7
ENDBRANCH   2   3
ENDBRANCH   1   2
BRANCH   1  24
ATOM     24  C   UNL A   1      37.249  21.443  24.944  1.00  0.00     0.118 C 
BRANCH  24  25
ATOM     25  N   UNL A   1      38.192  20.410  25.349  1.00  0.00    -0.352 N 
ATOM     26  C   UNL A   1      39.399  20.516  25.996  1.00  0.00     0.251 C 
ATOM     27  H   UNL A   1      37.922  19.490  25.124  1.00  0.00     0.163 HD
ATOM     28  O   UNL A   1      40.111  19.520  26.107  1.00  0.00    -0.269 OA
BRANCH  26  29
ATOM     29  C   UNL A   1      39.861  21.820  26.524  1.00  0.00     0.039 A 
ATOM     30  C   UNL A   1      40.850  21.833  27.512  1.00  0.00     0.014 A 
ATOM     31  C   UNL A   1      39.327  23.024  26.058  1.00  0.00     0.014 A 
ATOM     32  C   UNL A   1      41.369  23.049  27.962  1.00  0.00     0.010 A 
ATOM     33  C   UNL A   1      39.894  24.235  26.457  1.00  0.00     0.010 A 
ATOM     34  C   UNL A   1      40.933  24.260  27.400  1.00  0.00    -0.014 A 
BRANCH  34  35
ATOM     35  C   UNL A   1      41.579  25.553  27.754  1.00  0.00     0.031 A 
ATOM     36  C   UNL A   1      40.811  26.613  28.496  1.00  0.00     0.074 A 
ATOM     37  C   UNL A   1      42.839  25.801  27.340  1.00  0.00     0.049 A 
ATOM     38  N   UNL A   1      41.171  27.834  28.802  1.00  0.00    -0.248 NA
ATOM     39  C   UNL A   1      39.452  26.260  28.928  1.00  0.00     0.031 C 
ATOM     40  C   UNL A   1      43.678  24.864  26.589  1.00  0.00     0.029 A 
ATOM     41  N   UNL A   1      43.630  26.913  27.478  1.00  0.00    -0.354 N 
ATOM     42  C   UNL A   1      40.081  28.399  29.455  1.00  0.00     0.074 A 
ATOM     43  C   UNL A   1      39.030  27.403  29.449  1.00  0.00     0.031 C 
ATOM     44  C   UNL A   1      44.869  25.435  26.349  1.00  0.00     0.029 A 
ATOM     45  C   UNL A   1      44.862  26.795  26.877  1.00  0.00     0.049 A 
ATOM     46  H   UNL A   1      43.343  27.722  27.961  1.00  0.00     0.167 HD
ATOM     47  C   UNL A   1      39.975  29.628  30.023  1.00  0.00     0.034 A 
ATOM     48  C   UNL A   1      45.866  27.685  26.744  1.00  0.00     0.034 A 
ATOM     49  C   UNL A   1      41.034  30.610  30.021  1.00  0.00     0.049 A 
ATOM     50  C   UNL A   1      45.703  29.063  27.334  1.00  0.00     0.074 A 
ATOM     51  C   UNL A   1      41.048  31.861  30.614  1.00  0.00     0.029 A 
ATOM     52  N   UNL A   1      42.261  30.461  29.386  1.00  0.00    -0.354 N 
ATOM     53  N   UNL A   1      44.683  29.565  27.990  1.00  0.00    -0.248 NA
ATOM     54  C   UNL A   1      46.828  29.991  27.168  1.00  0.00     0.031 C 
ATOM     55  C   UNL A   1      42.247  32.497  30.272  1.00  0.00     0.029 A 
ATOM     56  C   UNL A   1      43.019  31.613  29.536  1.00  0.00     0.049 A 
ATOM     57  H   UNL A   1      42.549  29.655  28.900  1.00  0.00     0.167 HD
ATOM     58  C   UNL A   1      45.057  30.860  28.339  1.00  0.00     0.074 A 
ATOM     59  C   UNL A   1      46.401  31.053  27.836  1.00  0.00     0.031 C 
ATOM     60  C   UNL A   1      44.353  31.804  29.015  1.00  0.00     0.034 A 
BRANCH  47  61
ATOM     61  C   UNL A   1      38.654  29.987  30.663  1.00  0.00     0.023 A 
ATOM     62  C   UNL A   1      37.670  30.714  29.969  1.00  0.00     0.031 A 
ATOM     63  C   UNL A   1      38.380  29.612  31.990  1.00  0.00     0.131 A 
ATOM     64  C   UNL A   1      36.494  31.106  30.627  1.00  0.00     0.055 A 
ATOM     65  C   UNL A   1      37.171  29.933  32.612  1.00  0.00     0.041 A 
ATOM     66  F   UNL A   1      39.287  28.935  32.711  1.00  0.00    -0.206 F 
ATOM     67  C   UNL A   1      36.227  30.698  31.935  1.00  0.00     0.022 A 
BRANCH  64  68
ATOM     68  S   UNL A   1      35.389  32.280  29.797  1.00  0.00     0.124 S 
ATOM     69  O   UNL A   1      36.300  33.385  29.503  1.00  0.00    -0.237 OA
ATOM     70  O   UNL A   1      34.921  31.515  28.648  1.00  0.00    -0.237 OA
ATOM     71  O   UNL A   1      34.376  32.572  30.810  1.00  0.00    -0.744 OA
ENDBRANCH  64  68
ENDBRANCH  47  61
BRANCH  48  72
ATOM     72  C   UNL A   1      47.107  27.321  25.998  1.00  0.00     0.023 A 
ATOM     73  C   UNL A   1      47.287  27.709  24.662  1.00  0.00     0.031 A 
ATOM     74  C   UNL A   1      48.109  26.537  26.597  1.00  0.00     0.131 A 
ATOM     75  C   UNL A   1      48.417  27.272  23.953  1.00  0.00     0.055 A 
ATOM     76  C   UNL A   1      49.259  26.154  25.905  1.00  0.00     0.041 A 
ATOM     77  F   UNL A   1      47.988  26.138  27.874  1.00  0.00    -0.206 F 
ATOM     78  C   UNL A   1      49.411  26.511  24.569  1.00  0.00     0.022 A 
BRANCH  75  79
ATOM     79  S   UNL A   1      48.522  27.639  22.179  1.00  0.00     0.124 S 
ATOM     80  O   UNL A   1      47.289  28.382  21.957  1.00  0.00    -0.237 OA
ATOM     81  O   UNL A   1      49.760  28.409  22.103  1.00  0.00    -0.237 OA
ATOM     82  O   UNL A   1      48.575  26.315  21.562  1.00  0.00    -0.744 OA
ENDBRANCH  75  79
ENDBRANCH  48  72
BRANCH  60  83
ATOM     83  C   UNL A   1      45.047  33.120  29.278  1.00  0.00     0.023 A 
ATOM     84  C   UNL A   1      44.819  34.250  28.474  1.00  0.00     0.031 A 
ATOM     85  C   UNL A   1      45.960  33.239  30.341  1.00  0.00     0.131 A 
ATOM     86  C   UNL A   1      45.537  35.433  28.710  1.00  0.00     0.055 A 
ATOM     87  C   UNL A   1      46.623  34.437  30.611  1.00  0.00     0.041 A 
ATOM     88  F   UNL A   1      46.221  32.191  31.140  1.00  0.00    -0.206 F 
ATOM     89  C   UNL A   1      46.423  35.539  29.785  1.00  0.00     0.022 A 
BRANCH  86  90
ATOM     90  S   UNL A   1      45.366  36.805  27.536  1.00  0.00     0.124 S 
ATOM     91  O   UNL A   1      45.250  37.954  28.428  1.00  0.00    -0.237 OA
ATOM     92  O   UNL A   1      46.604  36.717  26.769  1.00  0.00    -0.237 OA
ATOM     93  O   UNL A   1      44.152  36.472  26.793  1.00  0.00    -0.744 OA
ENDBRANCH  86  90
ENDBRANCH  60  83
ENDBRANCH  34  35
ENDBRANCH  26  29
ENDBRANCH  24  25
ENDBRANCH   1  24
TORSDOF 16
ENDMDL
