MODEL 1
REMARK VINA RESULT:     -12.2      0.000      0.000
REMARK SMILES O=C(/C=C/c1cc(C(=O)Nc2ccc(F)cc2Cl)cs1)NCCCNC(=O)c1ccc(-c2c3nc(c(-c4cc(S(=O)(=O)[O-])ccc4F)c4ccc([nH]4)c(-c4cc(S(=O)(=O)[O-])ccc4F)c4nc(c(-c5cc(S(=O)(=O)[O-])ccc5F)c5ccc2[nH]5)C=C4)C=C3)cc1
REMARK SMILES IDX 23 1 22 2 21 3 1 4 2 5 3 7 4 8 5 9 6 10 20 11 7 12 19 13
REMARK SMILES IDX 8 14 9 15 10 16 11 18 12 19 17 20 13 21 16 22 18 23 14 24
REMARK SMILES IDX 15 25 24 26 25 27 26 28 27 30 28 31 29 32 90 33 30 34 89 35
REMARK SMILES IDX 31 36 32 37 33 38 83 39 34 40 88 41 82 42 84 43 35 44 87 45
REMARK SMILES IDX 81 46 80 47 36 49 68 50 48 51 67 52 49 53 52 54 66 55 85 56
REMARK SMILES IDX 50 57 51 58 65 60 86 61 53 62 37 63 38 64 46 65 39 66 45 67
REMARK SMILES IDX 47 68 44 69 40 70 41 71 42 72 43 73 69 74 70 75 78 76 71 77
REMARK SMILES IDX 77 78 79 79 76 80 72 81 73 82 74 83 75 84 54 85 55 86 63 87
REMARK SMILES IDX 56 88 62 89 64 90 61 91 57 92 58 93 59 94 60 95
REMARK H PARENT 21 6 10 17 25 29 84 48 52 59
REMARK Flexibility Score: inf
ROOT
ATOM      1  C   UNL A   1      31.183  31.865  26.793  1.00  0.00     0.042 C 
ENDROOT
BRANCH   1   2
ATOM      2  C   UNL A   1      30.994  31.160  25.455  1.00  0.00     0.118 C 
BRANCH   2   3
ATOM      3  N   UNL A   1      31.861  30.008  25.300  1.00  0.00    -0.352 N 
ATOM      4  O   UNL A   1      30.436  28.830  23.930  1.00  0.00    -0.270 OA
ATOM      5  C   UNL A   1      31.496  28.932  24.535  1.00  0.00     0.244 C 
ATOM      6  H   UNL A   1      32.734  30.000  25.754  1.00  0.00     0.163 HD
BRANCH   5   7
ATOM      7  C   UNL A   1      32.549  27.909  24.341  1.00  0.00     0.072 C 
ATOM      8  C   UNL A   1      32.390  26.588  24.521  1.00  0.00     0.024 C 
BRANCH   8   9
ATOM      9  C   UNL A   1      33.496  25.693  24.406  1.00  0.00     0.028 A 
ATOM     10  C   UNL A   1      34.519  25.422  25.298  1.00  0.00     0.033 A 
ATOM     11  S   UNL A   1      33.685  24.707  23.008  1.00  0.00    -0.144 S 
ATOM     12  C   UNL A   1      35.263  24.231  24.988  1.00  0.00     0.051 A 
ATOM     13  C   UNL A   1      34.982  23.829  23.698  1.00  0.00     0.079 A 
BRANCH  12  14
ATOM     14  C   UNL A   1      36.226  23.553  25.858  1.00  0.00     0.256 C 
ATOM     15  O   UNL A   1      37.290  24.090  26.189  1.00  0.00    -0.269 OA
ATOM     16  N   UNL A   1      35.899  22.321  26.389  1.00  0.00    -0.321 N 
ATOM     17  H   UNL A   1      36.399  22.073  27.200  1.00  0.00     0.170 HD
BRANCH  16  18
ATOM     18  C   UNL A   1      34.958  21.362  25.951  1.00  0.00     0.060 A 
ATOM     19  C   UNL A   1      35.307  20.336  25.061  1.00  0.00     0.031 A 
ATOM     20  C   UNL A   1      33.629  21.439  26.407  1.00  0.00     0.067 A 
ATOM     21  C   UNL A   1      34.329  19.476  24.554  1.00  0.00     0.041 A 
ATOM     22  C   UNL A   1      32.651  20.586  25.894  1.00  0.00     0.062 A 
ATOM     23  Cl  UNL A   1      33.146  22.645  27.548  1.00  0.00    -0.082 Cl
ATOM     24  C   UNL A   1      33.010  19.625  24.960  1.00  0.00     0.124 A 
ATOM     25  F   UNL A   1      32.070  18.821  24.445  1.00  0.00    -0.207 F 
ENDBRANCH  16  18
ENDBRANCH  12  14
ENDBRANCH   8   9
ENDBRANCH   5   7
ENDBRANCH   2   3
ENDBRANCH   1   2
BRANCH   1  26
ATOM     26  C   UNL A   1      32.547  32.527  26.968  1.00  0.00     0.118 C 
BRANCH  26  27
ATOM     27  N   UNL A   1      32.466  33.857  27.559  1.00  0.00    -0.352 N 
ATOM     28  C   UNL A   1      33.225  34.438  28.546  1.00  0.00     0.251 C 
ATOM     29  H   UNL A   1      31.755  34.430  27.192  1.00  0.00     0.163 HD
ATOM     30  O   UNL A   1      32.887  35.531  28.993  1.00  0.00    -0.269 OA
BRANCH  28  31
ATOM     31  C   UNL A   1      34.416  33.748  29.093  1.00  0.00     0.039 A 
ATOM     32  C   UNL A   1      35.684  34.225  28.751  1.00  0.00     0.014 A 
ATOM     33  C   UNL A   1      34.293  32.633  29.928  1.00  0.00     0.014 A 
ATOM     34  C   UNL A   1      36.824  33.642  29.311  1.00  0.00     0.010 A 
ATOM     35  C   UNL A   1      35.426  32.091  30.533  1.00  0.00     0.010 A 
ATOM     36  C   UNL A   1      36.701  32.600  30.243  1.00  0.00    -0.014 A 
BRANCH  36  37
ATOM     37  C   UNL A   1      37.888  32.053  30.954  1.00  0.00     0.031 A 
ATOM     38  C   UNL A   1      38.672  30.915  30.363  1.00  0.00     0.074 A 
ATOM     39  C   UNL A   1      38.207  32.532  32.173  1.00  0.00     0.049 A 
ATOM     40  N   UNL A   1      39.657  30.231  30.883  1.00  0.00    -0.248 NA
ATOM     41  C   UNL A   1      38.275  30.475  29.018  1.00  0.00     0.031 C 
ATOM     42  C   UNL A   1      37.502  33.612  32.867  1.00  0.00     0.029 A 
ATOM     43  N   UNL A   1      39.191  32.159  33.055  1.00  0.00    -0.354 N 
ATOM     44  C   UNL A   1      39.994  29.269  29.937  1.00  0.00     0.074 A 
ATOM     45  C   UNL A   1      39.070  29.431  28.832  1.00  0.00     0.031 C 
ATOM     46  C   UNL A   1      38.082  33.820  34.060  1.00  0.00     0.029 A 
ATOM     47  C   UNL A   1      39.165  32.859  34.239  1.00  0.00     0.049 A 
ATOM     48  H   UNL A   1      39.852  31.457  32.858  1.00  0.00     0.167 HD
ATOM     49  C   UNL A   1      40.989  28.347  29.979  1.00  0.00     0.034 A 
ATOM     50  C   UNL A   1      39.911  32.726  35.353  1.00  0.00     0.034 A 
ATOM     51  C   UNL A   1      41.906  28.202  31.085  1.00  0.00     0.049 A 
ATOM     52  C   UNL A   1      40.984  31.669  35.393  1.00  0.00     0.074 A 
ATOM     53  C   UNL A   1      42.988  27.346  31.202  1.00  0.00     0.029 A 
ATOM     54  N   UNL A   1      41.844  28.923  32.272  1.00  0.00    -0.354 N 
ATOM     55  N   UNL A   1      41.317  30.795  34.473  1.00  0.00    -0.248 NA
ATOM     56  C   UNL A   1      41.782  31.585  36.623  1.00  0.00     0.031 C 
ATOM     57  C   UNL A   1      43.538  27.502  32.481  1.00  0.00     0.029 A 
ATOM     58  C   UNL A   1      42.844  28.506  33.138  1.00  0.00     0.049 A 
ATOM     59  H   UNL A   1      41.186  29.628  32.469  1.00  0.00     0.167 HD
ATOM     60  C   UNL A   1      42.379  30.071  35.005  1.00  0.00     0.074 A 
ATOM     61  C   UNL A   1      42.639  30.621  36.319  1.00  0.00     0.031 C 
ATOM     62  C   UNL A   1      43.078  29.046  34.456  1.00  0.00     0.034 A 
BRANCH  49  63
ATOM     63  C   UNL A   1      41.113  27.406  28.806  1.00  0.00     0.023 A 
ATOM     64  C   UNL A   1      42.121  27.561  27.838  1.00  0.00     0.031 A 
ATOM     65  C   UNL A   1      40.196  26.354  28.637  1.00  0.00     0.131 A 
ATOM     66  C   UNL A   1      42.144  26.728  26.710  1.00  0.00     0.055 A 
ATOM     67  C   UNL A   1      40.271  25.478  27.551  1.00  0.00     0.041 A 
ATOM     68  F   UNL A   1      39.201  26.166  29.518  1.00  0.00    -0.206 F 
ATOM     69  C   UNL A   1      41.240  25.672  26.572  1.00  0.00     0.022 A 
BRANCH  66  70
ATOM     70  S   UNL A   1      43.283  27.132  25.358  1.00  0.00     0.124 S 
ATOM     71  O   UNL A   1      43.590  25.807  24.824  1.00  0.00    -0.237 OA
ATOM     72  O   UNL A   1      42.469  27.991  24.506  1.00  0.00    -0.237 OA
ATOM     73  O   UNL A   1      44.396  27.795  26.034  1.00  0.00    -0.744 OA
ENDBRANCH  66  70
ENDBRANCH  49  63
BRANCH  50  74
ATOM     74  C   UNL A   1      39.656  33.593  36.537  1.00  0.00     0.023 A 
ATOM     75  C   UNL A   1      39.049  33.078  37.693  1.00  0.00     0.031 A 
ATOM     76  C   UNL A   1      39.981  34.962  36.514  1.00  0.00     0.131 A 
ATOM     77  C   UNL A   1      38.748  33.933  38.764  1.00  0.00     0.055 A 
ATOM     78  C   UNL A   1      39.722  35.799  37.601  1.00  0.00     0.041 A 
ATOM     79  F   UNL A   1      40.568  35.502  35.434  1.00  0.00    -0.206 F 
ATOM     80  C   UNL A   1      39.090  35.287  38.730  1.00  0.00     0.022 A 
BRANCH  77  81
ATOM     81  S   UNL A   1      37.831  33.262  40.178  1.00  0.00     0.124 S 
ATOM     82  O   UNL A   1      37.782  34.412  41.074  1.00  0.00    -0.237 OA
ATOM     83  O   UNL A   1      36.567  32.874  39.562  1.00  0.00    -0.237 OA
ATOM     84  O   UNL A   1      38.668  32.153  40.630  1.00  0.00    -0.744 OA
ENDBRANCH  77  81
ENDBRANCH  50  74
BRANCH  62  85
ATOM     85  C   UNL A   1      44.211  28.480  35.276  1.00  0.00     0.023 A 
ATOM     86  C   UNL A   1      44.001  27.456  36.216  1.00  0.00     0.031 A 
ATOM     87  C   UNL A   1      45.514  28.989  35.130  1.00  0.00     0.131 A 
ATOM     88  C   UNL A   1      45.067  27.009  37.011  1.00  0.00     0.055 A 
ATOM     89  C   UNL A   1      46.580  28.502  35.886  1.00  0.00     0.041 A 
ATOM     90  F   UNL A   1      45.769  29.969  34.249  1.00  0.00    -0.206 F 
ATOM     91  C   UNL A   1      46.358  27.516  36.842  1.00  0.00     0.022 A 
BRANCH  88  92
ATOM     92  S   UNL A   1      44.727  25.813  38.332  1.00  0.00     0.124 S 
ATOM     93  O   UNL A   1      43.763  26.535  39.155  1.00  0.00    -0.237 OA
ATOM     94  O   UNL A   1      44.204  24.669  37.592  1.00  0.00    -0.237 OA
ATOM     95  O   UNL A   1      46.035  25.603  38.950  1.00  0.00    -0.744 OA
ENDBRANCH  88  92
ENDBRANCH  62  85
ENDBRANCH  36  37
ENDBRANCH  28  31
ENDBRANCH  26  27
ENDBRANCH   1  26
TORSDOF 16
ENDMDL
MODEL 2
REMARK VINA RESULT:     -12.0      1.807      2.247
REMARK SMILES O=C(/C=C/c1cc(C(=O)Nc2ccc(F)cc2Cl)cs1)NCCCNC(=O)c1ccc(-c2c3nc(c(-c4cc(S(=O)(=O)[O-])ccc4F)c4ccc([nH]4)c(-c4cc(S(=O)(=O)[O-])ccc4F)c4nc(c(-c5cc(S(=O)(=O)[O-])ccc5F)c5ccc2[nH]5)C=C4)C=C3)cc1
REMARK SMILES IDX 23 1 22 2 21 3 1 4 2 5 3 7 4 8 5 9 6 10 20 11 7 12 19 13
REMARK SMILES IDX 8 14 9 15 10 16 11 18 12 19 17 20 13 21 16 22 18 23 14 24
REMARK SMILES IDX 15 25 24 26 25 27 26 28 27 30 28 31 29 32 90 33 30 34 89 35
REMARK SMILES IDX 31 36 32 37 33 38 83 39 34 40 88 41 82 42 84 43 35 44 87 45
REMARK SMILES IDX 81 46 80 47 36 49 68 50 48 51 67 52 49 53 52 54 66 55 85 56
REMARK SMILES IDX 50 57 51 58 65 60 86 61 53 62 37 63 38 64 46 65 39 66 45 67
REMARK SMILES IDX 47 68 44 69 40 70 41 71 42 72 43 73 69 74 70 75 78 76 71 77
REMARK SMILES IDX 77 78 79 79 76 80 72 81 73 82 74 83 75 84 54 85 55 86 63 87
REMARK SMILES IDX 56 88 62 89 64 90 61 91 57 92 58 93 59 94 60 95
REMARK H PARENT 21 6 10 17 25 29 84 48 52 59
REMARK Flexibility Score: inf
ROOT
ATOM      1  C   UNL A   1      31.016  31.961  26.731  1.00  0.00     0.042 C 
ENDROOT
BRANCH   1   2
ATOM      2  C   UNL A   1      30.710  31.503  25.310  1.00  0.00     0.118 C 
BRANCH   2   3
ATOM      3  N   UNL A   1      31.273  30.201  25.007  1.00  0.00    -0.352 N 
ATOM      4  O   UNL A   1      29.647  29.594  23.496  1.00  0.00    -0.270 OA
ATOM      5  C   UNL A   1      30.679  29.354  24.108  1.00  0.00     0.244 C 
ATOM      6  H   UNL A   1      32.102  29.920  25.456  1.00  0.00     0.163 HD
BRANCH   5   7
ATOM      7  C   UNL A   1      31.454  28.134  23.784  1.00  0.00     0.072 C 
ATOM      8  C   UNL A   1      32.061  27.890  22.611  1.00  0.00     0.024 C 
BRANCH   8   9
ATOM      9  C   UNL A   1      32.699  26.637  22.362  1.00  0.00     0.028 A 
ATOM     10  C   UNL A   1      33.741  26.019  23.031  1.00  0.00     0.033 A 
ATOM     11  S   UNL A   1      32.160  25.617  21.084  1.00  0.00    -0.144 S 
ATOM     12  C   UNL A   1      33.897  24.626  22.709  1.00  0.00     0.051 A 
ATOM     13  C   UNL A   1      33.176  24.329  21.570  1.00  0.00     0.079 A 
BRANCH  12  14
ATOM     14  C   UNL A   1      34.731  23.655  23.419  1.00  0.00     0.256 C 
ATOM     15  O   UNL A   1      35.803  23.255  22.948  1.00  0.00    -0.269 OA
ATOM     16  N   UNL A   1      34.353  23.242  24.681  1.00  0.00    -0.321 N 
ATOM     17  H   UNL A   1      35.081  22.876  25.233  1.00  0.00     0.170 HD
BRANCH  16  18
ATOM     18  C   UNL A   1      33.084  23.263  25.304  1.00  0.00     0.060 A 
ATOM     19  C   UNL A   1      32.711  24.285  26.189  1.00  0.00     0.031 A 
ATOM     20  C   UNL A   1      32.169  22.228  25.042  1.00  0.00     0.067 A 
ATOM     21  C   UNL A   1      31.498  24.216  26.879  1.00  0.00     0.041 A 
ATOM     22  C   UNL A   1      30.962  22.153  25.737  1.00  0.00     0.062 A 
ATOM     23  Cl  UNL A   1      32.544  20.968  23.918  1.00  0.00    -0.082 Cl
ATOM     24  C   UNL A   1      30.648  23.140  26.661  1.00  0.00     0.124 A 
ATOM     25  F   UNL A   1      29.502  23.060  27.350  1.00  0.00    -0.207 F 
ENDBRANCH  16  18
ENDBRANCH  12  14
ENDBRANCH   8   9
ENDBRANCH   5   7
ENDBRANCH   2   3
ENDBRANCH   1   2
BRANCH   1  26
ATOM     26  C   UNL A   1      32.407  32.564  26.912  1.00  0.00     0.118 C 
BRANCH  26  27
ATOM     27  N   UNL A   1      32.382  33.886  27.527  1.00  0.00    -0.352 N 
ATOM     28  C   UNL A   1      33.195  34.433  28.490  1.00  0.00     0.251 C 
ATOM     29  H   UNL A   1      31.669  34.481  27.200  1.00  0.00     0.163 HD
ATOM     30  O   UNL A   1      32.901  35.525  28.967  1.00  0.00    -0.269 OA
BRANCH  28  31
ATOM     31  C   UNL A   1      34.391  33.707  28.974  1.00  0.00     0.039 A 
ATOM     32  C   UNL A   1      35.656  34.211  28.656  1.00  0.00     0.014 A 
ATOM     33  C   UNL A   1      34.278  32.535  29.726  1.00  0.00     0.014 A 
ATOM     34  C   UNL A   1      36.802  33.591  29.162  1.00  0.00     0.010 A 
ATOM     35  C   UNL A   1      35.417  31.952  30.280  1.00  0.00     0.010 A 
ATOM     36  C   UNL A   1      36.689  32.483  30.016  1.00  0.00    -0.014 A 
BRANCH  36  37
ATOM     37  C   UNL A   1      37.883  31.889  30.675  1.00  0.00     0.031 A 
ATOM     38  C   UNL A   1      38.686  30.826  29.979  1.00  0.00     0.074 A 
ATOM     39  C   UNL A   1      38.192  32.252  31.936  1.00  0.00     0.049 A 
ATOM     40  N   UNL A   1      39.681  30.109  30.434  1.00  0.00    -0.248 NA
ATOM     41  C   UNL A   1      38.298  30.511  28.596  1.00  0.00     0.031 C 
ATOM     42  C   UNL A   1      37.470  33.249  32.728  1.00  0.00     0.029 A 
ATOM     43  N   UNL A   1      39.180  31.811  32.781  1.00  0.00    -0.354 N 
ATOM     44  C   UNL A   1      40.035  29.249  29.400  1.00  0.00     0.074 A 
ATOM     45  C   UNL A   1      39.110  29.503  28.313  1.00  0.00     0.031 C 
ATOM     46  C   UNL A   1      38.044  33.349  33.938  1.00  0.00     0.029 A 
ATOM     47  C   UNL A   1      39.142  32.392  34.027  1.00  0.00     0.049 A 
ATOM     48  H   UNL A   1      39.853  31.141  32.519  1.00  0.00     0.167 HD
ATOM     49  C   UNL A   1      41.044  28.343  29.356  1.00  0.00     0.034 A 
ATOM     50  C   UNL A   1      39.888  32.164  35.125  1.00  0.00     0.034 A 
ATOM     51  C   UNL A   1      41.961  28.105  30.445  1.00  0.00     0.049 A 
ATOM     52  C   UNL A   1      40.977  31.125  35.066  1.00  0.00     0.074 A 
ATOM     53  C   UNL A   1      43.057  27.259  30.483  1.00  0.00     0.029 A 
ATOM     54  N   UNL A   1      41.886  28.708  31.696  1.00  0.00    -0.354 N 
ATOM     55  N   UNL A   1      41.326  30.349  34.066  1.00  0.00    -0.248 NA
ATOM     56  C   UNL A   1      41.775  30.934  36.284  1.00  0.00     0.031 C 
ATOM     57  C   UNL A   1      43.602  27.299  31.772  1.00  0.00     0.029 A 
ATOM     58  C   UNL A   1      42.891  28.224  32.521  1.00  0.00     0.049 A 
ATOM     59  H   UNL A   1      41.216  29.380  31.958  1.00  0.00     0.167 HD
ATOM     60  C   UNL A   1      42.398  29.594  34.530  1.00  0.00     0.074 A 
ATOM     61  C   UNL A   1      42.648  30.018  35.892  1.00  0.00     0.031 C 
ATOM     62  C   UNL A   1      43.114  28.637  33.886  1.00  0.00     0.034 A 
BRANCH  49  63
ATOM     63  C   UNL A   1      41.184  27.522  28.097  1.00  0.00     0.023 A 
ATOM     64  C   UNL A   1      40.836  26.160  28.063  1.00  0.00     0.031 A 
ATOM     65  C   UNL A   1      41.695  28.100  26.922  1.00  0.00     0.131 A 
ATOM     66  C   UNL A   1      41.073  25.406  26.904  1.00  0.00     0.055 A 
ATOM     67  C   UNL A   1      41.856  27.362  25.747  1.00  0.00     0.041 A 
ATOM     68  F   UNL A   1      42.062  29.391  26.900  1.00  0.00    -0.206 F 
ATOM     69  C   UNL A   1      41.559  26.003  25.738  1.00  0.00     0.022 A 
BRANCH  66  70
ATOM     70  S   UNL A   1      40.870  23.605  26.986  1.00  0.00     0.124 S 
ATOM     71  O   UNL A   1      41.684  23.164  25.855  1.00  0.00    -0.237 OA
ATOM     72  O   UNL A   1      41.391  23.289  28.311  1.00  0.00    -0.237 OA
ATOM     73  O   UNL A   1      39.431  23.415  26.818  1.00  0.00    -0.744 OA
ENDBRANCH  66  70
ENDBRANCH  49  63
BRANCH  50  74
ATOM     74  C   UNL A   1      39.617  32.908  36.387  1.00  0.00     0.023 A 
ATOM     75  C   UNL A   1      38.724  32.405  37.345  1.00  0.00     0.031 A 
ATOM     76  C   UNL A   1      40.220  34.155  36.634  1.00  0.00     0.131 A 
ATOM     77  C   UNL A   1      38.426  33.163  38.488  1.00  0.00     0.055 A 
ATOM     78  C   UNL A   1      39.956  34.883  37.795  1.00  0.00     0.041 A 
ATOM     79  F   UNL A   1      41.086  34.677  35.751  1.00  0.00    -0.206 F 
ATOM     80  C   UNL A   1      39.045  34.393  38.725  1.00  0.00     0.022 A 
BRANCH  77  81
ATOM     81  S   UNL A   1      37.157  32.549  39.629  1.00  0.00     0.124 S 
ATOM     82  O   UNL A   1      37.603  31.180  39.862  1.00  0.00    -0.237 OA
ATOM     83  O   UNL A   1      37.291  33.469  40.754  1.00  0.00    -0.237 OA
ATOM     84  O   UNL A   1      35.919  32.682  38.864  1.00  0.00    -0.744 OA
ENDBRANCH  77  81
ENDBRANCH  50  74
BRANCH  62  85
ATOM     85  C   UNL A   1      44.255  28.012  34.651  1.00  0.00     0.023 A 
ATOM     86  C   UNL A   1      44.089  26.820  35.378  1.00  0.00     0.031 A 
ATOM     87  C   UNL A   1      45.517  28.630  34.670  1.00  0.00     0.131 A 
ATOM     88  C   UNL A   1      45.154  26.312  36.137  1.00  0.00     0.055 A 
ATOM     89  C   UNL A   1      46.588  28.090  35.383  1.00  0.00     0.041 A 
ATOM     90  F   UNL A   1      45.729  29.772  33.995  1.00  0.00    -0.206 F 
ATOM     91  C   UNL A   1      46.406  26.931  36.132  1.00  0.00     0.022 A 
BRANCH  88  92
ATOM     92  S   UNL A   1      44.857  24.872  37.200  1.00  0.00     0.124 S 
ATOM     93  O   UNL A   1      46.057  24.856  38.030  1.00  0.00    -0.237 OA
ATOM     94  O   UNL A   1      43.616  25.233  37.878  1.00  0.00    -0.237 OA
ATOM     95  O   UNL A   1      44.743  23.764  36.253  1.00  0.00    -0.744 OA
ENDBRANCH  88  92
ENDBRANCH  62  85
ENDBRANCH  36  37
ENDBRANCH  28  31
ENDBRANCH  26  27
ENDBRANCH   1  26
TORSDOF 16
ENDMDL
MODEL 3
REMARK VINA RESULT:     -11.9      1.795      2.184
REMARK SMILES O=C(/C=C/c1cc(C(=O)Nc2ccc(F)cc2Cl)cs1)NCCCNC(=O)c1ccc(-c2c3nc(c(-c4cc(S(=O)(=O)[O-])ccc4F)c4ccc([nH]4)c(-c4cc(S(=O)(=O)[O-])ccc4F)c4nc(c(-c5cc(S(=O)(=O)[O-])ccc5F)c5ccc2[nH]5)C=C4)C=C3)cc1
REMARK SMILES IDX 23 1 22 2 21 3 1 4 2 5 3 7 4 8 5 9 6 10 20 11 7 12 19 13
REMARK SMILES IDX 8 14 9 15 10 16 11 18 12 19 17 20 13 21 16 22 18 23 14 24
REMARK SMILES IDX 15 25 24 26 25 27 26 28 27 30 28 31 29 32 90 33 30 34 89 35
REMARK SMILES IDX 31 36 32 37 33 38 83 39 34 40 88 41 82 42 84 43 35 44 87 45
REMARK SMILES IDX 81 46 80 47 36 49 68 50 48 51 67 52 49 53 52 54 66 55 85 56
REMARK SMILES IDX 50 57 51 58 65 60 86 61 53 62 37 63 38 64 46 65 39 66 45 67
REMARK SMILES IDX 47 68 44 69 40 70 41 71 42 72 43 73 69 74 70 75 78 76 71 77
REMARK SMILES IDX 77 78 79 79 76 80 72 81 73 82 74 83 75 84 54 85 55 86 63 87
REMARK SMILES IDX 56 88 62 89 64 90 61 91 57 92 58 93 59 94 60 95
REMARK H PARENT 21 6 10 17 25 29 84 48 52 59
REMARK Flexibility Score: inf
ROOT
ATOM      1  C   UNL A   1      32.871  33.051  27.659  1.00  0.00     0.042 C 
ENDROOT
BRANCH   1   2
ATOM      2  C   UNL A   1      33.818  31.878  27.884  1.00  0.00     0.118 C 
BRANCH   2   3
ATOM      3  N   UNL A   1      33.276  30.620  27.406  1.00  0.00    -0.352 N 
ATOM      4  O   UNL A   1      35.225  29.422  27.652  1.00  0.00    -0.270 OA
ATOM      5  C   UNL A   1      34.044  29.488  27.337  1.00  0.00     0.244 C 
ATOM      6  H   UNL A   1      32.333  30.579  27.127  1.00  0.00     0.163 HD
BRANCH   5   7
ATOM      7  C   UNL A   1      33.312  28.249  26.986  1.00  0.00     0.072 C 
ATOM      8  C   UNL A   1      33.374  27.621  25.801  1.00  0.00     0.024 C 
BRANCH   8   9
ATOM      9  C   UNL A   1      32.550  26.487  25.527  1.00  0.00     0.028 A 
ATOM     10  C   UNL A   1      32.278  25.375  26.304  1.00  0.00     0.033 A 
ATOM     11  S   UNL A   1      31.669  26.380  24.052  1.00  0.00    -0.144 S 
ATOM     12  C   UNL A   1      31.153  24.606  25.848  1.00  0.00     0.051 A 
ATOM     13  C   UNL A   1      30.821  24.984  24.563  1.00  0.00     0.079 A 
BRANCH  12  14
ATOM     14  C   UNL A   1      30.474  23.535  26.580  1.00  0.00     0.256 C 
ATOM     15  O   UNL A   1      29.520  23.768  27.332  1.00  0.00    -0.269 OA
ATOM     16  N   UNL A   1      30.853  22.226  26.358  1.00  0.00    -0.321 N 
ATOM     17  H   UNL A   1      30.177  21.552  26.595  1.00  0.00     0.170 HD
BRANCH  16  18
ATOM     18  C   UNL A   1      32.062  21.704  25.843  1.00  0.00     0.060 A 
ATOM     19  C   UNL A   1      32.145  21.163  24.552  1.00  0.00     0.031 A 
ATOM     20  C   UNL A   1      33.216  21.713  26.648  1.00  0.00     0.067 A 
ATOM     21  C   UNL A   1      33.321  20.548  24.116  1.00  0.00     0.041 A 
ATOM     22  C   UNL A   1      34.388  21.091  26.216  1.00  0.00     0.062 A 
ATOM     23  Cl  UNL A   1      33.197  22.415  28.228  1.00  0.00    -0.082 Cl
ATOM     24  C   UNL A   1      34.422  20.500  24.961  1.00  0.00     0.124 A 
ATOM     25  F   UNL A   1      35.536  19.880  24.553  1.00  0.00    -0.207 F 
ENDBRANCH  16  18
ENDBRANCH  12  14
ENDBRANCH   8   9
ENDBRANCH   5   7
ENDBRANCH   2   3
ENDBRANCH   1   2
BRANCH   1  26
ATOM     26  C   UNL A   1      33.481  34.418  27.958  1.00  0.00     0.118 C 
BRANCH  26  27
ATOM     27  N   UNL A   1      32.962  35.022  29.179  1.00  0.00    -0.352 N 
ATOM     28  C   UNL A   1      33.364  34.872  30.484  1.00  0.00     0.251 C 
ATOM     29  H   UNL A   1      32.201  35.633  29.048  1.00  0.00     0.163 HD
ATOM     30  O   UNL A   1      32.686  35.371  31.378  1.00  0.00    -0.269 OA
BRANCH  28  31
ATOM     31  C   UNL A   1      34.579  34.094  30.819  1.00  0.00     0.039 A 
ATOM     32  C   UNL A   1      35.810  34.519  30.310  1.00  0.00     0.014 A 
ATOM     33  C   UNL A   1      34.514  32.949  31.618  1.00  0.00     0.014 A 
ATOM     34  C   UNL A   1      36.982  33.849  30.670  1.00  0.00     0.010 A 
ATOM     35  C   UNL A   1      35.689  32.319  32.025  1.00  0.00     0.010 A 
ATOM     36  C   UNL A   1      36.936  32.771  31.568  1.00  0.00    -0.014 A 
BRANCH  36  37
ATOM     37  C   UNL A   1      38.180  32.129  32.071  1.00  0.00     0.031 A 
ATOM     38  C   UNL A   1      38.837  31.027  31.288  1.00  0.00     0.074 A 
ATOM     39  C   UNL A   1      38.667  32.485  33.277  1.00  0.00     0.049 A 
ATOM     40  N   UNL A   1      39.852  30.271  31.617  1.00  0.00    -0.248 NA
ATOM     41  C   UNL A   1      38.258  30.723  29.971  1.00  0.00     0.031 C 
ATOM     42  C   UNL A   1      38.098  33.517  34.145  1.00  0.00     0.029 A 
ATOM     43  N   UNL A   1      39.737  32.006  33.989  1.00  0.00    -0.354 N 
ATOM     44  C   UNL A   1      40.030  29.390  30.556  1.00  0.00     0.074 A 
ATOM     45  C   UNL A   1      38.982  29.678  29.596  1.00  0.00     0.031 C 
ATOM     46  C   UNL A   1      38.829  33.599  35.268  1.00  0.00     0.029 A 
ATOM     47  C   UNL A   1      39.887  32.595  35.224  1.00  0.00     0.049 A 
ATOM     48  H   UNL A   1      40.340  31.305  33.650  1.00  0.00     0.167 HD
ATOM     49  C   UNL A   1      40.985  28.441  30.390  1.00  0.00     0.034 A 
ATOM     50  C   UNL A   1      40.761  32.340  36.217  1.00  0.00     0.034 A 
ATOM     51  C   UNL A   1      42.026  28.169  31.352  1.00  0.00     0.049 A 
ATOM     52  C   UNL A   1      41.787  31.254  36.028  1.00  0.00     0.074 A 
ATOM     53  C   UNL A   1      43.080  27.275  31.256  1.00  0.00     0.029 A 
ATOM     54  N   UNL A   1      42.141  28.781  32.595  1.00  0.00    -0.354 N 
ATOM     55  N   UNL A   1      41.968  30.458  35.000  1.00  0.00    -0.248 NA
ATOM     56  C   UNL A   1      42.729  31.035  37.133  1.00  0.00     0.031 C 
ATOM     57  C   UNL A   1      43.791  27.299  32.462  1.00  0.00     0.029 A 
ATOM     58  C   UNL A   1      43.224  28.257  33.287  1.00  0.00     0.049 A 
ATOM     59  H   UNL A   1      41.541  29.483  32.935  1.00  0.00     0.167 HD
ATOM     60  C   UNL A   1      43.059  29.659  35.327  1.00  0.00     0.074 A 
ATOM     61  C   UNL A   1      43.503  30.079  36.640  1.00  0.00     0.031 C 
ATOM     62  C   UNL A   1      43.642  28.668  34.606  1.00  0.00     0.034 A 
BRANCH  49  63
ATOM     63  C   UNL A   1      40.923  27.607  29.133  1.00  0.00     0.023 A 
ATOM     64  C   UNL A   1      41.843  27.785  28.084  1.00  0.00     0.031 A 
ATOM     65  C   UNL A   1      39.918  26.638  28.969  1.00  0.00     0.131 A 
ATOM     66  C   UNL A   1      41.694  27.061  26.892  1.00  0.00     0.055 A 
ATOM     67  C   UNL A   1      39.822  25.865  27.810  1.00  0.00     0.041 A 
ATOM     68  F   UNL A   1      39.001  26.436  29.928  1.00  0.00    -0.206 F 
ATOM     69  C   UNL A   1      40.703  26.085  26.756  1.00  0.00     0.022 A 
BRANCH  66  70
ATOM     70  S   UNL A   1      42.725  27.513  25.469  1.00  0.00     0.124 S 
ATOM     71  O   UNL A   1      42.618  26.318  24.636  1.00  0.00    -0.237 OA
ATOM     72  O   UNL A   1      42.058  28.707  24.964  1.00  0.00    -0.237 OA
ATOM     73  O   UNL A   1      44.044  27.735  26.059  1.00  0.00    -0.744 OA
ENDBRANCH  66  70
ENDBRANCH  49  63
BRANCH  50  74
ATOM     74  C   UNL A   1      40.690  33.103  37.495  1.00  0.00     0.023 A 
ATOM     75  C   UNL A   1      39.867  32.674  38.547  1.00  0.00     0.031 A 
ATOM     76  C   UNL A   1      41.417  34.295  37.666  1.00  0.00     0.131 A 
ATOM     77  C   UNL A   1      39.758  33.453  39.710  1.00  0.00     0.055 A 
ATOM     78  C   UNL A   1      41.341  35.041  38.844  1.00  0.00     0.041 A 
ATOM     79  F   UNL A   1      42.223  34.744  36.691  1.00  0.00    -0.206 F 
ATOM     80  C   UNL A   1      40.498  34.627  39.869  1.00  0.00     0.022 A 
BRANCH  77  81
ATOM     81  S   UNL A   1      38.573  32.945  40.986  1.00  0.00     0.124 S 
ATOM     82  O   UNL A   1      38.776  33.967  42.006  1.00  0.00    -0.237 OA
ATOM     83  O   UNL A   1      37.307  33.002  40.262  1.00  0.00    -0.237 OA
ATOM     84  O   UNL A   1      39.020  31.601  41.349  1.00  0.00    -0.744 OA
ENDBRANCH  77  81
ENDBRANCH  50  74
BRANCH  62  85
ATOM     85  C   UNL A   1      44.845  27.998  35.222  1.00  0.00     0.023 A 
ATOM     86  C   UNL A   1      44.730  26.799  35.947  1.00  0.00     0.031 A 
ATOM     87  C   UNL A   1      46.119  28.580  35.102  1.00  0.00     0.131 A 
ATOM     88  C   UNL A   1      45.861  26.247  36.567  1.00  0.00     0.055 A 
ATOM     89  C   UNL A   1      47.250  27.998  35.676  1.00  0.00     0.041 A 
ATOM     90  F   UNL A   1      46.284  29.727  34.423  1.00  0.00    -0.206 F 
ATOM     91  C   UNL A   1      47.123  26.831  36.424  1.00  0.00     0.022 A 
BRANCH  88  92
ATOM     92  S   UNL A   1      45.649  24.797  37.637  1.00  0.00     0.124 S 
ATOM     93  O   UNL A   1      45.185  23.788  36.691  1.00  0.00    -0.237 OA
ATOM     94  O   UNL A   1      46.993  24.601  38.170  1.00  0.00    -0.237 OA
ATOM     95  O   UNL A   1      44.654  25.235  38.615  1.00  0.00    -0.744 OA
ENDBRANCH  88  92
ENDBRANCH  62  85
ENDBRANCH  36  37
ENDBRANCH  28  31
ENDBRANCH  26  27
ENDBRANCH   1  26
TORSDOF 16
ENDMDL
