MODEL 1
REMARK VINA RESULT:     -11.9      0.000      0.000
REMARK SMILES CC(=O)N1CC[NH2+]C[C@@H]1c1ccc(C(=O)NCCCNC(=O)c2ccc(-c3c4nc(c(-c5cc(S(=O)(=O)[O-])ccc5F)c5ccc([nH]5)c(-c5cc(S(=O)(=O)[O-])ccc5F)c5nc(c(-c6cc(S(=O)(=O)[O-])ccc6F)c6ccc3[nH]6)C=C5)C=C4)cc2)cc1
REMARK SMILES IDX 18 1 17 2 16 3 14 4 15 5 13 7 10 8 11 9 87 10 12 11 86 12
REMARK SMILES IDX 9 13 4 14 5 15 6 16 8 17 7 18 2 21 1 22 3 23 19 24 20 25
REMARK SMILES IDX 21 26 22 28 23 29 24 30 85 31 25 32 84 33 26 34 27 35 28 36
REMARK SMILES IDX 78 37 29 38 83 39 77 40 79 41 30 42 82 43 76 44 75 45 31 47
REMARK SMILES IDX 63 48 43 49 62 50 44 51 47 52 61 53 80 54 45 55 46 56 60 58
REMARK SMILES IDX 81 59 48 60 32 61 33 62 41 63 34 64 40 65 42 66 39 67 35 68
REMARK SMILES IDX 36 69 37 70 38 71 64 72 65 73 73 74 66 75 72 76 74 77 71 78
REMARK SMILES IDX 67 79 68 80 69 81 70 82 49 83 50 84 58 85 51 86 57 87 59 88
REMARK SMILES IDX 56 89 52 90 53 91 54 92 55 93
REMARK H PARENT 16 6 7 19 7 20 20 27 79 46 47 57
REMARK Flexibility Score: inf
ROOT
ATOM      1  C   UNL A   1      32.919  29.131  24.810  1.00  0.00     0.042 C 
ENDROOT
BRANCH   1   2
ATOM      2  C   UNL A   1      31.471  29.589  25.008  1.00  0.00     0.118 C 
BRANCH   2   3
ATOM      3  N   UNL A   1      30.767  29.717  23.747  1.00  0.00    -0.352 N 
ATOM      4  C   UNL A   1      30.313  28.806  22.829  1.00  0.00     0.251 C 
ATOM      5  O   UNL A   1      29.644  29.250  21.893  1.00  0.00    -0.269 OA
ATOM      6  H   UNL A   1      30.574  30.651  23.500  1.00  0.00     0.163 HD
BRANCH   4   7
ATOM      7  C   UNL A   1      30.575  27.334  22.886  1.00  0.00     0.039 A 
ATOM      8  C   UNL A   1      31.418  24.611  23.038  1.00  0.00    -0.020 A 
ATOM      9  C   UNL A   1      31.979  25.491  22.099  1.00  0.00     0.007 A 
ATOM     10  C   UNL A   1      30.341  25.089  23.791  1.00  0.00     0.007 A 
ATOM     11  C   UNL A   1      31.562  26.828  22.026  1.00  0.00     0.014 A 
ATOM     12  C   UNL A   1      29.971  26.439  23.764  1.00  0.00     0.014 A 
BRANCH   8  13
ATOM     13  C   UNL A   1      32.023  23.215  23.268  1.00  0.00     0.170 C 
ATOM     14  N   UNL A   1      32.288  22.922  24.701  1.00  0.00    -0.325 N 
ATOM     15  C   UNL A   1      33.434  23.623  25.308  1.00  0.00     0.181 C 
ATOM     16  C   UNL A   1      34.696  23.554  24.427  1.00  0.00     0.282 C 
ATOM     17  C   UNL A   1      33.364  23.027  22.491  1.00  0.00     0.290 C 
ATOM     18  N   UNL A   1      34.465  23.870  23.003  1.00  0.00    -0.343 N 
ATOM     19  H   UNL A   1      35.314  23.684  22.471  1.00  0.00     0.346 HD
ATOM     20  H   UNL A   1      34.217  24.855  22.908  1.00  0.00     0.346 HD
BRANCH  14  21
ATOM     21  C   UNL A   1      31.529  22.083  25.496  1.00  0.00     0.220 C 
ATOM     22  C   UNL A   1      30.573  22.726  26.467  1.00  0.00     0.114 C 
ATOM     23  O   UNL A   1      31.556  20.858  25.382  1.00  0.00    -0.275 OA
ENDBRANCH  14  21
ENDBRANCH   8  13
ENDBRANCH   4   7
ENDBRANCH   2   3
ENDBRANCH   1   2
BRANCH   1  24
ATOM     24  C   UNL A   1      33.771  29.270  26.071  1.00  0.00     0.118 C 
BRANCH  24  25
ATOM     25  N   UNL A   1      33.612  30.586  26.673  1.00  0.00    -0.352 N 
ATOM     26  C   UNL A   1      34.302  31.195  27.688  1.00  0.00     0.251 C 
ATOM     27  H   UNL A   1      32.888  31.130  26.287  1.00  0.00     0.163 HD
ATOM     28  O   UNL A   1      33.826  32.210  28.191  1.00  0.00    -0.269 OA
BRANCH  26  29
ATOM     29  C   UNL A   1      35.587  30.653  28.184  1.00  0.00     0.039 A 
ATOM     30  C   UNL A   1      35.559  29.784  29.281  1.00  0.00     0.014 A 
ATOM     31  C   UNL A   1      36.813  31.048  27.642  1.00  0.00     0.014 A 
ATOM     32  C   UNL A   1      36.752  29.289  29.810  1.00  0.00     0.010 A 
ATOM     33  C   UNL A   1      38.001  30.505  28.133  1.00  0.00     0.010 A 
ATOM     34  C   UNL A   1      37.983  29.628  29.227  1.00  0.00    -0.014 A 
BRANCH  34  35
ATOM     35  C   UNL A   1      39.251  29.069  29.761  1.00  0.00     0.031 A 
ATOM     36  C   UNL A   1      39.905  29.681  30.970  1.00  0.00     0.074 A 
ATOM     37  C   UNL A   1      39.828  28.028  29.131  1.00  0.00     0.049 A 
ATOM     38  N   UNL A   1      41.023  29.350  31.565  1.00  0.00    -0.248 NA
ATOM     39  C   UNL A   1      39.224  30.837  31.573  1.00  0.00     0.031 C 
ATOM     40  C   UNL A   1      39.305  27.380  27.925  1.00  0.00     0.029 A 
ATOM     41  N   UNL A   1      40.977  27.334  29.409  1.00  0.00    -0.354 N 
ATOM     42  C   UNL A   1      41.186  30.258  32.605  1.00  0.00     0.074 A 
ATOM     43  C   UNL A   1      40.079  31.189  32.522  1.00  0.00     0.031 C 
ATOM     44  C   UNL A   1      40.117  26.367  27.584  1.00  0.00     0.029 A 
ATOM     45  C   UNL A   1      41.237  26.318  28.518  1.00  0.00     0.049 A 
ATOM     46  H   UNL A   1      41.561  27.542  30.173  1.00  0.00     0.167 HD
ATOM     47  C   UNL A   1      42.156  30.297  33.554  1.00  0.00     0.034 A 
ATOM     48  C   UNL A   1      42.264  25.449  28.459  1.00  0.00     0.034 A 
ATOM     49  C   UNL A   1      43.247  29.355  33.623  1.00  0.00     0.049 A 
ATOM     50  C   UNL A   1      43.332  25.515  29.518  1.00  0.00     0.074 A 
ATOM     51  C   UNL A   1      44.256  29.268  34.567  1.00  0.00     0.029 A 
ATOM     52  N   UNL A   1      43.478  28.336  32.706  1.00  0.00    -0.354 N 
ATOM     53  N   UNL A   1      43.443  26.347  30.529  1.00  0.00    -0.248 NA
ATOM     54  C   UNL A   1      44.404  24.516  29.439  1.00  0.00     0.031 C 
ATOM     55  C   UNL A   1      45.129  28.242  34.187  1.00  0.00     0.029 A 
ATOM     56  C   UNL A   1      44.628  27.638  33.045  1.00  0.00     0.049 A 
ATOM     57  H   UNL A   1      42.909  28.139  31.928  1.00  0.00     0.167 HD
ATOM     58  C   UNL A   1      44.587  25.955  31.218  1.00  0.00     0.074 A 
ATOM     59  C   UNL A   1      45.112  24.798  30.521  1.00  0.00     0.031 C 
ATOM     60  C   UNL A   1      45.153  26.500  32.326  1.00  0.00     0.034 A 
BRANCH  47  61
ATOM     61  C   UNL A   1      42.089  31.416  34.570  1.00  0.00     0.023 A 
ATOM     62  C   UNL A   1      41.118  31.434  35.587  1.00  0.00     0.031 A 
ATOM     63  C   UNL A   1      42.991  32.493  34.506  1.00  0.00     0.131 A 
ATOM     64  C   UNL A   1      41.020  32.540  36.446  1.00  0.00     0.055 A 
ATOM     65  C   UNL A   1      42.941  33.552  35.415  1.00  0.00     0.041 A 
ATOM     66  F   UNL A   1      43.928  32.543  33.547  1.00  0.00    -0.206 F 
ATOM     67  C   UNL A   1      41.941  33.587  36.383  1.00  0.00     0.022 A 
BRANCH  64  68
ATOM     68  S   UNL A   1      39.586  32.656  37.550  1.00  0.00     0.124 S 
ATOM     69  O   UNL A   1      38.804  31.492  37.140  1.00  0.00    -0.237 OA
ATOM     70  O   UNL A   1      40.198  32.582  38.871  1.00  0.00    -0.237 OA
ATOM     71  O   UNL A   1      38.993  33.948  37.208  1.00  0.00    -0.744 OA
ENDBRANCH  64  68
ENDBRANCH  47  61
BRANCH  48  72
ATOM     72  C   UNL A   1      42.338  24.444  27.361  1.00  0.00     0.023 A 
ATOM     73  C   UNL A   1      41.551  23.281  27.390  1.00  0.00     0.031 A 
ATOM     74  C   UNL A   1      43.221  24.616  26.280  1.00  0.00     0.131 A 
ATOM     75  C   UNL A   1      41.697  22.313  26.383  1.00  0.00     0.055 A 
ATOM     76  C   UNL A   1      43.325  23.675  25.255  1.00  0.00     0.041 A 
ATOM     77  F   UNL A   1      43.989  25.715  26.200  1.00  0.00    -0.206 F 
ATOM     78  C   UNL A   1      42.569  22.508  25.310  1.00  0.00     0.022 A 
BRANCH  75  79
ATOM     79  S   UNL A   1      40.782  20.755  26.540  1.00  0.00     0.124 S 
ATOM     80  O   UNL A   1      40.864  20.503  27.974  1.00  0.00    -0.237 OA
ATOM     81  O   UNL A   1      39.468  21.124  26.026  1.00  0.00    -0.237 OA
ATOM     82  O   UNL A   1      41.540  19.831  25.699  1.00  0.00    -0.744 OA
ENDBRANCH  75  79
ENDBRANCH  48  72
BRANCH  60  83
ATOM     83  C   UNL A   1      46.390  25.818  32.859  1.00  0.00     0.023 A 
ATOM     84  C   UNL A   1      46.309  24.762  33.784  1.00  0.00     0.031 A 
ATOM     85  C   UNL A   1      47.667  26.257  32.466  1.00  0.00     0.131 A 
ATOM     86  C   UNL A   1      47.481  24.227  34.338  1.00  0.00     0.055 A 
ATOM     87  C   UNL A   1      48.830  25.676  32.973  1.00  0.00     0.041 A 
ATOM     88  F   UNL A   1      47.804  27.263  31.588  1.00  0.00    -0.206 F 
ATOM     89  C   UNL A   1      48.741  24.667  33.927  1.00  0.00     0.022 A 
BRANCH  86  90
ATOM     90  S   UNL A   1      47.333  23.027  35.691  1.00  0.00     0.124 S 
ATOM     91  O   UNL A   1      45.889  22.832  35.768  1.00  0.00    -0.237 OA
ATOM     92  O   UNL A   1      48.102  21.894  35.188  1.00  0.00    -0.237 OA
ATOM     93  O   UNL A   1      47.927  23.722  36.831  1.00  0.00    -0.744 OA
ENDBRANCH  86  90
ENDBRANCH  60  83
ENDBRANCH  34  35
ENDBRANCH  26  29
ENDBRANCH  24  25
ENDBRANCH   1  24
TORSDOF 15
ENDMDL
MODEL 2
REMARK VINA RESULT:     -11.9      5.154      7.859
REMARK SMILES CC(=O)N1CC[NH2+]C[C@@H]1c1ccc(C(=O)NCCCNC(=O)c2ccc(-c3c4nc(c(-c5cc(S(=O)(=O)[O-])ccc5F)c5ccc([nH]5)c(-c5cc(S(=O)(=O)[O-])ccc5F)c5nc(c(-c6cc(S(=O)(=O)[O-])ccc6F)c6ccc3[nH]6)C=C5)C=C4)cc2)cc1
REMARK SMILES IDX 18 1 17 2 16 3 14 4 15 5 13 7 10 8 11 9 87 10 12 11 86 12
REMARK SMILES IDX 9 13 4 14 5 15 6 16 8 17 7 18 2 21 1 22 3 23 19 24 20 25
REMARK SMILES IDX 21 26 22 28 23 29 24 30 85 31 25 32 84 33 26 34 27 35 28 36
REMARK SMILES IDX 78 37 29 38 83 39 77 40 79 41 30 42 82 43 76 44 75 45 31 47
REMARK SMILES IDX 63 48 43 49 62 50 44 51 47 52 61 53 80 54 45 55 46 56 60 58
REMARK SMILES IDX 81 59 48 60 32 61 33 62 41 63 34 64 40 65 42 66 39 67 35 68
REMARK SMILES IDX 36 69 37 70 38 71 64 72 65 73 73 74 66 75 72 76 74 77 71 78
REMARK SMILES IDX 67 79 68 80 69 81 70 82 49 83 50 84 58 85 51 86 57 87 59 88
REMARK SMILES IDX 56 89 52 90 53 91 54 92 55 93
REMARK H PARENT 16 6 7 19 7 20 20 27 79 46 47 57
REMARK Flexibility Score: inf
ROOT
ATOM      1  C   UNL A   1      34.405  21.762  26.803  1.00  0.00     0.042 C 
ENDROOT
BRANCH   1   2
ATOM      2  C   UNL A   1      33.143  21.843  25.939  1.00  0.00     0.118 C 
BRANCH   2   3
ATOM      3  N   UNL A   1      31.953  22.063  26.737  1.00  0.00    -0.352 N 
ATOM      4  C   UNL A   1      31.138  23.149  26.925  1.00  0.00     0.251 C 
ATOM      5  O   UNL A   1      30.124  22.967  27.604  1.00  0.00    -0.269 OA
ATOM      6  H   UNL A   1      31.673  21.269  27.248  1.00  0.00     0.163 HD
BRANCH   4   7
ATOM      7  C   UNL A   1      31.395  24.515  26.375  1.00  0.00     0.039 A 
ATOM      8  C   UNL A   1      31.577  27.219  25.477  1.00  0.00    -0.020 A 
ATOM      9  C   UNL A   1      30.451  26.434  25.184  1.00  0.00     0.007 A 
ATOM     10  C   UNL A   1      32.652  26.579  26.101  1.00  0.00     0.007 A 
ATOM     11  C   UNL A   1      30.365  25.105  25.625  1.00  0.00     0.014 A 
ATOM     12  C   UNL A   1      32.538  25.275  26.599  1.00  0.00     0.014 A 
BRANCH   8  13
ATOM     13  C   UNL A   1      31.579  28.730  25.187  1.00  0.00     0.170 C 
ATOM     14  N   UNL A   1      31.112  29.064  23.816  1.00  0.00    -0.325 N 
ATOM     15  C   UNL A   1      32.046  28.756  22.718  1.00  0.00     0.181 C 
ATOM     16  C   UNL A   1      33.477  29.245  23.012  1.00  0.00     0.282 C 
ATOM     17  C   UNL A   1      32.998  29.355  25.370  1.00  0.00     0.290 C 
ATOM     18  N   UNL A   1      33.976  28.901  24.358  1.00  0.00    -0.343 N 
ATOM     19  H   UNL A   1      34.872  29.360  24.518  1.00  0.00     0.346 HD
ATOM     20  H   UNL A   1      34.099  27.890  24.429  1.00  0.00     0.346 HD
BRANCH  14  21
ATOM     21  C   UNL A   1      29.876  29.597  23.503  1.00  0.00     0.220 C 
ATOM     22  C   UNL A   1      28.906  28.712  22.764  1.00  0.00     0.114 C 
ATOM     23  O   UNL A   1      29.526  30.720  23.869  1.00  0.00    -0.275 OA
ENDBRANCH  14  21
ENDBRANCH   8  13
ENDBRANCH   4   7
ENDBRANCH   2   3
ENDBRANCH   1   2
BRANCH   1  24
ATOM     24  C   UNL A   1      35.653  22.289  26.094  1.00  0.00     0.118 C 
BRANCH  24  25
ATOM     25  N   UNL A   1      36.618  21.224  25.863  1.00  0.00    -0.352 N 
ATOM     26  C   UNL A   1      37.982  21.262  25.753  1.00  0.00     0.251 C 
ATOM     27  H   UNL A   1      36.224  20.326  25.769  1.00  0.00     0.163 HD
ATOM     28  O   UNL A   1      38.560  20.272  25.309  1.00  0.00    -0.269 OA
BRANCH  26  29
ATOM     29  C   UNL A   1      38.758  22.458  26.149  1.00  0.00     0.039 A 
ATOM     30  C   UNL A   1      38.315  23.710  25.707  1.00  0.00     0.014 A 
ATOM     31  C   UNL A   1      39.948  22.360  26.875  1.00  0.00     0.014 A 
ATOM     32  C   UNL A   1      39.044  24.859  26.018  1.00  0.00     0.010 A 
ATOM     33  C   UNL A   1      40.643  23.515  27.238  1.00  0.00     0.010 A 
ATOM     34  C   UNL A   1      40.203  24.774  26.805  1.00  0.00    -0.014 A 
BRANCH  34  35
ATOM     35  C   UNL A   1      40.957  25.999  27.173  1.00  0.00     0.031 A 
ATOM     36  C   UNL A   1      40.315  27.065  28.018  1.00  0.00     0.074 A 
ATOM     37  C   UNL A   1      42.213  26.161  26.714  1.00  0.00     0.049 A 
ATOM     38  N   UNL A   1      40.803  28.212  28.419  1.00  0.00    -0.248 NA
ATOM     39  C   UNL A   1      38.929  26.822  28.446  1.00  0.00     0.031 C 
ATOM     40  C   UNL A   1      42.923  25.212  25.852  1.00  0.00     0.029 A 
ATOM     41  N   UNL A   1      43.114  27.177  26.900  1.00  0.00    -0.354 N 
ATOM     42  C   UNL A   1      39.786  28.830  29.137  1.00  0.00     0.074 A 
ATOM     43  C   UNL A   1      38.635  27.954  29.066  1.00  0.00     0.031 C 
ATOM     44  C   UNL A   1      44.157  25.679  25.607  1.00  0.00     0.029 A 
ATOM     45  C   UNL A   1      44.314  26.976  26.257  1.00  0.00     0.049 A 
ATOM     46  H   UNL A   1      42.921  27.976  27.441  1.00  0.00     0.167 HD
ATOM     47  C   UNL A   1      39.818  30.008  29.811  1.00  0.00     0.034 A 
ATOM     48  C   UNL A   1      45.414  27.751  26.196  1.00  0.00     0.034 A 
ATOM     49  C   UNL A   1      40.979  30.863  29.875  1.00  0.00     0.049 A 
ATOM     50  C   UNL A   1      45.423  29.057  26.946  1.00  0.00     0.074 A 
ATOM     51  C   UNL A   1      41.140  32.051  30.568  1.00  0.00     0.029 A 
ATOM     52  N   UNL A   1      42.179  30.627  29.215  1.00  0.00    -0.354 N 
ATOM     53  N   UNL A   1      44.470  29.603  27.667  1.00  0.00    -0.248 NA
ATOM     54  C   UNL A   1      46.661  29.842  26.888  1.00  0.00     0.031 C 
ATOM     55  C   UNL A   1      42.410  32.563  30.276  1.00  0.00     0.029 A 
ATOM     56  C   UNL A   1      43.072  31.660  29.459  1.00  0.00     0.049 A 
ATOM     57  H   UNL A   1      42.367  29.841  28.654  1.00  0.00     0.167 HD
ATOM     58  C   UNL A   1      45.005  30.786  28.167  1.00  0.00     0.074 A 
ATOM     59  C   UNL A   1      46.370  30.859  27.685  1.00  0.00     0.031 C 
ATOM     60  C   UNL A   1      44.423  31.729  28.952  1.00  0.00     0.034 A 
BRANCH  47  61
ATOM     61  C   UNL A   1      38.547  30.446  30.504  1.00  0.00     0.023 A 
ATOM     62  C   UNL A   1      37.557  31.188  29.833  1.00  0.00     0.031 A 
ATOM     63  C   UNL A   1      38.332  30.145  31.860  1.00  0.00     0.131 A 
ATOM     64  C   UNL A   1      36.442  31.668  30.536  1.00  0.00     0.055 A 
ATOM     65  C   UNL A   1      37.179  30.555  32.535  1.00  0.00     0.041 A 
ATOM     66  F   UNL A   1      39.247  29.457  32.561  1.00  0.00    -0.206 F 
ATOM     67  C   UNL A   1      36.233  31.335  31.876  1.00  0.00     0.022 A 
BRANCH  64  68
ATOM     68  S   UNL A   1      35.341  32.852  29.713  1.00  0.00     0.124 S 
ATOM     69  O   UNL A   1      36.299  33.714  29.024  1.00  0.00    -0.237 OA
ATOM     70  O   UNL A   1      34.530  31.990  28.862  1.00  0.00    -0.237 OA
ATOM     71  O   UNL A   1      34.628  33.486  30.821  1.00  0.00    -0.744 OA
ENDBRANCH  64  68
ENDBRANCH  47  61
BRANCH  48  72
ATOM     72  C   UNL A   1      46.595  27.320  25.396  1.00  0.00     0.023 A 
ATOM     73  C   UNL A   1      46.821  27.830  24.107  1.00  0.00     0.031 A 
ATOM     74  C   UNL A   1      47.499  26.366  25.896  1.00  0.00     0.131 A 
ATOM     75  C   UNL A   1      47.896  27.349  23.344  1.00  0.00     0.055 A 
ATOM     76  C   UNL A   1      48.597  25.930  25.153  1.00  0.00     0.041 A 
ATOM     77  F   UNL A   1      47.333  25.855  27.126  1.00  0.00    -0.206 F 
ATOM     78  C   UNL A   1      48.793  26.412  23.863  1.00  0.00     0.022 A 
BRANCH  75  79
ATOM     79  S   UNL A   1      48.063  27.912  21.628  1.00  0.00     0.124 S 
ATOM     80  O   UNL A   1      48.276  26.655  20.921  1.00  0.00    -0.237 OA
ATOM     81  O   UNL A   1      46.779  28.568  21.400  1.00  0.00    -0.237 OA
ATOM     82  O   UNL A   1      49.217  28.807  21.675  1.00  0.00    -0.744 OA
ENDBRANCH  75  79
ENDBRANCH  48  72
BRANCH  60  83
ATOM     83  C   UNL A   1      45.286  32.900  29.356  1.00  0.00     0.023 A 
ATOM     84  C   UNL A   1      45.330  34.080  28.594  1.00  0.00     0.031 A 
ATOM     85  C   UNL A   1      46.104  32.818  30.497  1.00  0.00     0.131 A 
ATOM     86  C   UNL A   1      46.225  35.104  28.941  1.00  0.00     0.055 A 
ATOM     87  C   UNL A   1      46.945  33.866  30.873  1.00  0.00     0.041 A 
ATOM     88  F   UNL A   1      46.105  31.714  31.260  1.00  0.00    -0.206 F 
ATOM     89  C   UNL A   1      47.021  35.011  30.085  1.00  0.00     0.022 A 
BRANCH  86  90
ATOM     90  S   UNL A   1      46.417  36.510  27.810  1.00  0.00     0.124 S 
ATOM     91  O   UNL A   1      47.770  36.309  27.302  1.00  0.00    -0.237 OA
ATOM     92  O   UNL A   1      45.337  36.291  26.854  1.00  0.00    -0.237 OA
ATOM     93  O   UNL A   1      46.247  37.673  28.680  1.00  0.00    -0.744 OA
ENDBRANCH  86  90
ENDBRANCH  60  83
ENDBRANCH  34  35
ENDBRANCH  26  29
ENDBRANCH  24  25
ENDBRANCH   1  24
TORSDOF 15
ENDMDL
MODEL 3
REMARK VINA RESULT:     -11.7      4.908      9.934
REMARK SMILES CC(=O)N1CC[NH2+]C[C@@H]1c1ccc(C(=O)NCCCNC(=O)c2ccc(-c3c4nc(c(-c5cc(S(=O)(=O)[O-])ccc5F)c5ccc([nH]5)c(-c5cc(S(=O)(=O)[O-])ccc5F)c5nc(c(-c6cc(S(=O)(=O)[O-])ccc6F)c6ccc3[nH]6)C=C5)C=C4)cc2)cc1
REMARK SMILES IDX 18 1 17 2 16 3 14 4 15 5 13 7 10 8 11 9 87 10 12 11 86 12
REMARK SMILES IDX 9 13 4 14 5 15 6 16 8 17 7 18 2 21 1 22 3 23 19 24 20 25
REMARK SMILES IDX 21 26 22 28 23 29 24 30 85 31 25 32 84 33 26 34 27 35 28 36
REMARK SMILES IDX 78 37 29 38 83 39 77 40 79 41 30 42 82 43 76 44 75 45 31 47
REMARK SMILES IDX 63 48 43 49 62 50 44 51 47 52 61 53 80 54 45 55 46 56 60 58
REMARK SMILES IDX 81 59 48 60 32 61 33 62 41 63 34 64 40 65 42 66 39 67 35 68
REMARK SMILES IDX 36 69 37 70 38 71 64 72 65 73 73 74 66 75 72 76 74 77 71 78
REMARK SMILES IDX 67 79 68 80 69 81 70 82 49 83 50 84 58 85 51 86 57 87 59 88
REMARK SMILES IDX 56 89 52 90 53 91 54 92 55 93
REMARK H PARENT 16 6 7 19 7 20 20 27 79 46 47 57
REMARK Flexibility Score: inf
ROOT
ATOM      1  C   UNL A   1      35.459  21.721  25.846  1.00  0.00     0.042 C 
ENDROOT
BRANCH   1   2
ATOM      2  C   UNL A   1      35.378  20.502  24.923  1.00  0.00     0.118 C 
BRANCH   2   3
ATOM      3  N   UNL A   1      34.230  19.670  25.225  1.00  0.00    -0.352 N 
ATOM      4  C   UNL A   1      32.877  19.862  25.115  1.00  0.00     0.251 C 
ATOM      5  O   UNL A   1      32.159  18.891  25.365  1.00  0.00    -0.269 OA
ATOM      6  H   UNL A   1      34.473  18.785  25.582  1.00  0.00     0.163 HD
BRANCH   4   7
ATOM      7  C   UNL A   1      32.227  21.150  24.722  1.00  0.00     0.039 A 
ATOM      8  C   UNL A   1      31.142  23.750  24.260  1.00  0.00    -0.020 A 
ATOM      9  C   UNL A   1      30.944  23.090  25.484  1.00  0.00     0.007 A 
ATOM     10  C   UNL A   1      31.770  23.025  23.243  1.00  0.00     0.007 A 
ATOM     11  C   UNL A   1      31.476  21.812  25.707  1.00  0.00     0.014 A 
ATOM     12  C   UNL A   1      32.358  21.779  23.488  1.00  0.00     0.014 A 
BRANCH   8  13
ATOM     13  C   UNL A   1      30.752  25.229  24.092  1.00  0.00     0.170 C 
ATOM     14  N   UNL A   1      31.900  26.099  23.726  1.00  0.00    -0.325 N 
ATOM     15  C   UNL A   1      32.871  26.380  24.799  1.00  0.00     0.181 C 
ATOM     16  C   UNL A   1      32.186  26.793  26.115  1.00  0.00     0.282 C 
ATOM     17  C   UNL A   1      30.109  25.812  25.390  1.00  0.00     0.290 C 
ATOM     18  N   UNL A   1      31.059  25.927  26.516  1.00  0.00    -0.343 N 
ATOM     19  H   UNL A   1      30.586  26.334  27.323  1.00  0.00     0.346 HD
ATOM     20  H   UNL A   1      31.412  25.002  26.764  1.00  0.00     0.346 HD
BRANCH  14  21
ATOM     21  C   UNL A   1      32.134  26.622  22.468  1.00  0.00     0.220 C 
ATOM     22  C   UNL A   1      33.288  27.580  22.320  1.00  0.00     0.114 C 
ATOM     23  O   UNL A   1      31.492  26.276  21.476  1.00  0.00    -0.275 OA
ENDBRANCH  14  21
ENDBRANCH   8  13
ENDBRANCH   4   7
ENDBRANCH   2   3
ENDBRANCH   1   2
BRANCH   1  24
ATOM     24  C   UNL A   1      36.845  22.367  25.867  1.00  0.00     0.118 C 
BRANCH  24  25
ATOM     25  N   UNL A   1      37.889  21.372  26.056  1.00  0.00    -0.352 N 
ATOM     26  C   UNL A   1      39.225  21.515  26.319  1.00  0.00     0.251 C 
ATOM     27  H   UNL A   1      37.585  20.438  25.982  1.00  0.00     0.163 HD
ATOM     28  O   UNL A   1      39.955  20.535  26.190  1.00  0.00    -0.269 OA
BRANCH  26  29
ATOM     29  C   UNL A   1      39.795  22.813  26.745  1.00  0.00     0.039 A 
ATOM     30  C   UNL A   1      39.462  23.955  26.007  1.00  0.00     0.014 A 
ATOM     31  C   UNL A   1      40.708  22.910  27.799  1.00  0.00     0.014 A 
ATOM     32  C   UNL A   1      40.015  25.191  26.346  1.00  0.00     0.010 A 
ATOM     33  C   UNL A   1      41.212  24.155  28.175  1.00  0.00     0.010 A 
ATOM     34  C   UNL A   1      40.878  25.306  27.446  1.00  0.00    -0.014 A 
BRANCH  34  35
ATOM     35  C   UNL A   1      41.435  26.627  27.835  1.00  0.00     0.031 A 
ATOM     36  C   UNL A   1      42.846  26.999  27.466  1.00  0.00     0.074 A 
ATOM     37  C   UNL A   1      40.674  27.477  28.551  1.00  0.00     0.049 A 
ATOM     38  N   UNL A   1      43.514  28.091  27.739  1.00  0.00    -0.248 NA
ATOM     39  C   UNL A   1      43.617  25.996  26.715  1.00  0.00     0.031 C 
ATOM     40  C   UNL A   1      39.306  27.206  29.000  1.00  0.00     0.029 A 
ATOM     41  N   UNL A   1      40.937  28.734  29.029  1.00  0.00    -0.354 N 
ATOM     42  C   UNL A   1      44.783  27.906  27.202  1.00  0.00     0.074 A 
ATOM     43  C   UNL A   1      44.807  26.572  26.639  1.00  0.00     0.031 C 
ATOM     44  C   UNL A   1      38.843  28.276  29.666  1.00  0.00     0.029 A 
ATOM     45  C   UNL A   1      39.890  29.290  29.726  1.00  0.00     0.049 A 
ATOM     46  H   UNL A   1      41.795  29.196  28.889  1.00  0.00     0.167 HD
ATOM     47  C   UNL A   1      45.823  28.778  27.164  1.00  0.00     0.034 A 
ATOM     48  C   UNL A   1      39.787  30.480  30.348  1.00  0.00     0.034 A 
ATOM     49  C   UNL A   1      45.776  30.107  27.725  1.00  0.00     0.049 A 
ATOM     50  C   UNL A   1      40.956  31.428  30.298  1.00  0.00     0.074 A 
ATOM     51  C   UNL A   1      46.750  31.091  27.700  1.00  0.00     0.029 A 
ATOM     52  N   UNL A   1      44.697  30.639  28.422  1.00  0.00    -0.354 N 
ATOM     53  N   UNL A   1      42.133  31.260  29.738  1.00  0.00    -0.248 NA
ATOM     54  C   UNL A   1      40.778  32.731  30.948  1.00  0.00     0.031 C 
ATOM     55  C   UNL A   1      46.286  32.189  28.434  1.00  0.00     0.029 A 
ATOM     56  C   UNL A   1      44.994  31.923  28.857  1.00  0.00     0.049 A 
ATOM     57  H   UNL A   1      43.847  30.172  28.584  1.00  0.00     0.167 HD
ATOM     58  C   UNL A   1      42.827  32.447  29.951  1.00  0.00     0.074 A 
ATOM     59  C   UNL A   1      41.925  33.329  30.667  1.00  0.00     0.031 C 
ATOM     60  C   UNL A   1      44.092  32.781  29.589  1.00  0.00     0.034 A 
BRANCH  47  61
ATOM     61  C   UNL A   1      47.105  28.301  26.518  1.00  0.00     0.023 A 
ATOM     62  C   UNL A   1      47.278  28.312  25.122  1.00  0.00     0.031 A 
ATOM     63  C   UNL A   1      48.159  27.804  27.304  1.00  0.00     0.131 A 
ATOM     64  C   UNL A   1      48.439  27.764  24.553  1.00  0.00     0.055 A 
ATOM     65  C   UNL A   1      49.347  27.335  26.737  1.00  0.00     0.041 A 
ATOM     66  F   UNL A   1      48.048  27.750  28.641  1.00  0.00    -0.206 F 
ATOM     67  C   UNL A   1      49.485  27.299  25.353  1.00  0.00     0.022 A 
BRANCH  64  68
ATOM     68  S   UNL A   1      48.499  27.537  22.755  1.00  0.00     0.124 S 
ATOM     69  O   UNL A   1      48.506  26.080  22.643  1.00  0.00    -0.237 OA
ATOM     70  O   UNL A   1      47.283  28.207  22.311  1.00  0.00    -0.237 OA
ATOM     71  O   UNL A   1      49.749  28.189  22.368  1.00  0.00    -0.744 OA
ENDBRANCH  64  68
ENDBRANCH  47  61
BRANCH  48  72
ATOM     72  C   UNL A   1      38.537  30.846  31.073  1.00  0.00     0.023 A 
ATOM     73  C   UNL A   1      37.477  31.486  30.411  1.00  0.00     0.031 A 
ATOM     74  C   UNL A   1      38.397  30.589  32.449  1.00  0.00     0.131 A 
ATOM     75  C   UNL A   1      36.344  31.889  31.135  1.00  0.00     0.055 A 
ATOM     76  C   UNL A   1      37.246  30.946  33.153  1.00  0.00     0.041 A 
ATOM     77  F   UNL A   1      39.378  29.971  33.127  1.00  0.00    -0.206 F 
ATOM     78  C   UNL A   1      36.216  31.613  32.498  1.00  0.00     0.022 A 
BRANCH  75  79
ATOM     79  S   UNL A   1      35.067  32.853  30.279  1.00  0.00     0.124 S 
ATOM     80  O   UNL A   1      34.744  31.986  29.152  1.00  0.00    -0.237 OA
ATOM     81  O   UNL A   1      34.041  32.977  31.309  1.00  0.00    -0.237 OA
ATOM     82  O   UNL A   1      35.755  34.096  29.935  1.00  0.00    -0.744 OA
ENDBRANCH  75  79
ENDBRANCH  48  72
BRANCH  60  83
ATOM     83  C   UNL A   1      44.551  34.175  29.943  1.00  0.00     0.023 A 
ATOM     84  C   UNL A   1      44.367  35.257  29.063  1.00  0.00     0.031 A 
ATOM     85  C   UNL A   1      45.218  34.417  31.158  1.00  0.00     0.131 A 
ATOM     86  C   UNL A   1      44.904  36.514  29.379  1.00  0.00     0.055 A 
ATOM     87  C   UNL A   1      45.692  35.685  31.494  1.00  0.00     0.041 A 
ATOM     88  F   UNL A   1      45.423  33.421  32.034  1.00  0.00    -0.206 F 
ATOM     89  C   UNL A   1      45.552  36.738  30.596  1.00  0.00     0.022 A 
BRANCH  86  90
ATOM     90  S   UNL A   1      44.845  37.823  28.125  1.00  0.00     0.124 S 
ATOM     91  O   UNL A   1      46.055  38.582  28.420  1.00  0.00    -0.237 OA
ATOM     92  O   UNL A   1      44.856  37.063  26.880  1.00  0.00    -0.237 OA
ATOM     93  O   UNL A   1      43.591  38.518  28.414  1.00  0.00    -0.744 OA
ENDBRANCH  86  90
ENDBRANCH  60  83
ENDBRANCH  34  35
ENDBRANCH  26  29
ENDBRANCH  24  25
ENDBRANCH   1  24
TORSDOF 15
ENDMDL
