MODEL 1
REMARK VINA RESULT:     -11.8      0.000      0.000
REMARK SMILES CCC[NH2+][C@]1(C(=O)NCCCNC(=O)c2ccc(-c3c4nc(c(-c5cc(S(=O)(=O)[O-])ccc5F)c5ccc([nH]5)c(-c5cc(S(=O)(=O)[O-])ccc5F)c5nc(c(-c6cc(S(=O)(=O)[O-])ccc6F)c6ccc3[nH]6)C=C5)C=C4)cc2)CC[C@H]([N@@H+]2CCC[C@H]3CCC[C@H]32)C1
REMARK SMILES IDX 10 1 9 2 8 3 6 4 7 5 5 7 78 8 90 9 79 10 80 11 4 12 3 15
REMARK SMILES IDX 2 16 1 17 81 18 82 19 89 20 83 22 85 23 88 24 84 25 86 26
REMARK SMILES IDX 87 27 11 28 12 29 13 30 14 32 15 33 16 34 77 35 17 36 76 37
REMARK SMILES IDX 18 38 19 39 20 40 70 41 21 42 75 43 69 44 71 45 22 46 74 47
REMARK SMILES IDX 68 48 67 49 23 51 55 52 35 53 54 54 36 55 39 56 53 57 72 58
REMARK SMILES IDX 37 59 38 60 52 62 73 63 40 64 24 65 25 66 33 67 26 68 32 69
REMARK SMILES IDX 34 70 31 71 27 72 28 73 29 74 30 75 56 76 57 77 65 78 58 79
REMARK SMILES IDX 64 80 66 81 63 82 59 83 60 84 61 85 62 86 41 87 42 88 50 89
REMARK SMILES IDX 43 90 49 91 51 92 48 93 44 94 45 95 46 96 47 97
REMARK H PARENT 8 6 4 13 4 14 81 21 12 31 71 50 39 61
REMARK Flexibility Score: inf
ROOT
ATOM      1  C   UNL A   1      31.450  32.103  26.499  1.00  0.00     0.042 C 
ENDROOT
BRANCH   1   2
ATOM      2  C   UNL A   1      31.431  30.590  26.302  1.00  0.00     0.118 C 
BRANCH   2   3
ATOM      3  N   UNL A   1      31.413  30.094  24.915  1.00  0.00    -0.351 N 
ATOM      4  C   UNL A   1      31.382  28.819  24.369  1.00  0.00     0.281 C 
ATOM      5  O   UNL A   1      30.748  28.690  23.314  1.00  0.00    -0.268 OA
ATOM      6  H   UNL A   1      31.426  30.811  24.241  1.00  0.00     0.163 HD
BRANCH   4   7
ATOM      7  C   UNL A   1      32.270  27.622  24.933  1.00  0.00     0.181 C 
ATOM      8  C   UNL A   1      31.610  27.209  26.239  1.00  0.00     0.085 C 
ATOM      9  C   UNL A   1      32.314  26.263  24.142  1.00  0.00     0.144 C 
ATOM     10  C   UNL A   1      31.651  25.729  26.442  1.00  0.00     0.072 C 
ATOM     11  C   UNL A   1      32.140  25.086  25.151  1.00  0.00     0.191 C 
BRANCH   7  12
ATOM     12  N   UNL A   1      33.676  28.126  25.020  1.00  0.00    -0.333 N 
ATOM     13  H   UNL A   1      34.289  27.490  24.508  1.00  0.00     0.347 HD
ATOM     14  H   UNL A   1      33.709  29.061  24.616  1.00  0.00     0.347 HD
BRANCH  12  15
ATOM     15  C   UNL A   1      34.131  28.206  26.433  1.00  0.00     0.261 C 
BRANCH  15  16
ATOM     16  C   UNL A   1      34.933  29.466  26.776  1.00  0.00     0.058 C 
ATOM     17  C   UNL A   1      34.930  29.807  28.259  1.00  0.00     0.010 C 
ENDBRANCH  15  16
ENDBRANCH  12  15
ENDBRANCH   7  12
BRANCH  11  18
ATOM     18  N   UNL A   1      33.011  23.885  25.339  1.00  0.00    -0.330 N 
ATOM     19  C   UNL A   1      34.437  24.270  25.008  1.00  0.00     0.262 C 
ATOM     20  C   UNL A   1      32.744  22.532  24.731  1.00  0.00     0.187 C 
ATOM     21  H   UNL A   1      32.777  23.679  26.309  1.00  0.00     0.348 HD
ATOM     22  C   UNL A   1      34.926  23.940  23.570  1.00  0.00     0.062 C 
ATOM     23  C   UNL A   1      32.655  22.734  23.220  1.00  0.00     0.048 C 
ATOM     24  C   UNL A   1      33.050  20.972  24.757  1.00  0.00     0.065 C 
ATOM     25  C   UNL A   1      33.981  23.180  22.615  1.00  0.00     0.015 C 
ATOM     26  C   UNL A   1      32.085  21.449  22.601  1.00  0.00     0.010 C 
ATOM     27  C   UNL A   1      32.362  20.323  23.574  1.00  0.00     0.007 C 
ENDBRANCH  11  18
ENDBRANCH   4   7
ENDBRANCH   2   3
ENDBRANCH   1   2
BRANCH   1  28
ATOM     28  C   UNL A   1      32.698  32.642  27.194  1.00  0.00     0.118 C 
BRANCH  28  29
ATOM     29  N   UNL A   1      32.552  34.024  27.647  1.00  0.00    -0.352 N 
ATOM     30  C   UNL A   1      33.173  34.741  28.645  1.00  0.00     0.251 C 
ATOM     31  H   UNL A   1      31.883  34.540  27.143  1.00  0.00     0.163 HD
ATOM     32  O   UNL A   1      32.732  35.849  28.928  1.00  0.00    -0.269 OA
BRANCH  30  33
ATOM     33  C   UNL A   1      34.338  34.200  29.385  1.00  0.00     0.039 A 
ATOM     34  C   UNL A   1      34.110  33.372  30.491  1.00  0.00     0.014 A 
ATOM     35  C   UNL A   1      35.646  34.541  29.043  1.00  0.00     0.014 A 
ATOM     36  C   UNL A   1      35.189  32.835  31.201  1.00  0.00     0.010 A 
ATOM     37  C   UNL A   1      36.720  33.934  29.691  1.00  0.00     0.010 A 
ATOM     38  C   UNL A   1      36.507  33.077  30.783  1.00  0.00    -0.014 A 
BRANCH  38  39
ATOM     39  C   UNL A   1      37.673  32.467  31.478  1.00  0.00     0.031 A 
ATOM     40  C   UNL A   1      38.420  31.325  30.839  1.00  0.00     0.074 A 
ATOM     41  C   UNL A   1      38.018  32.892  32.710  1.00  0.00     0.049 A 
ATOM     42  N   UNL A   1      39.391  30.593  31.324  1.00  0.00    -0.248 NA
ATOM     43  C   UNL A   1      37.993  30.934  29.486  1.00  0.00     0.031 C 
ATOM     44  C   UNL A   1      37.353  33.967  33.450  1.00  0.00     0.029 A 
ATOM     45  N   UNL A   1      39.006  32.466  33.565  1.00  0.00    -0.354 N 
ATOM     46  C   UNL A   1      39.679  29.646  30.346  1.00  0.00     0.074 A 
ATOM     47  C   UNL A   1      38.733  29.857  29.271  1.00  0.00     0.031 C 
ATOM     48  C   UNL A   1      37.967  34.133  34.633  1.00  0.00     0.029 A 
ATOM     49  C   UNL A   1      39.032  33.144  34.764  1.00  0.00     0.049 A 
ATOM     50  H   UNL A   1      39.636  31.744  33.342  1.00  0.00     0.167 HD
ATOM     51  C   UNL A   1      40.655  28.704  30.335  1.00  0.00     0.034 A 
ATOM     52  C   UNL A   1      39.811  32.977  35.851  1.00  0.00     0.034 A 
ATOM     53  C   UNL A   1      41.598  28.516  31.411  1.00  0.00     0.049 A 
ATOM     54  C   UNL A   1      40.868  31.900  35.830  1.00  0.00     0.074 A 
ATOM     55  C   UNL A   1      42.658  27.629  31.483  1.00  0.00     0.029 A 
ATOM     56  N   UNL A   1      41.592  29.220  32.608  1.00  0.00    -0.354 N 
ATOM     57  N   UNL A   1      41.156  31.042  34.878  1.00  0.00    -0.248 NA
ATOM     58  C   UNL A   1      41.713  31.777  37.025  1.00  0.00     0.031 C 
ATOM     59  C   UNL A   1      43.241  27.741  32.748  1.00  0.00     0.029 A 
ATOM     60  C   UNL A   1      42.607  28.764  33.437  1.00  0.00     0.049 A 
ATOM     61  H   UNL A   1      40.959  29.940  32.837  1.00  0.00     0.167 HD
ATOM     62  C   UNL A   1      42.240  30.303  35.348  1.00  0.00     0.074 A 
ATOM     63  C   UNL A   1      42.561  30.828  36.659  1.00  0.00     0.031 C 
ATOM     64  C   UNL A   1      42.914  29.290  34.746  1.00  0.00     0.034 A 
BRANCH  51  65
ATOM     65  C   UNL A   1      40.731  27.792  29.132  1.00  0.00     0.023 A 
ATOM     66  C   UNL A   1      41.676  27.991  28.108  1.00  0.00     0.031 A 
ATOM     67  C   UNL A   1      39.830  26.720  28.991  1.00  0.00     0.131 A 
ATOM     68  C   UNL A   1      41.645  27.189  26.958  1.00  0.00     0.055 A 
ATOM     69  C   UNL A   1      39.864  25.868  27.884  1.00  0.00     0.041 A 
ATOM     70  F   UNL A   1      38.891  26.489  29.922  1.00  0.00    -0.206 F 
ATOM     71  C   UNL A   1      40.764  26.110  26.851  1.00  0.00     0.022 A 
BRANCH  68  72
ATOM     72  S   UNL A   1      42.665  27.672  25.539  1.00  0.00     0.124 S 
ATOM     73  O   UNL A   1      42.581  26.481  24.697  1.00  0.00    -0.237 OA
ATOM     74  O   UNL A   1      41.973  28.856  25.041  1.00  0.00    -0.237 OA
ATOM     75  O   UNL A   1      43.979  27.918  26.128  1.00  0.00    -0.744 OA
ENDBRANCH  68  72
ENDBRANCH  51  65
BRANCH  52  76
ATOM     76  C   UNL A   1      39.623  33.834  37.059  1.00  0.00     0.023 A 
ATOM     77  C   UNL A   1      38.966  33.344  38.199  1.00  0.00     0.031 A 
ATOM     78  C   UNL A   1      40.055  35.173  37.072  1.00  0.00     0.131 A 
ATOM     79  C   UNL A   1      38.712  34.200  39.283  1.00  0.00     0.055 A 
ATOM     80  C   UNL A   1      39.854  36.003  38.178  1.00  0.00     0.041 A 
ATOM     81  F   UNL A   1      40.689  35.694  36.010  1.00  0.00    -0.206 F 
ATOM     82  C   UNL A   1      39.166  35.521  39.286  1.00  0.00     0.022 A 
BRANCH  79  83
ATOM     83  S   UNL A   1      37.691  33.588  40.651  1.00  0.00     0.124 S 
ATOM     84  O   UNL A   1      36.611  32.915  39.938  1.00  0.00    -0.237 OA
ATOM     85  O   UNL A   1      38.626  32.724  41.364  1.00  0.00    -0.237 OA
ATOM     86  O   UNL A   1      37.308  34.807  41.361  1.00  0.00    -0.744 OA
ENDBRANCH  79  83
ENDBRANCH  52  76
BRANCH  64  87
ATOM     87  C   UNL A   1      44.103  28.720  35.481  1.00  0.00     0.023 A 
ATOM     88  C   UNL A   1      43.974  27.680  36.419  1.00  0.00     0.031 A 
ATOM     89  C   UNL A   1      45.391  29.235  35.243  1.00  0.00     0.131 A 
ATOM     90  C   UNL A   1      45.100  27.230  37.125  1.00  0.00     0.055 A 
ATOM     91  C   UNL A   1      46.518  28.735  35.897  1.00  0.00     0.041 A 
ATOM     92  F   UNL A   1      45.576  30.231  34.361  1.00  0.00    -0.206 F 
ATOM     93  C   UNL A   1      46.374  27.737  36.856  1.00  0.00     0.022 A 
BRANCH  90  94
ATOM     94  S   UNL A   1      44.864  26.044  38.477  1.00  0.00     0.124 S 
ATOM     95  O   UNL A   1      44.427  24.850  37.759  1.00  0.00    -0.237 OA
ATOM     96  O   UNL A   1      46.194  25.979  39.072  1.00  0.00    -0.237 OA
ATOM     97  O   UNL A   1      43.841  26.674  39.311  1.00  0.00    -0.744 OA
ENDBRANCH  90  94
ENDBRANCH  64  87
ENDBRANCH  38  39
ENDBRANCH  30  33
ENDBRANCH  28  29
ENDBRANCH   1  28
TORSDOF 17
ENDMDL
MODEL 2
REMARK VINA RESULT:     -11.5      5.740     10.778
REMARK SMILES CCC[NH2+][C@]1(C(=O)NCCCNC(=O)c2ccc(-c3c4nc(c(-c5cc(S(=O)(=O)[O-])ccc5F)c5ccc([nH]5)c(-c5cc(S(=O)(=O)[O-])ccc5F)c5nc(c(-c6cc(S(=O)(=O)[O-])ccc6F)c6ccc3[nH]6)C=C5)C=C4)cc2)CC[C@H]([N@@H+]2CCC[C@H]3CCC[C@H]32)C1
REMARK SMILES IDX 10 1 9 2 8 3 6 4 7 5 5 7 78 8 90 9 79 10 80 11 4 12 3 15
REMARK SMILES IDX 2 16 1 17 81 18 82 19 89 20 83 22 85 23 88 24 84 25 86 26
REMARK SMILES IDX 87 27 11 28 12 29 13 30 14 32 15 33 16 34 77 35 17 36 76 37
REMARK SMILES IDX 18 38 19 39 20 40 70 41 21 42 75 43 69 44 71 45 22 46 74 47
REMARK SMILES IDX 68 48 67 49 23 51 55 52 35 53 54 54 36 55 39 56 53 57 72 58
REMARK SMILES IDX 37 59 38 60 52 62 73 63 40 64 24 65 25 66 33 67 26 68 32 69
REMARK SMILES IDX 34 70 31 71 27 72 28 73 29 74 30 75 56 76 57 77 65 78 58 79
REMARK SMILES IDX 64 80 66 81 63 82 59 83 60 84 61 85 62 86 41 87 42 88 50 89
REMARK SMILES IDX 43 90 49 91 51 92 48 93 44 94 45 95 46 96 47 97
REMARK H PARENT 8 6 4 13 4 14 81 21 12 31 71 50 39 61
REMARK Flexibility Score: inf
ROOT
ATOM      1  C   UNL A   1      34.798  21.889  26.906  1.00  0.00     0.042 C 
ENDROOT
BRANCH   1   2
ATOM      2  C   UNL A   1      33.340  21.704  26.498  1.00  0.00     0.118 C 
BRANCH   2   3
ATOM      3  N   UNL A   1      32.347  22.586  27.136  1.00  0.00    -0.351 N 
ATOM      4  C   UNL A   1      31.423  23.489  26.630  1.00  0.00     0.281 C 
ATOM      5  O   UNL A   1      30.355  23.583  27.248  1.00  0.00    -0.268 OA
ATOM      6  H   UNL A   1      32.337  22.521  28.118  1.00  0.00     0.163 HD
BRANCH   4   7
ATOM      7  C   UNL A   1      31.771  24.503  25.452  1.00  0.00     0.181 C 
ATOM      8  C   UNL A   1      32.227  23.632  24.291  1.00  0.00     0.085 C 
ATOM      9  C   UNL A   1      30.613  25.343  24.798  1.00  0.00     0.144 C 
ATOM     10  C   UNL A   1      31.754  24.163  22.976  1.00  0.00     0.072 C 
ATOM     11  C   UNL A   1      30.762  25.286  23.246  1.00  0.00     0.191 C 
BRANCH   7  12
ATOM     12  N   UNL A   1      32.769  25.477  25.995  1.00  0.00    -0.333 N 
ATOM     13  H   UNL A   1      33.396  24.989  26.634  1.00  0.00     0.347 HD
ATOM     14  H   UNL A   1      33.289  25.874  25.214  1.00  0.00     0.347 HD
BRANCH  12  15
ATOM     15  C   UNL A   1      32.096  26.584  26.725  1.00  0.00     0.261 C 
BRANCH  15  16
ATOM     16  C   UNL A   1      33.005  27.772  27.062  1.00  0.00     0.058 C 
ATOM     17  C   UNL A   1      32.252  29.081  27.248  1.00  0.00     0.010 C 
ENDBRANCH  15  16
ENDBRANCH  12  15
ENDBRANCH   7  12
BRANCH  11  18
ATOM     18  N   UNL A   1      30.820  26.422  22.275  1.00  0.00    -0.330 N 
ATOM     19  C   UNL A   1      32.228  26.513  21.727  1.00  0.00     0.262 C 
ATOM     20  C   UNL A   1      30.347  27.822  22.568  1.00  0.00     0.187 C 
ATOM     21  H   UNL A   1      30.074  26.124  21.648  1.00  0.00     0.348 HD
ATOM     22  C   UNL A   1      33.173  27.537  22.414  1.00  0.00     0.062 C 
ATOM     23  C   UNL A   1      31.115  28.302  23.798  1.00  0.00     0.048 C 
ATOM     24  C   UNL A   1      29.905  29.234  21.983  1.00  0.00     0.065 C 
ATOM     25  C   UNL A   1      32.609  28.442  23.530  1.00  0.00     0.015 C 
ATOM     26  C   UNL A   1      30.447  29.589  24.304  1.00  0.00     0.010 C 
ATOM     27  C   UNL A   1      29.697  30.192  23.137  1.00  0.00     0.007 C 
ENDBRANCH  11  18
ENDBRANCH   4   7
ENDBRANCH   2   3
ENDBRANCH   1   2
BRANCH   1  28
ATOM     28  C   UNL A   1      35.759  22.145  25.748  1.00  0.00     0.118 C 
BRANCH  28  29
ATOM     29  N   UNL A   1      36.788  21.115  25.616  1.00  0.00    -0.352 N 
ATOM     30  C   UNL A   1      38.162  21.165  25.693  1.00  0.00     0.251 C 
ATOM     31  H   UNL A   1      36.431  20.215  25.439  1.00  0.00     0.163 HD
ATOM     32  O   UNL A   1      38.801  20.170  25.368  1.00  0.00    -0.269 OA
BRANCH  30  33
ATOM     33  C   UNL A   1      38.874  22.386  26.140  1.00  0.00     0.039 A 
ATOM     34  C   UNL A   1      40.013  22.247  26.944  1.00  0.00     0.014 A 
ATOM     35  C   UNL A   1      38.407  23.663  25.831  1.00  0.00     0.014 A 
ATOM     36  C   UNL A   1      40.715  23.380  27.369  1.00  0.00     0.010 A 
ATOM     37  C   UNL A   1      39.156  24.786  26.176  1.00  0.00     0.010 A 
ATOM     38  C   UNL A   1      40.317  24.660  26.955  1.00  0.00    -0.014 A 
BRANCH  38  39
ATOM     39  C   UNL A   1      41.082  25.879  27.338  1.00  0.00     0.031 A 
ATOM     40  C   UNL A   1      40.425  26.954  28.164  1.00  0.00     0.074 A 
ATOM     41  C   UNL A   1      42.341  26.051  26.887  1.00  0.00     0.049 A 
ATOM     42  N   UNL A   1      40.883  28.130  28.512  1.00  0.00    -0.248 NA
ATOM     43  C   UNL A   1      39.057  26.682  28.632  1.00  0.00     0.031 C 
ATOM     44  C   UNL A   1      43.076  25.099  26.051  1.00  0.00     0.029 A 
ATOM     45  N   UNL A   1      43.223  27.090  27.056  1.00  0.00    -0.354 N 
ATOM     46  C   UNL A   1      39.856  28.744  29.223  1.00  0.00     0.074 A 
ATOM     47  C   UNL A   1      38.730  27.834  29.197  1.00  0.00     0.031 C 
ATOM     48  C   UNL A   1      44.303  25.585  25.804  1.00  0.00     0.029 A 
ATOM     49  C   UNL A   1      44.427  26.906  26.413  1.00  0.00     0.049 A 
ATOM     50  H   UNL A   1      43.014  27.892  27.587  1.00  0.00     0.167 HD
ATOM     51  C   UNL A   1      39.859  29.942  29.859  1.00  0.00     0.034 A 
ATOM     52  C   UNL A   1      45.501  27.713  26.310  1.00  0.00     0.034 A 
ATOM     53  C   UNL A   1      40.996  30.831  29.885  1.00  0.00     0.049 A 
ATOM     54  C   UNL A   1      45.469  29.057  26.996  1.00  0.00     0.074 A 
ATOM     55  C   UNL A   1      41.126  32.043  30.541  1.00  0.00     0.029 A 
ATOM     56  N   UNL A   1      42.196  30.610  29.222  1.00  0.00    -0.354 N 
ATOM     57  N   UNL A   1      44.505  29.603  27.702  1.00  0.00    -0.248 NA
ATOM     58  C   UNL A   1      46.675  29.889  26.882  1.00  0.00     0.031 C 
ATOM     59  C   UNL A   1      42.370  32.590  30.212  1.00  0.00     0.029 A 
ATOM     60  C   UNL A   1      43.058  31.678  29.425  1.00  0.00     0.049 A 
ATOM     61  H   UNL A   1      42.406  29.810  28.686  1.00  0.00     0.167 HD
ATOM     62  C   UNL A   1      45.005  30.825  28.147  1.00  0.00     0.074 A 
ATOM     63  C   UNL A   1      46.358  30.927  27.640  1.00  0.00     0.031 C 
ATOM     64  C   UNL A   1      44.403  31.773  28.909  1.00  0.00     0.034 A 
BRANCH  51  65
ATOM     65  C   UNL A   1      38.584  30.367  30.552  1.00  0.00     0.023 A 
ATOM     66  C   UNL A   1      37.550  31.026  29.863  1.00  0.00     0.031 A 
ATOM     67  C   UNL A   1      38.408  30.134  31.928  1.00  0.00     0.131 A 
ATOM     68  C   UNL A   1      36.430  31.500  30.562  1.00  0.00     0.055 A 
ATOM     69  C   UNL A   1      37.249  30.529  32.601  1.00  0.00     0.041 A 
ATOM     70  F   UNL A   1      39.367  29.529  32.648  1.00  0.00    -0.206 F 
ATOM     71  C   UNL A   1      36.259  31.230  31.922  1.00  0.00     0.022 A 
BRANCH  68  72
ATOM     72  S   UNL A   1      35.279  32.607  29.703  1.00  0.00     0.124 S 
ATOM     73  O   UNL A   1      34.448  33.081  30.808  1.00  0.00    -0.237 OA
ATOM     74  O   UNL A   1      36.174  33.593  29.107  1.00  0.00    -0.237 OA
ATOM     75  O   UNL A   1      34.598  31.727  28.756  1.00  0.00    -0.744 OA
ENDBRANCH  68  72
ENDBRANCH  51  65
BRANCH  52  76
ATOM     76  C   UNL A   1      46.696  27.291  25.520  1.00  0.00     0.023 A 
ATOM     77  C   UNL A   1      46.927  27.798  24.231  1.00  0.00     0.031 A 
ATOM     78  C   UNL A   1      47.598  26.336  26.024  1.00  0.00     0.131 A 
ATOM     79  C   UNL A   1      48.002  27.310  23.469  1.00  0.00     0.055 A 
ATOM     80  C   UNL A   1      48.700  25.900  25.285  1.00  0.00     0.041 A 
ATOM     81  F   UNL A   1      47.426  25.819  27.250  1.00  0.00    -0.206 F 
ATOM     82  C   UNL A   1      48.898  26.376  23.994  1.00  0.00     0.022 A 
BRANCH  79  83
ATOM     83  S   UNL A   1      48.153  27.842  21.742  1.00  0.00     0.124 S 
ATOM     84  O   UNL A   1      49.353  28.669  21.790  1.00  0.00    -0.237 OA
ATOM     85  O   UNL A   1      48.279  26.567  21.043  1.00  0.00    -0.237 OA
ATOM     86  O   UNL A   1      46.905  28.563  21.498  1.00  0.00    -0.744 OA
ENDBRANCH  79  83
ENDBRANCH  52  76
BRANCH  64  87
ATOM     87  C   UNL A   1      45.228  32.979  29.290  1.00  0.00     0.023 A 
ATOM     88  C   UNL A   1      45.216  34.162  28.530  1.00  0.00     0.031 A 
ATOM     89  C   UNL A   1      46.049  32.938  30.433  1.00  0.00     0.131 A 
ATOM     90  C   UNL A   1      46.051  35.231  28.887  1.00  0.00     0.055 A 
ATOM     91  C   UNL A   1      46.824  34.031  30.822  1.00  0.00     0.041 A 
ATOM     92  F   UNL A   1      46.105  31.834  31.195  1.00  0.00    -0.206 F 
ATOM     93  C   UNL A   1      46.840  35.182  30.040  1.00  0.00     0.022 A 
BRANCH  90  94
ATOM     94  S   UNL A   1      46.172  36.654  27.768  1.00  0.00     0.124 S 
ATOM     95  O   UNL A   1      46.392  36.006  26.479  1.00  0.00    -0.237 OA
ATOM     96  O   UNL A   1      44.877  37.301  27.944  1.00  0.00    -0.237 OA
ATOM     97  O   UNL A   1      47.316  37.402  28.288  1.00  0.00    -0.744 OA
ENDBRANCH  90  94
ENDBRANCH  64  87
ENDBRANCH  38  39
ENDBRANCH  30  33
ENDBRANCH  28  29
ENDBRANCH   1  28
TORSDOF 17
ENDMDL
MODEL 3
REMARK VINA RESULT:     -11.4      5.560      8.711
REMARK SMILES CCC[NH2+][C@]1(C(=O)NCCCNC(=O)c2ccc(-c3c4nc(c(-c5cc(S(=O)(=O)[O-])ccc5F)c5ccc([nH]5)c(-c5cc(S(=O)(=O)[O-])ccc5F)c5nc(c(-c6cc(S(=O)(=O)[O-])ccc6F)c6ccc3[nH]6)C=C5)C=C4)cc2)CC[C@H]([N@@H+]2CCC[C@H]3CCC[C@H]32)C1
REMARK SMILES IDX 10 1 9 2 8 3 6 4 7 5 5 7 78 8 90 9 79 10 80 11 4 12 3 15
REMARK SMILES IDX 2 16 1 17 81 18 82 19 89 20 83 22 85 23 88 24 84 25 86 26
REMARK SMILES IDX 87 27 11 28 12 29 13 30 14 32 15 33 16 34 77 35 17 36 76 37
REMARK SMILES IDX 18 38 19 39 20 40 70 41 21 42 75 43 69 44 71 45 22 46 74 47
REMARK SMILES IDX 68 48 67 49 23 51 55 52 35 53 54 54 36 55 39 56 53 57 72 58
REMARK SMILES IDX 37 59 38 60 52 62 73 63 40 64 24 65 25 66 33 67 26 68 32 69
REMARK SMILES IDX 34 70 31 71 27 72 28 73 29 74 30 75 56 76 57 77 65 78 58 79
REMARK SMILES IDX 64 80 66 81 63 82 59 83 60 84 61 85 62 86 41 87 42 88 50 89
REMARK SMILES IDX 43 90 49 91 51 92 48 93 44 94 45 95 46 96 47 97
REMARK H PARENT 8 6 4 13 4 14 81 21 12 31 71 50 39 61
REMARK Flexibility Score: inf
ROOT
ATOM      1  C   UNL A   1      36.465  23.724  24.723  1.00  0.00     0.042 C 
ENDROOT
BRANCH   1   2
ATOM      2  C   UNL A   1      35.607  22.975  23.708  1.00  0.00     0.118 C 
BRANCH   2   3
ATOM      3  N   UNL A   1      34.521  22.133  24.238  1.00  0.00    -0.351 N 
ATOM      4  C   UNL A   1      33.139  22.196  24.130  1.00  0.00     0.281 C 
ATOM      5  O   UNL A   1      32.544  21.112  24.088  1.00  0.00    -0.268 OA
ATOM      6  H   UNL A   1      34.840  21.373  24.776  1.00  0.00     0.163 HD
BRANCH   4   7
ATOM      7  C   UNL A   1      32.330  23.562  24.259  1.00  0.00     0.181 C 
ATOM      8  C   UNL A   1      31.298  23.319  25.351  1.00  0.00     0.085 C 
ATOM      9  C   UNL A   1      33.072  24.844  24.789  1.00  0.00     0.144 C 
ATOM     10  C   UNL A   1      31.098  24.526  26.209  1.00  0.00     0.072 C 
ATOM     11  C   UNL A   1      32.173  25.544  25.855  1.00  0.00     0.191 C 
BRANCH   7  12
ATOM     12  N   UNL A   1      31.804  23.890  22.898  1.00  0.00    -0.333 N 
ATOM     13  H   UNL A   1      31.315  23.075  22.526  1.00  0.00     0.347 HD
ATOM     14  H   UNL A   1      31.170  24.683  22.979  1.00  0.00     0.347 HD
BRANCH  12  15
ATOM     15  C   UNL A   1      32.906  24.260  21.971  1.00  0.00     0.261 C 
BRANCH  15  16
ATOM     16  C   UNL A   1      32.704  25.591  21.238  1.00  0.00     0.058 C 
ATOM     17  C   UNL A   1      32.542  25.439  19.732  1.00  0.00     0.010 C 
ENDBRANCH  15  16
ENDBRANCH  12  15
ENDBRANCH   7  12
BRANCH  11  18
ATOM     18  N   UNL A   1      31.726  26.971  25.902  1.00  0.00    -0.330 N 
ATOM     19  C   UNL A   1      31.412  27.423  24.492  1.00  0.00     0.262 C 
ATOM     20  C   UNL A   1      32.481  28.081  26.587  1.00  0.00     0.187 C 
ATOM     21  H   UNL A   1      30.955  26.865  26.561  1.00  0.00     0.348 HD
ATOM     22  C   UNL A   1      32.539  28.188  23.745  1.00  0.00     0.062 C 
ATOM     23  C   UNL A   1      33.877  28.115  25.968  1.00  0.00     0.048 C 
ATOM     24  C   UNL A   1      32.439  29.551  27.190  1.00  0.00     0.065 C 
ATOM     25  C   UNL A   1      33.849  28.510  24.496  1.00  0.00     0.015 C 
ATOM     26  C   UNL A   1      34.763  29.016  26.841  1.00  0.00     0.010 C 
ATOM     27  C   UNL A   1      33.843  29.947  27.600  1.00  0.00     0.007 C 
ENDBRANCH  11  18
ENDBRANCH   4   7
ENDBRANCH   2   3
ENDBRANCH   1   2
BRANCH   1  28
ATOM     28  C   UNL A   1      36.639  23.012  26.062  1.00  0.00     0.118 C 
BRANCH  28  29
ATOM     29  N   UNL A   1      37.801  22.126  26.096  1.00  0.00    -0.352 N 
ATOM     30  C   UNL A   1      39.138  22.362  26.323  1.00  0.00     0.251 C 
ATOM     31  H   UNL A   1      37.586  21.181  25.923  1.00  0.00     0.163 HD
ATOM     32  O   UNL A   1      39.934  21.452  26.119  1.00  0.00    -0.269 OA
BRANCH  30  33
ATOM     33  C   UNL A   1      39.629  23.681  26.787  1.00  0.00     0.039 A 
ATOM     34  C   UNL A   1      39.866  24.686  25.840  1.00  0.00     0.014 A 
ATOM     35  C   UNL A   1      39.917  23.926  28.129  1.00  0.00     0.014 A 
ATOM     36  C   UNL A   1      40.316  25.945  26.249  1.00  0.00     0.010 A 
ATOM     37  C   UNL A   1      40.276  25.206  28.547  1.00  0.00     0.010 A 
ATOM     38  C   UNL A   1      40.487  26.231  27.612  1.00  0.00    -0.014 A 
BRANCH  38  39
ATOM     39  C   UNL A   1      40.902  27.582  28.081  1.00  0.00     0.031 A 
ATOM     40  C   UNL A   1      42.365  27.929  28.185  1.00  0.00     0.074 A 
ATOM     41  C   UNL A   1      39.969  28.470  28.478  1.00  0.00     0.049 A 
ATOM     42  N   UNL A   1      42.930  29.006  28.666  1.00  0.00    -0.248 NA
ATOM     43  C   UNL A   1      43.318  26.912  27.714  1.00  0.00     0.031 C 
ATOM     44  C   UNL A   1      38.522  28.242  28.459  1.00  0.00     0.029 A 
ATOM     45  N   UNL A   1      40.095  29.740  28.988  1.00  0.00    -0.354 N 
ATOM     46  C   UNL A   1      44.302  28.791  28.573  1.00  0.00     0.074 A 
ATOM     47  C   UNL A   1      44.478  27.452  28.051  1.00  0.00     0.031 C 
ATOM     48  C   UNL A   1      37.897  29.343  28.908  1.00  0.00     0.029 A 
ATOM     49  C   UNL A   1      38.893  30.334  29.301  1.00  0.00     0.049 A 
ATOM     50  H   UNL A   1      40.964  30.184  29.117  1.00  0.00     0.167 HD
ATOM     51  C   UNL A   1      45.318  29.638  28.872  1.00  0.00     0.034 A 
ATOM     52  C   UNL A   1      38.622  31.532  29.857  1.00  0.00     0.034 A 
ATOM     53  C   UNL A   1      45.124  30.975  29.380  1.00  0.00     0.049 A 
ATOM     54  C   UNL A   1      39.770  32.444  30.213  1.00  0.00     0.074 A 
ATOM     55  C   UNL A   1      46.078  31.935  29.667  1.00  0.00     0.029 A 
ATOM     56  N   UNL A   1      43.892  31.540  29.684  1.00  0.00    -0.354 N 
ATOM     57  N   UNL A   1      41.061  32.241  30.077  1.00  0.00    -0.248 NA
ATOM     58  C   UNL A   1      39.425  33.751  30.788  1.00  0.00     0.031 C 
ATOM     59  C   UNL A   1      45.433  33.047  30.216  1.00  0.00     0.029 A 
ATOM     60  C   UNL A   1      44.065  32.821  30.188  1.00  0.00     0.049 A 
ATOM     61  H   UNL A   1      43.021  31.096  29.560  1.00  0.00     0.167 HD
ATOM     62  C   UNL A   1      41.678  33.412  30.514  1.00  0.00     0.074 A 
ATOM     63  C   UNL A   1      40.616  34.317  30.904  1.00  0.00     0.031 C 
ATOM     64  C   UNL A   1      43.000  33.713  30.580  1.00  0.00     0.034 A 
BRANCH  51  65
ATOM     65  C   UNL A   1      46.729  29.129  28.680  1.00  0.00     0.023 A 
ATOM     66  C   UNL A   1      47.300  28.989  27.402  1.00  0.00     0.031 A 
ATOM     67  C   UNL A   1      47.510  28.756  29.790  1.00  0.00     0.131 A 
ATOM     68  C   UNL A   1      48.571  28.413  27.260  1.00  0.00     0.055 A 
ATOM     69  C   UNL A   1      48.811  28.268  29.646  1.00  0.00     0.041 A 
ATOM     70  F   UNL A   1      47.016  28.846  31.035  1.00  0.00    -0.206 F 
ATOM     71  C   UNL A   1      49.343  28.078  28.375  1.00  0.00     0.022 A 
BRANCH  68  72
ATOM     72  S   UNL A   1      49.136  27.965  25.596  1.00  0.00     0.124 S 
ATOM     73  O   UNL A   1      50.326  28.802  25.454  1.00  0.00    -0.237 OA
ATOM     74  O   UNL A   1      49.375  26.531  25.720  1.00  0.00    -0.237 OA
ATOM     75  O   UNL A   1      48.014  28.340  24.739  1.00  0.00    -0.744 OA
ENDBRANCH  68  72
ENDBRANCH  51  65
BRANCH  52  76
ATOM     76  C   UNL A   1      37.212  31.943  30.127  1.00  0.00     0.023 A 
ATOM     77  C   UNL A   1      36.465  32.642  29.167  1.00  0.00     0.031 A 
ATOM     78  C   UNL A   1      36.608  31.684  31.372  1.00  0.00     0.131 A 
ATOM     79  C   UNL A   1      35.177  33.105  29.481  1.00  0.00     0.055 A 
ATOM     80  C   UNL A   1      35.304  32.094  31.658  1.00  0.00     0.041 A 
ATOM     81  F   UNL A   1      37.276  31.019  32.327  1.00  0.00    -0.206 F 
ATOM     82  C   UNL A   1      34.586  32.822  30.715  1.00  0.00     0.022 A 
BRANCH  79  83
ATOM     83  S   UNL A   1      34.322  34.171  28.289  1.00  0.00     0.124 S 
ATOM     84  O   UNL A   1      33.173  33.349  27.927  1.00  0.00    -0.237 OA
ATOM     85  O   UNL A   1      34.037  35.355  29.092  1.00  0.00    -0.237 OA
ATOM     86  O   UNL A   1      35.313  34.361  27.232  1.00  0.00    -0.744 OA
ENDBRANCH  79  83
ENDBRANCH  52  76
BRANCH  64  87
ATOM     87  C   UNL A   1      43.368  35.104  31.040  1.00  0.00     0.023 A 
ATOM     88  C   UNL A   1      43.420  36.194  30.154  1.00  0.00     0.031 A 
ATOM     89  C   UNL A   1      43.681  35.337  32.392  1.00  0.00     0.131 A 
ATOM     90  C   UNL A   1      43.833  37.453  30.617  1.00  0.00     0.055 A 
ATOM     91  C   UNL A   1      44.023  36.607  32.860  1.00  0.00     0.041 A 
ATOM     92  F   UNL A   1      43.653  34.334  33.284  1.00  0.00    -0.206 F 
ATOM     93  C   UNL A   1      44.115  37.671  31.968  1.00  0.00     0.022 A 
BRANCH  90  94
ATOM     94  S   UNL A   1      44.096  38.782  29.411  1.00  0.00     0.124 S 
ATOM     95  O   UNL A   1      43.384  38.275  28.242  1.00  0.00    -0.237 OA
ATOM     96  O   UNL A   1      43.493  39.931  30.076  1.00  0.00    -0.237 OA
ATOM     97  O   UNL A   1      45.551  38.837  29.274  1.00  0.00    -0.744 OA
ENDBRANCH  90  94
ENDBRANCH  64  87
ENDBRANCH  38  39
ENDBRANCH  30  33
ENDBRANCH  28  29
ENDBRANCH   1  28
TORSDOF 17
ENDMDL
