MODEL 1
REMARK VINA RESULT:     -13.1      0.000      0.000
REMARK SMILES O=C(NCCCNC(=O)[C@H]1CCCC[C@H]1C(=O)Nc1ccc(F)c(Cl)c1)c1ccc(-c2c3nc(c(-c4cc(S(=O)(=O)[O-])ccc4F)c4ccc([nH]4)c(-c4cc(S(=O)(=O)[O-])ccc4F)c4nc(c(-c5cc(S(=O)(=O)[O-])ccc5F)c5ccc2[nH]5)C=C4)C=C3)cc1
REMARK SMILES IDX 4 1 3 2 1 3 2 4 27 6 28 7 89 8 29 9 88 10 30 11 31 12 32 13
REMARK SMILES IDX 82 14 33 15 87 16 81 17 83 18 34 19 86 20 80 21 79 22 35 24
REMARK SMILES IDX 67 25 47 26 66 27 48 28 51 29 65 30 84 31 49 32 50 33 64 35
REMARK SMILES IDX 85 36 52 37 36 38 37 39 45 40 38 41 44 42 46 43 43 44 39 45
REMARK SMILES IDX 40 46 41 47 42 48 68 49 69 50 77 51 70 52 76 53 78 54 75 55
REMARK SMILES IDX 71 56 72 57 73 58 74 59 53 60 54 61 62 62 55 63 61 64 63 65
REMARK SMILES IDX 60 66 56 67 57 68 58 69 59 70 5 71 6 72 7 73 8 74 9 76 10 77
REMARK SMILES IDX 11 78 15 79 12 80 14 81 13 82 16 83 17 84 18 85 19 87 20 88
REMARK SMILES IDX 26 89 21 90 24 91 22 92 25 93 23 94
REMARK H PARENT 3 5 83 23 51 34 7 75 18 86
REMARK Flexibility Score: inf
ROOT
ATOM      1  C   UNL A   1      32.760  32.440  27.032  1.00  0.00     0.118 C 
ENDROOT
BRANCH   1   2
ATOM      2  N   UNL A   1      32.526  33.814  27.461  1.00  0.00    -0.352 N 
ATOM      3  O   UNL A   1      32.617  35.559  28.884  1.00  0.00    -0.269 OA
ATOM      4  C   UNL A   1      33.103  34.503  28.506  1.00  0.00     0.251 C 
ATOM      5  H   UNL A   1      31.867  34.318  26.932  1.00  0.00     0.163 HD
BRANCH   4   6
ATOM      6  C   UNL A   1      34.301  33.942  29.169  1.00  0.00     0.039 A 
ATOM      7  C   UNL A   1      34.154  32.970  30.159  1.00  0.00     0.014 A 
ATOM      8  C   UNL A   1      35.576  34.378  28.798  1.00  0.00     0.014 A 
ATOM      9  C   UNL A   1      35.255  32.559  30.894  1.00  0.00     0.010 A 
ATOM     10  C   UNL A   1      36.700  33.866  29.457  1.00  0.00     0.010 A 
ATOM     11  C   UNL A   1      36.546  32.963  30.520  1.00  0.00    -0.014 A 
BRANCH  11  12
ATOM     12  C   UNL A   1      37.707  32.304  31.171  1.00  0.00     0.031 A 
ATOM     13  C   UNL A   1      38.453  31.184  30.506  1.00  0.00     0.074 A 
ATOM     14  C   UNL A   1      38.091  32.769  32.378  1.00  0.00     0.049 A 
ATOM     15  N   UNL A   1      39.478  30.505  30.954  1.00  0.00    -0.248 NA
ATOM     16  C   UNL A   1      37.991  30.762  29.175  1.00  0.00     0.031 C 
ATOM     17  C   UNL A   1      37.423  33.854  33.109  1.00  0.00     0.029 A 
ATOM     18  N   UNL A   1      39.130  32.418  33.197  1.00  0.00    -0.354 N 
ATOM     19  C   UNL A   1      39.771  29.560  29.978  1.00  0.00     0.074 A 
ATOM     20  C   UNL A   1      38.806  29.746  28.914  1.00  0.00     0.031 C 
ATOM     21  C   UNL A   1      38.100  34.113  34.235  1.00  0.00     0.029 A 
ATOM     22  C   UNL A   1      39.185  33.152  34.361  1.00  0.00     0.049 A 
ATOM     23  H   UNL A   1      39.777  31.710  32.975  1.00  0.00     0.167 HD
ATOM     24  C   UNL A   1      40.752  28.624  29.982  1.00  0.00     0.034 A 
ATOM     25  C   UNL A   1      39.988  33.037  35.434  1.00  0.00     0.034 A 
ATOM     26  C   UNL A   1      41.711  28.473  31.053  1.00  0.00     0.049 A 
ATOM     27  C   UNL A   1      41.040  31.963  35.420  1.00  0.00     0.074 A 
ATOM     28  C   UNL A   1      42.784  27.603  31.129  1.00  0.00     0.029 A 
ATOM     29  N   UNL A   1      41.704  29.197  32.239  1.00  0.00    -0.354 N 
ATOM     30  N   UNL A   1      41.322  31.101  34.470  1.00  0.00    -0.248 NA
ATOM     31  C   UNL A   1      41.875  31.841  36.619  1.00  0.00     0.031 C 
ATOM     32  C   UNL A   1      43.378  27.746  32.389  1.00  0.00     0.029 A 
ATOM     33  C   UNL A   1      42.725  28.760  33.070  1.00  0.00     0.049 A 
ATOM     34  H   UNL A   1      41.068  29.916  32.457  1.00  0.00     0.167 HD
ATOM     35  C   UNL A   1      42.374  30.336  34.959  1.00  0.00     0.074 A 
ATOM     36  C   UNL A   1      42.699  30.867  36.268  1.00  0.00     0.031 C 
ATOM     37  C   UNL A   1      43.011  29.286  34.384  1.00  0.00     0.034 A 
BRANCH  24  38
ATOM     38  C   UNL A   1      40.817  27.653  28.830  1.00  0.00     0.023 A 
ATOM     39  C   UNL A   1      41.773  27.764  27.806  1.00  0.00     0.031 A 
ATOM     40  C   UNL A   1      39.923  26.567  28.781  1.00  0.00     0.131 A 
ATOM     41  C   UNL A   1      41.790  26.826  26.761  1.00  0.00     0.055 A 
ATOM     42  C   UNL A   1      39.984  25.603  27.774  1.00  0.00     0.041 A 
ATOM     43  F   UNL A   1      38.977  26.420  29.723  1.00  0.00    -0.206 F 
ATOM     44  C   UNL A   1      40.918  25.733  26.751  1.00  0.00     0.022 A 
BRANCH  41  45
ATOM     45  S   UNL A   1      42.916  27.094  25.363  1.00  0.00     0.124 S 
ATOM     46  O   UNL A   1      44.170  27.398  26.049  1.00  0.00    -0.237 OA
ATOM     47  O   UNL A   1      42.864  25.815  24.665  1.00  0.00    -0.237 OA
ATOM     48  O   UNL A   1      42.316  28.219  24.649  1.00  0.00    -0.744 OA
ENDBRANCH  41  45
ENDBRANCH  24  38
BRANCH  25  49
ATOM     49  C   UNL A   1      39.781  33.903  36.630  1.00  0.00     0.023 A 
ATOM     50  C   UNL A   1      39.231  33.390  37.814  1.00  0.00     0.031 A 
ATOM     51  C   UNL A   1      40.090  35.277  36.589  1.00  0.00     0.131 A 
ATOM     52  C   UNL A   1      38.959  34.252  38.887  1.00  0.00     0.055 A 
ATOM     53  C   UNL A   1      39.881  36.116  37.683  1.00  0.00     0.041 A 
ATOM     54  F   UNL A   1      40.618  35.823  35.481  1.00  0.00    -0.206 F 
ATOM     55  C   UNL A   1      39.295  35.607  38.837  1.00  0.00     0.022 A 
BRANCH  52  56
ATOM     56  S   UNL A   1      38.046  33.599  40.311  1.00  0.00     0.124 S 
ATOM     57  O   UNL A   1      38.921  32.521  40.758  1.00  0.00    -0.237 OA
ATOM     58  O   UNL A   1      37.972  34.767  41.183  1.00  0.00    -0.237 OA
ATOM     59  O   UNL A   1      36.775  33.172  39.732  1.00  0.00    -0.744 OA
ENDBRANCH  52  56
ENDBRANCH  25  49
BRANCH  37  60
ATOM     60  C   UNL A   1      44.130  28.666  35.180  1.00  0.00     0.023 A 
ATOM     61  C   UNL A   1      43.892  27.597  36.061  1.00  0.00     0.031 A 
ATOM     62  C   UNL A   1      45.437  29.172  35.086  1.00  0.00     0.131 A 
ATOM     63  C   UNL A   1      44.933  27.110  36.863  1.00  0.00     0.055 A 
ATOM     64  C   UNL A   1      46.484  28.641  35.840  1.00  0.00     0.041 A 
ATOM     65  F   UNL A   1      45.717  30.195  34.263  1.00  0.00    -0.206 F 
ATOM     66  C   UNL A   1      46.232  27.613  36.746  1.00  0.00     0.022 A 
BRANCH  63  67
ATOM     67  S   UNL A   1      44.548  25.874  38.132  1.00  0.00     0.124 S 
ATOM     68  O   UNL A   1      45.811  25.780  38.856  1.00  0.00    -0.237 OA
ATOM     69  O   UNL A   1      43.445  26.500  38.855  1.00  0.00    -0.237 OA
ATOM     70  O   UNL A   1      44.184  24.689  37.358  1.00  0.00    -0.744 OA
ENDBRANCH  63  67
ENDBRANCH  37  60
ENDBRANCH  11  12
ENDBRANCH   4   6
ENDBRANCH   1   2
BRANCH   1  71
ATOM     71  C   UNL A   1      31.478  31.778  26.551  1.00  0.00     0.042 C 
BRANCH  71  72
ATOM     72  C   UNL A   1      31.682  30.296  26.280  1.00  0.00     0.117 C 
BRANCH  72  73
ATOM     73  N   UNL A   1      32.392  30.083  25.028  1.00  0.00    -0.356 N 
ATOM     74  C   UNL A   1      32.825  29.008  24.335  1.00  0.00     0.223 C 
ATOM     75  H   UNL A   1      32.612  30.930  24.575  1.00  0.00     0.163 HD
ATOM     76  O   UNL A   1      33.375  29.280  23.261  1.00  0.00    -0.275 OA
BRANCH  74  77
ATOM     77  C   UNL A   1      32.689  27.542  24.759  1.00  0.00     0.091 C 
ATOM     78  C   UNL A   1      32.626  27.160  26.236  1.00  0.00     0.014 C 
ATOM     79  C   UNL A   1      31.701  26.685  23.917  1.00  0.00     0.091 C 
ATOM     80  C   UNL A   1      31.199  27.136  26.770  1.00  0.00     0.001 C 
ATOM     81  C   UNL A   1      30.377  26.227  24.559  1.00  0.00     0.014 C 
ATOM     82  C   UNL A   1      30.408  26.044  26.070  1.00  0.00     0.001 C 
BRANCH  79  83
ATOM     83  C   UNL A   1      31.534  27.077  22.447  1.00  0.00     0.228 C 
ATOM     84  O   UNL A   1      32.290  26.553  21.616  1.00  0.00    -0.274 OA
ATOM     85  N   UNL A   1      30.563  27.879  21.935  1.00  0.00    -0.326 N 
ATOM     86  H   UNL A   1      30.557  27.850  20.950  1.00  0.00     0.169 HD
BRANCH  85  87
ATOM     87  C   UNL A   1      29.564  28.737  22.426  1.00  0.00     0.042 A 
ATOM     88  C   UNL A   1      28.339  28.333  22.951  1.00  0.00     0.029 A 
ATOM     89  C   UNL A   1      29.854  30.111  22.405  1.00  0.00     0.049 A 
ATOM     90  C   UNL A   1      27.416  29.262  23.443  1.00  0.00     0.043 A 
ATOM     91  C   UNL A   1      28.926  31.046  22.871  1.00  0.00     0.078 A 
ATOM     92  C   UNL A   1      27.712  30.617  23.394  1.00  0.00     0.141 A 
ATOM     93  Cl  UNL A   1      29.291  32.726  22.769  1.00  0.00    -0.081 Cl
ATOM     94  F   UNL A   1      26.807  31.492  23.852  1.00  0.00    -0.205 F 
ENDBRANCH  85  87
ENDBRANCH  79  83
ENDBRANCH  74  77
ENDBRANCH  72  73
ENDBRANCH  71  72
ENDBRANCH   1  71
TORSDOF 15
ENDMDL
MODEL 2
REMARK VINA RESULT:     -12.8      2.186      3.342
REMARK SMILES O=C(NCCCNC(=O)[C@H]1CCCC[C@H]1C(=O)Nc1ccc(F)c(Cl)c1)c1ccc(-c2c3nc(c(-c4cc(S(=O)(=O)[O-])ccc4F)c4ccc([nH]4)c(-c4cc(S(=O)(=O)[O-])ccc4F)c4nc(c(-c5cc(S(=O)(=O)[O-])ccc5F)c5ccc2[nH]5)C=C4)C=C3)cc1
REMARK SMILES IDX 4 1 3 2 1 3 2 4 27 6 28 7 89 8 29 9 88 10 30 11 31 12 32 13
REMARK SMILES IDX 82 14 33 15 87 16 81 17 83 18 34 19 86 20 80 21 79 22 35 24
REMARK SMILES IDX 67 25 47 26 66 27 48 28 51 29 65 30 84 31 49 32 50 33 64 35
REMARK SMILES IDX 85 36 52 37 36 38 37 39 45 40 38 41 44 42 46 43 43 44 39 45
REMARK SMILES IDX 40 46 41 47 42 48 68 49 69 50 77 51 70 52 76 53 78 54 75 55
REMARK SMILES IDX 71 56 72 57 73 58 74 59 53 60 54 61 62 62 55 63 61 64 63 65
REMARK SMILES IDX 60 66 56 67 57 68 58 69 59 70 5 71 6 72 7 73 8 74 9 76 10 77
REMARK SMILES IDX 11 78 15 79 12 80 14 81 13 82 16 83 17 84 18 85 19 87 20 88
REMARK SMILES IDX 26 89 21 90 24 91 22 92 25 93 23 94
REMARK H PARENT 3 5 83 23 51 34 7 75 18 86
REMARK Flexibility Score: inf
ROOT
ATOM      1  C   UNL A   1      32.785  32.058  27.142  1.00  0.00     0.118 C 
ENDROOT
BRANCH   1   2
ATOM      2  N   UNL A   1      32.580  33.458  27.497  1.00  0.00    -0.352 N 
ATOM      3  O   UNL A   1      32.725  35.279  28.816  1.00  0.00    -0.269 OA
ATOM      4  C   UNL A   1      33.187  34.195  28.490  1.00  0.00     0.251 C 
ATOM      5  H   UNL A   1      31.918  33.942  26.952  1.00  0.00     0.163 HD
BRANCH   4   6
ATOM      6  C   UNL A   1      34.389  33.653  29.162  1.00  0.00     0.039 A 
ATOM      7  C   UNL A   1      34.249  32.695  30.167  1.00  0.00     0.014 A 
ATOM      8  C   UNL A   1      35.661  34.093  28.785  1.00  0.00     0.014 A 
ATOM      9  C   UNL A   1      35.353  32.304  30.908  1.00  0.00     0.010 A 
ATOM     10  C   UNL A   1      36.788  33.600  29.452  1.00  0.00     0.010 A 
ATOM     11  C   UNL A   1      36.641  32.711  30.528  1.00  0.00    -0.014 A 
BRANCH  11  12
ATOM     12  C   UNL A   1      37.806  32.072  31.190  1.00  0.00     0.031 A 
ATOM     13  C   UNL A   1      38.605  30.996  30.512  1.00  0.00     0.074 A 
ATOM     14  C   UNL A   1      38.144  32.512  32.419  1.00  0.00     0.049 A 
ATOM     15  N   UNL A   1      39.641  30.338  30.967  1.00  0.00    -0.248 NA
ATOM     16  C   UNL A   1      38.191  30.600  29.158  1.00  0.00     0.031 C 
ATOM     17  C   UNL A   1      37.422  33.552  33.165  1.00  0.00     0.029 A 
ATOM     18  N   UNL A   1      39.174  32.170  33.255  1.00  0.00    -0.354 N 
ATOM     19  C   UNL A   1      39.989  29.432  29.971  1.00  0.00     0.074 A 
ATOM     20  C   UNL A   1      39.045  29.619  28.888  1.00  0.00     0.031 C 
ATOM     21  C   UNL A   1      38.062  33.799  34.315  1.00  0.00     0.029 A 
ATOM     22  C   UNL A   1      39.175  32.870  34.440  1.00  0.00     0.049 A 
ATOM     23  H   UNL A   1      39.849  31.490  33.029  1.00  0.00     0.167 HD
ATOM     24  C   UNL A   1      41.000  28.529  29.973  1.00  0.00     0.034 A 
ATOM     25  C   UNL A   1      39.954  32.748  35.531  1.00  0.00     0.034 A 
ATOM     26  C   UNL A   1      41.936  28.377  31.063  1.00  0.00     0.049 A 
ATOM     27  C   UNL A   1      41.041  31.711  35.513  1.00  0.00     0.074 A 
ATOM     28  C   UNL A   1      43.035  27.540  31.142  1.00  0.00     0.029 A 
ATOM     29  N   UNL A   1      41.876  29.065  32.270  1.00  0.00    -0.354 N 
ATOM     30  N   UNL A   1      41.375  30.886  34.545  1.00  0.00    -0.248 NA
ATOM     31  C   UNL A   1      41.850  31.579  36.729  1.00  0.00     0.031 C 
ATOM     32  C   UNL A   1      43.593  27.664  32.420  1.00  0.00     0.029 A 
ATOM     33  C   UNL A   1      42.889  28.635  33.114  1.00  0.00     0.049 A 
ATOM     34  H   UNL A   1      41.211  29.756  32.492  1.00  0.00     0.167 HD
ATOM     35  C   UNL A   1      42.440  30.142  35.038  1.00  0.00     0.074 A 
ATOM     36  C   UNL A   1      42.714  30.643  36.370  1.00  0.00     0.031 C 
ATOM     37  C   UNL A   1      43.125  29.131  34.450  1.00  0.00     0.034 A 
BRANCH  24  38
ATOM     38  C   UNL A   1      41.126  27.596  28.795  1.00  0.00     0.023 A 
ATOM     39  C   UNL A   1      42.104  27.768  27.801  1.00  0.00     0.031 A 
ATOM     40  C   UNL A   1      40.268  26.485  28.690  1.00  0.00     0.131 A 
ATOM     41  C   UNL A   1      42.179  26.862  26.730  1.00  0.00     0.055 A 
ATOM     42  C   UNL A   1      40.386  25.554  27.656  1.00  0.00     0.041 A 
ATOM     43  F   UNL A   1      39.302  26.281  29.600  1.00  0.00    -0.206 F 
ATOM     44  C   UNL A   1      41.343  25.744  26.664  1.00  0.00     0.022 A 
BRANCH  41  45
ATOM     45  S   UNL A   1      43.332  27.207  25.372  1.00  0.00     0.124 S 
ATOM     46  O   UNL A   1      43.723  25.859  24.967  1.00  0.00    -0.237 OA
ATOM     47  O   UNL A   1      42.498  27.941  24.427  1.00  0.00    -0.237 OA
ATOM     48  O   UNL A   1      44.389  27.990  26.009  1.00  0.00    -0.744 OA
ENDBRANCH  41  45
ENDBRANCH  24  38
BRANCH  25  49
ATOM     49  C   UNL A   1      39.689  33.571  36.746  1.00  0.00     0.023 A 
ATOM     50  C   UNL A   1      39.043  33.028  37.866  1.00  0.00     0.031 A 
ATOM     51  C   UNL A   1      40.040  34.935  36.785  1.00  0.00     0.131 A 
ATOM     52  C   UNL A   1      38.720  33.853  38.954  1.00  0.00     0.055 A 
ATOM     53  C   UNL A   1      39.778  35.734  37.898  1.00  0.00     0.041 A 
ATOM     54  F   UNL A   1      40.659  35.508  35.741  1.00  0.00    -0.206 F 
ATOM     55  C   UNL A   1      39.098  35.198  38.985  1.00  0.00     0.022 A 
BRANCH  52  56
ATOM     56  S   UNL A   1      37.691  33.171  40.281  1.00  0.00     0.124 S 
ATOM     57  O   UNL A   1      38.497  32.043  40.735  1.00  0.00    -0.237 OA
ATOM     58  O   UNL A   1      37.597  34.302  41.200  1.00  0.00    -0.237 OA
ATOM     59  O   UNL A   1      36.449  32.818  39.600  1.00  0.00    -0.744 OA
ENDBRANCH  52  56
ENDBRANCH  25  49
BRANCH  37  60
ATOM     60  C   UNL A   1      44.243  28.523  35.256  1.00  0.00     0.023 A 
ATOM     61  C   UNL A   1      43.995  27.515  36.203  1.00  0.00     0.031 A 
ATOM     62  C   UNL A   1      45.562  28.983  35.104  1.00  0.00     0.131 A 
ATOM     63  C   UNL A   1      45.040  27.043  37.009  1.00  0.00     0.055 A 
ATOM     64  C   UNL A   1      46.611  28.464  35.865  1.00  0.00     0.041 A 
ATOM     65  F   UNL A   1      45.853  29.948  34.217  1.00  0.00    -0.206 F 
ATOM     66  C   UNL A   1      46.350  27.499  36.835  1.00  0.00     0.022 A 
BRANCH  63  67
ATOM     67  S   UNL A   1      44.648  25.895  38.357  1.00  0.00     0.124 S 
ATOM     68  O   UNL A   1      43.417  26.467  38.893  1.00  0.00    -0.237 OA
ATOM     69  O   UNL A   1      44.506  24.624  37.654  1.00  0.00    -0.237 OA
ATOM     70  O   UNL A   1      45.812  25.988  39.236  1.00  0.00    -0.744 OA
ENDBRANCH  63  67
ENDBRANCH  37  60
ENDBRANCH  11  12
ENDBRANCH   4   6
ENDBRANCH   1   2
BRANCH   1  71
ATOM     71  C   UNL A   1      31.506  31.419  26.625  1.00  0.00     0.042 C 
BRANCH  71  72
ATOM     72  C   UNL A   1      31.797  30.195  25.772  1.00  0.00     0.117 C 
BRANCH  72  73
ATOM     73  N   UNL A   1      31.666  28.971  26.548  1.00  0.00    -0.356 N 
ATOM     74  C   UNL A   1      31.391  27.678  26.271  1.00  0.00     0.223 C 
ATOM     75  H   UNL A   1      31.813  29.121  27.510  1.00  0.00     0.163 HD
ATOM     76  O   UNL A   1      31.411  26.929  27.256  1.00  0.00    -0.275 OA
BRANCH  74  77
ATOM     77  C   UNL A   1      31.074  27.094  24.890  1.00  0.00     0.091 C 
ATOM     78  C   UNL A   1      29.701  27.298  24.254  1.00  0.00     0.014 C 
ATOM     79  C   UNL A   1      32.206  27.218  23.830  1.00  0.00     0.091 C 
ATOM     80  C   UNL A   1      29.635  28.561  23.405  1.00  0.00     0.001 C 
ATOM     81  C   UNL A   1      32.018  28.189  22.648  1.00  0.00     0.014 C 
ATOM     82  C   UNL A   1      30.578  28.433  22.221  1.00  0.00     0.001 C 
BRANCH  79  83
ATOM     83  C   UNL A   1      33.643  27.206  24.356  1.00  0.00     0.228 C 
ATOM     84  O   UNL A   1      34.216  28.296  24.508  1.00  0.00    -0.274 OA
ATOM     85  N   UNL A   1      34.336  26.115  24.776  1.00  0.00    -0.326 N 
ATOM     86  H   UNL A   1      35.173  26.373  25.226  1.00  0.00     0.169 HD
BRANCH  85  87
ATOM     87  C   UNL A   1      34.185  24.718  24.743  1.00  0.00     0.042 A 
ATOM     88  C   UNL A   1      34.101  23.942  23.590  1.00  0.00     0.029 A 
ATOM     89  C   UNL A   1      34.143  24.064  25.985  1.00  0.00     0.049 A 
ATOM     90  C   UNL A   1      33.978  22.550  23.657  1.00  0.00     0.043 A 
ATOM     91  C   UNL A   1      33.993  22.676  26.060  1.00  0.00     0.078 A 
ATOM     92  C   UNL A   1      33.918  21.924  24.894  1.00  0.00     0.141 A 
ATOM     93  Cl  UNL A   1      33.882  21.917  27.601  1.00  0.00    -0.081 Cl
ATOM     94  F   UNL A   1      33.779  20.591  24.937  1.00  0.00    -0.205 F 
ENDBRANCH  85  87
ENDBRANCH  79  83
ENDBRANCH  74  77
ENDBRANCH  72  73
ENDBRANCH  71  72
ENDBRANCH   1  71
TORSDOF 15
ENDMDL
MODEL 3
REMARK VINA RESULT:     -12.7      1.394      1.772
REMARK SMILES O=C(NCCCNC(=O)[C@H]1CCCC[C@H]1C(=O)Nc1ccc(F)c(Cl)c1)c1ccc(-c2c3nc(c(-c4cc(S(=O)(=O)[O-])ccc4F)c4ccc([nH]4)c(-c4cc(S(=O)(=O)[O-])ccc4F)c4nc(c(-c5cc(S(=O)(=O)[O-])ccc5F)c5ccc2[nH]5)C=C4)C=C3)cc1
REMARK SMILES IDX 4 1 3 2 1 3 2 4 27 6 28 7 89 8 29 9 88 10 30 11 31 12 32 13
REMARK SMILES IDX 82 14 33 15 87 16 81 17 83 18 34 19 86 20 80 21 79 22 35 24
REMARK SMILES IDX 67 25 47 26 66 27 48 28 51 29 65 30 84 31 49 32 50 33 64 35
REMARK SMILES IDX 85 36 52 37 36 38 37 39 45 40 38 41 44 42 46 43 43 44 39 45
REMARK SMILES IDX 40 46 41 47 42 48 68 49 69 50 77 51 70 52 76 53 78 54 75 55
REMARK SMILES IDX 71 56 72 57 73 58 74 59 53 60 54 61 62 62 55 63 61 64 63 65
REMARK SMILES IDX 60 66 56 67 57 68 58 69 59 70 5 71 6 72 7 73 8 74 9 76 10 77
REMARK SMILES IDX 11 78 15 79 12 80 14 81 13 82 16 83 17 84 18 85 19 87 20 88
REMARK SMILES IDX 26 89 21 90 24 91 22 92 25 93 23 94
REMARK H PARENT 3 5 83 23 51 34 7 75 18 86
REMARK Flexibility Score: inf
ROOT
ATOM      1  C   UNL A   1      32.464  32.129  26.909  1.00  0.00     0.118 C 
ENDROOT
BRANCH   1   2
ATOM      2  N   UNL A   1      32.468  33.545  27.255  1.00  0.00    -0.352 N 
ATOM      3  O   UNL A   1      32.918  35.337  28.546  1.00  0.00    -0.269 OA
ATOM      4  C   UNL A   1      33.213  34.198  28.214  1.00  0.00     0.251 C 
ATOM      5  H   UNL A   1      31.858  34.113  26.731  1.00  0.00     0.163 HD
BRANCH   4   6
ATOM      6  C   UNL A   1      34.355  33.499  28.843  1.00  0.00     0.039 A 
ATOM      7  C   UNL A   1      35.638  34.042  28.746  1.00  0.00     0.014 A 
ATOM      8  C   UNL A   1      34.150  32.304  29.537  1.00  0.00     0.014 A 
ATOM      9  C   UNL A   1      36.731  33.316  29.191  1.00  0.00     0.010 A 
ATOM     10  C   UNL A   1      35.244  31.634  30.097  1.00  0.00     0.010 A 
ATOM     11  C   UNL A   1      36.545  32.128  29.915  1.00  0.00    -0.014 A 
BRANCH  11  12
ATOM     12  C   UNL A   1      37.722  31.520  30.586  1.00  0.00     0.031 A 
ATOM     13  C   UNL A   1      38.612  30.539  29.878  1.00  0.00     0.074 A 
ATOM     14  C   UNL A   1      37.984  31.902  31.852  1.00  0.00     0.049 A 
ATOM     15  N   UNL A   1      39.669  29.917  30.336  1.00  0.00    -0.248 NA
ATOM     16  C   UNL A   1      38.276  30.204  28.487  1.00  0.00     0.031 C 
ATOM     17  C   UNL A   1      37.171  32.849  32.628  1.00  0.00     0.029 A 
ATOM     18  N   UNL A   1      39.001  31.572  32.708  1.00  0.00    -0.354 N 
ATOM     19  C   UNL A   1      40.110  29.098  29.303  1.00  0.00     0.074 A 
ATOM     20  C   UNL A   1      39.199  29.295  28.195  1.00  0.00     0.031 C 
ATOM     21  C   UNL A   1      37.750  33.061  33.816  1.00  0.00     0.029 A 
ATOM     22  C   UNL A   1      38.914  32.195  33.933  1.00  0.00     0.049 A 
ATOM     23  H   UNL A   1      39.726  30.949  32.470  1.00  0.00     0.167 HD
ATOM     24  C   UNL A   1      41.176  28.259  29.294  1.00  0.00     0.034 A 
ATOM     25  C   UNL A   1      39.656  32.053  35.045  1.00  0.00     0.034 A 
ATOM     26  C   UNL A   1      42.077  28.096  30.411  1.00  0.00     0.049 A 
ATOM     27  C   UNL A   1      40.806  31.085  35.011  1.00  0.00     0.074 A 
ATOM     28  C   UNL A   1      43.223  27.323  30.485  1.00  0.00     0.029 A 
ATOM     29  N   UNL A   1      41.928  28.702  31.653  1.00  0.00    -0.354 N 
ATOM     30  N   UNL A   1      41.228  30.345  34.010  1.00  0.00    -0.248 NA
ATOM     31  C   UNL A   1      41.574  30.927  36.249  1.00  0.00     0.031 C 
ATOM     32  C   UNL A   1      43.722  27.401  31.791  1.00  0.00     0.029 A 
ATOM     33  C   UNL A   1      42.934  28.283  32.512  1.00  0.00     0.049 A 
ATOM     34  H   UNL A   1      41.214  29.337  31.888  1.00  0.00     0.167 HD
ATOM     35  C   UNL A   1      42.317  29.637  34.502  1.00  0.00     0.074 A 
ATOM     36  C   UNL A   1      42.509  30.069  35.872  1.00  0.00     0.031 C 
ATOM     37  C   UNL A   1      43.087  28.707  33.883  1.00  0.00     0.034 A 
BRANCH  24  38
ATOM     38  C   UNL A   1      41.404  27.410  28.068  1.00  0.00     0.023 A 
ATOM     39  C   UNL A   1      41.066  26.047  28.025  1.00  0.00     0.031 A 
ATOM     40  C   UNL A   1      41.937  27.994  26.903  1.00  0.00     0.131 A 
ATOM     41  C   UNL A   1      41.295  25.307  26.853  1.00  0.00     0.055 A 
ATOM     42  C   UNL A   1      42.105  27.269  25.723  1.00  0.00     0.041 A 
ATOM     43  F   UNL A   1      42.295  29.288  26.892  1.00  0.00    -0.206 F 
ATOM     44  C   UNL A   1      41.789  25.914  25.695  1.00  0.00     0.022 A 
BRANCH  41  45
ATOM     45  S   UNL A   1      41.015  23.514  26.883  1.00  0.00     0.124 S 
ATOM     46  O   UNL A   1      41.417  23.176  28.247  1.00  0.00    -0.237 OA
ATOM     47  O   UNL A   1      39.590  23.412  26.593  1.00  0.00    -0.237 OA
ATOM     48  O   UNL A   1      41.903  23.010  25.837  1.00  0.00    -0.744 OA
ENDBRANCH  41  45
ENDBRANCH  24  38
BRANCH  25  49
ATOM     49  C   UNL A   1      39.294  32.780  36.295  1.00  0.00     0.023 A 
ATOM     50  C   UNL A   1      38.463  32.197  37.263  1.00  0.00     0.031 A 
ATOM     51  C   UNL A   1      39.740  34.098  36.519  1.00  0.00     0.131 A 
ATOM     52  C   UNL A   1      38.062  32.944  38.381  1.00  0.00     0.055 A 
ATOM     53  C   UNL A   1      39.393  34.812  37.666  1.00  0.00     0.041 A 
ATOM     54  F   UNL A   1      40.536  34.707  35.626  1.00  0.00    -0.206 F 
ATOM     55  C   UNL A   1      38.534  34.241  38.597  1.00  0.00     0.022 A 
BRANCH  52  56
ATOM     56  S   UNL A   1      36.814  32.238  39.490  1.00  0.00     0.124 S 
ATOM     57  O   UNL A   1      37.166  32.853  40.765  1.00  0.00    -0.237 OA
ATOM     58  O   UNL A   1      35.572  32.699  38.878  1.00  0.00    -0.237 OA
ATOM     59  O   UNL A   1      37.056  30.800  39.402  1.00  0.00    -0.744 OA
ENDBRANCH  52  56
ENDBRANCH  25  49
BRANCH  37  60
ATOM     60  C   UNL A   1      44.209  28.119  34.698  1.00  0.00     0.023 A 
ATOM     61  C   UNL A   1      44.015  26.970  35.484  1.00  0.00     0.031 A 
ATOM     62  C   UNL A   1      45.473  28.734  34.719  1.00  0.00     0.131 A 
ATOM     63  C   UNL A   1      45.049  26.507  36.309  1.00  0.00     0.055 A 
ATOM     64  C   UNL A   1      46.519  28.231  35.493  1.00  0.00     0.041 A 
ATOM     65  F   UNL A   1      45.709  29.836  33.990  1.00  0.00    -0.206 F 
ATOM     66  C   UNL A   1      46.306  27.121  36.307  1.00  0.00     0.022 A 
BRANCH  63  67
ATOM     67  S   UNL A   1      44.702  25.151  37.461  1.00  0.00     0.124 S 
ATOM     68  O   UNL A   1      43.317  24.826  37.136  1.00  0.00    -0.237 OA
ATOM     69  O   UNL A   1      45.697  24.154  37.080  1.00  0.00    -0.237 OA
ATOM     70  O   UNL A   1      44.906  25.756  38.776  1.00  0.00    -0.744 OA
ENDBRANCH  63  67
ENDBRANCH  37  60
ENDBRANCH  11  12
ENDBRANCH   4   6
ENDBRANCH   1   2
BRANCH   1  71
ATOM     71  C   UNL A   1      31.218  31.748  26.125  1.00  0.00     0.042 C 
BRANCH  71  72
ATOM     72  C   UNL A   1      31.261  30.297  25.675  1.00  0.00     0.117 C 
BRANCH  72  73
ATOM     73  N   UNL A   1      32.325  30.079  24.706  1.00  0.00    -0.356 N 
ATOM     74  C   UNL A   1      33.011  29.009  24.252  1.00  0.00     0.223 C 
ATOM     75  H   UNL A   1      32.615  30.916  24.276  1.00  0.00     0.163 HD
ATOM     76  O   UNL A   1      33.838  29.268  23.368  1.00  0.00    -0.275 OA
BRANCH  74  77
ATOM     77  C   UNL A   1      32.849  27.560  24.724  1.00  0.00     0.091 C 
ATOM     78  C   UNL A   1      32.806  27.226  26.214  1.00  0.00     0.014 C 
ATOM     79  C   UNL A   1      31.823  26.702  23.929  1.00  0.00     0.091 C 
ATOM     80  C   UNL A   1      31.391  27.254  26.776  1.00  0.00     0.001 C 
ATOM     81  C   UNL A   1      30.502  26.297  24.611  1.00  0.00     0.014 C 
ATOM     82  C   UNL A   1      30.559  26.161  26.126  1.00  0.00     0.001 C 
BRANCH  79  83
ATOM     83  C   UNL A   1      31.636  27.052  22.451  1.00  0.00     0.228 C 
ATOM     84  O   UNL A   1      32.383  26.508  21.625  1.00  0.00    -0.274 OA
ATOM     85  N   UNL A   1      30.655  27.836  21.929  1.00  0.00    -0.326 N 
ATOM     86  H   UNL A   1      30.636  27.779  20.946  1.00  0.00     0.169 HD
BRANCH  85  87
ATOM     87  C   UNL A   1      29.659  28.704  22.409  1.00  0.00     0.042 A 
ATOM     88  C   UNL A   1      28.476  28.311  23.029  1.00  0.00     0.029 A 
ATOM     89  C   UNL A   1      29.908  30.079  22.269  1.00  0.00     0.049 A 
ATOM     90  C   UNL A   1      27.554  29.251  23.500  1.00  0.00     0.043 A 
ATOM     91  C   UNL A   1      28.978  31.024  22.714  1.00  0.00     0.078 A 
ATOM     92  C   UNL A   1      27.807  30.605  23.335  1.00  0.00     0.141 A 
ATOM     93  Cl  UNL A   1      29.288  32.699  22.467  1.00  0.00    -0.081 Cl
ATOM     94  F   UNL A   1      26.902  31.490  23.775  1.00  0.00    -0.205 F 
ENDBRANCH  85  87
ENDBRANCH  79  83
ENDBRANCH  74  77
ENDBRANCH  72  73
ENDBRANCH  71  72
ENDBRANCH   1  71
TORSDOF 15
ENDMDL
