MODEL 1
REMARK VINA RESULT:     -12.5      0.000      0.000
REMARK SMILES CC(C)(C)OC(=O)N1CCN(C(=O)c2ccc3c(c2)OCO3)[C@H](C(=O)NCCCNC(=O)c2ccc(-c3c4nc(c(-c5cc(S(=O)(=O)[O-])ccc5F)c5ccc([nH]5)c(-c5cc(S(=O)(=O)[O-])ccc5F)c5nc(c(-c6cc(S(=O)(=O)[O-])ccc6F)c6ccc3[nH]6)C=C5)C=C4)cc2)C1
REMARK SMILES IDX 28 1 27 2 26 3 24 4 25 5 23 7 8 8 9 9 96 10 10 11 11 12 6 13
REMARK SMILES IDX 7 14 5 15 2 16 1 17 3 18 4 19 12 20 13 21 14 22 15 23 19 24
REMARK SMILES IDX 16 25 18 26 17 27 20 28 22 29 21 30 29 31 30 32 31 33 32 35
REMARK SMILES IDX 33 36 34 37 95 38 35 39 94 40 36 41 37 42 38 43 88 44 39 45
REMARK SMILES IDX 93 46 87 47 89 48 40 49 92 50 86 51 85 52 41 54 73 55 53 56
REMARK SMILES IDX 72 57 54 58 57 59 71 60 90 61 55 62 56 63 70 65 91 66 58 67
REMARK SMILES IDX 42 68 43 69 51 70 44 71 50 72 52 73 49 74 45 75 46 76 47 77
REMARK SMILES IDX 48 78 74 79 75 80 83 81 76 82 82 83 84 84 81 85 77 86 78 87
REMARK SMILES IDX 79 88 80 89 59 90 60 91 68 92 61 93 67 94 69 95 66 96 62 97
REMARK SMILES IDX 63 98 64 99 65 100
REMARK H PARENT 26 6 30 34 89 53 57 64
REMARK Flexibility Score: inf
ROOT
ATOM      1  C   UNL A   1      31.831  28.028  26.401  1.00  0.00     0.042 C 
ENDROOT
BRANCH   1   2
ATOM      2  C   UNL A   1      32.311  26.577  26.471  1.00  0.00     0.117 C 
BRANCH   2   3
ATOM      3  N   UNL A   1      33.583  26.424  25.785  1.00  0.00    -0.354 N 
ATOM      4  C   UNL A   1      34.124  25.238  25.368  1.00  0.00     0.244 C 
ATOM      5  O   UNL A   1      35.321  25.038  25.572  1.00  0.00    -0.273 OA
ATOM      6  H   UNL A   1      34.099  27.243  25.603  1.00  0.00     0.163 HD
BRANCH   4   7
ATOM      7  C   UNL A   1      33.199  24.211  24.697  1.00  0.00     0.194 C 
ATOM      8  N   UNL A   1      33.100  21.706  24.626  1.00  0.00    -0.304 N 
ATOM      9  C   UNL A   1      32.929  21.704  23.181  1.00  0.00     0.144 C 
ATOM     10  C   UNL A   1      33.801  22.866  25.165  1.00  0.00     0.158 C 
ATOM     11  C   UNL A   1      32.326  23.025  22.696  1.00  0.00     0.142 C 
ATOM     12  N   UNL A   1      33.015  24.221  23.212  1.00  0.00    -0.323 N 
BRANCH   8  13
ATOM     13  C   UNL A   1      32.848  20.572  25.367  1.00  0.00     0.410 C 
ATOM     14  O   UNL A   1      33.172  20.450  26.545  1.00  0.00    -0.224 OA
BRANCH  13  15
ATOM     15  O   UNL A   1      32.235  19.618  24.629  1.00  0.00    -0.444 OA
BRANCH  15  16
ATOM     16  C   UNL A   1      32.836  18.323  24.367  1.00  0.00     0.106 C 
ATOM     17  C   UNL A   1      34.348  18.567  24.490  1.00  0.00     0.056 C 
ATOM     18  C   UNL A   1      32.507  17.899  22.935  1.00  0.00     0.056 C 
ATOM     19  C   UNL A   1      32.439  17.248  25.385  1.00  0.00     0.056 C 
ENDBRANCH  15  16
ENDBRANCH  13  15
ENDBRANCH   8  13
BRANCH  12  20
ATOM     20  C   UNL A   1      32.758  25.386  22.472  1.00  0.00     0.254 C 
ATOM     21  O   UNL A   1      33.549  25.855  21.654  1.00  0.00    -0.269 OA
BRANCH  20  22
ATOM     22  C   UNL A   1      31.526  26.162  22.718  1.00  0.00     0.044 A 
ATOM     23  C   UNL A   1      30.543  25.660  23.594  1.00  0.00     0.018 A 
ATOM     24  C   UNL A   1      31.392  27.428  22.137  1.00  0.00     0.064 A 
ATOM     25  C   UNL A   1      29.359  26.373  23.811  1.00  0.00     0.051 A 
ATOM     26  C   UNL A   1      30.221  28.111  22.385  1.00  0.00     0.166 A 
ATOM     27  C   UNL A   1      29.227  27.592  23.185  1.00  0.00     0.165 A 
ATOM     28  O   UNL A   1      29.894  29.333  21.884  1.00  0.00    -0.454 OA
ATOM     29  O   UNL A   1      28.146  28.413  23.269  1.00  0.00    -0.454 OA
ATOM     30  C   UNL A   1      28.568  29.507  22.429  1.00  0.00     0.468 C 
ENDBRANCH  20  22
ENDBRANCH  12  20
ENDBRANCH   4   7
ENDBRANCH   2   3
ENDBRANCH   1   2
BRANCH   1  31
ATOM     31  C   UNL A   1      32.854  28.994  25.806  1.00  0.00     0.118 C 
BRANCH  31  32
ATOM     32  N   UNL A   1      32.521  30.385  26.072  1.00  0.00    -0.352 N 
ATOM     33  C   UNL A   1      33.084  31.266  26.961  1.00  0.00     0.251 C 
ATOM     34  H   UNL A   1      31.782  30.749  25.533  1.00  0.00     0.163 HD
ATOM     35  O   UNL A   1      32.518  32.334  27.180  1.00  0.00    -0.269 OA
BRANCH  33  36
ATOM     36  C   UNL A   1      34.341  30.926  27.663  1.00  0.00     0.039 A 
ATOM     37  C   UNL A   1      35.290  31.932  27.864  1.00  0.00     0.014 A 
ATOM     38  C   UNL A   1      34.603  29.622  28.095  1.00  0.00     0.014 A 
ATOM     39  C   UNL A   1      36.474  31.643  28.545  1.00  0.00     0.010 A 
ATOM     40  C   UNL A   1      35.752  29.353  28.836  1.00  0.00     0.010 A 
ATOM     41  C   UNL A   1      36.703  30.358  29.064  1.00  0.00    -0.014 A 
BRANCH  41  42
ATOM     42  C   UNL A   1      37.937  30.055  29.837  1.00  0.00     0.031 A 
ATOM     43  C   UNL A   1      38.960  29.099  29.287  1.00  0.00     0.074 A 
ATOM     44  C   UNL A   1      38.113  30.610  31.053  1.00  0.00     0.049 A 
ATOM     45  N   UNL A   1      40.074  28.675  29.830  1.00  0.00    -0.248 NA
ATOM     46  C   UNL A   1      38.681  28.522  27.964  1.00  0.00     0.031 C 
ATOM     47  C   UNL A   1      37.172  31.521  31.709  1.00  0.00     0.029 A 
ATOM     48  N   UNL A   1      39.139  30.489  31.956  1.00  0.00    -0.354 N 
ATOM     49  C   UNL A   1      40.625  27.779  28.919  1.00  0.00     0.074 A 
ATOM     50  C   UNL A   1      39.686  27.672  27.823  1.00  0.00     0.031 C 
ATOM     51  C   UNL A   1      37.677  31.896  32.895  1.00  0.00     0.029 A 
ATOM     52  C   UNL A   1      38.955  31.222  33.105  1.00  0.00     0.049 A 
ATOM     53  H   UNL A   1      39.933  29.929  31.796  1.00  0.00     0.167 HD
ATOM     54  C   UNL A   1      41.814  27.128  28.979  1.00  0.00     0.034 A 
ATOM     55  C   UNL A   1      39.724  31.334  34.206  1.00  0.00     0.034 A 
ATOM     56  C   UNL A   1      42.741  27.249  30.079  1.00  0.00     0.049 A 
ATOM     57  C   UNL A   1      41.029  30.581  34.260  1.00  0.00     0.074 A 
ATOM     58  C   UNL A   1      43.989  26.667  30.225  1.00  0.00     0.029 A 
ATOM     59  N   UNL A   1      42.521  28.003  31.226  1.00  0.00    -0.354 N 
ATOM     60  N   UNL A   1      41.558  29.774  33.369  1.00  0.00    -0.248 NA
ATOM     61  C   UNL A   1      41.849  30.767  35.464  1.00  0.00     0.031 C 
ATOM     62  C   UNL A   1      44.493  27.015  31.483  1.00  0.00     0.029 A 
ATOM     63  C   UNL A   1      43.597  27.878  32.093  1.00  0.00     0.049 A 
ATOM     64  H   UNL A   1      41.719  28.546  31.398  1.00  0.00     0.167 HD
ATOM     65  C   UNL A   1      42.788  29.385  33.892  1.00  0.00     0.074 A 
ATOM     66  C   UNL A   1      42.928  30.058  35.167  1.00  0.00     0.031 C 
ATOM     67  C   UNL A   1      43.719  28.548  33.367  1.00  0.00     0.034 A 
BRANCH  54  68
ATOM     68  C   UNL A   1      42.160  26.211  27.829  1.00  0.00     0.023 A 
ATOM     69  C   UNL A   1      41.704  24.881  27.785  1.00  0.00     0.031 A 
ATOM     70  C   UNL A   1      42.977  26.658  26.776  1.00  0.00     0.131 A 
ATOM     71  C   UNL A   1      42.135  24.025  26.761  1.00  0.00     0.055 A 
ATOM     72  C   UNL A   1      43.333  25.825  25.714  1.00  0.00     0.041 A 
ATOM     73  F   UNL A   1      43.460  27.911  26.770  1.00  0.00    -0.206 F 
ATOM     74  C   UNL A   1      42.925  24.494  25.709  1.00  0.00     0.022 A 
BRANCH  71  75
ATOM     75  S   UNL A   1      41.770  22.254  26.903  1.00  0.00     0.124 S 
ATOM     76  O   UNL A   1      40.444  22.275  27.516  1.00  0.00    -0.237 OA
ATOM     77  O   UNL A   1      41.827  21.807  25.517  1.00  0.00    -0.237 OA
ATOM     78  O   UNL A   1      42.838  21.752  27.766  1.00  0.00    -0.744 OA
ENDBRANCH  71  75
ENDBRANCH  54  68
BRANCH  55  79
ATOM     79  C   UNL A   1      39.289  32.184  35.351  1.00  0.00     0.023 A 
ATOM     80  C   UNL A   1      38.636  31.622  36.460  1.00  0.00     0.031 A 
ATOM     81  C   UNL A   1      39.475  33.577  35.332  1.00  0.00     0.131 A 
ATOM     82  C   UNL A   1      38.145  32.454  37.478  1.00  0.00     0.055 A 
ATOM     83  C   UNL A   1      39.033  34.395  36.374  1.00  0.00     0.041 A 
ATOM     84  F   UNL A   1      40.100  34.166  34.299  1.00  0.00    -0.206 F 
ATOM     85  C   UNL A   1      38.350  33.835  37.448  1.00  0.00     0.022 A 
BRANCH  82  86
ATOM     86  S   UNL A   1      37.149  31.711  38.800  1.00  0.00     0.124 S 
ATOM     87  O   UNL A   1      35.978  32.578  38.812  1.00  0.00    -0.237 OA
ATOM     88  O   UNL A   1      36.942  30.357  38.297  1.00  0.00    -0.237 OA
ATOM     89  O   UNL A   1      38.014  31.812  39.974  1.00  0.00    -0.744 OA
ENDBRANCH  82  86
ENDBRANCH  55  79
BRANCH  67  90
ATOM     90  C   UNL A   1      44.991  28.359  34.158  1.00  0.00     0.023 A 
ATOM     91  C   UNL A   1      45.122  27.340  35.118  1.00  0.00     0.031 A 
ATOM     92  C   UNL A   1      46.077  29.231  33.967  1.00  0.00     0.131 A 
ATOM     93  C   UNL A   1      46.288  27.257  35.895  1.00  0.00     0.055 A 
ATOM     94  C   UNL A   1      47.259  29.105  34.699  1.00  0.00     0.041 A 
ATOM     95  F   UNL A   1      46.007  30.224  33.067  1.00  0.00    -0.206 F 
ATOM     96  C   UNL A   1      47.362  28.123  35.680  1.00  0.00     0.022 A 
BRANCH  93  97
ATOM     97  S   UNL A   1      46.339  26.069  37.264  1.00  0.00     0.124 S 
ATOM     98  O   UNL A   1      47.752  25.701  37.294  1.00  0.00    -0.237 OA
ATOM     99  O   UNL A   1      45.866  26.869  38.389  1.00  0.00    -0.237 OA
ATOM    100  O   UNL A   1      45.432  25.008  36.833  1.00  0.00    -0.744 OA
ENDBRANCH  93  97
ENDBRANCH  67  90
ENDBRANCH  41  42
ENDBRANCH  33  36
ENDBRANCH  31  32
ENDBRANCH   1  31
TORSDOF 18
ENDMDL
MODEL 2
REMARK VINA RESULT:     -12.4      4.286      6.897
REMARK SMILES CC(C)(C)OC(=O)N1CCN(C(=O)c2ccc3c(c2)OCO3)[C@H](C(=O)NCCCNC(=O)c2ccc(-c3c4nc(c(-c5cc(S(=O)(=O)[O-])ccc5F)c5ccc([nH]5)c(-c5cc(S(=O)(=O)[O-])ccc5F)c5nc(c(-c6cc(S(=O)(=O)[O-])ccc6F)c6ccc3[nH]6)C=C5)C=C4)cc2)C1
REMARK SMILES IDX 28 1 27 2 26 3 24 4 25 5 23 7 8 8 9 9 96 10 10 11 11 12 6 13
REMARK SMILES IDX 7 14 5 15 2 16 1 17 3 18 4 19 12 20 13 21 14 22 15 23 19 24
REMARK SMILES IDX 16 25 18 26 17 27 20 28 22 29 21 30 29 31 30 32 31 33 32 35
REMARK SMILES IDX 33 36 34 37 95 38 35 39 94 40 36 41 37 42 38 43 88 44 39 45
REMARK SMILES IDX 93 46 87 47 89 48 40 49 92 50 86 51 85 52 41 54 73 55 53 56
REMARK SMILES IDX 72 57 54 58 57 59 71 60 90 61 55 62 56 63 70 65 91 66 58 67
REMARK SMILES IDX 42 68 43 69 51 70 44 71 50 72 52 73 49 74 45 75 46 76 47 77
REMARK SMILES IDX 48 78 74 79 75 80 83 81 76 82 82 83 84 84 81 85 77 86 78 87
REMARK SMILES IDX 79 88 80 89 59 90 60 91 68 92 61 93 67 94 69 95 66 96 62 97
REMARK SMILES IDX 63 98 64 99 65 100
REMARK H PARENT 26 6 30 34 89 53 57 64
REMARK Flexibility Score: inf
ROOT
ATOM      1  C   UNL A   1      35.070  22.781  26.825  1.00  0.00     0.042 C 
ENDROOT
BRANCH   1   2
ATOM      2  C   UNL A   1      33.815  23.648  26.697  1.00  0.00     0.117 C 
BRANCH   2   3
ATOM      3  N   UNL A   1      32.670  22.985  27.299  1.00  0.00    -0.354 N 
ATOM      4  C   UNL A   1      31.402  22.963  26.784  1.00  0.00     0.244 C 
ATOM      5  O   UNL A   1      30.458  23.156  27.549  1.00  0.00    -0.273 OA
ATOM      6  H   UNL A   1      32.819  22.510  28.149  1.00  0.00     0.163 HD
BRANCH   4   7
ATOM      7  C   UNL A   1      31.232  22.729  25.275  1.00  0.00     0.194 C 
ATOM      8  N   UNL A   1      32.172  21.088  23.627  1.00  0.00    -0.304 N 
ATOM      9  C   UNL A   1      32.487  22.146  22.679  1.00  0.00     0.144 C 
ATOM     10  C   UNL A   1      32.138  21.501  25.025  1.00  0.00     0.158 C 
ATOM     11  C   UNL A   1      31.596  23.370  22.903  1.00  0.00     0.142 C 
ATOM     12  N   UNL A   1      31.545  23.824  24.304  1.00  0.00    -0.323 N 
BRANCH   8  13
ATOM     13  C   UNL A   1      32.172  19.768  23.235  1.00  0.00     0.410 C 
ATOM     14  O   UNL A   1      32.121  19.412  22.061  1.00  0.00    -0.224 OA
BRANCH  13  15
ATOM     15  O   UNL A   1      32.201  18.930  24.298  1.00  0.00    -0.444 OA
BRANCH  15  16
ATOM     16  C   UNL A   1      33.265  17.965  24.506  1.00  0.00     0.106 C 
ATOM     17  C   UNL A   1      32.901  17.266  25.825  1.00  0.00     0.056 C 
ATOM     18  C   UNL A   1      34.590  18.710  24.678  1.00  0.00     0.056 C 
ATOM     19  C   UNL A   1      33.349  16.901  23.405  1.00  0.00     0.056 C 
ENDBRANCH  15  16
ENDBRANCH  13  15
ENDBRANCH   8  13
BRANCH  12  20
ATOM     20  C   UNL A   1      31.094  25.145  24.456  1.00  0.00     0.254 C 
ATOM     21  O   UNL A   1      29.946  25.501  24.193  1.00  0.00    -0.269 OA
BRANCH  20  22
ATOM     22  C   UNL A   1      32.035  26.204  24.869  1.00  0.00     0.044 A 
ATOM     23  C   UNL A   1      32.988  26.695  23.953  1.00  0.00     0.018 A 
ATOM     24  C   UNL A   1      31.910  26.765  26.145  1.00  0.00     0.064 A 
ATOM     25  C   UNL A   1      33.903  27.678  24.344  1.00  0.00     0.051 A 
ATOM     26  C   UNL A   1      32.818  27.743  26.493  1.00  0.00     0.166 A 
ATOM     27  C   UNL A   1      33.795  28.175  25.623  1.00  0.00     0.165 A 
ATOM     28  O   UNL A   1      32.878  28.379  27.693  1.00  0.00    -0.454 OA
ATOM     29  O   UNL A   1      34.602  29.120  26.177  1.00  0.00    -0.454 OA
ATOM     30  C   UNL A   1      34.026  29.232  27.495  1.00  0.00     0.468 C 
ENDBRANCH  20  22
ENDBRANCH  12  20
ENDBRANCH   4   7
ENDBRANCH   2   3
ENDBRANCH   1   2
BRANCH   1  31
ATOM     31  C   UNL A   1      36.306  23.371  26.150  1.00  0.00     0.118 C 
BRANCH  31  32
ATOM     32  N   UNL A   1      37.404  22.420  26.077  1.00  0.00    -0.352 N 
ATOM     33  C   UNL A   1      38.752  22.624  26.230  1.00  0.00     0.251 C 
ATOM     34  H   UNL A   1      37.140  21.490  25.889  1.00  0.00     0.163 HD
ATOM     35  O   UNL A   1      39.530  21.724  25.921  1.00  0.00    -0.269 OA
BRANCH  33  36
ATOM     36  C   UNL A   1      39.265  23.915  26.738  1.00  0.00     0.039 A 
ATOM     37  C   UNL A   1      39.868  24.798  25.838  1.00  0.00     0.014 A 
ATOM     38  C   UNL A   1      39.184  24.247  28.094  1.00  0.00     0.014 A 
ATOM     39  C   UNL A   1      40.339  26.033  26.287  1.00  0.00     0.010 A 
ATOM     40  C   UNL A   1      39.589  25.509  28.526  1.00  0.00     0.010 A 
ATOM     41  C   UNL A   1      40.176  26.413  27.630  1.00  0.00    -0.014 A 
BRANCH  41  42
ATOM     42  C   UNL A   1      40.627  27.748  28.105  1.00  0.00     0.031 A 
ATOM     43  C   UNL A   1      42.092  28.087  28.136  1.00  0.00     0.074 A 
ATOM     44  C   UNL A   1      39.717  28.638  28.549  1.00  0.00     0.049 A 
ATOM     45  N   UNL A   1      42.681  29.178  28.557  1.00  0.00    -0.248 NA
ATOM     46  C   UNL A   1      43.019  27.053  27.653  1.00  0.00     0.031 C 
ATOM     47  C   UNL A   1      38.270  28.409  28.606  1.00  0.00     0.029 A 
ATOM     48  N   UNL A   1      39.869  29.910  29.040  1.00  0.00    -0.354 N 
ATOM     49  C   UNL A   1      44.046  28.960  28.397  1.00  0.00     0.074 A 
ATOM     50  C   UNL A   1      44.196  27.607  27.904  1.00  0.00     0.031 C 
ATOM     51  C   UNL A   1      37.669  29.512  29.077  1.00  0.00     0.029 A 
ATOM     52  C   UNL A   1      38.684  30.512  29.397  1.00  0.00     0.049 A 
ATOM     53  H   UNL A   1      40.744  30.351  29.129  1.00  0.00     0.167 HD
ATOM     54  C   UNL A   1      45.077  29.816  28.615  1.00  0.00     0.034 A 
ATOM     55  C   UNL A   1      38.443  31.727  29.927  1.00  0.00     0.034 A 
ATOM     56  C   UNL A   1      44.910  31.164  29.103  1.00  0.00     0.049 A 
ATOM     57  C   UNL A   1      39.606  32.651  30.184  1.00  0.00     0.074 A 
ATOM     58  C   UNL A   1      45.878  32.129  29.322  1.00  0.00     0.029 A 
ATOM     59  N   UNL A   1      43.694  31.739  29.452  1.00  0.00    -0.354 N 
ATOM     60  N   UNL A   1      40.887  32.446  29.982  1.00  0.00    -0.248 NA
ATOM     61  C   UNL A   1      39.286  33.979  30.726  1.00  0.00     0.031 C 
ATOM     62  C   UNL A   1      45.258  33.261  29.863  1.00  0.00     0.029 A 
ATOM     63  C   UNL A   1      43.892  33.034  29.910  1.00  0.00     0.049 A 
ATOM     64  H   UNL A   1      42.819  31.294  29.385  1.00  0.00     0.167 HD
ATOM     65  C   UNL A   1      41.522  33.633  30.341  1.00  0.00     0.074 A 
ATOM     66  C   UNL A   1      40.481  34.551  30.755  1.00  0.00     0.031 C 
ATOM     67  C   UNL A   1      42.845  33.937  30.329  1.00  0.00     0.034 A 
BRANCH  54  68
ATOM     68  C   UNL A   1      46.472  29.303  28.346  1.00  0.00     0.023 A 
ATOM     69  C   UNL A   1      47.211  28.626  29.332  1.00  0.00     0.031 A 
ATOM     70  C   UNL A   1      47.086  29.516  27.099  1.00  0.00     0.131 A 
ATOM     71  C   UNL A   1      48.543  28.262  29.086  1.00  0.00     0.055 A 
ATOM     72  C   UNL A   1      48.383  29.074  26.831  1.00  0.00     0.041 A 
ATOM     73  F   UNL A   1      46.440  30.172  26.122  1.00  0.00    -0.206 F 
ATOM     74  C   UNL A   1      49.127  28.457  27.833  1.00  0.00     0.022 A 
BRANCH  71  75
ATOM     75  S   UNL A   1      49.547  27.666  30.474  1.00  0.00     0.124 S 
ATOM     76  O   UNL A   1      50.796  28.396  30.268  1.00  0.00    -0.237 OA
ATOM     77  O   UNL A   1      48.756  28.066  31.631  1.00  0.00    -0.237 OA
ATOM     78  O   UNL A   1      49.632  26.225  30.242  1.00  0.00    -0.744 OA
ENDBRANCH  71  75
ENDBRANCH  54  68
BRANCH  55  79
ATOM     79  C   UNL A   1      37.051  32.146  30.258  1.00  0.00     0.023 A 
ATOM     80  C   UNL A   1      36.172  32.587  29.256  1.00  0.00     0.031 A 
ATOM     81  C   UNL A   1      36.594  32.160  31.588  1.00  0.00     0.131 A 
ATOM     82  C   UNL A   1      34.902  33.073  29.603  1.00  0.00     0.055 A 
ATOM     83  C   UNL A   1      35.310  32.593  31.922  1.00  0.00     0.041 A 
ATOM     84  F   UNL A   1      37.392  31.742  32.584  1.00  0.00    -0.206 F 
ATOM     85  C   UNL A   1      34.460  33.068  30.928  1.00  0.00     0.022 A 
BRANCH  82  86
ATOM     86  S   UNL A   1      33.867  33.802  28.303  1.00  0.00     0.124 S 
ATOM     87  O   UNL A   1      32.978  34.658  29.078  1.00  0.00    -0.237 OA
ATOM     88  O   UNL A   1      34.857  34.484  27.476  1.00  0.00    -0.237 OA
ATOM     89  O   UNL A   1      33.233  32.640  27.683  1.00  0.00    -0.744 OA
ENDBRANCH  82  86
ENDBRANCH  55  79
BRANCH  67  90
ATOM     90  C   UNL A   1      43.226  35.340  30.732  1.00  0.00     0.023 A 
ATOM     91  C   UNL A   1      43.251  35.744  32.079  1.00  0.00     0.031 A 
ATOM     92  C   UNL A   1      43.542  36.296  29.750  1.00  0.00     0.131 A 
ATOM     93  C   UNL A   1      43.521  37.082  32.403  1.00  0.00     0.055 A 
ATOM     94  C   UNL A   1      43.873  37.611  30.083  1.00  0.00     0.041 A 
ATOM     95  F   UNL A   1      43.532  35.968  28.449  1.00  0.00    -0.206 F 
ATOM     96  C   UNL A   1      43.848  38.014  31.415  1.00  0.00     0.022 A 
BRANCH  93  97
ATOM     97  S   UNL A   1      43.336  37.615  34.127  1.00  0.00     0.124 S 
ATOM     98  O   UNL A   1      43.015  39.031  33.974  1.00  0.00    -0.237 OA
ATOM     99  O   UNL A   1      42.250  36.764  34.602  1.00  0.00    -0.237 OA
ATOM    100  O   UNL A   1      44.644  37.336  34.716  1.00  0.00    -0.744 OA
ENDBRANCH  93  97
ENDBRANCH  67  90
ENDBRANCH  41  42
ENDBRANCH  33  36
ENDBRANCH  31  32
ENDBRANCH   1  31
TORSDOF 18
ENDMDL
MODEL 3
REMARK VINA RESULT:     -12.4      2.349      7.732
REMARK SMILES CC(C)(C)OC(=O)N1CCN(C(=O)c2ccc3c(c2)OCO3)[C@H](C(=O)NCCCNC(=O)c2ccc(-c3c4nc(c(-c5cc(S(=O)(=O)[O-])ccc5F)c5ccc([nH]5)c(-c5cc(S(=O)(=O)[O-])ccc5F)c5nc(c(-c6cc(S(=O)(=O)[O-])ccc6F)c6ccc3[nH]6)C=C5)C=C4)cc2)C1
REMARK SMILES IDX 28 1 27 2 26 3 24 4 25 5 23 7 8 8 9 9 96 10 10 11 11 12 6 13
REMARK SMILES IDX 7 14 5 15 2 16 1 17 3 18 4 19 12 20 13 21 14 22 15 23 19 24
REMARK SMILES IDX 16 25 18 26 17 27 20 28 22 29 21 30 29 31 30 32 31 33 32 35
REMARK SMILES IDX 33 36 34 37 95 38 35 39 94 40 36 41 37 42 38 43 88 44 39 45
REMARK SMILES IDX 93 46 87 47 89 48 40 49 92 50 86 51 85 52 41 54 73 55 53 56
REMARK SMILES IDX 72 57 54 58 57 59 71 60 90 61 55 62 56 63 70 65 91 66 58 67
REMARK SMILES IDX 42 68 43 69 51 70 44 71 50 72 52 73 49 74 45 75 46 76 47 77
REMARK SMILES IDX 48 78 74 79 75 80 83 81 76 82 82 83 84 84 81 85 77 86 78 87
REMARK SMILES IDX 79 88 80 89 59 90 60 91 68 92 61 93 67 94 69 95 66 96 62 97
REMARK SMILES IDX 63 98 64 99 65 100
REMARK H PARENT 26 6 30 34 89 53 57 64
REMARK Flexibility Score: inf
ROOT
ATOM      1  C   UNL A   1      32.733  28.456  27.217  1.00  0.00     0.042 C 
ENDROOT
BRANCH   1   2
ATOM      2  C   UNL A   1      31.882  27.581  26.294  1.00  0.00     0.117 C 
BRANCH   2   3
ATOM      3  N   UNL A   1      31.612  26.294  26.913  1.00  0.00    -0.354 N 
ATOM      4  C   UNL A   1      31.066  25.208  26.284  1.00  0.00     0.244 C 
ATOM      5  O   UNL A   1      30.187  24.575  26.868  1.00  0.00    -0.273 OA
ATOM      6  H   UNL A   1      31.843  26.194  27.865  1.00  0.00     0.163 HD
BRANCH   4   7
ATOM      7  C   UNL A   1      31.558  24.860  24.871  1.00  0.00     0.194 C 
ATOM      8  N   UNL A   1      33.808  24.479  23.830  1.00  0.00    -0.304 N 
ATOM      9  C   UNL A   1      33.491  25.346  22.706  1.00  0.00     0.144 C 
ATOM     10  C   UNL A   1      33.090  24.776  25.064  1.00  0.00     0.158 C 
ATOM     11  C   UNL A   1      31.978  25.437  22.491  1.00  0.00     0.142 C 
ATOM     12  N   UNL A   1      31.218  25.748  23.715  1.00  0.00    -0.323 N 
BRANCH   8  13
ATOM     13  C   UNL A   1      34.891  23.628  23.780  1.00  0.00     0.410 C 
ATOM     14  O   UNL A   1      35.523  23.400  22.752  1.00  0.00    -0.224 OA
BRANCH  13  15
ATOM     15  O   UNL A   1      35.141  23.065  24.985  1.00  0.00    -0.444 OA
BRANCH  15  16
ATOM     16  C   UNL A   1      34.766  21.699  25.303  1.00  0.00     0.106 C 
ATOM     17  C   UNL A   1      36.035  20.876  25.027  1.00  0.00     0.056 C 
ATOM     18  C   UNL A   1      33.655  21.250  24.353  1.00  0.00     0.056 C 
ATOM     19  C   UNL A   1      34.375  21.498  26.772  1.00  0.00     0.056 C 
ENDBRANCH  15  16
ENDBRANCH  13  15
ENDBRANCH   8  13
BRANCH  12  20
ATOM     20  C   UNL A   1      29.925  26.238  23.470  1.00  0.00     0.254 C 
ATOM     21  O   UNL A   1      28.919  25.530  23.495  1.00  0.00    -0.269 OA
BRANCH  20  22
ATOM     22  C   UNL A   1      29.730  27.647  23.079  1.00  0.00     0.044 A 
ATOM     23  C   UNL A   1      30.761  28.341  22.412  1.00  0.00     0.018 A 
ATOM     24  C   UNL A   1      28.489  28.251  23.305  1.00  0.00     0.064 A 
ATOM     25  C   UNL A   1      30.597  29.685  22.063  1.00  0.00     0.051 A 
ATOM     26  C   UNL A   1      28.356  29.573  22.935  1.00  0.00     0.166 A 
ATOM     27  C   UNL A   1      29.385  30.273  22.346  1.00  0.00     0.165 A 
ATOM     28  O   UNL A   1      27.243  30.336  23.104  1.00  0.00    -0.454 OA
ATOM     29  O   UNL A   1      29.053  31.568  22.091  1.00  0.00    -0.454 OA
ATOM     30  C   UNL A   1      27.701  31.606  22.590  1.00  0.00     0.468 C 
ENDBRANCH  20  22
ENDBRANCH  12  20
ENDBRANCH   4   7
ENDBRANCH   2   3
ENDBRANCH   1   2
BRANCH   1  31
ATOM     31  C   UNL A   1      33.759  29.320  26.485  1.00  0.00     0.118 C 
BRANCH  31  32
ATOM     32  N   UNL A   1      33.639  30.728  26.826  1.00  0.00    -0.352 N 
ATOM     33  C   UNL A   1      34.384  31.486  27.696  1.00  0.00     0.251 C 
ATOM     34  H   UNL A   1      32.917  31.211  26.364  1.00  0.00     0.163 HD
ATOM     35  O   UNL A   1      33.986  32.608  27.999  1.00  0.00    -0.269 OA
BRANCH  33  36
ATOM     36  C   UNL A   1      35.633  30.951  28.279  1.00  0.00     0.039 A 
ATOM     37  C   UNL A   1      35.555  29.861  29.150  1.00  0.00     0.014 A 
ATOM     38  C   UNL A   1      36.874  31.534  27.999  1.00  0.00     0.014 A 
ATOM     39  C   UNL A   1      36.722  29.323  29.695  1.00  0.00     0.010 A 
ATOM     40  C   UNL A   1      38.042  30.951  28.487  1.00  0.00     0.010 A 
ATOM     41  C   UNL A   1      37.979  29.843  29.345  1.00  0.00    -0.014 A 
BRANCH  41  42
ATOM     42  C   UNL A   1      39.230  29.242  29.879  1.00  0.00     0.031 A 
ATOM     43  C   UNL A   1      39.880  29.812  31.111  1.00  0.00     0.074 A 
ATOM     44  C   UNL A   1      39.802  28.209  29.229  1.00  0.00     0.049 A 
ATOM     45  N   UNL A   1      40.993  29.456  31.700  1.00  0.00    -0.248 NA
ATOM     46  C   UNL A   1      39.202  30.951  31.747  1.00  0.00     0.031 C 
ATOM     47  C   UNL A   1      39.287  27.596  28.002  1.00  0.00     0.029 A 
ATOM     48  N   UNL A   1      40.941  27.495  29.502  1.00  0.00    -0.354 N 
ATOM     49  C   UNL A   1      41.152  30.328  32.772  1.00  0.00     0.074 A 
ATOM     50  C   UNL A   1      40.056  31.272  32.707  1.00  0.00     0.031 C 
ATOM     51  C   UNL A   1      40.092  26.582  27.646  1.00  0.00     0.029 A 
ATOM     52  C   UNL A   1      41.202  26.498  28.591  1.00  0.00     0.049 A 
ATOM     53  H   UNL A   1      41.517  27.678  30.279  1.00  0.00     0.167 HD
ATOM     54  C   UNL A   1      42.107  30.327  33.737  1.00  0.00     0.034 A 
ATOM     55  C   UNL A   1      42.222  25.620  28.520  1.00  0.00     0.034 A 
ATOM     56  C   UNL A   1      43.192  29.376  33.791  1.00  0.00     0.049 A 
ATOM     57  C   UNL A   1      43.286  25.654  29.588  1.00  0.00     0.074 A 
ATOM     58  C   UNL A   1      44.191  29.258  34.741  1.00  0.00     0.029 A 
ATOM     59  N   UNL A   1      43.423  28.379  32.850  1.00  0.00    -0.354 N 
ATOM     60  N   UNL A   1      43.395  26.456  30.622  1.00  0.00    -0.248 NA
ATOM     61  C   UNL A   1      44.354  24.652  29.488  1.00  0.00     0.031 C 
ATOM     62  C   UNL A   1      45.060  28.236  34.344  1.00  0.00     0.029 A 
ATOM     63  C   UNL A   1      44.563  27.661  33.185  1.00  0.00     0.049 A 
ATOM     64  H   UNL A   1      42.861  28.206  32.061  1.00  0.00     0.167 HD
ATOM     65  C   UNL A   1      44.528  26.031  31.313  1.00  0.00     0.074 A 
ATOM     66  C   UNL A   1      45.053  24.894  30.586  1.00  0.00     0.031 C 
ATOM     67  C   UNL A   1      45.082  26.534  32.445  1.00  0.00     0.034 A 
BRANCH  54  68
ATOM     68  C   UNL A   1      42.026  31.404  34.794  1.00  0.00     0.023 A 
ATOM     69  C   UNL A   1      40.986  31.429  35.741  1.00  0.00     0.031 A 
ATOM     70  C   UNL A   1      42.980  32.435  34.841  1.00  0.00     0.131 A 
ATOM     71  C   UNL A   1      40.878  32.502  36.637  1.00  0.00     0.055 A 
ATOM     72  C   UNL A   1      42.915  33.456  35.792  1.00  0.00     0.041 A 
ATOM     73  F   UNL A   1      43.985  32.478  33.953  1.00  0.00    -0.206 F 
ATOM     74  C   UNL A   1      41.850  33.504  36.687  1.00  0.00     0.022 A 
BRANCH  71  75
ATOM     75  S   UNL A   1      39.369  32.650  37.632  1.00  0.00     0.124 S 
ATOM     76  O   UNL A   1      38.833  33.927  37.167  1.00  0.00    -0.237 OA
ATOM     77  O   UNL A   1      38.618  31.462  37.245  1.00  0.00    -0.237 OA
ATOM     78  O   UNL A   1      39.865  32.655  39.007  1.00  0.00    -0.744 OA
ENDBRANCH  71  75
ENDBRANCH  54  68
BRANCH  55  79
ATOM     79  C   UNL A   1      42.300  24.637  27.401  1.00  0.00     0.023 A 
ATOM     80  C   UNL A   1      41.524  23.467  27.413  1.00  0.00     0.031 A 
ATOM     81  C   UNL A   1      43.187  24.829  26.328  1.00  0.00     0.131 A 
ATOM     82  C   UNL A   1      41.688  22.508  26.402  1.00  0.00     0.055 A 
ATOM     83  C   UNL A   1      43.307  23.897  25.295  1.00  0.00     0.041 A 
ATOM     84  F   UNL A   1      43.947  25.934  26.263  1.00  0.00    -0.206 F 
ATOM     85  C   UNL A   1      42.566  22.721  25.336  1.00  0.00     0.022 A 
BRANCH  82  86
ATOM     86  S   UNL A   1      40.804  20.931  26.550  1.00  0.00     0.124 S 
ATOM     87  O   UNL A   1      39.505  21.265  25.977  1.00  0.00    -0.237 OA
ATOM     88  O   UNL A   1      41.645  20.039  25.758  1.00  0.00    -0.237 OA
ATOM     89  O   UNL A   1      40.806  20.674  27.988  1.00  0.00    -0.744 OA
ENDBRANCH  82  86
ENDBRANCH  55  79
BRANCH  67  90
ATOM     90  C   UNL A   1      46.295  25.818  32.988  1.00  0.00     0.023 A 
ATOM     91  C   UNL A   1      47.592  26.097  32.519  1.00  0.00     0.031 A 
ATOM     92  C   UNL A   1      46.147  24.821  33.968  1.00  0.00     0.131 A 
ATOM     93  C   UNL A   1      48.680  25.343  32.984  1.00  0.00     0.055 A 
ATOM     94  C   UNL A   1      47.242  24.118  34.474  1.00  0.00     0.041 A 
ATOM     95  F   UNL A   1      44.933  24.510  34.450  1.00  0.00    -0.206 F 
ATOM     96  C   UNL A   1      48.515  24.367  33.970  1.00  0.00     0.022 A 
BRANCH  93  97
ATOM     97  S   UNL A   1      50.301  25.583  32.207  1.00  0.00     0.124 S 
ATOM     98  O   UNL A   1      50.372  24.445  31.295  1.00  0.00    -0.237 OA
ATOM     99  O   UNL A   1      50.154  26.893  31.579  1.00  0.00    -0.237 OA
ATOM    100  O   UNL A   1      51.233  25.536  33.331  1.00  0.00    -0.744 OA
ENDBRANCH  93  97
ENDBRANCH  67  90
ENDBRANCH  41  42
ENDBRANCH  33  36
ENDBRANCH  31  32
ENDBRANCH   1  31
TORSDOF 18
ENDMDL
