MODEL 1
REMARK VINA RESULT:     -12.0      0.000      0.000
REMARK SMILES O=C(Cn1c(SCCc2ccccc2)nc2ccccc21)NCCCNC(=O)c1ccc(-c2c3nc(c(-c4cc(S(=O)(=O)[O-])ccc4F)c4ccc([nH]4)c(-c4cc(S(=O)(=O)[O-])ccc4F)c4nc(c(-c5cc(S(=O)(=O)[O-])ccc5F)c5ccc2[nH]5)C=C4)C=C3)cc1
REMARK SMILES IDX 23 1 22 2 1 3 2 4 3 6 4 7 5 8 21 9 15 10 16 11 20 12 17 13
REMARK SMILES IDX 19 14 18 15 6 16 7 17 8 18 9 19 10 20 14 21 11 22 13 23
REMARK SMILES IDX 12 24 24 25 25 26 26 27 27 28 28 30 29 31 30 32 91 33 31 34
REMARK SMILES IDX 90 35 32 36 33 37 34 38 84 39 35 40 89 41 83 42 85 43 36 44
REMARK SMILES IDX 88 45 82 46 81 47 37 49 69 50 49 51 68 52 50 53 53 54 67 55
REMARK SMILES IDX 86 56 51 57 52 58 66 60 87 61 54 62 38 63 39 64 47 65 40 66
REMARK SMILES IDX 46 67 48 68 45 69 41 70 42 71 43 72 44 73 70 74 71 75 79 76
REMARK SMILES IDX 72 77 78 78 80 79 77 80 73 81 74 82 75 83 76 84 55 85 56 86
REMARK SMILES IDX 64 87 57 88 63 89 65 90 62 91 58 92 59 93 60 94 61 95
REMARK H PARENT 22 5 26 29 85 48 53 59
REMARK Flexibility Score: inf
ROOT
ATOM      1  C   UNL A   1      35.800  21.146  24.623  1.00  0.00     0.117 C 
ENDROOT
BRANCH   1   2
ATOM      2  N   UNL A   1      35.134  22.471  24.581  1.00  0.00    -0.354 N 
ATOM      3  O   UNL A   1      34.743  22.982  26.728  1.00  0.00    -0.273 OA
ATOM      4  C   UNL A   1      34.684  23.351  25.548  1.00  0.00     0.240 C 
ATOM      5  H   UNL A   1      34.978  22.795  23.664  1.00  0.00     0.163 HD
BRANCH   4   6
ATOM      6  C   UNL A   1      34.217  24.875  25.264  1.00  0.00     0.224 C 
BRANCH   6   7
ATOM      7  N   UNL A   1      33.139  25.697  25.919  1.00  0.00    -0.309 N 
ATOM      8  C   UNL A   1      31.928  25.279  26.426  1.00  0.00     0.169 A 
ATOM      9  C   UNL A   1      33.217  27.047  26.337  1.00  0.00     0.069 A 
ATOM     10  N   UNL A   1      31.185  26.230  26.922  1.00  0.00    -0.222 NA
ATOM     11  C   UNL A   1      31.932  27.349  26.813  1.00  0.00     0.090 A 
ATOM     12  C   UNL A   1      34.187  28.062  26.283  1.00  0.00     0.028 A 
ATOM     13  C   UNL A   1      31.533  28.666  27.094  1.00  0.00     0.030 A 
ATOM     14  C   UNL A   1      33.778  29.379  26.598  1.00  0.00     0.002 A 
ATOM     15  C   UNL A   1      32.466  29.687  26.959  1.00  0.00     0.002 A 
BRANCH   8  16
ATOM     16  S   UNL A   1      31.237  23.753  26.159  1.00  0.00    -0.088 SA
BRANCH  16  17
ATOM     17  C   UNL A   1      31.126  23.890  24.372  1.00  0.00     0.083 C 
BRANCH  17  18
ATOM     18  C   UNL A   1      30.440  25.056  23.564  1.00  0.00     0.047 C 
BRANCH  18  19
ATOM     19  C   UNL A   1      30.668  26.580  23.362  1.00  0.00    -0.047 A 
ATOM     20  C   UNL A   1      31.943  26.918  22.887  1.00  0.00     0.004 A 
ATOM     21  C   UNL A   1      29.872  27.699  23.727  1.00  0.00     0.004 A 
ATOM     22  C   UNL A   1      32.372  28.246  22.756  1.00  0.00     0.000 A 
ATOM     23  C   UNL A   1      30.294  29.032  23.602  1.00  0.00     0.000 A 
ATOM     24  C   UNL A   1      31.550  29.307  23.110  1.00  0.00     0.000 A 
ENDBRANCH  18  19
ENDBRANCH  17  18
ENDBRANCH  16  17
ENDBRANCH   8  16
ENDBRANCH   6   7
ENDBRANCH   4   6
ENDBRANCH   1   2
BRANCH   1  25
ATOM     25  C   UNL A   1      37.138  20.913  25.356  1.00  0.00     0.042 C 
BRANCH  25  26
ATOM     26  C   UNL A   1      38.141  22.051  25.594  1.00  0.00     0.118 C 
BRANCH  26  27
ATOM     27  N   UNL A   1      39.433  21.691  26.164  1.00  0.00    -0.352 N 
ATOM     28  C   UNL A   1      40.132  22.235  27.219  1.00  0.00     0.251 C 
ATOM     29  H   UNL A   1      39.882  20.934  25.722  1.00  0.00     0.163 HD
ATOM     30  O   UNL A   1      40.681  21.437  27.984  1.00  0.00    -0.269 OA
BRANCH  28  31
ATOM     31  C   UNL A   1      40.397  23.691  27.368  1.00  0.00     0.039 A 
ATOM     32  C   UNL A   1      41.441  24.205  28.130  1.00  0.00     0.014 A 
ATOM     33  C   UNL A   1      39.433  24.580  26.843  1.00  0.00     0.014 A 
ATOM     34  C   UNL A   1      41.463  25.557  28.448  1.00  0.00     0.010 A 
ATOM     35  C   UNL A   1      39.453  25.938  27.163  1.00  0.00     0.010 A 
ATOM     36  C   UNL A   1      40.441  26.417  28.014  1.00  0.00    -0.014 A 
BRANCH  36  37
ATOM     37  C   UNL A   1      40.508  27.802  28.481  1.00  0.00     0.031 A 
ATOM     38  C   UNL A   1      41.685  28.570  27.991  1.00  0.00     0.074 A 
ATOM     39  C   UNL A   1      39.632  28.384  29.325  1.00  0.00     0.049 A 
ATOM     40  N   UNL A   1      42.750  28.884  28.654  1.00  0.00    -0.248 NA
ATOM     41  C   UNL A   1      41.747  28.896  26.563  1.00  0.00     0.031 C 
ATOM     42  C   UNL A   1      38.295  27.944  29.728  1.00  0.00     0.029 A 
ATOM     43  N   UNL A   1      39.770  29.575  29.976  1.00  0.00    -0.354 N 
ATOM     44  C   UNL A   1      43.565  29.596  27.773  1.00  0.00     0.074 A 
ATOM     45  C   UNL A   1      42.952  29.462  26.474  1.00  0.00     0.031 C 
ATOM     46  C   UNL A   1      37.669  28.956  30.378  1.00  0.00     0.029 A 
ATOM     47  C   UNL A   1      38.616  30.040  30.585  1.00  0.00     0.049 A 
ATOM     48  H   UNL A   1      40.623  30.065  30.012  1.00  0.00     0.167 HD
ATOM     49  C   UNL A   1      44.603  30.364  28.213  1.00  0.00     0.034 A 
ATOM     50  C   UNL A   1      38.440  31.246  31.182  1.00  0.00     0.034 A 
ATOM     51  C   UNL A   1      44.921  30.076  29.585  1.00  0.00     0.049 A 
ATOM     52  C   UNL A   1      39.774  31.780  31.546  1.00  0.00     0.074 A 
ATOM     53  C   UNL A   1      45.421  28.984  30.263  1.00  0.00     0.029 A 
ATOM     54  N   UNL A   1      44.405  30.912  30.545  1.00  0.00    -0.354 N 
ATOM     55  N   UNL A   1      40.521  31.291  32.494  1.00  0.00    -0.248 NA
ATOM     56  C   UNL A   1      40.465  32.600  30.563  1.00  0.00     0.031 C 
ATOM     57  C   UNL A   1      44.754  28.997  31.520  1.00  0.00     0.029 A 
ATOM     58  C   UNL A   1      43.929  30.123  31.558  1.00  0.00     0.049 A 
ATOM     59  H   UNL A   1      44.383  31.896  30.512  1.00  0.00     0.167 HD
ATOM     60  C   UNL A   1      41.806  31.343  31.980  1.00  0.00     0.074 A 
ATOM     61  C   UNL A   1      41.723  32.250  30.837  1.00  0.00     0.031 C 
ATOM     62  C   UNL A   1      42.758  30.437  32.351  1.00  0.00     0.034 A 
BRANCH  49  63
ATOM     63  C   UNL A   1      45.142  31.585  27.506  1.00  0.00     0.023 A 
ATOM     64  C   UNL A   1      44.462  32.815  27.483  1.00  0.00     0.031 A 
ATOM     65  C   UNL A   1      46.474  31.609  27.037  1.00  0.00     0.131 A 
ATOM     66  C   UNL A   1      45.083  33.987  27.026  1.00  0.00     0.055 A 
ATOM     67  C   UNL A   1      47.114  32.790  26.642  1.00  0.00     0.041 A 
ATOM     68  F   UNL A   1      47.219  30.493  27.004  1.00  0.00    -0.206 F 
ATOM     69  C   UNL A   1      46.418  33.990  26.640  1.00  0.00     0.022 A 
BRANCH  66  70
ATOM     70  S   UNL A   1      44.150  35.540  26.956  1.00  0.00     0.124 S 
ATOM     71  O   UNL A   1      45.198  36.500  26.597  1.00  0.00    -0.237 OA
ATOM     72  O   UNL A   1      43.180  35.251  25.896  1.00  0.00    -0.237 OA
ATOM     73  O   UNL A   1      43.593  35.671  28.286  1.00  0.00    -0.744 OA
ENDBRANCH  66  70
ENDBRANCH  49  63
BRANCH  50  74
ATOM     74  C   UNL A   1      37.295  32.163  30.964  1.00  0.00     0.023 A 
ATOM     75  C   UNL A   1      36.610  32.685  32.075  1.00  0.00     0.031 A 
ATOM     76  C   UNL A   1      36.659  32.244  29.712  1.00  0.00     0.131 A 
ATOM     77  C   UNL A   1      35.313  33.197  31.933  1.00  0.00     0.055 A 
ATOM     78  C   UNL A   1      35.372  32.778  29.569  1.00  0.00     0.041 A 
ATOM     79  F   UNL A   1      37.241  31.731  28.618  1.00  0.00    -0.206 F 
ATOM     80  C   UNL A   1      34.685  33.241  30.688  1.00  0.00     0.022 A 
BRANCH  77  81
ATOM     81  S   UNL A   1      34.375  33.718  33.395  1.00  0.00     0.124 S 
ATOM     82  O   UNL A   1      33.126  32.976  33.241  1.00  0.00    -0.237 OA
ATOM     83  O   UNL A   1      35.243  33.271  34.478  1.00  0.00    -0.237 OA
ATOM     84  O   UNL A   1      34.258  35.164  33.228  1.00  0.00    -0.744 OA
ENDBRANCH  77  81
ENDBRANCH  50  74
BRANCH  62  85
ATOM     85  C   UNL A   1      42.479  29.512  33.516  1.00  0.00     0.023 A 
ATOM     86  C   UNL A   1      43.182  29.760  34.707  1.00  0.00     0.031 A 
ATOM     87  C   UNL A   1      41.763  28.304  33.422  1.00  0.00     0.131 A 
ATOM     88  C   UNL A   1      43.205  28.805  35.729  1.00  0.00     0.055 A 
ATOM     89  C   UNL A   1      41.723  27.387  34.479  1.00  0.00     0.041 A 
ATOM     90  F   UNL A   1      41.158  27.931  32.286  1.00  0.00    -0.206 F 
ATOM     91  C   UNL A   1      42.463  27.626  35.632  1.00  0.00     0.022 A 
BRANCH  88  92
ATOM     92  S   UNL A   1      44.338  28.997  37.129  1.00  0.00     0.124 S 
ATOM     93  O   UNL A   1      44.113  27.764  37.879  1.00  0.00    -0.237 OA
ATOM     94  O   UNL A   1      45.637  29.097  36.463  1.00  0.00    -0.237 OA
ATOM     95  O   UNL A   1      43.888  30.220  37.786  1.00  0.00    -0.744 OA
ENDBRANCH  88  92
ENDBRANCH  62  85
ENDBRANCH  36  37
ENDBRANCH  28  31
ENDBRANCH  26  27
ENDBRANCH  25  26
ENDBRANCH   1  25
TORSDOF 18
ENDMDL
MODEL 2
REMARK VINA RESULT:     -11.9      3.320      7.766
REMARK SMILES O=C(Cn1c(SCCc2ccccc2)nc2ccccc21)NCCCNC(=O)c1ccc(-c2c3nc(c(-c4cc(S(=O)(=O)[O-])ccc4F)c4ccc([nH]4)c(-c4cc(S(=O)(=O)[O-])ccc4F)c4nc(c(-c5cc(S(=O)(=O)[O-])ccc5F)c5ccc2[nH]5)C=C4)C=C3)cc1
REMARK SMILES IDX 23 1 22 2 1 3 2 4 3 6 4 7 5 8 21 9 15 10 16 11 20 12 17 13
REMARK SMILES IDX 19 14 18 15 6 16 7 17 8 18 9 19 10 20 14 21 11 22 13 23
REMARK SMILES IDX 12 24 24 25 25 26 26 27 27 28 28 30 29 31 30 32 91 33 31 34
REMARK SMILES IDX 90 35 32 36 33 37 34 38 84 39 35 40 89 41 83 42 85 43 36 44
REMARK SMILES IDX 88 45 82 46 81 47 37 49 69 50 49 51 68 52 50 53 53 54 67 55
REMARK SMILES IDX 86 56 51 57 52 58 66 60 87 61 54 62 38 63 39 64 47 65 40 66
REMARK SMILES IDX 46 67 48 68 45 69 41 70 42 71 43 72 44 73 70 74 71 75 79 76
REMARK SMILES IDX 72 77 78 78 80 79 77 80 73 81 74 82 75 83 76 84 55 85 56 86
REMARK SMILES IDX 64 87 57 88 63 89 65 90 62 91 58 92 59 93 60 94 61 95
REMARK H PARENT 22 5 26 29 85 48 53 59
REMARK Flexibility Score: inf
ROOT
ATOM      1  C   UNL A   1      33.620  20.482  25.750  1.00  0.00     0.117 C 
ENDROOT
BRANCH   1   2
ATOM      2  N   UNL A   1      32.913  21.718  25.335  1.00  0.00    -0.354 N 
ATOM      3  O   UNL A   1      31.883  21.171  23.420  1.00  0.00    -0.273 OA
ATOM      4  C   UNL A   1      32.068  22.035  24.287  1.00  0.00     0.240 C 
ATOM      5  H   UNL A   1      33.081  22.478  25.937  1.00  0.00     0.163 HD
BRANCH   4   6
ATOM      6  C   UNL A   1      31.200  23.398  24.181  1.00  0.00     0.224 C 
BRANCH   6   7
ATOM      7  N   UNL A   1      31.553  24.729  23.572  1.00  0.00    -0.309 N 
ATOM      8  C   UNL A   1      32.689  25.081  22.878  1.00  0.00     0.169 A 
ATOM      9  C   UNL A   1      30.710  25.853  23.408  1.00  0.00     0.069 A 
ATOM     10  N   UNL A   1      32.725  26.324  22.481  1.00  0.00    -0.222 NA
ATOM     11  C   UNL A   1      31.539  26.845  22.862  1.00  0.00     0.090 A 
ATOM     12  C   UNL A   1      29.383  26.172  23.739  1.00  0.00     0.028 A 
ATOM     13  C   UNL A   1      31.136  28.188  22.777  1.00  0.00     0.030 A 
ATOM     14  C   UNL A   1      28.982  27.524  23.620  1.00  0.00     0.002 A 
ATOM     15  C   UNL A   1      29.851  28.525  23.185  1.00  0.00     0.002 A 
BRANCH   8  16
ATOM     16  S   UNL A   1      34.108  24.154  22.800  1.00  0.00    -0.088 SA
BRANCH  16  17
ATOM     17  C   UNL A   1      34.846  24.786  24.309  1.00  0.00     0.083 C 
BRANCH  17  18
ATOM     18  C   UNL A   1      34.077  25.380  25.550  1.00  0.00     0.047 C 
BRANCH  18  19
ATOM     19  C   UNL A   1      33.429  26.739  25.935  1.00  0.00    -0.047 A 
ATOM     20  C   UNL A   1      32.185  26.629  26.572  1.00  0.00     0.004 A 
ATOM     21  C   UNL A   1      33.796  28.072  25.612  1.00  0.00     0.004 A 
ATOM     22  C   UNL A   1      31.396  27.745  26.888  1.00  0.00     0.000 A 
ATOM     23  C   UNL A   1      33.013  29.196  25.921  1.00  0.00     0.000 A 
ATOM     24  C   UNL A   1      31.808  29.030  26.566  1.00  0.00     0.000 A 
ENDBRANCH  18  19
ENDBRANCH  17  18
ENDBRANCH  16  17
ENDBRANCH   8  16
ENDBRANCH   6   7
ENDBRANCH   4   6
ENDBRANCH   1   2
BRANCH   1  25
ATOM     25  C   UNL A   1      34.875  19.958  25.020  1.00  0.00     0.042 C 
BRANCH  25  26
ATOM     26  C   UNL A   1      36.205  20.727  25.042  1.00  0.00     0.118 C 
BRANCH  26  27
ATOM     27  N   UNL A   1      37.415  19.972  24.741  1.00  0.00    -0.352 N 
ATOM     28  C   UNL A   1      38.609  19.880  25.423  1.00  0.00     0.251 C 
ATOM     29  H   UNL A   1      37.373  19.439  23.913  1.00  0.00     0.163 HD
ATOM     30  O   UNL A   1      39.110  18.756  25.502  1.00  0.00    -0.269 OA
BRANCH  28  31
ATOM     31  C   UNL A   1      39.382  21.061  25.891  1.00  0.00     0.039 A 
ATOM     32  C   UNL A   1      40.728  21.006  26.235  1.00  0.00     0.014 A 
ATOM     33  C   UNL A   1      38.658  22.244  26.156  1.00  0.00     0.014 A 
ATOM     34  C   UNL A   1      41.309  22.066  26.920  1.00  0.00     0.010 A 
ATOM     35  C   UNL A   1      39.239  23.308  26.845  1.00  0.00     0.010 A 
ATOM     36  C   UNL A   1      40.555  23.195  27.277  1.00  0.00    -0.014 A 
BRANCH  36  37
ATOM     37  C   UNL A   1      41.236  24.212  28.078  1.00  0.00     0.031 A 
ATOM     38  C   UNL A   1      40.498  25.498  28.213  1.00  0.00     0.074 A 
ATOM     39  C   UNL A   1      42.454  24.077  28.640  1.00  0.00     0.049 A 
ATOM     40  N   UNL A   1      40.743  26.613  27.606  1.00  0.00    -0.248 NA
ATOM     41  C   UNL A   1      39.258  25.500  28.998  1.00  0.00     0.031 C 
ATOM     42  C   UNL A   1      43.245  22.867  28.869  1.00  0.00     0.029 A 
ATOM     43  N   UNL A   1      43.232  25.057  29.184  1.00  0.00    -0.354 N 
ATOM     44  C   UNL A   1      39.784  27.522  28.051  1.00  0.00     0.074 A 
ATOM     45  C   UNL A   1      38.827  26.748  28.805  1.00  0.00     0.031 C 
ATOM     46  C   UNL A   1      44.281  23.160  29.693  1.00  0.00     0.029 A 
ATOM     47  C   UNL A   1      44.324  24.597  29.903  1.00  0.00     0.049 A 
ATOM     48  H   UNL A   1      43.034  26.015  29.075  1.00  0.00     0.167 HD
ATOM     49  C   UNL A   1      39.933  28.868  27.884  1.00  0.00     0.034 A 
ATOM     50  C   UNL A   1      45.177  25.342  30.651  1.00  0.00     0.034 A 
ATOM     51  C   UNL A   1      40.982  29.164  26.947  1.00  0.00     0.049 A 
ATOM     52  C   UNL A   1      45.096  26.746  30.182  1.00  0.00     0.074 A 
ATOM     53  C   UNL A   1      41.171  28.960  25.596  1.00  0.00     0.029 A 
ATOM     54  N   UNL A   1      42.218  29.481  27.455  1.00  0.00    -0.354 N 
ATOM     55  N   UNL A   1      45.556  27.160  29.036  1.00  0.00    -0.248 NA
ATOM     56  C   UNL A   1      44.115  27.614  30.816  1.00  0.00     0.031 C 
ATOM     57  C   UNL A   1      42.561  28.691  25.456  1.00  0.00     0.029 A 
ATOM     58  C   UNL A   1      43.149  28.800  26.718  1.00  0.00     0.049 A 
ATOM     59  H   UNL A   1      42.400  30.088  28.210  1.00  0.00     0.167 HD
ATOM     60  C   UNL A   1      44.605  28.065  28.592  1.00  0.00     0.074 A 
ATOM     61  C   UNL A   1      43.800  28.381  29.770  1.00  0.00     0.031 C 
ATOM     62  C   UNL A   1      44.381  28.265  27.260  1.00  0.00     0.034 A 
BRANCH  49  63
ATOM     63  C   UNL A   1      39.343  29.926  28.785  1.00  0.00     0.023 A 
ATOM     64  C   UNL A   1      38.157  30.615  28.477  1.00  0.00     0.031 A 
ATOM     65  C   UNL A   1      39.833  30.101  30.098  1.00  0.00     0.131 A 
ATOM     66  C   UNL A   1      37.508  31.417  29.427  1.00  0.00     0.055 A 
ATOM     67  C   UNL A   1      39.151  30.850  31.065  1.00  0.00     0.041 A 
ATOM     68  F   UNL A   1      40.962  29.499  30.504  1.00  0.00    -0.206 F 
ATOM     69  C   UNL A   1      37.977  31.510  30.732  1.00  0.00     0.022 A 
BRANCH  66  70
ATOM     70  S   UNL A   1      36.014  32.338  28.969  1.00  0.00     0.124 S 
ATOM     71  O   UNL A   1      35.126  32.044  30.098  1.00  0.00    -0.237 OA
ATOM     72  O   UNL A   1      36.521  33.712  28.916  1.00  0.00    -0.237 OA
ATOM     73  O   UNL A   1      35.633  31.768  27.694  1.00  0.00    -0.744 OA
ENDBRANCH  66  70
ENDBRANCH  49  63
BRANCH  50  74
ATOM     74  C   UNL A   1      45.617  25.032  32.033  1.00  0.00     0.023 A 
ATOM     75  C   UNL A   1      44.671  24.579  32.970  1.00  0.00     0.031 A 
ATOM     76  C   UNL A   1      46.845  25.506  32.527  1.00  0.00     0.131 A 
ATOM     77  C   UNL A   1      44.934  24.671  34.343  1.00  0.00     0.055 A 
ATOM     78  C   UNL A   1      47.115  25.574  33.900  1.00  0.00     0.041 A 
ATOM     79  F   UNL A   1      47.775  25.989  31.689  1.00  0.00    -0.206 F 
ATOM     80  C   UNL A   1      46.147  25.172  34.817  1.00  0.00     0.022 A 
BRANCH  77  81
ATOM     81  S   UNL A   1      43.650  24.236  35.547  1.00  0.00     0.124 S 
ATOM     82  O   UNL A   1      44.395  23.443  36.522  1.00  0.00    -0.237 OA
ATOM     83  O   UNL A   1      43.216  25.551  36.005  1.00  0.00    -0.237 OA
ATOM     84  O   UNL A   1      42.679  23.486  34.755  1.00  0.00    -0.744 OA
ENDBRANCH  77  81
ENDBRANCH  50  74
BRANCH  62  85
ATOM     85  C   UNL A   1      45.343  27.670  26.255  1.00  0.00     0.023 A 
ATOM     86  C   UNL A   1      45.131  26.330  25.887  1.00  0.00     0.031 A 
ATOM     87  C   UNL A   1      46.551  28.272  25.852  1.00  0.00     0.131 A 
ATOM     88  C   UNL A   1      46.117  25.620  25.195  1.00  0.00     0.055 A 
ATOM     89  C   UNL A   1      47.501  27.581  25.091  1.00  0.00     0.041 A 
ATOM     90  F   UNL A   1      46.890  29.505  26.252  1.00  0.00    -0.206 F 
ATOM     91  C   UNL A   1      47.296  26.242  24.776  1.00  0.00     0.022 A 
BRANCH  88  92
ATOM     92  S   UNL A   1      45.966  23.828  24.979  1.00  0.00     0.124 S 
ATOM     93  O   UNL A   1      46.356  23.325  26.294  1.00  0.00    -0.237 OA
ATOM     94  O   UNL A   1      44.550  23.676  24.645  1.00  0.00    -0.237 OA
ATOM     95  O   UNL A   1      46.892  23.522  23.893  1.00  0.00    -0.744 OA
ENDBRANCH  88  92
ENDBRANCH  62  85
ENDBRANCH  36  37
ENDBRANCH  28  31
ENDBRANCH  26  27
ENDBRANCH  25  26
ENDBRANCH   1  25
TORSDOF 18
ENDMDL
MODEL 3
REMARK VINA RESULT:     -11.6      2.188      3.665
REMARK SMILES O=C(Cn1c(SCCc2ccccc2)nc2ccccc21)NCCCNC(=O)c1ccc(-c2c3nc(c(-c4cc(S(=O)(=O)[O-])ccc4F)c4ccc([nH]4)c(-c4cc(S(=O)(=O)[O-])ccc4F)c4nc(c(-c5cc(S(=O)(=O)[O-])ccc5F)c5ccc2[nH]5)C=C4)C=C3)cc1
REMARK SMILES IDX 23 1 22 2 1 3 2 4 3 6 4 7 5 8 21 9 15 10 16 11 20 12 17 13
REMARK SMILES IDX 19 14 18 15 6 16 7 17 8 18 9 19 10 20 14 21 11 22 13 23
REMARK SMILES IDX 12 24 24 25 25 26 26 27 27 28 28 30 29 31 30 32 91 33 31 34
REMARK SMILES IDX 90 35 32 36 33 37 34 38 84 39 35 40 89 41 83 42 85 43 36 44
REMARK SMILES IDX 88 45 82 46 81 47 37 49 69 50 49 51 68 52 50 53 53 54 67 55
REMARK SMILES IDX 86 56 51 57 52 58 66 60 87 61 54 62 38 63 39 64 47 65 40 66
REMARK SMILES IDX 46 67 48 68 45 69 41 70 42 71 43 72 44 73 70 74 71 75 79 76
REMARK SMILES IDX 72 77 78 78 80 79 77 80 73 81 74 82 75 83 76 84 55 85 56 86
REMARK SMILES IDX 64 87 57 88 63 89 65 90 62 91 58 92 59 93 60 94 61 95
REMARK H PARENT 22 5 26 29 85 48 53 59
REMARK Flexibility Score: inf
ROOT
ATOM      1  C   UNL A   1      37.577  20.634  24.943  1.00  0.00     0.117 C 
ENDROOT
BRANCH   1   2
ATOM      2  N   UNL A   1      37.044  21.961  25.342  1.00  0.00    -0.354 N 
ATOM      3  O   UNL A   1      36.050  22.754  23.496  1.00  0.00    -0.273 OA
ATOM      4  C   UNL A   1      36.296  22.928  24.697  1.00  0.00     0.240 C 
ATOM      5  H   UNL A   1      37.273  22.205  26.267  1.00  0.00     0.163 HD
BRANCH   4   6
ATOM      6  C   UNL A   1      35.604  24.198  25.425  1.00  0.00     0.224 C 
BRANCH   6   7
ATOM      7  N   UNL A   1      34.174  24.418  25.840  1.00  0.00    -0.309 N 
ATOM      8  C   UNL A   1      33.302  23.524  26.422  1.00  0.00     0.169 A 
ATOM      9  C   UNL A   1      33.474  25.646  25.907  1.00  0.00     0.069 A 
ATOM     10  N   UNL A   1      32.108  23.998  26.655  1.00  0.00    -0.222 NA
ATOM     11  C   UNL A   1      32.166  25.292  26.277  1.00  0.00     0.090 A 
ATOM     12  C   UNL A   1      33.766  26.987  25.610  1.00  0.00     0.028 A 
ATOM     13  C   UNL A   1      31.103  26.207  26.213  1.00  0.00     0.030 A 
ATOM     14  C   UNL A   1      32.688  27.903  25.579  1.00  0.00     0.002 A 
ATOM     15  C   UNL A   1      31.372  27.517  25.837  1.00  0.00     0.002 A 
BRANCH   8  16
ATOM     16  S   UNL A   1      33.557  21.851  26.539  1.00  0.00    -0.088 SA
BRANCH  16  17
ATOM     17  C   UNL A   1      32.992  21.443  24.885  1.00  0.00     0.083 C 
BRANCH  17  18
ATOM     18  C   UNL A   1      32.339  20.084  24.427  1.00  0.00     0.047 C 
BRANCH  18  19
ATOM     19  C   UNL A   1      32.761  18.590  24.368  1.00  0.00    -0.047 A 
ATOM     20  C   UNL A   1      32.560  17.882  25.562  1.00  0.00     0.004 A 
ATOM     21  C   UNL A   1      33.463  17.856  23.374  1.00  0.00     0.004 A 
ATOM     22  C   UNL A   1      32.988  16.558  25.737  1.00  0.00     0.000 A 
ATOM     23  C   UNL A   1      33.898  16.532  23.541  1.00  0.00     0.000 A 
ATOM     24  C   UNL A   1      33.655  15.878  24.727  1.00  0.00     0.000 A 
ENDBRANCH  18  19
ENDBRANCH  17  18
ENDBRANCH  16  17
ENDBRANCH   8  16
ENDBRANCH   6   7
ENDBRANCH   4   6
ENDBRANCH   1   2
BRANCH   1  25
ATOM     25  C   UNL A   1      38.992  20.157  25.334  1.00  0.00     0.042 C 
BRANCH  25  26
ATOM     26  C   UNL A   1      39.889  20.969  26.279  1.00  0.00     0.118 C 
BRANCH  26  27
ATOM     27  N   UNL A   1      41.008  21.687  25.682  1.00  0.00    -0.352 N 
ATOM     28  C   UNL A   1      41.883  22.601  26.228  1.00  0.00     0.251 C 
ATOM     29  H   UNL A   1      41.166  21.485  24.731  1.00  0.00     0.163 HD
ATOM     30  O   UNL A   1      43.070  22.482  25.912  1.00  0.00    -0.269 OA
BRANCH  28  31
ATOM     31  C   UNL A   1      41.449  23.791  27.007  1.00  0.00     0.039 A 
ATOM     32  C   UNL A   1      40.323  24.544  26.691  1.00  0.00     0.014 A 
ATOM     33  C   UNL A   1      42.328  24.265  28.006  1.00  0.00     0.014 A 
ATOM     34  C   UNL A   1      40.136  25.786  27.282  1.00  0.00     0.010 A 
ATOM     35  C   UNL A   1      42.141  25.514  28.599  1.00  0.00     0.010 A 
ATOM     36  C   UNL A   1      41.071  26.301  28.194  1.00  0.00    -0.014 A 
BRANCH  36  37
ATOM     37  C   UNL A   1      40.829  27.657  28.687  1.00  0.00     0.031 A 
ATOM     38  C   UNL A   1      41.752  28.691  28.146  1.00  0.00     0.074 A 
ATOM     39  C   UNL A   1      39.893  28.003  29.593  1.00  0.00     0.049 A 
ATOM     40  N   UNL A   1      42.750  29.250  28.751  1.00  0.00    -0.248 NA
ATOM     41  C   UNL A   1      41.645  29.033  26.723  1.00  0.00     0.031 C 
ATOM     42  C   UNL A   1      38.730  27.249  30.065  1.00  0.00     0.029 A 
ATOM     43  N   UNL A   1      39.780  29.187  30.262  1.00  0.00    -0.354 N 
ATOM     44  C   UNL A   1      43.311  30.144  27.840  1.00  0.00     0.074 A 
ATOM     45  C   UNL A   1      42.669  29.875  26.576  1.00  0.00     0.031 C 
ATOM     46  C   UNL A   1      37.920  28.075  30.773  1.00  0.00     0.029 A 
ATOM     47  C   UNL A   1      38.588  29.354  30.947  1.00  0.00     0.049 A 
ATOM     48  H   UNL A   1      40.490  29.869  30.258  1.00  0.00     0.167 HD
ATOM     49  C   UNL A   1      44.159  31.138  28.234  1.00  0.00     0.034 A 
ATOM     50  C   UNL A   1      38.163  30.478  31.579  1.00  0.00     0.034 A 
ATOM     51  C   UNL A   1      44.622  30.926  29.578  1.00  0.00     0.049 A 
ATOM     52  C   UNL A   1      39.349  31.316  31.876  1.00  0.00     0.074 A 
ATOM     53  C   UNL A   1      45.412  29.983  30.202  1.00  0.00     0.029 A 
ATOM     54  N   UNL A   1      43.980  31.605  30.586  1.00  0.00    -0.354 N 
ATOM     55  N   UNL A   1      40.250  31.016  32.768  1.00  0.00    -0.248 NA
ATOM     56  C   UNL A   1      39.758  32.287  30.872  1.00  0.00     0.031 C 
ATOM     57  C   UNL A   1      44.842  29.825  31.496  1.00  0.00     0.029 A 
ATOM     58  C   UNL A   1      43.773  30.717  31.607  1.00  0.00     0.049 A 
ATOM     59  H   UNL A   1      43.719  32.554  30.575  1.00  0.00     0.167 HD
ATOM     60  C   UNL A   1      41.449  31.382  32.180  1.00  0.00     0.074 A 
ATOM     61  C   UNL A   1      41.078  32.251  31.064  1.00  0.00     0.031 C 
ATOM     62  C   UNL A   1      42.613  30.733  32.474  1.00  0.00     0.034 A 
BRANCH  49  63
ATOM     63  C   UNL A   1      44.341  32.458  27.524  1.00  0.00     0.023 A 
ATOM     64  C   UNL A   1      43.638  33.621  27.883  1.00  0.00     0.031 A 
ATOM     65  C   UNL A   1      45.408  32.639  26.616  1.00  0.00     0.131 A 
ATOM     66  C   UNL A   1      43.990  34.878  27.370  1.00  0.00     0.055 A 
ATOM     67  C   UNL A   1      45.800  33.901  26.155  1.00  0.00     0.041 A 
ATOM     68  F   UNL A   1      46.146  31.600  26.195  1.00  0.00    -0.206 F 
ATOM     69  C   UNL A   1      45.092  35.032  26.536  1.00  0.00     0.022 A 
BRANCH  66  70
ATOM     70  S   UNL A   1      43.018  36.344  27.811  1.00  0.00     0.124 S 
ATOM     71  O   UNL A   1      41.912  35.749  28.569  1.00  0.00    -0.237 OA
ATOM     72  O   UNL A   1      43.983  37.104  28.610  1.00  0.00    -0.237 OA
ATOM     73  O   UNL A   1      42.673  36.929  26.533  1.00  0.00    -0.744 OA
ENDBRANCH  66  70
ENDBRANCH  49  63
BRANCH  50  74
ATOM     74  C   UNL A   1      36.819  31.091  31.449  1.00  0.00     0.023 A 
ATOM     75  C   UNL A   1      36.289  31.323  30.167  1.00  0.00     0.031 A 
ATOM     76  C   UNL A   1      36.220  31.761  32.531  1.00  0.00     0.131 A 
ATOM     77  C   UNL A   1      35.252  32.247  29.985  1.00  0.00     0.055 A 
ATOM     78  C   UNL A   1      35.166  32.666  32.349  1.00  0.00     0.041 A 
ATOM     79  F   UNL A   1      36.701  31.613  33.775  1.00  0.00    -0.206 F 
ATOM     80  C   UNL A   1      34.689  32.926  31.067  1.00  0.00     0.022 A 
BRANCH  77  81
ATOM     81  S   UNL A   1      34.685  32.662  28.314  1.00  0.00     0.124 S 
ATOM     82  O   UNL A   1      34.126  31.393  27.853  1.00  0.00    -0.237 OA
ATOM     83  O   UNL A   1      33.714  33.716  28.585  1.00  0.00    -0.237 OA
ATOM     84  O   UNL A   1      35.906  33.081  27.632  1.00  0.00    -0.744 OA
ENDBRANCH  77  81
ENDBRANCH  50  74
BRANCH  62  85
ATOM     85  C   UNL A   1      42.639  29.759  33.633  1.00  0.00     0.023 A 
ATOM     86  C   UNL A   1      43.146  30.237  34.854  1.00  0.00     0.031 A 
ATOM     87  C   UNL A   1      42.422  28.373  33.516  1.00  0.00     0.131 A 
ATOM     88  C   UNL A   1      43.469  29.349  35.884  1.00  0.00     0.055 A 
ATOM     89  C   UNL A   1      42.673  27.496  34.578  1.00  0.00     0.041 A 
ATOM     90  F   UNL A   1      42.051  27.814  32.357  1.00  0.00    -0.206 F 
ATOM     91  C   UNL A   1      43.218  27.980  35.762  1.00  0.00     0.022 A 
BRANCH  88  92
ATOM     92  S   UNL A   1      44.386  29.931  37.333  1.00  0.00     0.124 S 
ATOM     93  O   UNL A   1      45.491  30.667  36.725  1.00  0.00    -0.237 OA
ATOM     94  O   UNL A   1      43.389  30.751  38.020  1.00  0.00    -0.237 OA
ATOM     95  O   UNL A   1      44.762  28.705  38.032  1.00  0.00    -0.744 OA
ENDBRANCH  88  92
ENDBRANCH  62  85
ENDBRANCH  36  37
ENDBRANCH  28  31
ENDBRANCH  26  27
ENDBRANCH  25  26
ENDBRANCH   1  25
TORSDOF 18
ENDMDL
