MODEL 1
REMARK VINA RESULT:     -13.3      0.000      0.000
REMARK SMILES O=C(NCCCNC(=O)[C@@H]1CC2(CC[NH2+]CC2)C[N@H+]1Cc1cccc2nonc12)c1ccc(-c2c3nc(c(-c4cc(S(=O)(=O)[O-])ccc4F)c4ccc([nH]4)c(-c4cc(S(=O)(=O)[O-])ccc4F)c4nc(c(-c5cc(S(=O)(=O)[O-])ccc5F)c5ccc2[nH]5)C=C4)C=C3)cc1
REMARK SMILES IDX 4 1 3 2 1 3 2 4 30 6 31 7 92 8 32 9 91 10 33 11 34 12 35 13
REMARK SMILES IDX 85 14 36 15 90 16 84 17 86 18 37 19 89 20 83 21 82 22 38 24
REMARK SMILES IDX 70 25 50 26 69 27 51 28 54 29 68 30 87 31 52 32 53 33 67 35
REMARK SMILES IDX 88 36 55 37 39 38 40 39 48 40 41 41 47 42 49 43 46 44 42 45
REMARK SMILES IDX 43 46 44 47 45 48 71 49 72 50 80 51 73 52 79 53 81 54 78 55
REMARK SMILES IDX 74 56 75 57 76 58 77 59 56 60 57 61 65 62 58 63 64 64 66 65
REMARK SMILES IDX 63 66 59 67 60 68 61 69 62 70 5 71 6 72 7 73 8 74 9 76 10 77
REMARK SMILES IDX 11 78 19 79 12 80 18 81 13 83 17 84 14 85 16 86 15 87 20 90
REMARK SMILES IDX 21 91 22 92 29 93 23 94 25 95 28 96 24 97 26 98 27 99
REMARK H PARENT 3 5 86 23 54 34 7 75 19 82 15 88 15 89
REMARK Flexibility Score: inf
ROOT
ATOM      1  C   UNL A   1      33.777  31.431  28.001  1.00  0.00     0.118 C 
ENDROOT
BRANCH   1   2
ATOM      2  N   UNL A   1      34.412  32.733  27.846  1.00  0.00    -0.352 N 
ATOM      3  O   UNL A   1      35.556  34.547  28.434  1.00  0.00    -0.269 OA
ATOM      4  C   UNL A   1      35.452  33.321  28.512  1.00  0.00     0.251 C 
ATOM      5  H   UNL A   1      34.023  33.289  27.133  1.00  0.00     0.163 HD
BRANCH   4   6
ATOM      6  C   UNL A   1      36.448  32.549  29.294  1.00  0.00     0.039 A 
ATOM      7  C   UNL A   1      37.455  31.885  28.574  1.00  0.00     0.014 A 
ATOM      8  C   UNL A   1      36.356  32.360  30.675  1.00  0.00     0.014 A 
ATOM      9  C   UNL A   1      38.367  31.065  29.232  1.00  0.00     0.010 A 
ATOM     10  C   UNL A   1      37.291  31.570  31.341  1.00  0.00     0.010 A 
ATOM     11  C   UNL A   1      38.298  30.920  30.621  1.00  0.00    -0.014 A 
BRANCH  11  12
ATOM     12  C   UNL A   1      39.308  30.074  31.281  1.00  0.00     0.031 A 
ATOM     13  C   UNL A   1      39.413  28.687  30.728  1.00  0.00     0.074 A 
ATOM     14  C   UNL A   1      40.398  30.650  31.831  1.00  0.00     0.049 A 
ATOM     15  N   UNL A   1      39.994  28.430  29.591  1.00  0.00    -0.248 NA
ATOM     16  C   UNL A   1      38.650  27.561  31.264  1.00  0.00     0.031 C 
ATOM     17  C   UNL A   1      41.005  31.886  31.313  1.00  0.00     0.029 A 
ATOM     18  N   UNL A   1      41.314  30.179  32.742  1.00  0.00    -0.354 N 
ATOM     19  C   UNL A   1      39.656  27.136  29.234  1.00  0.00     0.074 A 
ATOM     20  C   UNL A   1      38.823  26.635  30.306  1.00  0.00     0.031 C 
ATOM     21  C   UNL A   1      42.268  31.975  31.774  1.00  0.00     0.029 A 
ATOM     22  C   UNL A   1      42.509  30.898  32.729  1.00  0.00     0.049 A 
ATOM     23  H   UNL A   1      41.144  29.416  33.341  1.00  0.00     0.167 HD
ATOM     24  C   UNL A   1      40.081  26.554  28.079  1.00  0.00     0.034 A 
ATOM     25  C   UNL A   1      43.731  30.355  32.988  1.00  0.00     0.034 A 
ATOM     26  C   UNL A   1      40.952  27.365  27.276  1.00  0.00     0.049 A 
ATOM     27  C   UNL A   1      43.945  29.544  31.729  1.00  0.00     0.074 A 
ATOM     28  C   UNL A   1      40.850  28.190  26.178  1.00  0.00     0.029 A 
ATOM     29  N   UNL A   1      42.270  27.461  27.659  1.00  0.00    -0.354 N 
ATOM     30  N   UNL A   1      44.315  30.016  30.565  1.00  0.00    -0.248 NA
ATOM     31  C   UNL A   1      43.370  28.199  31.679  1.00  0.00     0.031 C 
ATOM     32  C   UNL A   1      41.985  29.061  26.247  1.00  0.00     0.029 A 
ATOM     33  C   UNL A   1      42.679  28.748  27.417  1.00  0.00     0.049 A 
ATOM     34  H   UNL A   1      42.819  26.737  28.039  1.00  0.00     0.167 HD
ATOM     35  C   UNL A   1      43.754  29.156  29.615  1.00  0.00     0.074 A 
ATOM     36  C   UNL A   1      43.212  28.046  30.371  1.00  0.00     0.031 C 
ATOM     37  C   UNL A   1      43.587  29.469  28.294  1.00  0.00     0.034 A 
BRANCH  24  38
ATOM     38  C   UNL A   1      39.874  25.129  27.730  1.00  0.00     0.023 A 
ATOM     39  C   UNL A   1      38.810  24.669  26.941  1.00  0.00     0.031 A 
ATOM     40  C   UNL A   1      40.895  24.223  28.080  1.00  0.00     0.131 A 
ATOM     41  C   UNL A   1      38.810  23.331  26.509  1.00  0.00     0.055 A 
ATOM     42  C   UNL A   1      40.897  22.904  27.636  1.00  0.00     0.041 A 
ATOM     43  F   UNL A   1      41.929  24.631  28.835  1.00  0.00    -0.206 F 
ATOM     44  C   UNL A   1      39.853  22.455  26.839  1.00  0.00     0.022 A 
BRANCH  41  45
ATOM     45  S   UNL A   1      37.477  22.673  25.466  1.00  0.00     0.124 S 
ATOM     46  O   UNL A   1      38.055  21.418  24.979  1.00  0.00    -0.237 OA
ATOM     47  O   UNL A   1      36.389  22.518  26.433  1.00  0.00    -0.237 OA
ATOM     48  O   UNL A   1      37.276  23.701  24.460  1.00  0.00    -0.744 OA
ENDBRANCH  41  45
ENDBRANCH  24  38
BRANCH  25  49
ATOM     49  C   UNL A   1      43.859  29.824  34.384  1.00  0.00     0.023 A 
ATOM     50  C   UNL A   1      43.375  28.590  34.831  1.00  0.00     0.031 A 
ATOM     51  C   UNL A   1      44.444  30.666  35.360  1.00  0.00     0.131 A 
ATOM     52  C   UNL A   1      43.300  28.316  36.207  1.00  0.00     0.055 A 
ATOM     53  C   UNL A   1      44.433  30.363  36.724  1.00  0.00     0.041 A 
ATOM     54  F   UNL A   1      45.021  31.825  34.998  1.00  0.00    -0.206 F 
ATOM     55  C   UNL A   1      43.823  29.194  37.158  1.00  0.00     0.022 A 
BRANCH  52  56
ATOM     56  S   UNL A   1      42.422  26.844  36.801  1.00  0.00     0.124 S 
ATOM     57  O   UNL A   1      41.061  27.343  36.979  1.00  0.00    -0.237 OA
ATOM     58  O   UNL A   1      42.619  25.924  35.686  1.00  0.00    -0.237 OA
ATOM     59  O   UNL A   1      43.130  26.503  38.030  1.00  0.00    -0.744 OA
ENDBRANCH  52  56
ENDBRANCH  25  49
BRANCH  37  60
ATOM     60  C   UNL A   1      44.204  30.751  27.822  1.00  0.00     0.023 A 
ATOM     61  C   UNL A   1      43.695  31.997  28.241  1.00  0.00     0.031 A 
ATOM     62  C   UNL A   1      45.234  30.745  26.868  1.00  0.00     0.131 A 
ATOM     63  C   UNL A   1      44.156  33.178  27.650  1.00  0.00     0.055 A 
ATOM     64  C   UNL A   1      45.739  31.932  26.332  1.00  0.00     0.041 A 
ATOM     65  F   UNL A   1      45.729  29.587  26.401  1.00  0.00    -0.206 F 
ATOM     66  C   UNL A   1      45.189  33.154  26.708  1.00  0.00     0.022 A 
BRANCH  63  67
ATOM     67  S   UNL A   1      43.370  34.771  28.015  1.00  0.00     0.124 S 
ATOM     68  O   UNL A   1      42.761  35.124  26.735  1.00  0.00    -0.237 OA
ATOM     69  O   UNL A   1      42.429  34.406  29.072  1.00  0.00    -0.237 OA
ATOM     70  O   UNL A   1      44.476  35.627  28.435  1.00  0.00    -0.744 OA
ENDBRANCH  63  67
ENDBRANCH  37  60
ENDBRANCH  11  12
ENDBRANCH   4   6
ENDBRANCH   1   2
BRANCH   1  71
ATOM     71  C   UNL A   1      34.455  30.413  27.093  1.00  0.00     0.042 C 
BRANCH  71  72
ATOM     72  C   UNL A   1      34.052  28.957  27.335  1.00  0.00     0.118 C 
BRANCH  72  73
ATOM     73  N   UNL A   1      32.627  28.693  27.319  1.00  0.00    -0.351 N 
ATOM     74  C   UNL A   1      31.786  28.403  26.285  1.00  0.00     0.278 C 
ATOM     75  H   UNL A   1      32.194  28.729  28.202  1.00  0.00     0.163 HD
ATOM     76  O   UNL A   1      30.876  27.601  26.539  1.00  0.00    -0.268 OA
BRANCH  74  77
ATOM     77  C   UNL A   1      31.830  29.047  24.879  1.00  0.00     0.275 C 
ATOM     78  C   UNL A   1      30.611  29.802  24.339  1.00  0.00     0.089 C 
ATOM     79  N   UNL A   1      32.157  28.075  23.812  1.00  0.00    -0.320 N 
ATOM     80  C   UNL A   1      30.358  29.221  22.920  1.00  0.00     0.036 C 
ATOM     81  C   UNL A   1      31.758  28.701  22.554  1.00  0.00     0.270 C 
ATOM     82  H   UNL A   1      31.636  27.209  23.948  1.00  0.00     0.349 HD
ATOM     83  C   UNL A   1      29.814  30.245  21.914  1.00  0.00     0.074 C 
ATOM     84  C   UNL A   1      29.349  28.056  22.934  1.00  0.00     0.074 C 
ATOM     85  C   UNL A   1      28.371  30.649  22.239  1.00  0.00     0.261 C 
ATOM     86  C   UNL A   1      27.936  28.515  23.291  1.00  0.00     0.261 C 
ATOM     87  N   UNL A   1      27.459  29.507  22.327  1.00  0.00    -0.346 N 
ATOM     88  H   UNL A   1      27.386  29.068  21.409  1.00  0.00     0.346 HD
ATOM     89  H   UNL A   1      26.549  29.846  22.639  1.00  0.00     0.346 HD
BRANCH  79  90
ATOM     90  C   UNL A   1      33.530  27.564  23.847  1.00  0.00     0.302 C 
BRANCH  90  91
ATOM     91  C   UNL A   1      33.484  26.063  23.755  1.00  0.00     0.038 A 
ATOM     92  C   UNL A   1      33.689  25.265  24.912  1.00  0.00     0.012 A 
ATOM     93  C   UNL A   1      33.391  25.312  22.564  1.00  0.00     0.144 A 
ATOM     94  C   UNL A   1      33.879  23.860  24.883  1.00  0.00     0.003 A 
ATOM     95  C   UNL A   1      33.601  23.867  22.535  1.00  0.00     0.135 A 
ATOM     96  N   UNL A   1      33.143  25.720  21.312  1.00  0.00    -0.049 NA
ATOM     97  C   UNL A   1      33.874  23.116  23.692  1.00  0.00     0.034 A 
ATOM     98  N   UNL A   1      33.509  23.456  21.264  1.00  0.00    -0.050 NA
ATOM     99  O   UNL A   1      33.233  24.588  20.520  1.00  0.00    -0.243 OA
ENDBRANCH  90  91
ENDBRANCH  79  90
ENDBRANCH  74  77
ENDBRANCH  72  73
ENDBRANCH  71  72
ENDBRANCH   1  71
TORSDOF 15
ENDMDL
MODEL 2
REMARK VINA RESULT:     -12.9      3.137      8.493
REMARK SMILES O=C(NCCCNC(=O)[C@@H]1CC2(CC[NH2+]CC2)C[N@H+]1Cc1cccc2nonc12)c1ccc(-c2c3nc(c(-c4cc(S(=O)(=O)[O-])ccc4F)c4ccc([nH]4)c(-c4cc(S(=O)(=O)[O-])ccc4F)c4nc(c(-c5cc(S(=O)(=O)[O-])ccc5F)c5ccc2[nH]5)C=C4)C=C3)cc1
REMARK SMILES IDX 4 1 3 2 1 3 2 4 30 6 31 7 92 8 32 9 91 10 33 11 34 12 35 13
REMARK SMILES IDX 85 14 36 15 90 16 84 17 86 18 37 19 89 20 83 21 82 22 38 24
REMARK SMILES IDX 70 25 50 26 69 27 51 28 54 29 68 30 87 31 52 32 53 33 67 35
REMARK SMILES IDX 88 36 55 37 39 38 40 39 48 40 41 41 47 42 49 43 46 44 42 45
REMARK SMILES IDX 43 46 44 47 45 48 71 49 72 50 80 51 73 52 79 53 81 54 78 55
REMARK SMILES IDX 74 56 75 57 76 58 77 59 56 60 57 61 65 62 58 63 64 64 66 65
REMARK SMILES IDX 63 66 59 67 60 68 61 69 62 70 5 71 6 72 7 73 8 74 9 76 10 77
REMARK SMILES IDX 11 78 19 79 12 80 18 81 13 83 17 84 14 85 16 86 15 87 20 90
REMARK SMILES IDX 21 91 22 92 29 93 23 94 25 95 28 96 24 97 26 98 27 99
REMARK H PARENT 3 5 86 23 54 34 7 75 19 82 15 88 15 89
REMARK Flexibility Score: inf
ROOT
ATOM      1  C   UNL A   1      39.812  21.574  27.024  1.00  0.00     0.118 C 
ENDROOT
BRANCH   1   2
ATOM      2  N   UNL A   1      41.199  21.180  26.811  1.00  0.00    -0.352 N 
ATOM      3  O   UNL A   1      43.285  21.323  26.054  1.00  0.00    -0.269 OA
ATOM      4  C   UNL A   1      42.321  21.916  26.543  1.00  0.00     0.251 C 
ATOM      5  H   UNL A   1      41.357  20.210  26.871  1.00  0.00     0.163 HD
BRANCH   4   6
ATOM      6  C   UNL A   1      42.422  23.367  26.831  1.00  0.00     0.039 A 
ATOM      7  C   UNL A   1      42.983  24.182  25.835  1.00  0.00     0.014 A 
ATOM      8  C   UNL A   1      42.101  23.924  28.072  1.00  0.00     0.014 A 
ATOM      9  C   UNL A   1      43.196  25.537  26.070  1.00  0.00     0.010 A 
ATOM     10  C   UNL A   1      42.279  25.288  28.297  1.00  0.00     0.010 A 
ATOM     11  C   UNL A   1      42.827  26.097  27.298  1.00  0.00    -0.014 A 
BRANCH  11  12
ATOM     12  C   UNL A   1      43.034  27.543  27.490  1.00  0.00     0.031 A 
ATOM     13  C   UNL A   1      41.783  28.363  27.431  1.00  0.00     0.074 A 
ATOM     14  C   UNL A   1      44.068  27.971  28.245  1.00  0.00     0.049 A 
ATOM     15  N   UNL A   1      40.921  28.394  28.407  1.00  0.00    -0.248 NA
ATOM     16  C   UNL A   1      41.290  28.967  26.194  1.00  0.00     0.031 C 
ATOM     17  C   UNL A   1      44.606  27.209  29.383  1.00  0.00     0.029 A 
ATOM     18  N   UNL A   1      44.673  29.202  28.346  1.00  0.00    -0.354 N 
ATOM     19  C   UNL A   1      39.765  28.981  27.923  1.00  0.00     0.074 A 
ATOM     20  C   UNL A   1      40.043  29.324  26.544  1.00  0.00     0.031 C 
ATOM     21  C   UNL A   1      45.311  28.044  30.170  1.00  0.00     0.029 A 
ATOM     22  C   UNL A   1      45.405  29.349  29.525  1.00  0.00     0.049 A 
ATOM     23  H   UNL A   1      44.598  29.904  27.660  1.00  0.00     0.167 HD
ATOM     24  C   UNL A   1      38.649  29.151  28.683  1.00  0.00     0.034 A 
ATOM     25  C   UNL A   1      45.555  30.529  30.188  1.00  0.00     0.034 A 
ATOM     26  C   UNL A   1      38.773  28.720  30.047  1.00  0.00     0.049 A 
ATOM     27  C   UNL A   1      44.168  30.702  30.765  1.00  0.00     0.074 A 
ATOM     28  C   UNL A   1      38.450  27.612  30.799  1.00  0.00     0.029 A 
ATOM     29  N   UNL A   1      39.439  29.549  30.921  1.00  0.00    -0.354 N 
ATOM     30  N   UNL A   1      43.691  30.082  31.815  1.00  0.00    -0.248 NA
ATOM     31  C   UNL A   1      43.149  31.321  29.916  1.00  0.00     0.031 C 
ATOM     32  C   UNL A   1      39.323  27.652  31.934  1.00  0.00     0.029 A 
ATOM     33  C   UNL A   1      40.165  28.755  31.774  1.00  0.00     0.049 A 
ATOM     34  H   UNL A   1      39.403  30.533  30.931  1.00  0.00     0.167 HD
ATOM     35  C   UNL A   1      42.312  29.985  31.601  1.00  0.00     0.074 A 
ATOM     36  C   UNL A   1      42.046  30.794  30.429  1.00  0.00     0.031 C 
ATOM     37  C   UNL A   1      41.487  29.114  32.258  1.00  0.00     0.034 A 
BRANCH  24  38
ATOM     38  C   UNL A   1      37.449  29.909  28.258  1.00  0.00     0.023 A 
ATOM     39  C   UNL A   1      36.311  29.311  27.698  1.00  0.00     0.031 A 
ATOM     40  C   UNL A   1      37.398  31.277  28.589  1.00  0.00     0.131 A 
ATOM     41  C   UNL A   1      35.155  30.089  27.507  1.00  0.00     0.055 A 
ATOM     42  C   UNL A   1      36.246  32.038  28.412  1.00  0.00     0.041 A 
ATOM     43  F   UNL A   1      38.471  31.881  29.127  1.00  0.00    -0.206 F 
ATOM     44  C   UNL A   1      35.114  31.440  27.874  1.00  0.00     0.022 A 
BRANCH  41  45
ATOM     45  S   UNL A   1      33.638  29.376  26.808  1.00  0.00     0.124 S 
ATOM     46  O   UNL A   1      32.691  30.487  26.925  1.00  0.00    -0.237 OA
ATOM     47  O   UNL A   1      34.058  29.062  25.441  1.00  0.00    -0.237 OA
ATOM     48  O   UNL A   1      33.365  28.229  27.655  1.00  0.00    -0.744 OA
ENDBRANCH  41  45
ENDBRANCH  24  38
BRANCH  25  49
ATOM     49  C   UNL A   1      46.290  31.566  29.393  1.00  0.00     0.023 A 
ATOM     50  C   UNL A   1      45.736  32.352  28.375  1.00  0.00     0.031 A 
ATOM     51  C   UNL A   1      47.678  31.716  29.625  1.00  0.00     0.131 A 
ATOM     52  C   UNL A   1      46.571  33.084  27.514  1.00  0.00     0.055 A 
ATOM     53  C   UNL A   1      48.499  32.500  28.810  1.00  0.00     0.041 A 
ATOM     54  F   UNL A   1      48.269  31.072  30.647  1.00  0.00    -0.206 F 
ATOM     55  C   UNL A   1      47.949  33.161  27.721  1.00  0.00     0.022 A 
BRANCH  52  56
ATOM     56  S   UNL A   1      45.887  33.875  26.031  1.00  0.00     0.124 S 
ATOM     57  O   UNL A   1      47.084  34.390  25.373  1.00  0.00    -0.237 OA
ATOM     58  O   UNL A   1      45.240  32.742  25.376  1.00  0.00    -0.237 OA
ATOM     59  O   UNL A   1      44.986  34.885  26.575  1.00  0.00    -0.744 OA
ENDBRANCH  52  56
ENDBRANCH  25  49
BRANCH  37  60
ATOM     60  C   UNL A   1      42.090  28.343  33.394  1.00  0.00     0.023 A 
ATOM     61  C   UNL A   1      42.958  27.259  33.153  1.00  0.00     0.031 A 
ATOM     62  C   UNL A   1      41.720  28.612  34.721  1.00  0.00     0.131 A 
ATOM     63  C   UNL A   1      43.361  26.436  34.210  1.00  0.00     0.055 A 
ATOM     64  C   UNL A   1      42.183  27.828  35.781  1.00  0.00     0.041 A 
ATOM     65  F   UNL A   1      40.863  29.605  35.006  1.00  0.00    -0.206 F 
ATOM     66  C   UNL A   1      42.992  26.724  35.527  1.00  0.00     0.022 A 
BRANCH  63  67
ATOM     67  S   UNL A   1      44.301  24.915  33.900  1.00  0.00     0.124 S 
ATOM     68  O   UNL A   1      44.540  24.979  32.460  1.00  0.00    -0.237 OA
ATOM     69  O   UNL A   1      45.483  25.117  34.736  1.00  0.00    -0.237 OA
ATOM     70  O   UNL A   1      43.405  23.848  34.335  1.00  0.00    -0.744 OA
ENDBRANCH  63  67
ENDBRANCH  37  60
ENDBRANCH  11  12
ENDBRANCH   4   6
ENDBRANCH   1   2
BRANCH   1  71
ATOM     71  C   UNL A   1      39.035  21.454  25.719  1.00  0.00     0.042 C 
BRANCH  71  72
ATOM     72  C   UNL A   1      38.057  22.597  25.438  1.00  0.00     0.118 C 
BRANCH  72  73
ATOM     73  N   UNL A   1      37.170  22.397  24.309  1.00  0.00    -0.351 N 
ATOM     74  C   UNL A   1      35.831  22.143  24.262  1.00  0.00     0.278 C 
ATOM     75  H   UNL A   1      37.608  22.454  23.429  1.00  0.00     0.163 HD
ATOM     76  O   UNL A   1      35.217  22.662  23.319  1.00  0.00    -0.268 OA
BRANCH  74  77
ATOM     77  C   UNL A   1      35.056  21.210  25.222  1.00  0.00     0.275 C 
ATOM     78  C   UNL A   1      34.725  19.773  24.802  1.00  0.00     0.089 C 
ATOM     79  N   UNL A   1      33.754  21.773  25.643  1.00  0.00    -0.320 N 
ATOM     80  C   UNL A   1      33.206  19.598  25.081  1.00  0.00     0.036 C 
ATOM     81  C   UNL A   1      32.978  20.655  26.174  1.00  0.00     0.270 C 
ATOM     82  H   UNL A   1      33.268  22.182  24.845  1.00  0.00     0.349 HD
ATOM     83  C   UNL A   1      32.813  18.182  25.522  1.00  0.00     0.074 C 
ATOM     84  C   UNL A   1      32.342  19.920  23.846  1.00  0.00     0.074 C 
ATOM     85  C   UNL A   1      32.936  17.175  24.372  1.00  0.00     0.261 C 
ATOM     86  C   UNL A   1      32.528  18.898  22.725  1.00  0.00     0.261 C 
ATOM     87  N   UNL A   1      32.167  17.558  23.186  1.00  0.00    -0.346 N 
ATOM     88  H   UNL A   1      31.172  17.543  23.416  1.00  0.00     0.346 HD
ATOM     89  H   UNL A   1      32.376  16.895  22.440  1.00  0.00     0.346 HD
BRANCH  79  90
ATOM     90  C   UNL A   1      33.846  22.942  26.522  1.00  0.00     0.302 C 
BRANCH  90  91
ATOM     91  C   UNL A   1      32.893  23.993  26.021  1.00  0.00     0.038 A 
ATOM     92  C   UNL A   1      33.357  25.044  25.185  1.00  0.00     0.012 A 
ATOM     93  C   UNL A   1      31.547  24.143  26.417  1.00  0.00     0.144 A 
ATOM     94  C   UNL A   1      32.588  26.187  24.848  1.00  0.00     0.003 A 
ATOM     95  C   UNL A   1      30.762  25.327  26.080  1.00  0.00     0.135 A 
ATOM     96  N   UNL A   1      30.772  23.325  27.144  1.00  0.00    -0.049 NA
ATOM     97  C   UNL A   1      31.276  26.384  25.309  1.00  0.00     0.034 A 
ATOM     98  N   UNL A   1      29.554  25.203  26.643  1.00  0.00    -0.050 NA
ATOM     99  O   UNL A   1      29.565  23.983  27.294  1.00  0.00    -0.243 OA
ENDBRANCH  90  91
ENDBRANCH  79  90
ENDBRANCH  74  77
ENDBRANCH  72  73
ENDBRANCH  71  72
ENDBRANCH   1  71
TORSDOF 15
ENDMDL
MODEL 3
REMARK VINA RESULT:     -12.5      3.084      8.505
REMARK SMILES O=C(NCCCNC(=O)[C@@H]1CC2(CC[NH2+]CC2)C[N@H+]1Cc1cccc2nonc12)c1ccc(-c2c3nc(c(-c4cc(S(=O)(=O)[O-])ccc4F)c4ccc([nH]4)c(-c4cc(S(=O)(=O)[O-])ccc4F)c4nc(c(-c5cc(S(=O)(=O)[O-])ccc5F)c5ccc2[nH]5)C=C4)C=C3)cc1
REMARK SMILES IDX 4 1 3 2 1 3 2 4 30 6 31 7 92 8 32 9 91 10 33 11 34 12 35 13
REMARK SMILES IDX 85 14 36 15 90 16 84 17 86 18 37 19 89 20 83 21 82 22 38 24
REMARK SMILES IDX 70 25 50 26 69 27 51 28 54 29 68 30 87 31 52 32 53 33 67 35
REMARK SMILES IDX 88 36 55 37 39 38 40 39 48 40 41 41 47 42 49 43 46 44 42 45
REMARK SMILES IDX 43 46 44 47 45 48 71 49 72 50 80 51 73 52 79 53 81 54 78 55
REMARK SMILES IDX 74 56 75 57 76 58 77 59 56 60 57 61 65 62 58 63 64 64 66 65
REMARK SMILES IDX 63 66 59 67 60 68 61 69 62 70 5 71 6 72 7 73 8 74 9 76 10 77
REMARK SMILES IDX 11 78 19 79 12 80 18 81 13 83 17 84 14 85 16 86 15 87 20 90
REMARK SMILES IDX 21 91 22 92 29 93 23 94 25 95 28 96 24 97 26 98 27 99
REMARK H PARENT 3 5 86 23 54 34 7 75 19 82 15 88 15 89
REMARK Flexibility Score: inf
ROOT
ATOM      1  C   UNL A   1      40.015  21.771  27.239  1.00  0.00     0.118 C 
ENDROOT
BRANCH   1   2
ATOM      2  N   UNL A   1      41.441  21.470  27.220  1.00  0.00    -0.352 N 
ATOM      3  O   UNL A   1      43.590  21.726  26.711  1.00  0.00    -0.269 OA
ATOM      4  C   UNL A   1      42.536  22.271  27.044  1.00  0.00     0.251 C 
ATOM      5  H   UNL A   1      41.654  20.519  27.358  1.00  0.00     0.163 HD
BRANCH   4   6
ATOM      6  C   UNL A   1      42.503  23.739  27.252  1.00  0.00     0.039 A 
ATOM      7  C   UNL A   1      42.879  24.550  26.169  1.00  0.00     0.014 A 
ATOM      8  C   UNL A   1      42.236  24.330  28.490  1.00  0.00     0.014 A 
ATOM      9  C   UNL A   1      42.963  25.931  26.318  1.00  0.00     0.010 A 
ATOM     10  C   UNL A   1      42.283  25.716  28.632  1.00  0.00     0.010 A 
ATOM     11  C   UNL A   1      42.648  26.519  27.548  1.00  0.00    -0.014 A 
BRANCH  11  12
ATOM     12  C   UNL A   1      42.712  27.987  27.650  1.00  0.00     0.031 A 
ATOM     13  C   UNL A   1      41.378  28.665  27.701  1.00  0.00     0.074 A 
ATOM     14  C   UNL A   1      43.769  28.564  28.260  1.00  0.00     0.049 A 
ATOM     15  N   UNL A   1      40.632  28.660  28.768  1.00  0.00    -0.248 NA
ATOM     16  C   UNL A   1      40.686  29.142  26.505  1.00  0.00     0.031 C 
ATOM     17  C   UNL A   1      44.511  27.929  29.360  1.00  0.00     0.029 A 
ATOM     18  N   UNL A   1      44.240  29.856  28.236  1.00  0.00    -0.354 N 
ATOM     19  C   UNL A   1      39.371  29.093  28.397  1.00  0.00     0.074 A 
ATOM     20  C   UNL A   1      39.454  29.385  26.982  1.00  0.00     0.031 C 
ATOM     21  C   UNL A   1      45.202  28.877  30.022  1.00  0.00     0.029 A 
ATOM     22  C   UNL A   1      45.077  30.147  29.314  1.00  0.00     0.049 A 
ATOM     23  H   UNL A   1      44.012  30.507  27.533  1.00  0.00     0.167 HD
ATOM     24  C   UNL A   1      38.335  29.186  29.275  1.00  0.00     0.034 A 
ATOM     25  C   UNL A   1      45.167  31.372  29.902  1.00  0.00     0.034 A 
ATOM     26  C   UNL A   1      38.656  28.849  30.632  1.00  0.00     0.049 A 
ATOM     27  C   UNL A   1      43.842  31.428  30.628  1.00  0.00     0.074 A 
ATOM     28  C   UNL A   1      38.545  27.758  31.465  1.00  0.00     0.029 A 
ATOM     29  N   UNL A   1      39.319  29.791  31.385  1.00  0.00    -0.354 N 
ATOM     30  N   UNL A   1      43.557  30.822  31.753  1.00  0.00    -0.248 NA
ATOM     31  C   UNL A   1      42.673  31.887  29.878  1.00  0.00     0.031 C 
ATOM     32  C   UNL A   1      39.528  27.954  32.488  1.00  0.00     0.029 A 
ATOM     33  C   UNL A   1      40.219  29.128  32.182  1.00  0.00     0.049 A 
ATOM     34  H   UNL A   1      39.174  30.765  31.356  1.00  0.00     0.167 HD
ATOM     35  C   UNL A   1      42.182  30.568  31.706  1.00  0.00     0.074 A 
ATOM     36  C   UNL A   1      41.699  31.276  30.538  1.00  0.00     0.031 C 
ATOM     37  C   UNL A   1      41.537  29.652  32.492  1.00  0.00     0.034 A 
BRANCH  24  38
ATOM     38  C   UNL A   1      37.017  29.788  28.959  1.00  0.00     0.023 A 
ATOM     39  C   UNL A   1      36.592  31.029  29.453  1.00  0.00     0.031 A 
ATOM     40  C   UNL A   1      36.230  29.145  27.984  1.00  0.00     0.131 A 
ATOM     41  C   UNL A   1      35.411  31.598  28.945  1.00  0.00     0.055 A 
ATOM     42  C   UNL A   1      35.070  29.720  27.474  1.00  0.00     0.041 A 
ATOM     43  F   UNL A   1      36.608  27.953  27.490  1.00  0.00    -0.206 F 
ATOM     44  C   UNL A   1      34.660  30.958  27.950  1.00  0.00     0.022 A 
BRANCH  41  45
ATOM     45  S   UNL A   1      34.812  33.213  29.521  1.00  0.00     0.124 S 
ATOM     46  O   UNL A   1      36.042  34.008  29.546  1.00  0.00    -0.237 OA
ATOM     47  O   UNL A   1      33.863  33.573  28.466  1.00  0.00    -0.237 OA
ATOM     48  O   UNL A   1      34.225  32.929  30.818  1.00  0.00    -0.744 OA
ENDBRANCH  41  45
ENDBRANCH  24  38
BRANCH  25  49
ATOM     49  C   UNL A   1      45.689  32.434  28.981  1.00  0.00     0.023 A 
ATOM     50  C   UNL A   1      45.021  32.934  27.858  1.00  0.00     0.031 A 
ATOM     51  C   UNL A   1      46.997  32.922  29.210  1.00  0.00     0.131 A 
ATOM     52  C   UNL A   1      45.710  33.715  26.915  1.00  0.00     0.055 A 
ATOM     53  C   UNL A   1      47.660  33.756  28.306  1.00  0.00     0.041 A 
ATOM     54  F   UNL A   1      47.670  32.568  30.319  1.00  0.00    -0.206 F 
ATOM     55  C   UNL A   1      47.026  34.128  27.129  1.00  0.00     0.022 A 
BRANCH  52  56
ATOM     56  S   UNL A   1      44.935  34.130  25.328  1.00  0.00     0.124 S 
ATOM     57  O   UNL A   1      46.055  34.674  24.567  1.00  0.00    -0.237 OA
ATOM     58  O   UNL A   1      44.450  32.822  24.897  1.00  0.00    -0.237 OA
ATOM     59  O   UNL A   1      43.902  35.092  25.700  1.00  0.00    -0.744 OA
ENDBRANCH  52  56
ENDBRANCH  25  49
BRANCH  37  60
ATOM     60  C   UNL A   1      42.345  29.015  33.583  1.00  0.00     0.023 A 
ATOM     61  C   UNL A   1      42.545  29.673  34.814  1.00  0.00     0.031 A 
ATOM     62  C   UNL A   1      43.011  27.799  33.368  1.00  0.00     0.131 A 
ATOM     63  C   UNL A   1      43.451  29.155  35.746  1.00  0.00     0.055 A 
ATOM     64  C   UNL A   1      43.861  27.251  34.332  1.00  0.00     0.041 A 
ATOM     65  F   UNL A   1      42.891  27.149  32.199  1.00  0.00    -0.206 F 
ATOM     66  C   UNL A   1      44.098  27.937  35.520  1.00  0.00     0.022 A 
BRANCH  63  67
ATOM     67  S   UNL A   1      43.886  30.089  37.239  1.00  0.00     0.124 S 
ATOM     68  O   UNL A   1      44.842  31.070  36.731  1.00  0.00    -0.237 OA
ATOM     69  O   UNL A   1      42.591  30.634  37.640  1.00  0.00    -0.237 OA
ATOM     70  O   UNL A   1      44.444  29.083  38.139  1.00  0.00    -0.744 OA
ENDBRANCH  63  67
ENDBRANCH  37  60
ENDBRANCH  11  12
ENDBRANCH   4   6
ENDBRANCH   1   2
BRANCH   1  71
ATOM     71  C   UNL A   1      39.567  22.239  25.860  1.00  0.00     0.042 C 
BRANCH  71  72
ATOM     72  C   UNL A   1      38.158  22.833  25.803  1.00  0.00     0.118 C 
BRANCH  72  73
ATOM     73  N   UNL A   1      37.401  22.530  24.604  1.00  0.00    -0.351 N 
ATOM     74  C   UNL A   1      36.090  22.195  24.439  1.00  0.00     0.278 C 
ATOM     75  H   UNL A   1      37.922  22.574  23.770  1.00  0.00     0.163 HD
ATOM     76  O   UNL A   1      35.546  22.634  23.416  1.00  0.00    -0.268 OA
BRANCH  74  77
ATOM     77  C   UNL A   1      35.274  21.261  25.364  1.00  0.00     0.275 C 
ATOM     78  C   UNL A   1      34.813  19.889  24.862  1.00  0.00     0.089 C 
ATOM     79  N   UNL A   1      34.037  21.895  25.873  1.00  0.00    -0.320 N 
ATOM     80  C   UNL A   1      33.295  19.815  25.189  1.00  0.00     0.036 C 
ATOM     81  C   UNL A   1      33.192  20.808  26.359  1.00  0.00     0.270 C 
ATOM     82  H   UNL A   1      33.560  22.396  25.124  1.00  0.00     0.349 HD
ATOM     83  C   UNL A   1      32.803  18.407  25.548  1.00  0.00     0.074 C 
ATOM     84  C   UNL A   1      32.418  20.290  24.013  1.00  0.00     0.074 C 
ATOM     85  C   UNL A   1      32.803  17.477  24.329  1.00  0.00     0.261 C 
ATOM     86  C   UNL A   1      32.482  19.338  22.819  1.00  0.00     0.261 C 
ATOM     87  N   UNL A   1      32.028  18.002  23.203  1.00  0.00    -0.346 N 
ATOM     88  H   UNL A   1      31.044  18.049  23.471  1.00  0.00     0.346 HD
ATOM     89  H   UNL A   1      32.157  17.378  22.407  1.00  0.00     0.346 HD
BRANCH  79  90
ATOM     90  C   UNL A   1      34.255  22.989  26.825  1.00  0.00     0.302 C 
BRANCH  90  91
ATOM     91  C   UNL A   1      33.549  24.214  26.313  1.00  0.00     0.038 A 
ATOM     92  C   UNL A   1      34.288  25.280  25.733  1.00  0.00     0.012 A 
ATOM     93  C   UNL A   1      32.177  24.505  26.474  1.00  0.00     0.144 A 
ATOM     94  C   UNL A   1      33.740  26.551  25.427  1.00  0.00     0.003 A 
ATOM     95  C   UNL A   1      31.618  25.820  26.171  1.00  0.00     0.135 A 
ATOM     96  N   UNL A   1      31.185  23.726  26.925  1.00  0.00    -0.049 NA
ATOM     97  C   UNL A   1      32.395  26.877  25.664  1.00  0.00     0.034 A 
ATOM     98  N   UNL A   1      30.316  25.802  26.482  1.00  0.00    -0.050 NA
ATOM     99  O   UNL A   1      30.055  24.525  26.944  1.00  0.00    -0.243 OA
ENDBRANCH  90  91
ENDBRANCH  79  90
ENDBRANCH  74  77
ENDBRANCH  72  73
ENDBRANCH  71  72
ENDBRANCH   1  71
TORSDOF 15
ENDMDL
