MODEL 1
REMARK VINA RESULT:     -12.1      0.000      0.000
REMARK SMILES CC(=O)N/C(=C\c1ccccc1)C(=O)N[C@H](C(=O)NCCCNC(=O)c1ccc(-c2c3nc(c(-c4cc(S(=O)(=O)[O-])ccc4F)c4ccc([nH]4)c(-c4cc(S(=O)(=O)[O-])ccc4F)c4nc(c(-c5cc(S(=O)(=O)[O-])ccc5F)c5ccc2[nH]5)C=C4)C=C3)cc1)C(C)C
REMARK SMILES IDX 21 1 20 2 19 3 17 4 18 5 16 7 15 8 13 9 14 10 5 12 6 13 4 14
REMARK SMILES IDX 1 15 2 16 3 17 7 19 8 20 12 21 9 22 11 23 10 24 89 25 90 26
REMARK SMILES IDX 91 27 22 28 23 29 24 30 25 32 26 33 27 34 88 35 28 36 87 37
REMARK SMILES IDX 29 38 30 39 31 40 81 41 32 42 86 43 80 44 82 45 33 46 85 47
REMARK SMILES IDX 79 48 78 49 34 51 66 52 46 53 65 54 47 55 50 56 64 57 83 58
REMARK SMILES IDX 48 59 49 60 63 62 84 63 51 64 35 65 36 66 44 67 37 68 43 69
REMARK SMILES IDX 45 70 42 71 38 72 39 73 40 74 41 75 67 76 68 77 76 78 69 79
REMARK SMILES IDX 75 80 77 81 74 82 70 83 71 84 72 85 73 86 52 87 53 88 61 89
REMARK SMILES IDX 54 90 60 91 62 92 59 93 55 94 56 95 57 96 58 97
REMARK H PARENT 19 6 15 11 4 18 23 31 82 50 50 61
REMARK Flexibility Score: inf
ROOT
ATOM      1  C   UNL A   1      31.428  31.902  26.501  1.00  0.00     0.042 C 
ENDROOT
BRANCH   1   2
ATOM      2  C   UNL A   1      31.458  30.394  26.226  1.00  0.00     0.117 C 
BRANCH   2   3
ATOM      3  N   UNL A   1      32.235  30.095  25.033  1.00  0.00    -0.354 N 
ATOM      4  C   UNL A   1      32.247  29.035  24.175  1.00  0.00     0.242 C 
ATOM      5  O   UNL A   1      33.164  29.024  23.348  1.00  0.00    -0.273 OA
ATOM      6  H   UNL A   1      32.883  30.797  24.798  1.00  0.00     0.163 HD
BRANCH   4   7
ATOM      7  C   UNL A   1      31.128  27.950  24.166  1.00  0.00     0.174 C 
BRANCH   7   8
ATOM      8  N   UNL A   1      31.367  27.136  25.409  1.00  0.00    -0.339 N 
ATOM      9  C   UNL A   1      31.988  25.967  25.769  1.00  0.00     0.268 C 
ATOM     10  O   UNL A   1      31.496  25.413  26.755  1.00  0.00    -0.268 OA
ATOM     11  H   UNL A   1      30.959  27.570  26.192  1.00  0.00     0.164 HD
BRANCH   9  12
ATOM     12  C   UNL A   1      33.251  25.415  25.136  1.00  0.00     0.107 C 
ATOM     13  C   UNL A   1      34.033  24.606  25.880  1.00  0.00     0.040 C 
BRANCH  12  14
ATOM     14  N   UNL A   1      33.686  25.770  23.865  1.00  0.00    -0.322 N 
ATOM     15  C   UNL A   1      32.278  24.490  22.206  1.00  0.00     0.114 C 
ATOM     16  C   UNL A   1      33.361  25.454  22.581  1.00  0.00     0.221 C 
ATOM     17  O   UNL A   1      33.975  26.046  21.683  1.00  0.00    -0.275 OA
ATOM     18  H   UNL A   1      34.423  26.421  23.904  1.00  0.00     0.170 HD
ENDBRANCH  12  14
BRANCH  13  19
ATOM     19  C   UNL A   1      35.169  23.767  25.438  1.00  0.00    -0.023 A 
ATOM     20  C   UNL A   1      34.913  22.578  24.728  1.00  0.00     0.008 A 
ATOM     21  C   UNL A   1      36.488  24.066  25.774  1.00  0.00     0.008 A 
ATOM     22  C   UNL A   1      35.931  21.669  24.439  1.00  0.00     0.001 A 
ATOM     23  C   UNL A   1      37.513  23.161  25.467  1.00  0.00     0.001 A 
ATOM     24  C   UNL A   1      37.232  21.954  24.823  1.00  0.00     0.000 A 
ENDBRANCH  13  19
ENDBRANCH   9  12
ENDBRANCH   7   8
BRANCH   7  25
ATOM     25  C   UNL A   1      29.673  28.375  23.929  1.00  0.00     0.015 C 
ATOM     26  C   UNL A   1      29.413  29.520  22.962  1.00  0.00     0.010 C 
ATOM     27  C   UNL A   1      28.770  27.188  23.601  1.00  0.00     0.010 C 
ENDBRANCH   7  25
ENDBRANCH   4   7
ENDBRANCH   2   3
ENDBRANCH   1   2
BRANCH   1  28
ATOM     28  C   UNL A   1      32.688  32.433  27.174  1.00  0.00     0.118 C 
BRANCH  28  29
ATOM     29  N   UNL A   1      32.528  33.810  27.608  1.00  0.00    -0.352 N 
ATOM     30  C   UNL A   1      33.173  34.477  28.626  1.00  0.00     0.251 C 
ATOM     31  H   UNL A   1      31.867  34.340  27.105  1.00  0.00     0.163 HD
ATOM     32  O   UNL A   1      32.720  35.539  29.033  1.00  0.00    -0.269 OA
BRANCH  30  33
ATOM     33  C   UNL A   1      34.392  33.894  29.239  1.00  0.00     0.039 A 
ATOM     34  C   UNL A   1      35.641  34.443  28.936  1.00  0.00     0.014 A 
ATOM     35  C   UNL A   1      34.304  32.803  30.107  1.00  0.00     0.014 A 
ATOM     36  C   UNL A   1      36.791  33.940  29.554  1.00  0.00     0.010 A 
ATOM     37  C   UNL A   1      35.434  32.367  30.791  1.00  0.00     0.010 A 
ATOM     38  C   UNL A   1      36.694  32.922  30.516  1.00  0.00    -0.014 A 
BRANCH  38  39
ATOM     39  C   UNL A   1      37.888  32.389  31.228  1.00  0.00     0.031 A 
ATOM     40  C   UNL A   1      38.649  31.232  30.639  1.00  0.00     0.074 A 
ATOM     41  C   UNL A   1      38.229  32.871  32.440  1.00  0.00     0.049 A 
ATOM     42  N   UNL A   1      39.603  30.507  31.166  1.00  0.00    -0.248 NA
ATOM     43  C   UNL A   1      38.248  30.808  29.290  1.00  0.00     0.031 C 
ATOM     44  C   UNL A   1      37.553  33.968  33.133  1.00  0.00     0.029 A 
ATOM     45  N   UNL A   1      39.213  32.481  33.316  1.00  0.00    -0.354 N 
ATOM     46  C   UNL A   1      39.895  29.525  30.224  1.00  0.00     0.074 A 
ATOM     47  C   UNL A   1      38.966  29.710  29.129  1.00  0.00     0.031 C 
ATOM     48  C   UNL A   1      38.141  34.163  34.324  1.00  0.00     0.029 A 
ATOM     49  C   UNL A   1      39.196  33.170  34.507  1.00  0.00     0.049 A 
ATOM     50  H   UNL A   1      39.867  31.773  33.112  1.00  0.00     0.167 HD
ATOM     51  C   UNL A   1      40.861  28.571  30.261  1.00  0.00     0.034 A 
ATOM     52  C   UNL A   1      39.920  33.003  35.632  1.00  0.00     0.034 A 
ATOM     53  C   UNL A   1      41.780  28.411  31.361  1.00  0.00     0.049 A 
ATOM     54  C   UNL A   1      40.966  31.919  35.674  1.00  0.00     0.074 A 
ATOM     55  C   UNL A   1      42.836  27.524  31.481  1.00  0.00     0.029 A 
ATOM     56  N   UNL A   1      41.744  29.144  32.542  1.00  0.00    -0.354 N 
ATOM     57  N   UNL A   1      41.267  31.027  34.758  1.00  0.00    -0.248 NA
ATOM     58  C   UNL A   1      41.778  31.823  36.894  1.00  0.00     0.031 C 
ATOM     59  C   UNL A   1      43.380  27.661  32.762  1.00  0.00     0.029 A 
ATOM     60  C   UNL A   1      42.731  28.700  33.409  1.00  0.00     0.049 A 
ATOM     61  H   UNL A   1      41.109  29.871  32.735  1.00  0.00     0.167 HD
ATOM     62  C   UNL A   1      42.323  30.285  35.280  1.00  0.00     0.074 A 
ATOM     63  C   UNL A   1      42.609  30.835  36.589  1.00  0.00     0.031 C 
ATOM     64  C   UNL A   1      43.002  29.251  34.719  1.00  0.00     0.034 A 
BRANCH  51  65
ATOM     65  C   UNL A   1      40.931  27.612  29.092  1.00  0.00     0.023 A 
ATOM     66  C   UNL A   1      41.881  27.764  28.066  1.00  0.00     0.031 A 
ATOM     67  C   UNL A   1      39.995  26.571  28.966  1.00  0.00     0.131 A 
ATOM     68  C   UNL A   1      41.800  26.972  26.910  1.00  0.00     0.055 A 
ATOM     69  C   UNL A   1      39.988  25.715  27.861  1.00  0.00     0.041 A 
ATOM     70  F   UNL A   1      39.050  26.382  29.900  1.00  0.00    -0.206 F 
ATOM     71  C   UNL A   1      40.878  25.929  26.814  1.00  0.00     0.022 A 
BRANCH  68  72
ATOM     72  S   UNL A   1      42.777  27.461  25.462  1.00  0.00     0.124 S 
ATOM     73  O   UNL A   1      44.047  27.841  26.078  1.00  0.00    -0.237 OA
ATOM     74  O   UNL A   1      42.794  26.240  24.666  1.00  0.00    -0.237 OA
ATOM     75  O   UNL A   1      42.014  28.570  24.894  1.00  0.00    -0.744 OA
ENDBRANCH  68  72
ENDBRANCH  51  65
BRANCH  52  76
ATOM     76  C   UNL A   1      39.650  33.862  36.821  1.00  0.00     0.023 A 
ATOM     77  C   UNL A   1      39.030  33.348  37.971  1.00  0.00     0.031 A 
ATOM     78  C   UNL A   1      40.020  35.220  36.823  1.00  0.00     0.131 A 
ATOM     79  C   UNL A   1      38.774  34.192  39.063  1.00  0.00     0.055 A 
ATOM     80  C   UNL A   1      39.808  36.043  37.930  1.00  0.00     0.041 A 
ATOM     81  F   UNL A   1      40.622  35.761  35.751  1.00  0.00    -0.206 F 
ATOM     82  C   UNL A   1      39.174  35.532  39.057  1.00  0.00     0.022 A 
BRANCH  79  83
ATOM     83  S   UNL A   1      37.857  33.531  40.482  1.00  0.00     0.124 S 
ATOM     84  O   UNL A   1      38.817  32.585  41.040  1.00  0.00    -0.237 OA
ATOM     85  O   UNL A   1      37.609  34.735  41.269  1.00  0.00    -0.237 OA
ATOM     86  O   UNL A   1      36.672  32.933  39.872  1.00  0.00    -0.744 OA
ENDBRANCH  79  83
ENDBRANCH  52  76
BRANCH  64  87
ATOM     87  C   UNL A   1      44.166  28.679  35.494  1.00  0.00     0.023 A 
ATOM     88  C   UNL A   1      44.012  27.621  36.406  1.00  0.00     0.031 A 
ATOM     89  C   UNL A   1      45.461  29.189  35.285  1.00  0.00     0.131 A 
ATOM     90  C   UNL A   1      45.130  27.131  37.102  1.00  0.00     0.055 A 
ATOM     91  C   UNL A   1      46.576  28.657  35.933  1.00  0.00     0.041 A 
ATOM     92  F   UNL A   1      45.666  30.203  34.429  1.00  0.00    -0.206 F 
ATOM     93  C   UNL A   1      46.413  27.629  36.855  1.00  0.00     0.022 A 
BRANCH  90  94
ATOM     94  S   UNL A   1      44.879  25.880  38.391  1.00  0.00     0.124 S 
ATOM     95  O   UNL A   1      44.109  24.864  37.680  1.00  0.00    -0.237 OA
ATOM     96  O   UNL A   1      46.246  25.514  38.744  1.00  0.00    -0.237 OA
ATOM     97  O   UNL A   1      44.143  26.601  39.429  1.00  0.00    -0.744 OA
ENDBRANCH  90  94
ENDBRANCH  64  87
ENDBRANCH  38  39
ENDBRANCH  30  33
ENDBRANCH  28  29
ENDBRANCH   1  28
TORSDOF 18
ENDMDL
MODEL 2
REMARK VINA RESULT:     -11.9      1.607      2.151
REMARK SMILES CC(=O)N/C(=C\c1ccccc1)C(=O)N[C@H](C(=O)NCCCNC(=O)c1ccc(-c2c3nc(c(-c4cc(S(=O)(=O)[O-])ccc4F)c4ccc([nH]4)c(-c4cc(S(=O)(=O)[O-])ccc4F)c4nc(c(-c5cc(S(=O)(=O)[O-])ccc5F)c5ccc2[nH]5)C=C4)C=C3)cc1)C(C)C
REMARK SMILES IDX 21 1 20 2 19 3 17 4 18 5 16 7 15 8 13 9 14 10 5 12 6 13 4 14
REMARK SMILES IDX 1 15 2 16 3 17 7 19 8 20 12 21 9 22 11 23 10 24 89 25 90 26
REMARK SMILES IDX 91 27 22 28 23 29 24 30 25 32 26 33 27 34 88 35 28 36 87 37
REMARK SMILES IDX 29 38 30 39 31 40 81 41 32 42 86 43 80 44 82 45 33 46 85 47
REMARK SMILES IDX 79 48 78 49 34 51 66 52 46 53 65 54 47 55 50 56 64 57 83 58
REMARK SMILES IDX 48 59 49 60 63 62 84 63 51 64 35 65 36 66 44 67 37 68 43 69
REMARK SMILES IDX 45 70 42 71 38 72 39 73 40 74 41 75 67 76 68 77 76 78 69 79
REMARK SMILES IDX 75 80 77 81 74 82 70 83 71 84 72 85 73 86 52 87 53 88 61 89
REMARK SMILES IDX 54 90 60 91 62 92 59 93 55 94 56 95 57 96 58 97
REMARK H PARENT 19 6 15 11 4 18 23 31 82 50 50 61
REMARK Flexibility Score: inf
ROOT
ATOM      1  C   UNL A   1      31.595  31.424  26.205  1.00  0.00     0.042 C 
ENDROOT
BRANCH   1   2
ATOM      2  C   UNL A   1      31.697  29.946  25.813  1.00  0.00     0.117 C 
BRANCH   2   3
ATOM      3  N   UNL A   1      32.588  29.766  24.677  1.00  0.00    -0.354 N 
ATOM      4  C   UNL A   1      32.945  28.675  23.941  1.00  0.00     0.242 C 
ATOM      5  O   UNL A   1      33.868  28.847  23.139  1.00  0.00    -0.273 OA
ATOM      6  H   UNL A   1      33.020  30.599  24.380  1.00  0.00     0.163 HD
BRANCH   4   7
ATOM      7  C   UNL A   1      32.182  27.318  24.027  1.00  0.00     0.174 C 
BRANCH   7   8
ATOM      8  N   UNL A   1      32.284  26.728  22.647  1.00  0.00    -0.339 N 
ATOM      9  C   UNL A   1      33.045  25.804  21.978  1.00  0.00     0.268 C 
ATOM     10  O   UNL A   1      33.151  26.013  20.766  1.00  0.00    -0.268 OA
ATOM     11  H   UNL A   1      31.607  27.120  22.051  1.00  0.00     0.164 HD
BRANCH   9  12
ATOM     12  C   UNL A   1      33.626  24.541  22.585  1.00  0.00     0.107 C 
ATOM     13  C   UNL A   1      34.778  24.643  23.279  1.00  0.00     0.040 C 
BRANCH  12  14
ATOM     14  N   UNL A   1      33.081  23.279  22.388  1.00  0.00    -0.322 N 
ATOM     15  C   UNL A   1      31.423  22.879  24.251  1.00  0.00     0.114 C 
ATOM     16  C   UNL A   1      32.164  22.487  23.010  1.00  0.00     0.221 C 
ATOM     17  O   UNL A   1      31.904  21.400  22.475  1.00  0.00    -0.275 OA
ATOM     18  H   UNL A   1      33.456  22.843  21.590  1.00  0.00     0.170 HD
ENDBRANCH  12  14
BRANCH  13  19
ATOM     19  C   UNL A   1      35.417  23.630  24.150  1.00  0.00    -0.023 A 
ATOM     20  C   UNL A   1      36.513  22.894  23.663  1.00  0.00     0.008 A 
ATOM     21  C   UNL A   1      34.916  23.314  25.411  1.00  0.00     0.008 A 
ATOM     22  C   UNL A   1      37.041  21.816  24.373  1.00  0.00     0.001 A 
ATOM     23  C   UNL A   1      35.458  22.242  26.134  1.00  0.00     0.001 A 
ATOM     24  C   UNL A   1      36.501  21.479  25.605  1.00  0.00     0.000 A 
ENDBRANCH  13  19
ENDBRANCH   9  12
ENDBRANCH   7   8
BRANCH   7  25
ATOM     25  C   UNL A   1      32.495  26.354  25.179  1.00  0.00     0.015 C 
ATOM     26  C   UNL A   1      33.697  26.660  26.058  1.00  0.00     0.010 C 
ATOM     27  C   UNL A   1      31.268  26.062  26.038  1.00  0.00     0.010 C 
ENDBRANCH   7  25
ENDBRANCH   4   7
ENDBRANCH   2   3
ENDBRANCH   1   2
BRANCH   1  28
ATOM     28  C   UNL A   1      32.691  31.889  27.156  1.00  0.00     0.118 C 
BRANCH  28  29
ATOM     29  N   UNL A   1      32.577  33.305  27.459  1.00  0.00    -0.352 N 
ATOM     30  C   UNL A   1      33.265  34.049  28.392  1.00  0.00     0.251 C 
ATOM     31  H   UNL A   1      31.917  33.802  26.923  1.00  0.00     0.163 HD
ATOM     32  O   UNL A   1      32.850  35.157  28.705  1.00  0.00    -0.269 OA
BRANCH  30  33
ATOM     33  C   UNL A   1      34.485  33.494  29.030  1.00  0.00     0.039 A 
ATOM     34  C   UNL A   1      35.708  34.147  28.853  1.00  0.00     0.014 A 
ATOM     35  C   UNL A   1      34.423  32.328  29.795  1.00  0.00     0.014 A 
ATOM     36  C   UNL A   1      36.853  33.666  29.497  1.00  0.00     0.010 A 
ATOM     37  C   UNL A   1      35.541  31.907  30.510  1.00  0.00     0.010 A 
ATOM     38  C   UNL A   1      36.773  32.564  30.362  1.00  0.00    -0.014 A 
BRANCH  38  39
ATOM     39  C   UNL A   1      37.959  32.048  31.100  1.00  0.00     0.031 A 
ATOM     40  C   UNL A   1      38.794  30.954  30.492  1.00  0.00     0.074 A 
ATOM     41  C   UNL A   1      38.227  32.485  32.347  1.00  0.00     0.049 A 
ATOM     42  N   UNL A   1      39.757  30.246  31.026  1.00  0.00    -0.248 NA
ATOM     43  C   UNL A   1      38.469  30.580  29.108  1.00  0.00     0.031 C 
ATOM     44  C   UNL A   1      37.474  33.517  33.060  1.00  0.00     0.029 A 
ATOM     45  N   UNL A   1      39.189  32.095  33.247  1.00  0.00    -0.354 N 
ATOM     46  C   UNL A   1      40.132  29.323  30.053  1.00  0.00     0.074 A 
ATOM     47  C   UNL A   1      39.242  29.522  28.929  1.00  0.00     0.031 C 
ATOM     48  C   UNL A   1      38.003  33.680  34.283  1.00  0.00     0.029 A 
ATOM     49  C   UNL A   1      39.092  32.725  34.466  1.00  0.00     0.049 A 
ATOM     50  H   UNL A   1      39.882  31.427  33.039  1.00  0.00     0.167 HD
ATOM     51  C   UNL A   1      41.136  28.411  30.088  1.00  0.00     0.034 A 
ATOM     52  C   UNL A   1      39.775  32.535  35.613  1.00  0.00     0.034 A 
ATOM     53  C   UNL A   1      42.015  28.238  31.219  1.00  0.00     0.049 A 
ATOM     54  C   UNL A   1      40.866  31.495  35.651  1.00  0.00     0.074 A 
ATOM     55  C   UNL A   1      43.103  27.392  31.343  1.00  0.00     0.029 A 
ATOM     56  N   UNL A   1      41.897  28.910  32.430  1.00  0.00    -0.354 N 
ATOM     57  N   UNL A   1      41.244  30.662  34.708  1.00  0.00    -0.248 NA
ATOM     58  C   UNL A   1      41.630  31.375  36.900  1.00  0.00     0.031 C 
ATOM     59  C   UNL A   1      43.587  27.490  32.652  1.00  0.00     0.029 A 
ATOM     60  C   UNL A   1      42.865  28.468  33.318  1.00  0.00     0.049 A 
ATOM     61  H   UNL A   1      41.223  29.599  32.629  1.00  0.00     0.167 HD
ATOM     62  C   UNL A   1      42.310  29.941  35.241  1.00  0.00     0.074 A 
ATOM     63  C   UNL A   1      42.515  30.439  36.585  1.00  0.00     0.031 C 
ATOM     64  C   UNL A   1      43.056  28.965  34.663  1.00  0.00     0.034 A 
BRANCH  51  65
ATOM     65  C   UNL A   1      41.298  27.514  28.880  1.00  0.00     0.023 A 
ATOM     66  C   UNL A   1      42.330  27.710  27.945  1.00  0.00     0.031 A 
ATOM     67  C   UNL A   1      40.371  26.489  28.623  1.00  0.00     0.131 A 
ATOM     68  C   UNL A   1      42.341  26.980  26.747  1.00  0.00     0.055 A 
ATOM     69  C   UNL A   1      40.450  25.692  27.478  1.00  0.00     0.041 A 
ATOM     70  F   UNL A   1      39.351  26.261  29.465  1.00  0.00    -0.206 F 
ATOM     71  C   UNL A   1      41.425  25.952  26.520  1.00  0.00     0.022 A 
BRANCH  68  72
ATOM     72  S   UNL A   1      43.436  27.535  25.411  1.00  0.00     0.124 S 
ATOM     73  O   UNL A   1      44.239  26.337  25.172  1.00  0.00    -0.237 OA
ATOM     74  O   UNL A   1      42.494  27.891  24.357  1.00  0.00    -0.237 OA
ATOM     75  O   UNL A   1      44.163  28.653  26.007  1.00  0.00    -0.744 OA
ENDBRANCH  68  72
ENDBRANCH  51  65
BRANCH  52  76
ATOM     76  C   UNL A   1      39.418  33.322  36.828  1.00  0.00     0.023 A 
ATOM     77  C   UNL A   1      40.062  34.531  37.134  1.00  0.00     0.031 A 
ATOM     78  C   UNL A   1      38.412  32.871  37.703  1.00  0.00     0.131 A 
ATOM     79  C   UNL A   1      39.712  35.233  38.298  1.00  0.00     0.055 A 
ATOM     80  C   UNL A   1      38.034  33.598  38.833  1.00  0.00     0.041 A 
ATOM     81  F   UNL A   1      37.760  31.723  37.454  1.00  0.00    -0.206 F 
ATOM     82  C   UNL A   1      38.691  34.784  39.141  1.00  0.00     0.022 A 
BRANCH  79  83
ATOM     83  S   UNL A   1      40.650  36.724  38.733  1.00  0.00     0.124 S 
ATOM     84  O   UNL A   1      39.585  37.710  38.883  1.00  0.00    -0.237 OA
ATOM     85  O   UNL A   1      41.321  36.312  39.962  1.00  0.00    -0.237 OA
ATOM     86  O   UNL A   1      41.528  36.922  37.583  1.00  0.00    -0.744 OA
ENDBRANCH  79  83
ENDBRANCH  52  76
BRANCH  64  87
ATOM     87  C   UNL A   1      44.212  28.407  35.460  1.00  0.00     0.023 A 
ATOM     88  C   UNL A   1      44.041  27.388  36.414  1.00  0.00     0.031 A 
ATOM     89  C   UNL A   1      45.515  28.887  35.232  1.00  0.00     0.131 A 
ATOM     90  C   UNL A   1      45.151  26.909  37.130  1.00  0.00     0.055 A 
ATOM     91  C   UNL A   1      46.621  28.365  35.902  1.00  0.00     0.041 A 
ATOM     92  F   UNL A   1      45.735  29.863  34.337  1.00  0.00    -0.206 F 
ATOM     93  C   UNL A   1      46.441  27.376  36.864  1.00  0.00     0.022 A 
BRANCH  90  94
ATOM     94  S   UNL A   1      44.880  25.715  38.468  1.00  0.00     0.124 S 
ATOM     95  O   UNL A   1      43.995  26.457  39.360  1.00  0.00    -0.237 OA
ATOM     96  O   UNL A   1      44.278  24.587  37.765  1.00  0.00    -0.237 OA
ATOM     97  O   UNL A   1      46.225  25.474  38.989  1.00  0.00    -0.744 OA
ENDBRANCH  90  94
ENDBRANCH  64  87
ENDBRANCH  38  39
ENDBRANCH  30  33
ENDBRANCH  28  29
ENDBRANCH   1  28
TORSDOF 18
ENDMDL
MODEL 3
REMARK VINA RESULT:     -11.8      5.437     10.659
REMARK SMILES CC(=O)N/C(=C\c1ccccc1)C(=O)N[C@H](C(=O)NCCCNC(=O)c1ccc(-c2c3nc(c(-c4cc(S(=O)(=O)[O-])ccc4F)c4ccc([nH]4)c(-c4cc(S(=O)(=O)[O-])ccc4F)c4nc(c(-c5cc(S(=O)(=O)[O-])ccc5F)c5ccc2[nH]5)C=C4)C=C3)cc1)C(C)C
REMARK SMILES IDX 21 1 20 2 19 3 17 4 18 5 16 7 15 8 13 9 14 10 5 12 6 13 4 14
REMARK SMILES IDX 1 15 2 16 3 17 7 19 8 20 12 21 9 22 11 23 10 24 89 25 90 26
REMARK SMILES IDX 91 27 22 28 23 29 24 30 25 32 26 33 27 34 88 35 28 36 87 37
REMARK SMILES IDX 29 38 30 39 31 40 81 41 32 42 86 43 80 44 82 45 33 46 85 47
REMARK SMILES IDX 79 48 78 49 34 51 66 52 46 53 65 54 47 55 50 56 64 57 83 58
REMARK SMILES IDX 48 59 49 60 63 62 84 63 51 64 35 65 36 66 44 67 37 68 43 69
REMARK SMILES IDX 45 70 42 71 38 72 39 73 40 74 41 75 67 76 68 77 76 78 69 79
REMARK SMILES IDX 75 80 77 81 74 82 70 83 71 84 72 85 73 86 52 87 53 88 61 89
REMARK SMILES IDX 54 90 60 91 62 92 59 93 55 94 56 95 57 96 58 97
REMARK H PARENT 19 6 15 11 4 18 23 31 82 50 50 61
REMARK Flexibility Score: inf
ROOT
ATOM      1  C   UNL A   1      35.668  22.620  23.939  1.00  0.00     0.042 C 
ENDROOT
BRANCH   1   2
ATOM      2  C   UNL A   1      34.930  23.948  23.737  1.00  0.00     0.117 C 
BRANCH   2   3
ATOM      3  N   UNL A   1      33.588  23.727  23.218  1.00  0.00    -0.354 N 
ATOM      4  C   UNL A   1      32.432  23.290  23.792  1.00  0.00     0.242 C 
ATOM      5  O   UNL A   1      31.502  23.053  23.014  1.00  0.00    -0.273 OA
ATOM      6  H   UNL A   1      33.498  23.934  22.260  1.00  0.00     0.163 HD
BRANCH   4   7
ATOM      7  C   UNL A   1      32.250  23.182  25.337  1.00  0.00     0.174 C 
BRANCH   7   8
ATOM      8  N   UNL A   1      30.975  23.925  25.629  1.00  0.00    -0.339 N 
ATOM      9  C   UNL A   1      30.586  25.161  26.080  1.00  0.00     0.268 C 
ATOM     10  O   UNL A   1      29.503  25.168  26.672  1.00  0.00    -0.268 OA
ATOM     11  H   UNL A   1      30.192  23.360  25.442  1.00  0.00     0.164 HD
BRANCH   9  12
ATOM     12  C   UNL A   1      31.309  26.464  25.800  1.00  0.00     0.107 C 
ATOM     13  C   UNL A   1      31.485  27.326  26.823  1.00  0.00     0.040 C 
BRANCH  12  14
ATOM     14  N   UNL A   1      31.719  26.852  24.530  1.00  0.00    -0.322 N 
ATOM     15  C   UNL A   1      29.755  27.994  23.426  1.00  0.00     0.114 C 
ATOM     16  C   UNL A   1      31.165  27.490  23.462  1.00  0.00     0.221 C 
ATOM     17  O   UNL A   1      31.902  27.701  22.489  1.00  0.00    -0.275 OA
ATOM     18  H   UNL A   1      32.654  26.599  24.358  1.00  0.00     0.170 HD
ENDBRANCH  12  14
BRANCH  13  19
ATOM     19  C   UNL A   1      32.343  28.531  26.869  1.00  0.00    -0.023 A 
ATOM     20  C   UNL A   1      33.726  28.386  27.087  1.00  0.00     0.008 A 
ATOM     21  C   UNL A   1      31.816  29.819  26.792  1.00  0.00     0.008 A 
ATOM     22  C   UNL A   1      34.548  29.491  27.310  1.00  0.00     0.001 A 
ATOM     23  C   UNL A   1      32.646  30.930  26.998  1.00  0.00     0.001 A 
ATOM     24  C   UNL A   1      34.003  30.766  27.280  1.00  0.00     0.000 A 
ENDBRANCH  13  19
ENDBRANCH   9  12
ENDBRANCH   7   8
BRANCH   7  25
ATOM     25  C   UNL A   1      32.381  21.811  26.013  1.00  0.00     0.015 C 
ATOM     26  C   UNL A   1      32.772  20.623  25.147  1.00  0.00     0.010 C 
ATOM     27  C   UNL A   1      33.253  21.865  27.265  1.00  0.00     0.010 C 
ENDBRANCH   7  25
ENDBRANCH   4   7
ENDBRANCH   2   3
ENDBRANCH   1   2
BRANCH   1  28
ATOM     28  C   UNL A   1      36.206  22.419  25.351  1.00  0.00     0.118 C 
BRANCH  28  29
ATOM     29  N   UNL A   1      37.043  21.236  25.445  1.00  0.00    -0.352 N 
ATOM     30  C   UNL A   1      38.391  21.150  25.716  1.00  0.00     0.251 C 
ATOM     31  H   UNL A   1      36.584  20.378  25.295  1.00  0.00     0.163 HD
ATOM     32  O   UNL A   1      38.987  20.106  25.482  1.00  0.00    -0.269 OA
BRANCH  30  33
ATOM     33  C   UNL A   1      39.116  22.324  26.261  1.00  0.00     0.039 A 
ATOM     34  C   UNL A   1      40.202  22.123  27.116  1.00  0.00     0.014 A 
ATOM     35  C   UNL A   1      38.719  23.623  25.935  1.00  0.00     0.014 A 
ATOM     36  C   UNL A   1      40.929  23.221  27.589  1.00  0.00     0.010 A 
ATOM     37  C   UNL A   1      39.498  24.707  26.328  1.00  0.00     0.010 A 
ATOM     38  C   UNL A   1      40.607  24.521  27.169  1.00  0.00    -0.014 A 
BRANCH  38  39
ATOM     39  C   UNL A   1      41.382  25.712  27.615  1.00  0.00     0.031 A 
ATOM     40  C   UNL A   1      40.704  26.774  28.437  1.00  0.00     0.074 A 
ATOM     41  C   UNL A   1      42.653  25.890  27.202  1.00  0.00     0.049 A 
ATOM     42  N   UNL A   1      41.134  27.961  28.785  1.00  0.00    -0.248 NA
ATOM     43  C   UNL A   1      39.339  26.472  28.893  1.00  0.00     0.031 C 
ATOM     44  C   UNL A   1      43.412  24.951  26.375  1.00  0.00     0.029 A 
ATOM     45  N   UNL A   1      43.522  26.936  27.399  1.00  0.00    -0.354 N 
ATOM     46  C   UNL A   1      40.082  28.557  29.473  1.00  0.00     0.074 A 
ATOM     47  C   UNL A   1      38.975  27.625  29.429  1.00  0.00     0.031 C 
ATOM     48  C   UNL A   1      44.630  25.461  26.138  1.00  0.00     0.029 A 
ATOM     49  C   UNL A   1      44.722  26.788  26.742  1.00  0.00     0.049 A 
ATOM     50  H   UNL A   1      43.306  27.719  27.956  1.00  0.00     0.167 HD
ATOM     51  C   UNL A   1      40.049  29.760  30.101  1.00  0.00     0.034 A 
ATOM     52  C   UNL A   1      45.764  27.633  26.609  1.00  0.00     0.034 A 
ATOM     53  C   UNL A   1      41.169  30.669  30.137  1.00  0.00     0.049 A 
ATOM     54  C   UNL A   1      45.703  28.980  27.281  1.00  0.00     0.074 A 
ATOM     55  C   UNL A   1      41.273  31.884  30.793  1.00  0.00     0.029 A 
ATOM     56  N   UNL A   1      42.376  30.473  29.476  1.00  0.00    -0.354 N 
ATOM     57  N   UNL A   1      44.721  29.513  27.972  1.00  0.00    -0.248 NA
ATOM     58  C   UNL A   1      46.892  29.836  27.168  1.00  0.00     0.031 C 
ATOM     59  C   UNL A   1      42.503  32.458  30.459  1.00  0.00     0.029 A 
ATOM     60  C   UNL A   1      43.211  31.562  29.674  1.00  0.00     0.049 A 
ATOM     61  H   UNL A   1      42.604  29.678  28.943  1.00  0.00     0.167 HD
ATOM     62  C   UNL A   1      45.186  30.755  28.400  1.00  0.00     0.074 A 
ATOM     63  C   UNL A   1      46.536  30.888  27.893  1.00  0.00     0.031 C 
ATOM     64  C   UNL A   1      44.556  31.690  29.156  1.00  0.00     0.034 A 
BRANCH  51  65
ATOM     65  C   UNL A   1      38.746  30.164  30.756  1.00  0.00     0.023 A 
ATOM     66  C   UNL A   1      37.822  31.005  30.109  1.00  0.00     0.031 A 
ATOM     67  C   UNL A   1      38.451  29.759  32.069  1.00  0.00     0.131 A 
ATOM     68  C   UNL A   1      36.716  31.506  30.813  1.00  0.00     0.055 A 
ATOM     69  C   UNL A   1      37.292  30.176  32.728  1.00  0.00     0.041 A 
ATOM     70  F   UNL A   1      39.299  28.973  32.750  1.00  0.00    -0.206 F 
ATOM     71  C   UNL A   1      36.429  31.075  32.108  1.00  0.00     0.022 A 
BRANCH  68  72
ATOM     72  S   UNL A   1      35.785  32.882  30.084  1.00  0.00     0.124 S 
ATOM     73  O   UNL A   1      36.258  32.857  28.701  1.00  0.00    -0.237 OA
ATOM     74  O   UNL A   1      34.401  32.472  30.292  1.00  0.00    -0.237 OA
ATOM     75  O   UNL A   1      36.220  34.040  30.861  1.00  0.00    -0.744 OA
ENDBRANCH  68  72
ENDBRANCH  51  65
BRANCH  52  76
ATOM     76  C   UNL A   1      46.935  27.240  25.773  1.00  0.00     0.023 A 
ATOM     77  C   UNL A   1      47.067  27.673  24.445  1.00  0.00     0.031 A 
ATOM     78  C   UNL A   1      47.950  26.421  26.303  1.00  0.00     0.131 A 
ATOM     79  C   UNL A   1      48.173  27.266  23.683  1.00  0.00     0.055 A 
ATOM     80  C   UNL A   1      49.073  26.059  25.558  1.00  0.00     0.041 A 
ATOM     81  F   UNL A   1      47.877  25.983  27.571  1.00  0.00    -0.206 F 
ATOM     82  C   UNL A   1      49.186  26.475  24.235  1.00  0.00     0.022 A 
BRANCH  79  83
ATOM     83  S   UNL A   1      48.250  27.736  21.933  1.00  0.00     0.124 S 
ATOM     84  O   UNL A   1      46.940  28.348  21.733  1.00  0.00    -0.237 OA
ATOM     85  O   UNL A   1      49.392  28.644  21.913  1.00  0.00    -0.237 OA
ATOM     86  O   UNL A   1      48.457  26.463  21.247  1.00  0.00    -0.744 OA
ENDBRANCH  79  83
ENDBRANCH  52  76
BRANCH  64  87
ATOM     87  C   UNL A   1      45.340  32.924  29.535  1.00  0.00     0.023 A 
ATOM     88  C   UNL A   1      45.271  34.115  28.791  1.00  0.00     0.031 A 
ATOM     89  C   UNL A   1      46.148  32.911  30.687  1.00  0.00     0.131 A 
ATOM     90  C   UNL A   1      46.025  35.231  29.188  1.00  0.00     0.055 A 
ATOM     91  C   UNL A   1      46.847  34.041  31.111  1.00  0.00     0.041 A 
ATOM     92  F   UNL A   1      46.256  31.799  31.433  1.00  0.00    -0.206 F 
ATOM     93  C   UNL A   1      46.795  35.207  30.355  1.00  0.00     0.022 A 
BRANCH  90  94
ATOM     94  S   UNL A   1      46.046  36.697  28.121  1.00  0.00     0.124 S 
ATOM     95  O   UNL A   1      44.879  37.434  28.597  1.00  0.00    -0.237 OA
ATOM     96  O   UNL A   1      47.344  37.290  28.427  1.00  0.00    -0.237 OA
ATOM     97  O   UNL A   1      45.922  36.143  26.774  1.00  0.00    -0.744 OA
ENDBRANCH  90  94
ENDBRANCH  64  87
ENDBRANCH  38  39
ENDBRANCH  30  33
ENDBRANCH  28  29
ENDBRANCH   1  28
TORSDOF 18
ENDMDL
