MODEL 1
REMARK VINA RESULT:     -13.2      0.000      0.000
REMARK SMILES O=C(NCCCNC(=O)[C@@H]1[C@@H](C(=O)Nc2nc(-c3ccc(F)cc3)cs2)[C@H]2C=C[C@@H]1O2)c1ccc(-c2c3nc(c(-c4cc(S(=O)(=O)[O-])ccc4F)c4ccc([nH]4)c(-c4cc(S(=O)(=O)[O-])ccc4F)c4nc(c(-c5cc(S(=O)(=O)[O-])ccc5F)c5ccc2[nH]5)C=C4)C=C3)cc1
REMARK SMILES IDX 5 1 4 2 3 3 1 4 2 5 32 7 33 8 94 9 34 10 93 11 35 12 36 13
REMARK SMILES IDX 37 14 87 15 38 16 92 17 86 18 88 19 39 20 91 21 85 22 84 23
REMARK SMILES IDX 40 25 72 26 52 27 71 28 53 29 56 30 70 31 89 32 54 33 55 34
REMARK SMILES IDX 69 36 90 37 57 38 41 39 42 40 50 41 43 42 49 43 51 44 48 45
REMARK SMILES IDX 44 46 45 47 46 48 47 49 73 50 74 51 82 52 75 53 81 54 83 55
REMARK SMILES IDX 80 56 76 57 77 58 78 59 79 60 58 61 59 62 67 63 60 64 66 65
REMARK SMILES IDX 68 66 65 67 61 68 62 69 63 70 64 71 6 72 7 73 8 74 9 76
REMARK SMILES IDX 10 77 11 78 30 79 27 80 29 81 31 82 28 83 12 84 13 85 14 86
REMARK SMILES IDX 15 88 16 89 26 90 17 91 25 92 18 93 19 94 24 95 20 96 23 97
REMARK SMILES IDX 21 98 22 99
REMARK H PARENT 3 6 88 24 56 35 7 75 14 87
REMARK Flexibility Score: inf
ROOT
ATOM      1  C   UNL A   1      31.590  31.988  26.528  1.00  0.00     0.042 C 
ENDROOT
BRANCH   1   2
ATOM      2  C   UNL A   1      32.740  32.710  27.216  1.00  0.00     0.118 C 
BRANCH   2   3
ATOM      3  N   UNL A   1      32.420  34.061  27.653  1.00  0.00    -0.352 N 
ATOM      4  O   UNL A   1      32.518  35.958  28.853  1.00  0.00    -0.269 OA
ATOM      5  C   UNL A   1      33.010  34.859  28.605  1.00  0.00     0.251 C 
ATOM      6  H   UNL A   1      31.654  34.470  27.192  1.00  0.00     0.163 HD
BRANCH   5   7
ATOM      7  C   UNL A   1      34.194  34.395  29.365  1.00  0.00     0.039 A 
ATOM      8  C   UNL A   1      35.490  34.546  28.872  1.00  0.00     0.014 A 
ATOM      9  C   UNL A   1      33.996  33.794  30.613  1.00  0.00     0.014 A 
ATOM     10  C   UNL A   1      36.558  33.936  29.527  1.00  0.00     0.010 A 
ATOM     11  C   UNL A   1      35.083  33.265  31.318  1.00  0.00     0.010 A 
ATOM     12  C   UNL A   1      36.369  33.285  30.757  1.00  0.00    -0.014 A 
BRANCH  12  13
ATOM     13  C   UNL A   1      37.521  32.638  31.443  1.00  0.00     0.031 A 
ATOM     14  C   UNL A   1      38.265  31.500  30.789  1.00  0.00     0.074 A 
ATOM     15  C   UNL A   1      37.924  33.098  32.645  1.00  0.00     0.049 A 
ATOM     16  N   UNL A   1      39.262  30.792  31.256  1.00  0.00    -0.248 NA
ATOM     17  C   UNL A   1      37.834  31.102  29.440  1.00  0.00     0.031 C 
ATOM     18  C   UNL A   1      37.296  34.200  33.379  1.00  0.00     0.029 A 
ATOM     19  N   UNL A   1      38.964  32.714  33.453  1.00  0.00    -0.354 N 
ATOM     20  C   UNL A   1      39.560  29.852  30.275  1.00  0.00     0.074 A 
ATOM     21  C   UNL A   1      38.626  30.068  29.191  1.00  0.00     0.031 C 
ATOM     22  C   UNL A   1      37.993  34.435  34.501  1.00  0.00     0.029 A 
ATOM     23  C   UNL A   1      39.071  33.458  34.606  1.00  0.00     0.049 A 
ATOM     24  H   UNL A   1      39.576  31.976  33.230  1.00  0.00     0.167 HD
ATOM     25  C   UNL A   1      40.529  28.904  30.275  1.00  0.00     0.034 A 
ATOM     26  C   UNL A   1      39.920  33.353  35.646  1.00  0.00     0.034 A 
ATOM     27  C   UNL A   1      41.479  28.715  31.340  1.00  0.00     0.049 A 
ATOM     28  C   UNL A   1      40.956  32.263  35.639  1.00  0.00     0.074 A 
ATOM     29  C   UNL A   1      42.523  27.808  31.410  1.00  0.00     0.029 A 
ATOM     30  N   UNL A   1      41.507  29.445  32.519  1.00  0.00    -0.354 N 
ATOM     31  N   UNL A   1      41.198  31.366  34.713  1.00  0.00    -0.248 NA
ATOM     32  C   UNL A   1      41.818  32.157  36.824  1.00  0.00     0.031 C 
ATOM     33  C   UNL A   1      43.150  27.956  32.651  1.00  0.00     0.029 A 
ATOM     34  C   UNL A   1      42.532  28.990  33.333  1.00  0.00     0.049 A 
ATOM     35  H   UNL A   1      40.890  30.178  32.744  1.00  0.00     0.167 HD
ATOM     36  C   UNL A   1      42.241  30.590  35.204  1.00  0.00     0.074 A 
ATOM     37  C   UNL A   1      42.594  31.132  36.500  1.00  0.00     0.031 C 
ATOM     38  C   UNL A   1      42.852  29.523  34.632  1.00  0.00     0.034 A 
BRANCH  25  39
ATOM     39  C   UNL A   1      40.600  27.970  29.097  1.00  0.00     0.023 A 
ATOM     40  C   UNL A   1      41.495  28.186  28.038  1.00  0.00     0.031 A 
ATOM     41  C   UNL A   1      39.793  26.818  29.063  1.00  0.00     0.131 A 
ATOM     42  C   UNL A   1      41.542  27.277  26.970  1.00  0.00     0.055 A 
ATOM     43  C   UNL A   1      39.883  25.889  28.024  1.00  0.00     0.041 A 
ATOM     44  F   UNL A   1      38.913  26.573  30.046  1.00  0.00    -0.206 F 
ATOM     45  C   UNL A   1      40.760  26.119  26.967  1.00  0.00     0.022 A 
BRANCH  42  46
ATOM     46  S   UNL A   1      42.612  27.649  25.554  1.00  0.00     0.124 S 
ATOM     47  O   UNL A   1      42.006  28.875  25.041  1.00  0.00    -0.237 OA
ATOM     48  O   UNL A   1      43.924  27.800  26.174  1.00  0.00    -0.237 OA
ATOM     49  O   UNL A   1      42.463  26.477  24.693  1.00  0.00    -0.744 OA
ENDBRANCH  42  46
ENDBRANCH  25  39
BRANCH  26  50
ATOM     50  C   UNL A   1      39.792  34.274  36.807  1.00  0.00     0.023 A 
ATOM     51  C   UNL A   1      39.260  33.832  38.026  1.00  0.00     0.031 A 
ATOM     52  C   UNL A   1      40.201  35.616  36.707  1.00  0.00     0.131 A 
ATOM     53  C   UNL A   1      39.131  34.732  39.096  1.00  0.00     0.055 A 
ATOM     54  C   UNL A   1      40.107  36.496  37.784  1.00  0.00     0.041 A 
ATOM     55  F   UNL A   1      40.722  36.082  35.560  1.00  0.00    -0.206 F 
ATOM     56  C   UNL A   1      39.563  36.056  38.987  1.00  0.00     0.022 A 
BRANCH  53  57
ATOM     57  S   UNL A   1      38.356  34.154  40.631  1.00  0.00     0.124 S 
ATOM     58  O   UNL A   1      39.426  33.358  41.222  1.00  0.00    -0.237 OA
ATOM     59  O   UNL A   1      38.042  35.409  41.305  1.00  0.00    -0.237 OA
ATOM     60  O   UNL A   1      37.198  33.396  40.162  1.00  0.00    -0.744 OA
ENDBRANCH  53  57
ENDBRANCH  26  50
BRANCH  38  61
ATOM     61  C   UNL A   1      43.970  28.878  35.402  1.00  0.00     0.023 A 
ATOM     62  C   UNL A   1      43.728  27.793  36.259  1.00  0.00     0.031 A 
ATOM     63  C   UNL A   1      45.291  29.330  35.248  1.00  0.00     0.131 A 
ATOM     64  C   UNL A   1      44.796  27.207  36.954  1.00  0.00     0.055 A 
ATOM     65  C   UNL A   1      46.354  28.719  35.912  1.00  0.00     0.041 A 
ATOM     66  F   UNL A   1      45.568  30.363  34.436  1.00  0.00    -0.206 F 
ATOM     67  C   UNL A   1      46.108  27.652  36.774  1.00  0.00     0.022 A 
BRANCH  64  68
ATOM     68  S   UNL A   1      44.448  25.856  38.114  1.00  0.00     0.124 S 
ATOM     69  O   UNL A   1      44.061  26.585  39.317  1.00  0.00    -0.237 OA
ATOM     70  O   UNL A   1      43.380  25.125  37.440  1.00  0.00    -0.237 OA
ATOM     71  O   UNL A   1      45.722  25.145  38.202  1.00  0.00    -0.744 OA
ENDBRANCH  64  68
ENDBRANCH  38  61
ENDBRANCH  12  13
ENDBRANCH   5   7
ENDBRANCH   2   3
ENDBRANCH   1   2
BRANCH   1  72
ATOM     72  C   UNL A   1      31.757  30.480  26.436  1.00  0.00     0.117 C 
BRANCH  72  73
ATOM     73  N   UNL A   1      32.575  30.056  25.310  1.00  0.00    -0.356 N 
ATOM     74  C   UNL A   1      32.350  29.071  24.384  1.00  0.00     0.227 C 
ATOM     75  H   UNL A   1      33.418  30.551  25.197  1.00  0.00     0.163 HD
ATOM     76  O   UNL A   1      33.101  29.019  23.410  1.00  0.00    -0.275 OA
BRANCH  74  77
ATOM     77  C   UNL A   1      31.170  28.134  24.590  1.00  0.00     0.127 C 
ATOM     78  C   UNL A   1      31.567  26.646  24.834  1.00  0.00     0.127 C 
ATOM     79  C   UNL A   1      30.458  28.048  23.223  1.00  0.00     0.155 C 
ATOM     80  C   UNL A   1      30.895  25.967  23.615  1.00  0.00     0.155 C 
ATOM     81  C   UNL A   1      29.126  27.389  23.390  1.00  0.00     0.004 C 
ATOM     82  O   UNL A   1      31.185  26.955  22.595  1.00  0.00    -0.365 OA
ATOM     83  C   UNL A   1      29.393  26.099  23.617  1.00  0.00     0.004 C 
BRANCH  78  84
ATOM     84  C   UNL A   1      31.118  25.956  26.119  1.00  0.00     0.233 C 
ATOM     85  O   UNL A   1      30.259  26.456  26.858  1.00  0.00    -0.274 OA
ATOM     86  N   UNL A   1      31.484  24.691  26.440  1.00  0.00    -0.302 N 
ATOM     87  H   UNL A   1      30.970  24.272  27.168  1.00  0.00     0.172 HD
BRANCH  86  88
ATOM     88  C   UNL A   1      32.458  23.922  25.895  1.00  0.00     0.189 A 
ATOM     89  N   UNL A   1      33.749  23.976  26.062  1.00  0.00    -0.220 NA
ATOM     90  S   UNL A   1      31.858  22.670  24.899  1.00  0.00    -0.105 S 
ATOM     91  C   UNL A   1      34.333  22.949  25.343  1.00  0.00     0.084 A 
ATOM     92  C   UNL A   1      33.468  22.168  24.601  1.00  0.00     0.097 A 
BRANCH  91  93
ATOM     93  C   UNL A   1      35.750  22.668  25.411  1.00  0.00     0.001 A 
ATOM     94  C   UNL A   1      36.614  23.626  25.961  1.00  0.00     0.013 A 
ATOM     95  C   UNL A   1      36.256  21.440  24.969  1.00  0.00     0.013 A 
ATOM     96  C   UNL A   1      37.975  23.346  26.087  1.00  0.00     0.040 A 
ATOM     97  C   UNL A   1      37.620  21.167  25.090  1.00  0.00     0.040 A 
ATOM     98  C   UNL A   1      38.465  22.121  25.649  1.00  0.00     0.123 A 
ATOM     99  F   UNL A   1      39.776  21.866  25.745  1.00  0.00    -0.207 F 
ENDBRANCH  91  93
ENDBRANCH  86  88
ENDBRANCH  78  84
ENDBRANCH  74  77
ENDBRANCH  72  73
ENDBRANCH   1  72
TORSDOF 16
ENDMDL
MODEL 2
REMARK VINA RESULT:     -13.2      5.578      8.555
REMARK SMILES O=C(NCCCNC(=O)[C@@H]1[C@@H](C(=O)Nc2nc(-c3ccc(F)cc3)cs2)[C@H]2C=C[C@@H]1O2)c1ccc(-c2c3nc(c(-c4cc(S(=O)(=O)[O-])ccc4F)c4ccc([nH]4)c(-c4cc(S(=O)(=O)[O-])ccc4F)c4nc(c(-c5cc(S(=O)(=O)[O-])ccc5F)c5ccc2[nH]5)C=C4)C=C3)cc1
REMARK SMILES IDX 5 1 4 2 3 3 1 4 2 5 32 7 33 8 94 9 34 10 93 11 35 12 36 13
REMARK SMILES IDX 37 14 87 15 38 16 92 17 86 18 88 19 39 20 91 21 85 22 84 23
REMARK SMILES IDX 40 25 72 26 52 27 71 28 53 29 56 30 70 31 89 32 54 33 55 34
REMARK SMILES IDX 69 36 90 37 57 38 41 39 42 40 50 41 43 42 49 43 51 44 48 45
REMARK SMILES IDX 44 46 45 47 46 48 47 49 73 50 74 51 82 52 75 53 81 54 83 55
REMARK SMILES IDX 80 56 76 57 77 58 78 59 79 60 58 61 59 62 67 63 60 64 66 65
REMARK SMILES IDX 68 66 65 67 61 68 62 69 63 70 64 71 6 72 7 73 8 74 9 76
REMARK SMILES IDX 10 77 11 78 30 79 27 80 29 81 31 82 28 83 12 84 13 85 14 86
REMARK SMILES IDX 15 88 16 89 26 90 17 91 25 92 18 93 19 94 24 95 20 96 23 97
REMARK SMILES IDX 21 98 22 99
REMARK H PARENT 3 6 88 24 56 35 7 75 14 87
REMARK Flexibility Score: inf
ROOT
ATOM      1  C   UNL A   1      36.708  22.327  24.218  1.00  0.00     0.042 C 
ENDROOT
BRANCH   1   2
ATOM      2  C   UNL A   1      36.889  21.821  25.642  1.00  0.00     0.118 C 
BRANCH   2   3
ATOM      3  N   UNL A   1      37.993  20.887  25.807  1.00  0.00    -0.352 N 
ATOM      4  O   UNL A   1      40.071  20.146  26.233  1.00  0.00    -0.269 OA
ATOM      5  C   UNL A   1      39.283  21.090  26.238  1.00  0.00     0.251 C 
ATOM      6  H   UNL A   1      37.780  19.955  25.571  1.00  0.00     0.163 HD
BRANCH   5   7
ATOM      7  C   UNL A   1      39.747  22.433  26.658  1.00  0.00     0.039 A 
ATOM      8  C   UNL A   1      39.201  23.600  26.124  1.00  0.00     0.014 A 
ATOM      9  C   UNL A   1      40.759  22.522  27.620  1.00  0.00     0.014 A 
ATOM     10  C   UNL A   1      39.786  24.833  26.405  1.00  0.00     0.010 A 
ATOM     11  C   UNL A   1      41.283  23.770  27.975  1.00  0.00     0.010 A 
ATOM     12  C   UNL A   1      40.836  24.935  27.332  1.00  0.00    -0.014 A 
BRANCH  12  13
ATOM     13  C   UNL A   1      41.451  26.259  27.620  1.00  0.00     0.031 A 
ATOM     14  C   UNL A   1      42.816  26.608  27.080  1.00  0.00     0.074 A 
ATOM     15  C   UNL A   1      40.763  27.169  28.340  1.00  0.00     0.049 A 
ATOM     16  N   UNL A   1      43.521  27.696  27.266  1.00  0.00    -0.248 NA
ATOM     17  C   UNL A   1      43.477  25.608  26.228  1.00  0.00     0.031 C 
ATOM     18  C   UNL A   1      39.429  26.960  28.909  1.00  0.00     0.029 A 
ATOM     19  N   UNL A   1      41.078  28.455  28.703  1.00  0.00    -0.354 N 
ATOM     20  C   UNL A   1      44.714  27.502  26.578  1.00  0.00     0.074 A 
ATOM     21  C   UNL A   1      44.647  26.184  25.984  1.00  0.00     0.031 C 
ATOM     22  C   UNL A   1      39.021  28.092  29.503  1.00  0.00     0.029 A 
ATOM     23  C   UNL A   1      40.088  29.083  29.423  1.00  0.00     0.049 A 
ATOM     24  H   UNL A   1      41.931  28.887  28.470  1.00  0.00     0.167 HD
ATOM     25  C   UNL A   1      45.765  28.349  26.446  1.00  0.00     0.034 A 
ATOM     26  C   UNL A   1      40.049  30.307  29.982  1.00  0.00     0.034 A 
ATOM     27  C   UNL A   1      45.813  29.674  27.009  1.00  0.00     0.049 A 
ATOM     28  C   UNL A   1      41.246  31.209  29.858  1.00  0.00     0.074 A 
ATOM     29  C   UNL A   1      46.818  30.620  26.893  1.00  0.00     0.029 A 
ATOM     30  N   UNL A   1      44.819  30.243  27.789  1.00  0.00    -0.354 N 
ATOM     31  N   UNL A   1      42.376  30.991  29.228  1.00  0.00    -0.248 NA
ATOM     32  C   UNL A   1      41.172  32.510  30.536  1.00  0.00     0.031 C 
ATOM     33  C   UNL A   1      46.452  31.742  27.644  1.00  0.00     0.029 A 
ATOM     34  C   UNL A   1      45.197  31.516  28.183  1.00  0.00     0.049 A 
ATOM     35  H   UNL A   1      43.968  29.807  28.027  1.00  0.00     0.167 HD
ATOM     36  C   UNL A   1      43.147  32.129  29.434  1.00  0.00     0.074 A 
ATOM     37  C   UNL A   1      42.349  33.038  30.232  1.00  0.00     0.031 C 
ATOM     38  C   UNL A   1      44.403  32.397  29.001  1.00  0.00     0.034 A 
BRANCH  25  39
ATOM     39  C   UNL A   1      46.969  27.864  25.685  1.00  0.00     0.023 A 
ATOM     40  C   UNL A   1      47.093  28.059  24.300  1.00  0.00     0.031 A 
ATOM     41  C   UNL A   1      48.031  27.244  26.368  1.00  0.00     0.131 A 
ATOM     42  C   UNL A   1      48.244  27.610  23.635  1.00  0.00     0.055 A 
ATOM     43  C   UNL A   1      49.196  26.847  25.709  1.00  0.00     0.041 A 
ATOM     44  F   UNL A   1      47.954  27.024  27.690  1.00  0.00    -0.206 F 
ATOM     45  C   UNL A   1      49.305  27.027  24.333  1.00  0.00     0.022 A 
BRANCH  42  46
ATOM     46  S   UNL A   1      48.321  27.757  21.829  1.00  0.00     0.124 S 
ATOM     47  O   UNL A   1      46.969  28.208  21.513  1.00  0.00    -0.237 OA
ATOM     48  O   UNL A   1      49.381  28.740  21.633  1.00  0.00    -0.237 OA
ATOM     49  O   UNL A   1      48.642  26.401  21.388  1.00  0.00    -0.744 OA
ENDBRANCH  42  46
ENDBRANCH  25  39
BRANCH  26  50
ATOM     50  C   UNL A   1      38.852  30.733  30.757  1.00  0.00     0.023 A 
ATOM     51  C   UNL A   1      37.757  31.337  30.123  1.00  0.00     0.031 A 
ATOM     52  C   UNL A   1      38.793  30.541  32.149  1.00  0.00     0.131 A 
ATOM     53  C   UNL A   1      36.652  31.748  30.886  1.00  0.00     0.055 A 
ATOM     54  C   UNL A   1      37.677  30.915  32.896  1.00  0.00     0.041 A 
ATOM     55  F   UNL A   1      39.816  29.961  32.797  1.00  0.00    -0.206 F 
ATOM     56  C   UNL A   1      36.600  31.530  32.265  1.00  0.00     0.022 A 
BRANCH  53  57
ATOM     57  S   UNL A   1      35.290  32.608  30.052  1.00  0.00     0.124 S 
ATOM     58  O   UNL A   1      34.816  31.586  29.126  1.00  0.00    -0.237 OA
ATOM     59  O   UNL A   1      34.403  32.927  31.165  1.00  0.00    -0.237 OA
ATOM     60  O   UNL A   1      35.944  33.759  29.432  1.00  0.00    -0.744 OA
ENDBRANCH  53  57
ENDBRANCH  26  50
BRANCH  38  61
ATOM     61  C   UNL A   1      44.989  33.729  29.375  1.00  0.00     0.023 A 
ATOM     62  C   UNL A   1      44.827  34.851  28.546  1.00  0.00     0.031 A 
ATOM     63  C   UNL A   1      45.683  33.884  30.586  1.00  0.00     0.131 A 
ATOM     64  C   UNL A   1      45.378  36.082  28.931  1.00  0.00     0.055 A 
ATOM     65  C   UNL A   1      46.195  35.120  30.982  1.00  0.00     0.041 A 
ATOM     66  F   UNL A   1      45.858  32.839  31.411  1.00  0.00    -0.206 F 
ATOM     67  C   UNL A   1      46.046  36.228  30.150  1.00  0.00     0.022 A 
BRANCH  64  68
ATOM     68  S   UNL A   1      45.222  37.499  27.808  1.00  0.00     0.124 S 
ATOM     69  O   UNL A   1      45.809  38.575  28.600  1.00  0.00    -0.237 OA
ATOM     70  O   UNL A   1      45.992  37.070  26.645  1.00  0.00    -0.237 OA
ATOM     71  O   UNL A   1      43.781  37.604  27.589  1.00  0.00    -0.744 OA
ENDBRANCH  64  68
ENDBRANCH  38  61
ENDBRANCH  12  13
ENDBRANCH   5   7
ENDBRANCH   2   3
ENDBRANCH   1   2
BRANCH   1  72
ATOM     72  C   UNL A   1      35.528  23.264  24.027  1.00  0.00     0.117 C 
BRANCH  72  73
ATOM     73  N   UNL A   1      34.679  22.905  22.902  1.00  0.00    -0.356 N 
ATOM     74  C   UNL A   1      33.603  23.566  22.368  1.00  0.00     0.227 C 
ATOM     75  H   UNL A   1      34.912  22.059  22.456  1.00  0.00     0.163 HD
ATOM     76  O   UNL A   1      33.155  23.159  21.296  1.00  0.00    -0.275 OA
BRANCH  74  77
ATOM     77  C   UNL A   1      33.057  24.780  23.104  1.00  0.00     0.127 C 
ATOM     78  C   UNL A   1      31.527  25.011  22.912  1.00  0.00     0.127 C 
ATOM     79  C   UNL A   1      33.651  26.010  22.385  1.00  0.00     0.155 C 
ATOM     80  C   UNL A   1      31.531  26.400  22.226  1.00  0.00     0.155 C 
ATOM     81  C   UNL A   1      33.412  27.237  23.207  1.00  0.00     0.004 C 
ATOM     82  O   UNL A   1      32.665  26.230  21.339  1.00  0.00    -0.365 OA
ATOM     83  C   UNL A   1      32.104  27.489  23.096  1.00  0.00     0.004 C 
BRANCH  78  84
ATOM     84  C   UNL A   1      30.618  25.047  24.138  1.00  0.00     0.233 C 
ATOM     85  O   UNL A   1      29.778  25.943  24.296  1.00  0.00    -0.274 OA
ATOM     86  N   UNL A   1      30.543  24.027  25.027  1.00  0.00    -0.302 N 
ATOM     87  H   UNL A   1      29.779  24.060  25.647  1.00  0.00     0.172 HD
BRANCH  86  88
ATOM     88  C   UNL A   1      31.373  22.966  25.178  1.00  0.00     0.189 A 
ATOM     89  N   UNL A   1      31.446  21.865  24.485  1.00  0.00    -0.220 NA
ATOM     90  S   UNL A   1      32.517  23.171  26.429  1.00  0.00    -0.105 S 
ATOM     91  C   UNL A   1      32.490  21.100  24.976  1.00  0.00     0.084 A 
ATOM     92  C   UNL A   1      33.153  21.621  26.071  1.00  0.00     0.097 A 
BRANCH  91  93
ATOM     93  C   UNL A   1      32.904  19.865  24.348  1.00  0.00     0.001 A 
ATOM     94  C   UNL A   1      34.052  19.208  24.816  1.00  0.00     0.013 A 
ATOM     95  C   UNL A   1      32.150  19.305  23.310  1.00  0.00     0.013 A 
ATOM     96  C   UNL A   1      34.430  17.986  24.260  1.00  0.00     0.040 A 
ATOM     97  C   UNL A   1      32.537  18.086  22.751  1.00  0.00     0.040 A 
ATOM     98  C   UNL A   1      33.671  17.438  23.232  1.00  0.00     0.123 A 
ATOM     99  F   UNL A   1      34.053  16.279  22.679  1.00  0.00    -0.207 F 
ENDBRANCH  91  93
ENDBRANCH  86  88
ENDBRANCH  78  84
ENDBRANCH  74  77
ENDBRANCH  72  73
ENDBRANCH   1  72
TORSDOF 16
ENDMDL
MODEL 3
REMARK VINA RESULT:     -13.2      5.631     10.521
REMARK SMILES O=C(NCCCNC(=O)[C@@H]1[C@@H](C(=O)Nc2nc(-c3ccc(F)cc3)cs2)[C@H]2C=C[C@@H]1O2)c1ccc(-c2c3nc(c(-c4cc(S(=O)(=O)[O-])ccc4F)c4ccc([nH]4)c(-c4cc(S(=O)(=O)[O-])ccc4F)c4nc(c(-c5cc(S(=O)(=O)[O-])ccc5F)c5ccc2[nH]5)C=C4)C=C3)cc1
REMARK SMILES IDX 5 1 4 2 3 3 1 4 2 5 32 7 33 8 94 9 34 10 93 11 35 12 36 13
REMARK SMILES IDX 37 14 87 15 38 16 92 17 86 18 88 19 39 20 91 21 85 22 84 23
REMARK SMILES IDX 40 25 72 26 52 27 71 28 53 29 56 30 70 31 89 32 54 33 55 34
REMARK SMILES IDX 69 36 90 37 57 38 41 39 42 40 50 41 43 42 49 43 51 44 48 45
REMARK SMILES IDX 44 46 45 47 46 48 47 49 73 50 74 51 82 52 75 53 81 54 83 55
REMARK SMILES IDX 80 56 76 57 77 58 78 59 79 60 58 61 59 62 67 63 60 64 66 65
REMARK SMILES IDX 68 66 65 67 61 68 62 69 63 70 64 71 6 72 7 73 8 74 9 76
REMARK SMILES IDX 10 77 11 78 30 79 27 80 29 81 31 82 28 83 12 84 13 85 14 86
REMARK SMILES IDX 15 88 16 89 26 90 17 91 25 92 18 93 19 94 24 95 20 96 23 97
REMARK SMILES IDX 21 98 22 99
REMARK H PARENT 3 6 88 24 56 35 7 75 14 87
REMARK Flexibility Score: inf
ROOT
ATOM      1  C   UNL A   1      36.709  22.294  24.068  1.00  0.00     0.042 C 
ENDROOT
BRANCH   1   2
ATOM      2  C   UNL A   1      36.864  21.807  25.501  1.00  0.00     0.118 C 
BRANCH   2   3
ATOM      3  N   UNL A   1      37.913  20.815  25.684  1.00  0.00    -0.352 N 
ATOM      4  O   UNL A   1      39.936  19.960  26.157  1.00  0.00    -0.269 OA
ATOM      5  C   UNL A   1      39.199  20.944  26.154  1.00  0.00     0.251 C 
ATOM      6  H   UNL A   1      37.659  19.899  25.429  1.00  0.00     0.163 HD
BRANCH   5   7
ATOM      7  C   UNL A   1      39.720  22.255  26.606  1.00  0.00     0.039 A 
ATOM      8  C   UNL A   1      39.126  23.456  26.218  1.00  0.00     0.014 A 
ATOM      9  C   UNL A   1      40.837  22.277  27.449  1.00  0.00     0.014 A 
ATOM     10  C   UNL A   1      39.750  24.666  26.512  1.00  0.00     0.010 A 
ATOM     11  C   UNL A   1      41.409  23.498  27.823  1.00  0.00     0.010 A 
ATOM     12  C   UNL A   1      40.902  24.704  27.316  1.00  0.00    -0.014 A 
BRANCH  12  13
ATOM     13  C   UNL A   1      41.557  26.006  27.619  1.00  0.00     0.031 A 
ATOM     14  C   UNL A   1      40.862  27.037  28.474  1.00  0.00     0.074 A 
ATOM     15  C   UNL A   1      42.799  26.250  27.152  1.00  0.00     0.049 A 
ATOM     16  N   UNL A   1      41.264  28.238  28.804  1.00  0.00    -0.248 NA
ATOM     17  C   UNL A   1      39.547  26.676  29.026  1.00  0.00     0.031 C 
ATOM     18  C   UNL A   1      43.584  25.331  26.324  1.00  0.00     0.029 A 
ATOM     19  N   UNL A   1      43.628  27.331  27.321  1.00  0.00    -0.354 N 
ATOM     20  C   UNL A   1      40.245  28.785  29.578  1.00  0.00     0.074 A 
ATOM     21  C   UNL A   1      39.197  27.790  29.653  1.00  0.00     0.031 C 
ATOM     22  C   UNL A   1      44.795  25.864  26.101  1.00  0.00     0.029 A 
ATOM     23  C   UNL A   1      44.850  27.191  26.705  1.00  0.00     0.049 A 
ATOM     24  H   UNL A   1      43.372  28.131  27.834  1.00  0.00     0.167 HD
ATOM     25  C   UNL A   1      40.193  30.000  30.176  1.00  0.00     0.034 A 
ATOM     26  C   UNL A   1      45.890  28.040  26.610  1.00  0.00     0.034 A 
ATOM     27  C   UNL A   1      41.254  30.973  30.128  1.00  0.00     0.049 A 
ATOM     28  C   UNL A   1      45.787  29.400  27.245  1.00  0.00     0.074 A 
ATOM     29  C   UNL A   1      41.309  32.215  30.738  1.00  0.00     0.029 A 
ATOM     30  N   UNL A   1      42.445  30.818  29.434  1.00  0.00    -0.354 N 
ATOM     31  N   UNL A   1      44.800  29.905  27.946  1.00  0.00    -0.248 NA
ATOM     32  C   UNL A   1      46.927  30.308  27.061  1.00  0.00     0.031 C 
ATOM     33  C   UNL A   1      42.511  32.830  30.374  1.00  0.00     0.029 A 
ATOM     34  C   UNL A   1      43.228  31.951  29.581  1.00  0.00     0.049 A 
ATOM     35  H   UNL A   1      42.696  30.020  28.916  1.00  0.00     0.167 HD
ATOM     36  C   UNL A   1      45.201  31.192  28.286  1.00  0.00     0.074 A 
ATOM     37  C   UNL A   1      46.526  31.380  27.729  1.00  0.00     0.031 C 
ATOM     38  C   UNL A   1      44.533  32.133  28.997  1.00  0.00     0.034 A 
BRANCH  25  39
ATOM     39  C   UNL A   1      38.936  30.367  30.917  1.00  0.00     0.023 A 
ATOM     40  C   UNL A   1      37.887  31.061  30.292  1.00  0.00     0.031 A 
ATOM     41  C   UNL A   1      38.767  29.969  32.255  1.00  0.00     0.131 A 
ATOM     42  C   UNL A   1      36.724  31.363  31.016  1.00  0.00     0.055 A 
ATOM     43  C   UNL A   1      37.586  30.226  32.954  1.00  0.00     0.041 A 
ATOM     44  F   UNL A   1      39.746  29.315  32.900  1.00  0.00    -0.206 F 
ATOM     45  C   UNL A   1      36.557  30.930  32.335  1.00  0.00     0.022 A 
BRANCH  42  46
ATOM     46  S   UNL A   1      35.441  32.371  30.226  1.00  0.00     0.124 S 
ATOM     47  O   UNL A   1      35.134  31.578  29.039  1.00  0.00    -0.237 OA
ATOM     48  O   UNL A   1      34.398  32.420  31.245  1.00  0.00    -0.237 OA
ATOM     49  O   UNL A   1      36.115  33.642  29.965  1.00  0.00    -0.744 OA
ENDBRANCH  42  46
ENDBRANCH  25  39
BRANCH  26  50
ATOM     50  C   UNL A   1      47.100  27.651  25.836  1.00  0.00     0.023 A 
ATOM     51  C   UNL A   1      47.185  27.888  24.457  1.00  0.00     0.031 A 
ATOM     52  C   UNL A   1      48.191  27.032  26.474  1.00  0.00     0.131 A 
ATOM     53  C   UNL A   1      48.331  27.489  23.752  1.00  0.00     0.055 A 
ATOM     54  C   UNL A   1      49.343  26.673  25.776  1.00  0.00     0.041 A 
ATOM     55  F   UNL A   1      48.156  26.791  27.794  1.00  0.00    -0.206 F 
ATOM     56  C   UNL A   1      49.415  26.895  24.405  1.00  0.00     0.022 A 
BRANCH  53  57
ATOM     57  S   UNL A   1      48.374  27.726  21.954  1.00  0.00     0.124 S 
ATOM     58  O   UNL A   1      48.593  26.365  21.480  1.00  0.00    -0.237 OA
ATOM     59  O   UNL A   1      47.056  28.294  21.690  1.00  0.00    -0.237 OA
ATOM     60  O   UNL A   1      49.493  28.645  21.759  1.00  0.00    -0.744 OA
ENDBRANCH  53  57
ENDBRANCH  26  50
BRANCH  38  61
ATOM     61  C   UNL A   1      45.226  33.448  29.218  1.00  0.00     0.023 A 
ATOM     62  C   UNL A   1      44.935  34.565  28.420  1.00  0.00     0.031 A 
ATOM     63  C   UNL A   1      46.158  33.592  30.259  1.00  0.00     0.131 A 
ATOM     64  C   UNL A   1      45.592  35.780  28.660  1.00  0.00     0.055 A 
ATOM     65  C   UNL A   1      46.780  34.813  30.519  1.00  0.00     0.041 A 
ATOM     66  F   UNL A   1      46.464  32.551  31.050  1.00  0.00    -0.206 F 
ATOM     67  C   UNL A   1      46.500  35.915  29.714  1.00  0.00     0.022 A 
BRANCH  64  68
ATOM     68  S   UNL A   1      45.256  37.188  27.567  1.00  0.00     0.124 S 
ATOM     69  O   UNL A   1      44.173  36.672  26.737  1.00  0.00    -0.237 OA
ATOM     70  O   UNL A   1      44.890  38.242  28.509  1.00  0.00    -0.237 OA
ATOM     71  O   UNL A   1      46.526  37.394  26.874  1.00  0.00    -0.744 OA
ENDBRANCH  64  68
ENDBRANCH  38  61
ENDBRANCH  12  13
ENDBRANCH   5   7
ENDBRANCH   2   3
ENDBRANCH   1   2
BRANCH   1  72
ATOM     72  C   UNL A   1      35.567  23.273  23.855  1.00  0.00     0.117 C 
BRANCH  72  73
ATOM     73  N   UNL A   1      34.640  22.865  22.810  1.00  0.00    -0.356 N 
ATOM     74  C   UNL A   1      33.500  23.477  22.361  1.00  0.00     0.227 C 
ATOM     75  H   UNL A   1      34.867  22.021  22.357  1.00  0.00     0.163 HD
ATOM     76  O   UNL A   1      32.978  23.037  21.336  1.00  0.00    -0.275 OA
BRANCH  74  77
ATOM     77  C   UNL A   1      32.971  24.682  23.124  1.00  0.00     0.127 C 
ATOM     78  C   UNL A   1      31.429  24.888  23.010  1.00  0.00     0.127 C 
ATOM     79  C   UNL A   1      33.509  25.922  22.379  1.00  0.00     0.155 C 
ATOM     80  C   UNL A   1      31.377  26.277  22.326  1.00  0.00     0.155 C 
ATOM     81  C   UNL A   1      33.291  27.144  23.213  1.00  0.00     0.004 C 
ATOM     82  O   UNL A   1      32.468  26.126  21.383  1.00  0.00    -0.365 OA
ATOM     83  C   UNL A   1      31.975  27.375  23.168  1.00  0.00     0.004 C 
BRANCH  78  84
ATOM     84  C   UNL A   1      30.583  24.909  24.279  1.00  0.00     0.233 C 
ATOM     85  O   UNL A   1      29.727  25.782  24.473  1.00  0.00    -0.274 OA
ATOM     86  N   UNL A   1      30.581  23.894  25.177  1.00  0.00    -0.302 N 
ATOM     87  H   UNL A   1      29.848  23.911  25.835  1.00  0.00     0.172 HD
BRANCH  86  88
ATOM     88  C   UNL A   1      31.447  22.858  25.294  1.00  0.00     0.189 A 
ATOM     89  N   UNL A   1      31.512  21.750  24.611  1.00  0.00    -0.220 NA
ATOM     90  S   UNL A   1      32.654  23.111  26.476  1.00  0.00    -0.105 S 
ATOM     91  C   UNL A   1      32.602  21.021  25.052  1.00  0.00     0.084 A 
ATOM     92  C   UNL A   1      33.311  21.574  26.100  1.00  0.00     0.097 A 
BRANCH  91  93
ATOM     93  C   UNL A   1      33.014  19.788  24.416  1.00  0.00     0.001 A 
ATOM     94  C   UNL A   1      34.155  19.122  24.885  1.00  0.00     0.013 A 
ATOM     95  C   UNL A   1      32.264  19.241  23.369  1.00  0.00     0.013 A 
ATOM     96  C   UNL A   1      34.531  17.902  24.322  1.00  0.00     0.040 A 
ATOM     97  C   UNL A   1      32.649  18.024  22.802  1.00  0.00     0.040 A 
ATOM     98  C   UNL A   1      33.776  17.366  23.285  1.00  0.00     0.123 A 
ATOM     99  F   UNL A   1      34.155  16.211  22.725  1.00  0.00    -0.207 F 
ENDBRANCH  91  93
ENDBRANCH  86  88
ENDBRANCH  78  84
ENDBRANCH  74  77
ENDBRANCH  72  73
ENDBRANCH   1  72
TORSDOF 16
ENDMDL
