MODEL 1
REMARK VINA RESULT:     -11.4      0.000      0.000
REMARK SMILES CCc1nc(C)c(C(=O)NCCCNC(=O)c2ccc(-c3c4nc(c(-c5cc(S(=O)(=O)[O-])ccc5F)c5ccc([nH]5)c(-c5cc(S(=O)(=O)[O-])ccc5F)c5nc(c(-c6cc(S(=O)(=O)[O-])ccc6F)c6ccc3[nH]6)C=C5)C=C4)cc2)c(SCc2cnc(Cl)s2)n1
REMARK SMILES IDX 12 1 11 2 10 3 8 4 9 5 7 7 3 8 4 9 89 10 5 11 80 12 6 13
REMARK SMILES IDX 2 14 1 15 81 16 82 17 83 18 84 19 88 20 85 21 86 22 87 23
REMARK SMILES IDX 13 24 14 25 15 26 16 28 17 29 18 30 79 31 19 32 78 33 20 34
REMARK SMILES IDX 21 35 22 36 72 37 23 38 77 39 71 40 73 41 24 42 76 43 70 44
REMARK SMILES IDX 69 45 25 47 57 48 37 49 56 50 38 51 41 52 55 53 74 54 39 55
REMARK SMILES IDX 40 56 54 58 75 59 42 60 26 61 27 62 35 63 28 64 34 65 36 66
REMARK SMILES IDX 33 67 29 68 30 69 31 70 32 71 58 72 59 73 67 74 60 75 66 76
REMARK SMILES IDX 68 77 65 78 61 79 62 80 63 81 64 82 43 83 44 84 52 85 45 86
REMARK SMILES IDX 51 87 53 88 50 89 46 90 47 91 48 92 49 93
REMARK H PARENT 10 6 14 27 73 46 41 57
REMARK Flexibility Score: inf
ROOT
ATOM      1  C   UNL A   1      38.034  19.465  25.133  1.00  0.00     0.042 C 
ENDROOT
BRANCH   1   2
ATOM      2  C   UNL A   1      36.949  20.428  24.629  1.00  0.00     0.118 C 
BRANCH   2   3
ATOM      3  N   UNL A   1      35.815  20.358  25.535  1.00  0.00    -0.352 N 
ATOM      4  C   UNL A   1      34.964  21.321  26.019  1.00  0.00     0.255 C 
ATOM      5  O   UNL A   1      34.424  21.088  27.101  1.00  0.00    -0.269 OA
ATOM      6  H   UNL A   1      35.621  19.451  25.863  1.00  0.00     0.163 HD
BRANCH   4   7
ATOM      7  C   UNL A   1      34.544  22.535  25.293  1.00  0.00     0.093 A 
ATOM      8  C   UNL A   1      33.412  24.892  24.458  1.00  0.00     0.129 A 
ATOM      9  N   UNL A   1      34.691  24.888  24.814  1.00  0.00    -0.237 NA
ATOM     10  N   UNL A   1      32.675  23.786  24.399  1.00  0.00    -0.226 NA
ATOM     11  C   UNL A   1      35.251  23.736  25.248  1.00  0.00     0.055 A 
ATOM     12  C   UNL A   1      33.230  22.608  24.803  1.00  0.00     0.113 A 
ATOM     13  C   UNL A   1      36.614  24.035  25.763  1.00  0.00     0.068 C 
BRANCH   8  14
ATOM     14  C   UNL A   1      32.733  26.221  24.276  1.00  0.00     0.074 C 
ATOM     15  C   UNL A   1      33.647  27.412  24.538  1.00  0.00     0.012 C 
ENDBRANCH   8  14
BRANCH  12  16
ATOM     16  S   UNL A   1      31.970  21.349  24.606  1.00  0.00    -0.100 SA
BRANCH  16  17
ATOM     17  C   UNL A   1      32.528  20.124  23.402  1.00  0.00     0.125 C 
BRANCH  17  18
ATOM     18  C   UNL A   1      32.792  18.710  23.814  1.00  0.00     0.036 A 
ATOM     19  C   UNL A   1      33.260  17.702  22.982  1.00  0.00     0.129 A 
ATOM     20  S   UNL A   1      32.531  18.041  25.375  1.00  0.00    -0.107 S 
ATOM     21  N   UNL A   1      33.298  16.432  23.520  1.00  0.00    -0.233 NA
ATOM     22  C   UNL A   1      32.892  16.503  24.762  1.00  0.00     0.183 A 
ATOM     23  Cl  UNL A   1      32.678  15.115  25.744  1.00  0.00    -0.051 Cl
ENDBRANCH  17  18
ENDBRANCH  16  17
ENDBRANCH  12  16
ENDBRANCH   4   7
ENDBRANCH   2   3
ENDBRANCH   1   2
BRANCH   1  24
ATOM     24  C   UNL A   1      39.249  20.153  25.731  1.00  0.00     0.118 C 
BRANCH  24  25
ATOM     25  N   UNL A   1      40.326  19.205  25.945  1.00  0.00    -0.352 N 
ATOM     26  C   UNL A   1      41.671  19.453  26.066  1.00  0.00     0.251 C 
ATOM     27  H   UNL A   1      40.059  18.259  26.013  1.00  0.00     0.163 HD
ATOM     28  O   UNL A   1      42.467  18.520  25.905  1.00  0.00    -0.269 OA
BRANCH  26  29
ATOM     29  C   UNL A   1      42.172  20.814  26.373  1.00  0.00     0.039 A 
ATOM     30  C   UNL A   1      42.429  21.166  27.701  1.00  0.00     0.014 A 
ATOM     31  C   UNL A   1      42.349  21.762  25.361  1.00  0.00     0.014 A 
ATOM     32  C   UNL A   1      42.899  22.448  28.007  1.00  0.00     0.010 A 
ATOM     33  C   UNL A   1      42.899  23.007  25.656  1.00  0.00     0.010 A 
ATOM     34  C   UNL A   1      43.161  23.374  26.985  1.00  0.00    -0.014 A 
BRANCH  34  35
ATOM     35  C   UNL A   1      43.667  24.742  27.275  1.00  0.00     0.031 A 
ATOM     36  C   UNL A   1      42.720  25.788  27.807  1.00  0.00     0.074 A 
ATOM     37  C   UNL A   1      44.947  25.061  26.996  1.00  0.00     0.049 A 
ATOM     38  N   UNL A   1      42.925  27.064  28.014  1.00  0.00    -0.248 NA
ATOM     39  C   UNL A   1      41.350  25.347  28.115  1.00  0.00     0.031 C 
ATOM     40  C   UNL A   1      45.949  24.141  26.453  1.00  0.00     0.029 A 
ATOM     41  N   UNL A   1      45.623  26.250  27.115  1.00  0.00    -0.354 N 
ATOM     42  C   UNL A   1      41.706  27.582  28.442  1.00  0.00     0.074 A 
ATOM     43  C   UNL A   1      40.757  26.490  28.425  1.00  0.00     0.031 C 
ATOM     44  C   UNL A   1      47.113  24.795  26.304  1.00  0.00     0.029 A 
ATOM     45  C   UNL A   1      46.932  26.191  26.689  1.00  0.00     0.049 A 
ATOM     46  H   UNL A   1      45.211  27.070  27.471  1.00  0.00     0.167 HD
ATOM     47  C   UNL A   1      41.412  28.847  28.828  1.00  0.00     0.034 A 
ATOM     48  C   UNL A   1      47.870  27.155  26.601  1.00  0.00     0.034 A 
ATOM     49  C   UNL A   1      42.382  29.912  28.881  1.00  0.00     0.049 A 
ATOM     50  C   UNL A   1      47.510  28.558  27.032  1.00  0.00     0.074 A 
ATOM     51  C   UNL A   1      42.214  31.206  29.340  1.00  0.00     0.029 A 
ATOM     52  N   UNL A   1      43.700  29.808  28.457  1.00  0.00    -0.354 N 
ATOM     53  N   UNL A   1      46.368  29.013  27.495  1.00  0.00    -0.248 NA
ATOM     54  C   UNL A   1      48.566  29.574  26.936  1.00  0.00     0.031 C 
ATOM     55  C   UNL A   1      43.406  31.905  29.127  1.00  0.00     0.029 A 
ATOM     56  C   UNL A   1      44.344  31.026  28.610  1.00  0.00     0.049 A 
ATOM     57  H   UNL A   1      44.116  28.990  28.100  1.00  0.00     0.167 HD
ATOM     58  C   UNL A   1      46.587  30.357  27.787  1.00  0.00     0.074 A 
ATOM     59  C   UNL A   1      47.969  30.634  27.459  1.00  0.00     0.031 C 
ATOM     60  C   UNL A   1      45.727  31.280  28.286  1.00  0.00     0.034 A 
BRANCH  47  61
ATOM     61  C   UNL A   1      39.982  29.161  29.198  1.00  0.00     0.023 A 
ATOM     62  C   UNL A   1      39.559  29.249  30.535  1.00  0.00     0.031 A 
ATOM     63  C   UNL A   1      39.030  29.392  28.189  1.00  0.00     0.131 A 
ATOM     64  C   UNL A   1      38.210  29.505  30.827  1.00  0.00     0.055 A 
ATOM     65  C   UNL A   1      37.705  29.719  28.486  1.00  0.00     0.041 A 
ATOM     66  F   UNL A   1      39.370  29.301  26.894  1.00  0.00    -0.206 F 
ATOM     67  C   UNL A   1      37.287  29.767  29.812  1.00  0.00     0.022 A 
BRANCH  64  68
ATOM     68  S   UNL A   1      37.655  29.383  32.548  1.00  0.00     0.124 S 
ATOM     69  O   UNL A   1      37.769  27.948  32.794  1.00  0.00    -0.237 OA
ATOM     70  O   UNL A   1      38.613  30.230  33.250  1.00  0.00    -0.237 OA
ATOM     71  O   UNL A   1      36.286  29.896  32.505  1.00  0.00    -0.744 OA
ENDBRANCH  64  68
ENDBRANCH  47  61
BRANCH  48  72
ATOM     72  C   UNL A   1      49.235  26.855  26.075  1.00  0.00     0.023 A 
ATOM     73  C   UNL A   1      49.628  27.296  24.802  1.00  0.00     0.031 A 
ATOM     74  C   UNL A   1      50.137  26.055  26.799  1.00  0.00     0.131 A 
ATOM     75  C   UNL A   1      50.854  26.878  24.261  1.00  0.00     0.055 A 
ATOM     76  C   UNL A   1      51.385  25.696  26.284  1.00  0.00     0.041 A 
ATOM     77  F   UNL A   1      49.817  25.605  28.023  1.00  0.00    -0.206 F 
ATOM     78  C   UNL A   1      51.741  26.093  24.999  1.00  0.00     0.022 A 
BRANCH  75  79
ATOM     79  S   UNL A   1      51.214  27.271  22.527  1.00  0.00     0.124 S 
ATOM     80  O   UNL A   1      51.650  28.660  22.622  1.00  0.00    -0.237 OA
ATOM     81  O   UNL A   1      52.249  26.294  22.204  1.00  0.00    -0.237 OA
ATOM     82  O   UNL A   1      49.932  27.063  21.858  1.00  0.00    -0.744 OA
ENDBRANCH  75  79
ENDBRANCH  48  72
BRANCH  60  83
ATOM     83  C   UNL A   1      46.279  32.654  28.569  1.00  0.00     0.023 A 
ATOM     84  C   UNL A   1      46.257  33.677  27.605  1.00  0.00     0.031 A 
ATOM     85  C   UNL A   1      46.836  32.942  29.828  1.00  0.00     0.131 A 
ATOM     86  C   UNL A   1      46.830  34.923  27.898  1.00  0.00     0.055 A 
ATOM     87  C   UNL A   1      47.349  34.202  30.135  1.00  0.00     0.041 A 
ATOM     88  F   UNL A   1      46.884  32.001  30.786  1.00  0.00    -0.206 F 
ATOM     89  C   UNL A   1      47.359  35.198  29.162  1.00  0.00     0.022 A 
BRANCH  86  90
ATOM     90  S   UNL A   1      46.950  36.159  26.576  1.00  0.00     0.124 S 
ATOM     91  O   UNL A   1      46.159  37.259  27.116  1.00  0.00    -0.237 OA
ATOM     92  O   UNL A   1      48.389  36.389  26.493  1.00  0.00    -0.237 OA
ATOM     93  O   UNL A   1      46.365  35.482  25.419  1.00  0.00    -0.744 OA
ENDBRANCH  86  90
ENDBRANCH  60  83
ENDBRANCH  34  35
ENDBRANCH  26  29
ENDBRANCH  24  25
ENDBRANCH   1  24
TORSDOF 17
ENDMDL
MODEL 2
REMARK VINA RESULT:     -11.2      5.629     10.667
REMARK SMILES CCc1nc(C)c(C(=O)NCCCNC(=O)c2ccc(-c3c4nc(c(-c5cc(S(=O)(=O)[O-])ccc5F)c5ccc([nH]5)c(-c5cc(S(=O)(=O)[O-])ccc5F)c5nc(c(-c6cc(S(=O)(=O)[O-])ccc6F)c6ccc3[nH]6)C=C5)C=C4)cc2)c(SCc2cnc(Cl)s2)n1
REMARK SMILES IDX 12 1 11 2 10 3 8 4 9 5 7 7 3 8 4 9 89 10 5 11 80 12 6 13
REMARK SMILES IDX 2 14 1 15 81 16 82 17 83 18 84 19 88 20 85 21 86 22 87 23
REMARK SMILES IDX 13 24 14 25 15 26 16 28 17 29 18 30 79 31 19 32 78 33 20 34
REMARK SMILES IDX 21 35 22 36 72 37 23 38 77 39 71 40 73 41 24 42 76 43 70 44
REMARK SMILES IDX 69 45 25 47 57 48 37 49 56 50 38 51 41 52 55 53 74 54 39 55
REMARK SMILES IDX 40 56 54 58 75 59 42 60 26 61 27 62 35 63 28 64 34 65 36 66
REMARK SMILES IDX 33 67 29 68 30 69 31 70 32 71 58 72 59 73 67 74 60 75 66 76
REMARK SMILES IDX 68 77 65 78 61 79 62 80 63 81 64 82 43 83 44 84 52 85 45 86
REMARK SMILES IDX 51 87 53 88 50 89 46 90 47 91 48 92 49 93
REMARK H PARENT 10 6 14 27 73 46 41 57
REMARK Flexibility Score: inf
ROOT
ATOM      1  C   UNL A   1      32.147  28.294  26.241  1.00  0.00     0.042 C 
ENDROOT
BRANCH   1   2
ATOM      2  C   UNL A   1      32.783  26.915  26.475  1.00  0.00     0.118 C 
BRANCH   2   3
ATOM      3  N   UNL A   1      31.763  25.899  26.281  1.00  0.00    -0.352 N 
ATOM      4  C   UNL A   1      31.658  24.858  25.391  1.00  0.00     0.255 C 
ATOM      5  O   UNL A   1      30.519  24.467  25.130  1.00  0.00    -0.269 OA
ATOM      6  H   UNL A   1      31.004  25.970  26.905  1.00  0.00     0.163 HD
BRANCH   4   7
ATOM      7  C   UNL A   1      32.789  24.090  24.837  1.00  0.00     0.093 A 
ATOM      8  C   UNL A   1      35.204  23.206  23.879  1.00  0.00     0.129 A 
ATOM      9  N   UNL A   1      34.800  22.789  25.072  1.00  0.00    -0.237 NA
ATOM     10  N   UNL A   1      34.452  23.962  23.083  1.00  0.00    -0.226 NA
ATOM     11  C   UNL A   1      33.621  23.238  25.562  1.00  0.00     0.055 A 
ATOM     12  C   UNL A   1      33.247  24.399  23.546  1.00  0.00     0.113 A 
ATOM     13  C   UNL A   1      33.490  22.786  26.973  1.00  0.00     0.068 C 
BRANCH   8  14
ATOM     14  C   UNL A   1      36.634  22.949  23.489  1.00  0.00     0.074 C 
ATOM     15  C   UNL A   1      37.377  22.042  24.462  1.00  0.00     0.012 C 
ENDBRANCH   8  14
BRANCH  12  16
ATOM     16  S   UNL A   1      32.520  25.387  22.238  1.00  0.00    -0.100 SA
BRANCH  16  17
ATOM     17  C   UNL A   1      32.393  27.104  22.783  1.00  0.00     0.125 C 
BRANCH  17  18
ATOM     18  C   UNL A   1      31.115  27.866  22.624  1.00  0.00     0.036 A 
ATOM     19  C   UNL A   1      30.984  29.102  22.007  1.00  0.00     0.129 A 
ATOM     20  S   UNL A   1      29.570  27.391  23.209  1.00  0.00    -0.107 S 
ATOM     21  N   UNL A   1      29.745  29.703  22.093  1.00  0.00    -0.233 NA
ATOM     22  C   UNL A   1      28.947  28.897  22.746  1.00  0.00     0.183 A 
ATOM     23  Cl  UNL A   1      27.345  29.331  23.172  1.00  0.00    -0.051 Cl
ENDBRANCH  17  18
ENDBRANCH  16  17
ENDBRANCH  12  16
ENDBRANCH   4   7
ENDBRANCH   2   3
ENDBRANCH   1   2
BRANCH   1  24
ATOM     24  C   UNL A   1      33.074  29.306  25.592  1.00  0.00     0.118 C 
BRANCH  24  25
ATOM     25  N   UNL A   1      32.661  30.661  25.907  1.00  0.00    -0.352 N 
ATOM     26  C   UNL A   1      33.093  31.470  26.928  1.00  0.00     0.251 C 
ATOM     27  H   UNL A   1      31.981  31.052  25.311  1.00  0.00     0.163 HD
ATOM     28  O   UNL A   1      32.404  32.446  27.249  1.00  0.00    -0.269 OA
BRANCH  26  29
ATOM     29  C   UNL A   1      34.357  31.184  27.647  1.00  0.00     0.039 A 
ATOM     30  C   UNL A   1      35.350  32.166  27.708  1.00  0.00     0.014 A 
ATOM     31  C   UNL A   1      34.589  29.932  28.227  1.00  0.00     0.014 A 
ATOM     32  C   UNL A   1      36.550  31.909  28.380  1.00  0.00     0.010 A 
ATOM     33  C   UNL A   1      35.746  29.708  28.970  1.00  0.00     0.010 A 
ATOM     34  C   UNL A   1      36.750  30.685  29.038  1.00  0.00    -0.014 A 
BRANCH  34  35
ATOM     35  C   UNL A   1      38.011  30.382  29.766  1.00  0.00     0.031 A 
ATOM     36  C   UNL A   1      39.016  29.439  29.154  1.00  0.00     0.074 A 
ATOM     37  C   UNL A   1      38.217  30.893  30.997  1.00  0.00     0.049 A 
ATOM     38  N   UNL A   1      40.116  28.952  29.669  1.00  0.00    -0.248 NA
ATOM     39  C   UNL A   1      38.728  28.954  27.795  1.00  0.00     0.031 C 
ATOM     40  C   UNL A   1      37.304  31.794  31.704  1.00  0.00     0.029 A 
ATOM     41  N   UNL A   1      39.253  30.716  31.881  1.00  0.00    -0.354 N 
ATOM     42  C   UNL A   1      40.630  28.081  28.713  1.00  0.00     0.074 A 
ATOM     43  C   UNL A   1      39.699  28.075  27.605  1.00  0.00     0.031 C 
ATOM     44  C   UNL A   1      37.829  32.104  32.901  1.00  0.00     0.029 A 
ATOM     45  C   UNL A   1      39.088  31.386  33.073  1.00  0.00     0.049 A 
ATOM     46  H   UNL A   1      40.042  30.161  31.682  1.00  0.00     0.167 HD
ATOM     47  C   UNL A   1      41.780  27.364  28.751  1.00  0.00     0.034 A 
ATOM     48  C   UNL A   1      39.853  31.404  34.182  1.00  0.00     0.034 A 
ATOM     49  C   UNL A   1      42.718  27.416  29.846  1.00  0.00     0.049 A 
ATOM     50  C   UNL A   1      41.126  30.589  34.199  1.00  0.00     0.074 A 
ATOM     51  C   UNL A   1      43.953  26.802  29.949  1.00  0.00     0.029 A 
ATOM     52  N   UNL A   1      42.522  28.119  31.027  1.00  0.00    -0.354 N 
ATOM     53  N   UNL A   1      41.627  29.822  33.258  1.00  0.00    -0.248 NA
ATOM     54  C   UNL A   1      41.939  30.650  35.420  1.00  0.00     0.031 C 
ATOM     55  C   UNL A   1      44.471  27.073  31.219  1.00  0.00     0.029 A 
ATOM     56  C   UNL A   1      43.598  27.922  31.879  1.00  0.00     0.049 A 
ATOM     57  H   UNL A   1      41.735  28.674  31.231  1.00  0.00     0.167 HD
ATOM     58  C   UNL A   1      42.836  29.346  33.762  1.00  0.00     0.074 A 
ATOM     59  C   UNL A   1      42.992  29.922  35.081  1.00  0.00     0.031 C 
ATOM     60  C   UNL A   1      43.740  28.514  33.187  1.00  0.00     0.034 A 
BRANCH  47  61
ATOM     61  C   UNL A   1      42.080  26.442  27.594  1.00  0.00     0.023 A 
ATOM     62  C   UNL A   1      41.664  25.100  27.581  1.00  0.00     0.031 A 
ATOM     63  C   UNL A   1      42.782  26.925  26.475  1.00  0.00     0.131 A 
ATOM     64  C   UNL A   1      42.002  24.273  26.498  1.00  0.00     0.055 A 
ATOM     65  C   UNL A   1      43.051  26.118  25.368  1.00  0.00     0.041 A 
ATOM     66  F   UNL A   1      43.223  28.192  26.439  1.00  0.00    -0.206 F 
ATOM     67  C   UNL A   1      42.668  24.780  25.380  1.00  0.00     0.022 A 
BRANCH  64  68
ATOM     68  S   UNL A   1      41.652  22.498  26.618  1.00  0.00     0.124 S 
ATOM     69  O   UNL A   1      40.195  22.492  26.720  1.00  0.00    -0.237 OA
ATOM     70  O   UNL A   1      42.209  21.982  25.372  1.00  0.00    -0.237 OA
ATOM     71  O   UNL A   1      42.358  22.090  27.832  1.00  0.00    -0.744 OA
ENDBRANCH  64  68
ENDBRANCH  47  61
BRANCH  48  72
ATOM     72  C   UNL A   1      39.451  32.197  35.382  1.00  0.00     0.023 A 
ATOM     73  C   UNL A   1      38.771  31.592  36.450  1.00  0.00     0.031 A 
ATOM     74  C   UNL A   1      39.666  33.586  35.446  1.00  0.00     0.131 A 
ATOM     75  C   UNL A   1      38.267  32.377  37.499  1.00  0.00     0.055 A 
ATOM     76  C   UNL A   1      39.221  34.354  36.523  1.00  0.00     0.041 A 
ATOM     77  F   UNL A   1      40.312  34.220  34.455  1.00  0.00    -0.206 F 
ATOM     78  C   UNL A   1      38.499  33.753  37.549  1.00  0.00     0.022 A 
BRANCH  75  79
ATOM     79  S   UNL A   1      37.191  31.591  38.729  1.00  0.00     0.124 S 
ATOM     80  O   UNL A   1      37.021  30.257  38.166  1.00  0.00    -0.237 OA
ATOM     81  O   UNL A   1      38.002  31.679  39.940  1.00  0.00    -0.237 OA
ATOM     82  O   UNL A   1      35.995  32.430  38.720  1.00  0.00    -0.744 OA
ENDBRANCH  75  79
ENDBRANCH  48  72
BRANCH  60  83
ATOM     83  C   UNL A   1      45.005  28.234  33.957  1.00  0.00     0.023 A 
ATOM     84  C   UNL A   1      46.149  29.040  33.823  1.00  0.00     0.031 A 
ATOM     85  C   UNL A   1      45.064  27.140  34.840  1.00  0.00     0.131 A 
ATOM     86  C   UNL A   1      47.320  28.709  34.521  1.00  0.00     0.055 A 
ATOM     87  C   UNL A   1      46.212  26.852  35.578  1.00  0.00     0.041 A 
ATOM     88  F   UNL A   1      44.000  26.338  35.005  1.00  0.00    -0.206 F 
ATOM     89  C   UNL A   1      47.353  27.632  35.410  1.00  0.00     0.022 A 
BRANCH  86  90
ATOM     90  S   UNL A   1      48.830  29.657  34.187  1.00  0.00     0.124 S 
ATOM     91  O   UNL A   1      49.153  30.188  35.507  1.00  0.00    -0.237 OA
ATOM     92  O   UNL A   1      49.735  28.633  33.674  1.00  0.00    -0.237 OA
ATOM     93  O   UNL A   1      48.401  30.651  33.205  1.00  0.00    -0.744 OA
ENDBRANCH  86  90
ENDBRANCH  60  83
ENDBRANCH  34  35
ENDBRANCH  26  29
ENDBRANCH  24  25
ENDBRANCH   1  24
TORSDOF 17
ENDMDL
MODEL 3
REMARK VINA RESULT:     -11.2      5.837     10.670
REMARK SMILES CCc1nc(C)c(C(=O)NCCCNC(=O)c2ccc(-c3c4nc(c(-c5cc(S(=O)(=O)[O-])ccc5F)c5ccc([nH]5)c(-c5cc(S(=O)(=O)[O-])ccc5F)c5nc(c(-c6cc(S(=O)(=O)[O-])ccc6F)c6ccc3[nH]6)C=C5)C=C4)cc2)c(SCc2cnc(Cl)s2)n1
REMARK SMILES IDX 12 1 11 2 10 3 8 4 9 5 7 7 3 8 4 9 89 10 5 11 80 12 6 13
REMARK SMILES IDX 2 14 1 15 81 16 82 17 83 18 84 19 88 20 85 21 86 22 87 23
REMARK SMILES IDX 13 24 14 25 15 26 16 28 17 29 18 30 79 31 19 32 78 33 20 34
REMARK SMILES IDX 21 35 22 36 72 37 23 38 77 39 71 40 73 41 24 42 76 43 70 44
REMARK SMILES IDX 69 45 25 47 57 48 37 49 56 50 38 51 41 52 55 53 74 54 39 55
REMARK SMILES IDX 40 56 54 58 75 59 42 60 26 61 27 62 35 63 28 64 34 65 36 66
REMARK SMILES IDX 33 67 29 68 30 69 31 70 32 71 58 72 59 73 67 74 60 75 66 76
REMARK SMILES IDX 68 77 65 78 61 79 62 80 63 81 64 82 43 83 44 84 52 85 45 86
REMARK SMILES IDX 51 87 53 88 50 89 46 90 47 91 48 92 49 93
REMARK H PARENT 10 6 14 27 73 46 41 57
REMARK Flexibility Score: inf
ROOT
ATOM      1  C   UNL A   1      32.122  27.778  26.189  1.00  0.00     0.042 C 
ENDROOT
BRANCH   1   2
ATOM      2  C   UNL A   1      32.718  26.368  26.309  1.00  0.00     0.118 C 
BRANCH   2   3
ATOM      3  N   UNL A   1      31.690  25.474  26.813  1.00  0.00    -0.352 N 
ATOM      4  C   UNL A   1      31.363  24.177  26.502  1.00  0.00     0.255 C 
ATOM      5  O   UNL A   1      30.199  23.835  26.710  1.00  0.00    -0.269 OA
ATOM      6  H   UNL A   1      31.119  25.874  27.510  1.00  0.00     0.163 HD
BRANCH   4   7
ATOM      7  C   UNL A   1      32.316  23.135  26.072  1.00  0.00     0.093 A 
ATOM      8  C   UNL A   1      34.433  21.693  25.087  1.00  0.00     0.129 A 
ATOM      9  N   UNL A   1      34.268  21.768  26.402  1.00  0.00    -0.237 NA
ATOM     10  N   UNL A   1      33.567  22.209  24.219  1.00  0.00    -0.226 NA
ATOM     11  C   UNL A   1      33.241  22.496  26.897  1.00  0.00     0.055 A 
ATOM     12  C   UNL A   1      32.506  22.920  24.698  1.00  0.00     0.113 A 
ATOM     13  C   UNL A   1      33.388  22.581  28.375  1.00  0.00     0.068 C 
BRANCH   8  14
ATOM     14  C   UNL A   1      35.735  21.148  24.568  1.00  0.00     0.074 C 
ATOM     15  C   UNL A   1      36.643  22.214  23.965  1.00  0.00     0.012 C 
ENDBRANCH   8  14
BRANCH  12  16
ATOM     16  S   UNL A   1      31.569  23.470  23.273  1.00  0.00    -0.100 SA
BRANCH  16  17
ATOM     17  C   UNL A   1      31.839  25.238  23.023  1.00  0.00     0.125 C 
BRANCH  17  18
ATOM     18  C   UNL A   1      30.724  26.218  23.211  1.00  0.00     0.036 A 
ATOM     19  C   UNL A   1      29.537  25.969  23.887  1.00  0.00     0.129 A 
ATOM     20  S   UNL A   1      30.666  27.822  22.597  1.00  0.00    -0.107 S 
ATOM     21  N   UNL A   1      28.576  26.957  23.823  1.00  0.00    -0.233 NA
ATOM     22  C   UNL A   1      29.063  27.954  23.129  1.00  0.00     0.183 A 
ATOM     23  Cl  UNL A   1      28.131  29.332  22.716  1.00  0.00    -0.051 Cl
ENDBRANCH  17  18
ENDBRANCH  16  17
ENDBRANCH  12  16
ENDBRANCH   4   7
ENDBRANCH   2   3
ENDBRANCH   1   2
BRANCH   1  24
ATOM     24  C   UNL A   1      33.021  28.777  25.483  1.00  0.00     0.118 C 
BRANCH  24  25
ATOM     25  N   UNL A   1      32.575  30.137  25.728  1.00  0.00    -0.352 N 
ATOM     26  C   UNL A   1      32.966  30.997  26.723  1.00  0.00     0.251 C 
ATOM     27  H   UNL A   1      31.905  30.488  25.098  1.00  0.00     0.163 HD
ATOM     28  O   UNL A   1      32.251  31.973  26.983  1.00  0.00    -0.269 OA
BRANCH  26  29
ATOM     29  C   UNL A   1      34.215  30.766  27.486  1.00  0.00     0.039 A 
ATOM     30  C   UNL A   1      35.136  31.809  27.626  1.00  0.00     0.014 A 
ATOM     31  C   UNL A   1      34.506  29.511  28.030  1.00  0.00     0.014 A 
ATOM     32  C   UNL A   1      36.322  31.605  28.341  1.00  0.00     0.010 A 
ATOM     33  C   UNL A   1      35.644  29.334  28.814  1.00  0.00     0.010 A 
ATOM     34  C   UNL A   1      36.576  30.372  28.962  1.00  0.00    -0.014 A 
BRANCH  34  35
ATOM     35  C   UNL A   1      37.823  30.125  29.733  1.00  0.00     0.031 A 
ATOM     36  C   UNL A   1      38.870  29.193  29.177  1.00  0.00     0.074 A 
ATOM     37  C   UNL A   1      37.981  30.675  30.954  1.00  0.00     0.049 A 
ATOM     38  N   UNL A   1      39.968  28.750  29.736  1.00  0.00    -0.248 NA
ATOM     39  C   UNL A   1      38.635  28.662  27.824  1.00  0.00     0.031 C 
ATOM     40  C   UNL A   1      37.024  31.570  31.609  1.00  0.00     0.029 A 
ATOM     41  N   UNL A   1      38.995  30.551  31.872  1.00  0.00    -0.354 N 
ATOM     42  C   UNL A   1      40.533  27.868  28.820  1.00  0.00     0.074 A 
ATOM     43  C   UNL A   1      39.634  27.806  27.688  1.00  0.00     0.031 C 
ATOM     44  C   UNL A   1      37.505  31.928  32.811  1.00  0.00     0.029 A 
ATOM     45  C   UNL A   1      38.778  31.250  33.039  1.00  0.00     0.049 A 
ATOM     46  H   UNL A   1      39.803  30.013  31.711  1.00  0.00     0.167 HD
ATOM     47  C   UNL A   1      41.700  27.184  28.911  1.00  0.00     0.034 A 
ATOM     48  C   UNL A   1      39.510  31.319  34.168  1.00  0.00     0.034 A 
ATOM     49  C   UNL A   1      42.604  27.293  30.029  1.00  0.00     0.049 A 
ATOM     50  C   UNL A   1      40.803  30.541  34.244  1.00  0.00     0.074 A 
ATOM     51  C   UNL A   1      43.851  26.716  30.185  1.00  0.00     0.029 A 
ATOM     52  N   UNL A   1      42.355  28.022  31.184  1.00  0.00    -0.354 N 
ATOM     53  N   UNL A   1      41.352  29.761  33.339  1.00  0.00    -0.248 NA
ATOM     54  C   UNL A   1      41.579  30.658  35.485  1.00  0.00     0.031 C 
ATOM     55  C   UNL A   1      44.326  27.036  31.460  1.00  0.00     0.029 A 
ATOM     56  C   UNL A   1      43.411  27.879  32.071  1.00  0.00     0.049 A 
ATOM     57  H   UNL A   1      41.548  28.561  31.350  1.00  0.00     0.167 HD
ATOM     58  C   UNL A   1      42.557  29.334  33.890  1.00  0.00     0.074 A 
ATOM     59  C   UNL A   1      42.660  29.950  35.196  1.00  0.00     0.031 C 
ATOM     60  C   UNL A   1      43.499  28.511  33.365  1.00  0.00     0.034 A 
BRANCH  47  61
ATOM     61  C   UNL A   1      42.057  26.239  27.790  1.00  0.00     0.023 A 
ATOM     62  C   UNL A   1      41.694  24.882  27.812  1.00  0.00     0.031 A 
ATOM     63  C   UNL A   1      42.762  26.713  26.668  1.00  0.00     0.131 A 
ATOM     64  C   UNL A   1      42.084  24.035  26.763  1.00  0.00     0.055 A 
ATOM     65  C   UNL A   1      43.083  25.883  25.593  1.00  0.00     0.041 A 
ATOM     66  F   UNL A   1      43.154  27.995  26.600  1.00  0.00    -0.206 F 
ATOM     67  C   UNL A   1      42.752  24.532  25.641  1.00  0.00     0.022 A 
BRANCH  64  68
ATOM     68  S   UNL A   1      41.801  22.253  26.933  1.00  0.00     0.124 S 
ATOM     69  O   UNL A   1      41.622  22.120  28.377  1.00  0.00    -0.237 OA
ATOM     70  O   UNL A   1      40.608  22.043  26.119  1.00  0.00    -0.237 OA
ATOM     71  O   UNL A   1      43.027  21.658  26.405  1.00  0.00    -0.744 OA
ENDBRANCH  64  68
ENDBRANCH  47  61
BRANCH  48  72
ATOM     72  C   UNL A   1      39.053  32.135  35.333  1.00  0.00     0.023 A 
ATOM     73  C   UNL A   1      39.497  33.455  35.505  1.00  0.00     0.031 A 
ATOM     74  C   UNL A   1      38.234  31.583  36.334  1.00  0.00     0.131 A 
ATOM     75  C   UNL A   1      39.182  34.155  36.680  1.00  0.00     0.055 A 
ATOM     76  C   UNL A   1      37.867  32.307  37.471  1.00  0.00     0.041 A 
ATOM     77  F   UNL A   1      37.777  30.326  36.224  1.00  0.00    -0.206 F 
ATOM     78  C   UNL A   1      38.359  33.594  37.659  1.00  0.00     0.022 A 
BRANCH  75  79
ATOM     79  S   UNL A   1      39.972  35.762  36.969  1.00  0.00     0.124 S 
ATOM     80  O   UNL A   1      39.654  36.475  35.738  1.00  0.00    -0.237 OA
ATOM     81  O   UNL A   1      39.288  36.223  38.174  1.00  0.00    -0.237 OA
ATOM     82  O   UNL A   1      41.382  35.421  37.148  1.00  0.00    -0.744 OA
ENDBRANCH  75  79
ENDBRANCH  48  72
BRANCH  60  83
ATOM     83  C   UNL A   1      44.750  28.288  34.178  1.00  0.00     0.023 A 
ATOM     84  C   UNL A   1      44.870  27.214  35.077  1.00  0.00     0.031 A 
ATOM     85  C   UNL A   1      45.840  29.167  34.046  1.00  0.00     0.131 A 
ATOM     86  C   UNL A   1      46.033  27.079  35.849  1.00  0.00     0.055 A 
ATOM     87  C   UNL A   1      47.018  28.992  34.771  1.00  0.00     0.041 A 
ATOM     88  F   UNL A   1      45.778  30.210  33.201  1.00  0.00    -0.206 F 
ATOM     89  C   UNL A   1      47.114  27.949  35.688  1.00  0.00     0.022 A 
BRANCH  86  90
ATOM     90  S   UNL A   1      46.084  25.795  37.129  1.00  0.00     0.124 S 
ATOM     91  O   UNL A   1      44.667  25.597  37.416  1.00  0.00    -0.237 OA
ATOM     92  O   UNL A   1      46.755  24.695  36.442  1.00  0.00    -0.237 OA
ATOM     93  O   UNL A   1      46.855  26.414  38.206  1.00  0.00    -0.744 OA
ENDBRANCH  86  90
ENDBRANCH  60  83
ENDBRANCH  34  35
ENDBRANCH  26  29
ENDBRANCH  24  25
ENDBRANCH   1  24
TORSDOF 17
ENDMDL
