MODEL 1
REMARK VINA RESULT:     -12.5      0.000      0.000
REMARK SMILES CC(C)N(c1cc2c(cc1Cl)C=C(C(=O)NCCCNC(=O)c1ccc(-c3c4nc(c(-c5cc(S(=O)(=O)[O-])ccc5F)c5ccc([nH]5)c(-c5cc(S(=O)(=O)[O-])ccc5F)c5nc(c(-c6cc(S(=O)(=O)[O-])ccc6F)c6ccc3[nH]6)C=C5)C=C4)cc1)[C@@H](C(F)(F)F)O2)C(C)C
REMARK SMILES IDX 18 1 17 2 16 3 14 4 15 5 13 7 5 8 6 9 10 10 7 11 9 12 11 13
REMARK SMILES IDX 8 14 91 15 12 16 86 17 4 18 2 19 1 20 3 21 92 22 93 23 94 24
REMARK SMILES IDX 87 25 88 26 89 27 90 28 19 29 20 30 21 31 22 33 23 34 24 35
REMARK SMILES IDX 85 36 25 37 84 38 26 39 27 40 28 41 78 42 29 43 83 44 77 45
REMARK SMILES IDX 79 46 30 47 82 48 76 49 75 50 31 52 63 53 43 54 62 55 44 56
REMARK SMILES IDX 47 57 61 58 80 59 45 60 46 61 60 63 81 64 48 65 32 66 33 67
REMARK SMILES IDX 41 68 34 69 40 70 42 71 39 72 35 73 36 74 37 75 38 76 64 77
REMARK SMILES IDX 65 78 73 79 66 80 72 81 74 82 71 83 67 84 68 85 69 86 70 87
REMARK SMILES IDX 49 88 50 89 58 90 51 91 57 92 59 93 56 94 52 95 53 96 54 97
REMARK SMILES IDX 55 98
REMARK H PARENT 16 6 20 32 79 51 47 62
REMARK Flexibility Score: inf
ROOT
ATOM      1  C   UNL A   1      31.422  31.779  26.480  1.00  0.00     0.042 C 
ENDROOT
BRANCH   1   2
ATOM      2  C   UNL A   1      31.736  30.480  25.752  1.00  0.00     0.118 C 
BRANCH   2   3
ATOM      3  N   UNL A   1      30.768  30.205  24.699  1.00  0.00    -0.352 N 
ATOM      4  C   UNL A   1      30.511  29.215  23.815  1.00  0.00     0.251 C 
ATOM      5  O   UNL A   1      29.557  29.424  23.058  1.00  0.00    -0.270 OA
ATOM      6  H   UNL A   1      30.124  30.943  24.604  1.00  0.00     0.163 HD
BRANCH   4   7
ATOM      7  C   UNL A   1      31.263  27.932  23.714  1.00  0.00     0.067 C 
ATOM      8  C   UNL A   1      33.266  23.362  24.587  1.00  0.00     0.060 A 
ATOM      9  C   UNL A   1      33.149  24.206  23.467  1.00  0.00     0.074 A 
ATOM     10  C   UNL A   1      32.612  23.782  25.770  1.00  0.00     0.065 A 
ATOM     11  C   UNL A   1      32.454  25.412  23.531  1.00  0.00     0.130 A 
ATOM     12  C   UNL A   1      31.864  24.970  25.813  1.00  0.00     0.034 A 
ATOM     13  Cl  UNL A   1      32.757  22.926  27.272  1.00  0.00    -0.082 Cl
ATOM     14  C   UNL A   1      31.792  25.794  24.692  1.00  0.00     0.019 A 
ATOM     15  O   UNL A   1      32.443  26.183  22.401  1.00  0.00    -0.475 OA
ATOM     16  C   UNL A   1      31.042  27.044  24.702  1.00  0.00     0.025 C 
ATOM     17  C   UNL A   1      32.255  27.610  22.632  1.00  0.00     0.314 C 
BRANCH   8  18
ATOM     18  N   UNL A   1      34.027  22.179  24.483  1.00  0.00    -0.365 N 
BRANCH  18  19
ATOM     19  C   UNL A   1      35.496  22.335  24.564  1.00  0.00     0.076 C 
ATOM     20  C   UNL A   1      36.121  22.805  23.253  1.00  0.00     0.030 C 
ATOM     21  C   UNL A   1      35.941  23.216  25.728  1.00  0.00     0.030 C 
ENDBRANCH  18  19
BRANCH  18  22
ATOM     22  C   UNL A   1      33.272  20.906  24.540  1.00  0.00     0.076 C 
ATOM     23  C   UNL A   1      32.378  20.699  23.320  1.00  0.00     0.030 C 
ATOM     24  C   UNL A   1      34.144  19.681  24.800  1.00  0.00     0.030 C 
ENDBRANCH  18  22
ENDBRANCH   8  18
BRANCH  17  25
ATOM     25  C   UNL A   1      33.622  28.282  22.873  1.00  0.00     0.429 C 
ATOM     26  F   UNL A   1      34.216  27.776  23.981  1.00  0.00    -0.167 F 
ATOM     27  F   UNL A   1      34.488  28.082  21.849  1.00  0.00    -0.167 F 
ATOM     28  F   UNL A   1      33.528  29.620  23.041  1.00  0.00    -0.167 F 
ENDBRANCH  17  25
ENDBRANCH   4   7
ENDBRANCH   2   3
ENDBRANCH   1   2
BRANCH   1  29
ATOM     29  C   UNL A   1      32.621  32.299  27.265  1.00  0.00     0.118 C 
BRANCH  29  30
ATOM     30  N   UNL A   1      32.540  33.740  27.496  1.00  0.00    -0.352 N 
ATOM     31  C   UNL A   1      33.179  34.525  28.429  1.00  0.00     0.251 C 
ATOM     32  H   UNL A   1      31.933  34.225  26.891  1.00  0.00     0.163 HD
ATOM     33  O   UNL A   1      32.786  35.670  28.632  1.00  0.00    -0.269 OA
BRANCH  31  34
ATOM     34  C   UNL A   1      34.314  33.973  29.196  1.00  0.00     0.039 A 
ATOM     35  C   UNL A   1      35.612  34.408  28.931  1.00  0.00     0.014 A 
ATOM     36  C   UNL A   1      34.087  33.003  30.176  1.00  0.00     0.014 A 
ATOM     37  C   UNL A   1      36.689  33.731  29.483  1.00  0.00     0.010 A 
ATOM     38  C   UNL A   1      35.174  32.398  30.815  1.00  0.00     0.010 A 
ATOM     39  C   UNL A   1      36.486  32.716  30.432  1.00  0.00    -0.014 A 
BRANCH  39  40
ATOM     40  C   UNL A   1      37.664  32.017  31.008  1.00  0.00     0.031 A 
ATOM     41  C   UNL A   1      38.091  32.265  32.429  1.00  0.00     0.074 A 
ATOM     42  C   UNL A   1      38.313  31.105  30.256  1.00  0.00     0.049 A 
ATOM     43  N   UNL A   1      39.083  31.732  33.092  1.00  0.00    -0.248 NA
ATOM     44  C   UNL A   1      37.308  33.238  33.210  1.00  0.00     0.031 C 
ATOM     45  C   UNL A   1      37.978  30.780  28.869  1.00  0.00     0.029 A 
ATOM     46  N   UNL A   1      39.363  30.271  30.548  1.00  0.00    -0.354 N 
ATOM     47  C   UNL A   1      39.065  32.321  34.351  1.00  0.00     0.074 A 
ATOM     48  C   UNL A   1      37.976  33.271  34.356  1.00  0.00     0.031 C 
ATOM     49  C   UNL A   1      38.762  29.780  28.450  1.00  0.00     0.029 A 
ATOM     50  C   UNL A   1      39.720  29.450  29.501  1.00  0.00     0.049 A 
ATOM     51  H   UNL A   1      39.818  30.260  31.420  1.00  0.00     0.167 HD
ATOM     52  C   UNL A   1      39.878  32.079  35.406  1.00  0.00     0.034 A 
ATOM     53  C   UNL A   1      40.718  28.551  29.384  1.00  0.00     0.034 A 
ATOM     54  C   UNL A   1      40.932  31.097  35.396  1.00  0.00     0.049 A 
ATOM     55  C   UNL A   1      41.621  28.317  30.565  1.00  0.00     0.074 A 
ATOM     56  C   UNL A   1      41.773  30.742  36.435  1.00  0.00     0.029 A 
ATOM     57  N   UNL A   1      41.289  30.316  34.307  1.00  0.00    -0.354 N 
ATOM     58  N   UNL A   1      41.560  28.854  31.762  1.00  0.00    -0.248 NA
ATOM     59  C   UNL A   1      42.727  27.368  30.389  1.00  0.00     0.031 C 
ATOM     60  C   UNL A   1      42.675  29.790  35.959  1.00  0.00     0.029 A 
ATOM     61  C   UNL A   1      42.360  29.503  34.640  1.00  0.00     0.049 A 
ATOM     62  H   UNL A   1      40.846  30.335  33.427  1.00  0.00     0.167 HD
ATOM     63  C   UNL A   1      42.620  28.309  32.480  1.00  0.00     0.074 A 
ATOM     64  C   UNL A   1      43.283  27.373  31.595  1.00  0.00     0.031 C 
ATOM     65  C   UNL A   1      43.011  28.571  33.751  1.00  0.00     0.034 A 
BRANCH  52  66
ATOM     66  C   UNL A   1      39.676  32.862  36.679  1.00  0.00     0.023 A 
ATOM     67  C   UNL A   1      38.784  32.386  37.658  1.00  0.00     0.031 A 
ATOM     68  C   UNL A   1      40.244  34.134  36.857  1.00  0.00     0.131 A 
ATOM     69  C   UNL A   1      38.455  33.195  38.752  1.00  0.00     0.055 A 
ATOM     70  C   UNL A   1      39.939  34.924  37.968  1.00  0.00     0.041 A 
ATOM     71  F   UNL A   1      41.102  34.631  35.950  1.00  0.00    -0.206 F 
ATOM     72  C   UNL A   1      39.031  34.459  38.915  1.00  0.00     0.022 A 
BRANCH  69  73
ATOM     73  S   UNL A   1      37.225  32.665  39.976  1.00  0.00     0.124 S 
ATOM     74  O   UNL A   1      37.735  31.351  40.363  1.00  0.00    -0.237 OA
ATOM     75  O   UNL A   1      37.342  33.704  40.995  1.00  0.00    -0.237 OA
ATOM     76  O   UNL A   1      35.972  32.647  39.229  1.00  0.00    -0.744 OA
ENDBRANCH  69  73
ENDBRANCH  52  66
BRANCH  53  77
ATOM     77  C   UNL A   1      40.878  27.816  28.095  1.00  0.00     0.023 A 
ATOM     78  C   UNL A   1      40.513  26.460  27.996  1.00  0.00     0.031 A 
ATOM     79  C   UNL A   1      41.519  28.409  26.996  1.00  0.00     0.131 A 
ATOM     80  C   UNL A   1      40.878  25.718  26.866  1.00  0.00     0.055 A 
ATOM     81  C   UNL A   1      41.810  27.685  25.838  1.00  0.00     0.041 A 
ATOM     82  F   UNL A   1      41.895  29.695  27.046  1.00  0.00    -0.206 F 
ATOM     83  C   UNL A   1      41.511  26.327  25.779  1.00  0.00     0.022 A 
BRANCH  80  84
ATOM     84  S   UNL A   1      40.702  23.912  26.848  1.00  0.00     0.124 S 
ATOM     85  O   UNL A   1      41.702  23.519  25.861  1.00  0.00    -0.237 OA
ATOM     86  O   UNL A   1      41.012  23.566  28.234  1.00  0.00    -0.237 OA
ATOM     87  O   UNL A   1      39.311  23.706  26.458  1.00  0.00    -0.744 OA
ENDBRANCH  80  84
ENDBRANCH  53  77
BRANCH  65  88
ATOM     88  C   UNL A   1      44.229  27.863  34.290  1.00  0.00     0.023 A 
ATOM     89  C   UNL A   1      44.084  26.681  35.039  1.00  0.00     0.031 A 
ATOM     90  C   UNL A   1      45.501  28.452  34.207  1.00  0.00     0.131 A 
ATOM     91  C   UNL A   1      45.186  26.153  35.722  1.00  0.00     0.055 A 
ATOM     92  C   UNL A   1      46.607  27.896  34.853  1.00  0.00     0.041 A 
ATOM     93  F   UNL A   1      45.685  29.585  33.510  1.00  0.00    -0.206 F 
ATOM     94  C   UNL A   1      46.447  26.750  35.628  1.00  0.00     0.022 A 
BRANCH  91  95
ATOM     95  S   UNL A   1      45.004  24.726  36.827  1.00  0.00     0.124 S 
ATOM     96  O   UNL A   1      43.956  25.181  37.738  1.00  0.00    -0.237 OA
ATOM     97  O   UNL A   1      44.610  23.669  35.899  1.00  0.00    -0.237 OA
ATOM     98  O   UNL A   1      46.325  24.574  37.427  1.00  0.00    -0.744 OA
ENDBRANCH  91  95
ENDBRANCH  65  88
ENDBRANCH  39  40
ENDBRANCH  31  34
ENDBRANCH  29  30
ENDBRANCH   1  29
TORSDOF 17
ENDMDL
MODEL 2
REMARK VINA RESULT:     -12.5      6.123      9.963
REMARK SMILES CC(C)N(c1cc2c(cc1Cl)C=C(C(=O)NCCCNC(=O)c1ccc(-c3c4nc(c(-c5cc(S(=O)(=O)[O-])ccc5F)c5ccc([nH]5)c(-c5cc(S(=O)(=O)[O-])ccc5F)c5nc(c(-c6cc(S(=O)(=O)[O-])ccc6F)c6ccc3[nH]6)C=C5)C=C4)cc1)[C@@H](C(F)(F)F)O2)C(C)C
REMARK SMILES IDX 18 1 17 2 16 3 14 4 15 5 13 7 5 8 6 9 10 10 7 11 9 12 11 13
REMARK SMILES IDX 8 14 91 15 12 16 86 17 4 18 2 19 1 20 3 21 92 22 93 23 94 24
REMARK SMILES IDX 87 25 88 26 89 27 90 28 19 29 20 30 21 31 22 33 23 34 24 35
REMARK SMILES IDX 85 36 25 37 84 38 26 39 27 40 28 41 78 42 29 43 83 44 77 45
REMARK SMILES IDX 79 46 30 47 82 48 76 49 75 50 31 52 63 53 43 54 62 55 44 56
REMARK SMILES IDX 47 57 61 58 80 59 45 60 46 61 60 63 81 64 48 65 32 66 33 67
REMARK SMILES IDX 41 68 34 69 40 70 42 71 39 72 35 73 36 74 37 75 38 76 64 77
REMARK SMILES IDX 65 78 73 79 66 80 72 81 74 82 71 83 67 84 68 85 69 86 70 87
REMARK SMILES IDX 49 88 50 89 58 90 51 91 57 92 59 93 56 94 52 95 53 96 54 97
REMARK SMILES IDX 55 98
REMARK H PARENT 16 6 20 32 79 51 47 62
REMARK Flexibility Score: inf
ROOT
ATOM      1  C   UNL A   1      38.144  20.031  24.983  1.00  0.00     0.042 C 
ENDROOT
BRANCH   1   2
ATOM      2  C   UNL A   1      36.845  20.733  25.352  1.00  0.00     0.118 C 
BRANCH   2   3
ATOM      3  N   UNL A   1      35.679  19.962  24.940  1.00  0.00    -0.352 N 
ATOM      4  C   UNL A   1      34.356  20.174  24.762  1.00  0.00     0.251 C 
ATOM      5  O   UNL A   1      33.711  19.181  24.409  1.00  0.00    -0.270 OA
ATOM      6  H   UNL A   1      35.921  19.029  24.738  1.00  0.00     0.163 HD
BRANCH   4   7
ATOM      7  C   UNL A   1      33.660  21.479  24.937  1.00  0.00     0.067 C 
ATOM      8  C   UNL A   1      31.961  26.221  24.394  1.00  0.00     0.060 A 
ATOM      9  C   UNL A   1      31.606  25.116  25.190  1.00  0.00     0.074 A 
ATOM     10  C   UNL A   1      32.966  26.006  23.420  1.00  0.00     0.065 A 
ATOM     11  C   UNL A   1      32.240  23.883  25.051  1.00  0.00     0.130 A 
ATOM     12  C   UNL A   1      33.561  24.746  23.244  1.00  0.00     0.034 A 
ATOM     13  Cl  UNL A   1      33.607  27.288  22.442  1.00  0.00    -0.082 Cl
ATOM     14  C   UNL A   1      33.204  23.682  24.069  1.00  0.00     0.019 A 
ATOM     15  O   UNL A   1      31.858  22.888  25.909  1.00  0.00    -0.475 OA
ATOM     16  C   UNL A   1      33.811  22.364  23.932  1.00  0.00     0.025 C 
ATOM     17  C   UNL A   1      32.867  21.866  26.154  1.00  0.00     0.314 C 
BRANCH   8  18
ATOM     18  N   UNL A   1      31.326  27.461  24.613  1.00  0.00    -0.365 N 
BRANCH  18  19
ATOM     19  C   UNL A   1      30.029  27.663  23.930  1.00  0.00     0.076 C 
ATOM     20  C   UNL A   1      30.180  28.148  22.491  1.00  0.00     0.030 C 
ATOM     21  C   UNL A   1      29.118  26.440  24.001  1.00  0.00     0.030 C 
ENDBRANCH  18  19
BRANCH  18  22
ATOM     22  C   UNL A   1      31.904  28.317  25.674  1.00  0.00     0.076 C 
ATOM     23  C   UNL A   1      31.720  29.806  25.392  1.00  0.00     0.030 C 
ATOM     24  C   UNL A   1      31.437  27.959  27.081  1.00  0.00     0.030 C 
ENDBRANCH  18  22
ENDBRANCH   8  18
BRANCH  17  25
ATOM     25  C   UNL A   1      33.771  22.298  27.327  1.00  0.00     0.429 C 
ATOM     26  F   UNL A   1      33.037  22.872  28.311  1.00  0.00    -0.167 F 
ATOM     27  F   UNL A   1      34.421  21.252  27.895  1.00  0.00    -0.167 F 
ATOM     28  F   UNL A   1      34.721  23.188  26.961  1.00  0.00    -0.167 F 
ENDBRANCH  17  25
ENDBRANCH   4   7
ENDBRANCH   2   3
ENDBRANCH   1   2
BRANCH   1  29
ATOM     29  C   UNL A   1      39.304  20.473  25.868  1.00  0.00     0.118 C 
BRANCH  29  30
ATOM     30  N   UNL A   1      40.281  19.403  26.060  1.00  0.00    -0.352 N 
ATOM     31  C   UNL A   1      41.653  19.466  26.165  1.00  0.00     0.251 C 
ATOM     32  H   UNL A   1      39.901  18.498  26.125  1.00  0.00     0.163 HD
ATOM     33  O   UNL A   1      42.317  18.438  26.065  1.00  0.00    -0.269 OA
BRANCH  31  34
ATOM     34  C   UNL A   1      42.313  20.771  26.370  1.00  0.00     0.039 A 
ATOM     35  C   UNL A   1      42.569  21.228  27.662  1.00  0.00     0.014 A 
ATOM     36  C   UNL A   1      42.666  21.554  25.267  1.00  0.00     0.014 A 
ATOM     37  C   UNL A   1      42.974  22.540  27.859  1.00  0.00     0.010 A 
ATOM     38  C   UNL A   1      43.181  22.838  25.468  1.00  0.00     0.010 A 
ATOM     39  C   UNL A   1      43.285  23.364  26.765  1.00  0.00    -0.014 A 
BRANCH  39  40
ATOM     40  C   UNL A   1      43.723  24.762  27.013  1.00  0.00     0.031 A 
ATOM     41  C   UNL A   1      42.763  25.788  27.554  1.00  0.00     0.074 A 
ATOM     42  C   UNL A   1      45.015  25.087  26.806  1.00  0.00     0.049 A 
ATOM     43  N   UNL A   1      42.982  27.044  27.839  1.00  0.00    -0.248 NA
ATOM     44  C   UNL A   1      41.378  25.352  27.802  1.00  0.00     0.031 C 
ATOM     45  C   UNL A   1      46.032  24.168  26.293  1.00  0.00     0.029 A 
ATOM     46  N   UNL A   1      45.701  26.257  27.020  1.00  0.00    -0.354 N 
ATOM     47  C   UNL A   1      41.764  27.558  28.272  1.00  0.00     0.074 A 
ATOM     48  C   UNL A   1      40.802  26.482  28.191  1.00  0.00     0.031 C 
ATOM     49  C   UNL A   1      47.219  24.786  26.287  1.00  0.00     0.029 A 
ATOM     50  C   UNL A   1      47.039  26.173  26.707  1.00  0.00     0.049 A 
ATOM     51  H   UNL A   1      45.278  27.076  27.363  1.00  0.00     0.167 HD
ATOM     52  C   UNL A   1      41.485  28.808  28.708  1.00  0.00     0.034 A 
ATOM     53  C   UNL A   1      48.011  27.107  26.728  1.00  0.00     0.034 A 
ATOM     54  C   UNL A   1      42.468  29.855  28.822  1.00  0.00     0.049 A 
ATOM     55  C   UNL A   1      47.669  28.495  27.196  1.00  0.00     0.074 A 
ATOM     56  C   UNL A   1      42.290  31.139  29.304  1.00  0.00     0.029 A 
ATOM     57  N   UNL A   1      43.801  29.745  28.457  1.00  0.00    -0.354 N 
ATOM     58  N   UNL A   1      46.520  28.949  27.642  1.00  0.00    -0.248 NA
ATOM     59  C   UNL A   1      48.738  29.501  27.160  1.00  0.00     0.031 C 
ATOM     60  C   UNL A   1      43.499  31.823  29.178  1.00  0.00     0.029 A 
ATOM     61  C   UNL A   1      44.451  30.949  28.674  1.00  0.00     0.049 A 
ATOM     62  H   UNL A   1      44.224  28.931  28.099  1.00  0.00     0.167 HD
ATOM     63  C   UNL A   1      46.729  30.292  27.939  1.00  0.00     0.074 A 
ATOM     64  C   UNL A   1      48.122  30.568  27.657  1.00  0.00     0.031 C 
ATOM     65  C   UNL A   1      45.841  31.211  28.393  1.00  0.00     0.034 A 
BRANCH  52  66
ATOM     66  C   UNL A   1      40.071  29.141  29.114  1.00  0.00     0.023 A 
ATOM     67  C   UNL A   1      39.708  29.105  30.474  1.00  0.00     0.031 A 
ATOM     68  C   UNL A   1      39.061  29.346  28.160  1.00  0.00     0.131 A 
ATOM     69  C   UNL A   1      38.362  29.232  30.838  1.00  0.00     0.055 A 
ATOM     70  C   UNL A   1      37.724  29.507  28.531  1.00  0.00     0.041 A 
ATOM     71  F   UNL A   1      39.359  29.391  26.850  1.00  0.00    -0.206 F 
ATOM     72  C   UNL A   1      37.369  29.437  29.875  1.00  0.00     0.022 A 
BRANCH  69  73
ATOM     73  S   UNL A   1      37.839  29.077  32.569  1.00  0.00     0.124 S 
ATOM     74  O   UNL A   1      38.898  29.805  33.267  1.00  0.00    -0.237 OA
ATOM     75  O   UNL A   1      36.536  29.736  32.553  1.00  0.00    -0.237 OA
ATOM     76  O   UNL A   1      37.820  27.638  32.802  1.00  0.00    -0.744 OA
ENDBRANCH  69  73
ENDBRANCH  52  66
BRANCH  53  77
ATOM     77  C   UNL A   1      49.389  26.722  26.302  1.00  0.00     0.023 A 
ATOM     78  C   UNL A   1      49.946  27.251  25.122  1.00  0.00     0.031 A 
ATOM     79  C   UNL A   1      50.108  25.727  26.982  1.00  0.00     0.131 A 
ATOM     80  C   UNL A   1      51.132  26.715  24.607  1.00  0.00     0.055 A 
ATOM     81  C   UNL A   1      51.332  25.250  26.507  1.00  0.00     0.041 A 
ATOM     82  F   UNL A   1      49.615  25.184  28.105  1.00  0.00    -0.206 F 
ATOM     83  C   UNL A   1      51.838  25.728  25.301  1.00  0.00     0.022 A 
BRANCH  80  84
ATOM     84  S   UNL A   1      51.700  27.156  22.941  1.00  0.00     0.124 S 
ATOM     85  O   UNL A   1      52.971  26.446  22.855  1.00  0.00    -0.237 OA
ATOM     86  O   UNL A   1      50.623  26.625  22.106  1.00  0.00    -0.237 OA
ATOM     87  O   UNL A   1      51.788  28.612  22.981  1.00  0.00    -0.744 OA
ENDBRANCH  80  84
ENDBRANCH  53  77
BRANCH  65  88
ATOM     88  C   UNL A   1      46.317  32.627  28.604  1.00  0.00     0.023 A 
ATOM     89  C   UNL A   1      46.462  33.495  27.506  1.00  0.00     0.031 A 
ATOM     90  C   UNL A   1      46.786  33.051  29.859  1.00  0.00     0.131 A 
ATOM     91  C   UNL A   1      47.111  34.724  27.673  1.00  0.00     0.055 A 
ATOM     92  C   UNL A   1      47.391  34.297  30.030  1.00  0.00     0.041 A 
ATOM     93  F   UNL A   1      46.676  32.253  30.933  1.00  0.00    -0.206 F 
ATOM     94  C   UNL A   1      47.570  35.132  28.930  1.00  0.00     0.022 A 
BRANCH  91  95
ATOM     95  S   UNL A   1      47.461  35.796  26.253  1.00  0.00     0.124 S 
ATOM     96  O   UNL A   1      48.749  36.377  26.623  1.00  0.00    -0.237 OA
ATOM     97  O   UNL A   1      47.500  34.840  25.150  1.00  0.00    -0.237 OA
ATOM     98  O   UNL A   1      46.341  36.731  26.233  1.00  0.00    -0.744 OA
ENDBRANCH  91  95
ENDBRANCH  65  88
ENDBRANCH  39  40
ENDBRANCH  31  34
ENDBRANCH  29  30
ENDBRANCH   1  29
TORSDOF 17
ENDMDL
MODEL 3
REMARK VINA RESULT:     -12.5      1.980      7.595
REMARK SMILES CC(C)N(c1cc2c(cc1Cl)C=C(C(=O)NCCCNC(=O)c1ccc(-c3c4nc(c(-c5cc(S(=O)(=O)[O-])ccc5F)c5ccc([nH]5)c(-c5cc(S(=O)(=O)[O-])ccc5F)c5nc(c(-c6cc(S(=O)(=O)[O-])ccc6F)c6ccc3[nH]6)C=C5)C=C4)cc1)[C@@H](C(F)(F)F)O2)C(C)C
REMARK SMILES IDX 18 1 17 2 16 3 14 4 15 5 13 7 5 8 6 9 10 10 7 11 9 12 11 13
REMARK SMILES IDX 8 14 91 15 12 16 86 17 4 18 2 19 1 20 3 21 92 22 93 23 94 24
REMARK SMILES IDX 87 25 88 26 89 27 90 28 19 29 20 30 21 31 22 33 23 34 24 35
REMARK SMILES IDX 85 36 25 37 84 38 26 39 27 40 28 41 78 42 29 43 83 44 77 45
REMARK SMILES IDX 79 46 30 47 82 48 76 49 75 50 31 52 63 53 43 54 62 55 44 56
REMARK SMILES IDX 47 57 61 58 80 59 45 60 46 61 60 63 81 64 48 65 32 66 33 67
REMARK SMILES IDX 41 68 34 69 40 70 42 71 39 72 35 73 36 74 37 75 38 76 64 77
REMARK SMILES IDX 65 78 73 79 66 80 72 81 74 82 71 83 67 84 68 85 69 86 70 87
REMARK SMILES IDX 49 88 50 89 58 90 51 91 57 92 59 93 56 94 52 95 53 96 54 97
REMARK SMILES IDX 55 98
REMARK H PARENT 16 6 20 32 79 51 47 62
REMARK Flexibility Score: inf
ROOT
ATOM      1  C   UNL A   1      31.757  31.696  26.866  1.00  0.00     0.042 C 
ENDROOT
BRANCH   1   2
ATOM      2  C   UNL A   1      32.056  30.517  25.952  1.00  0.00     0.118 C 
BRANCH   2   3
ATOM      3  N   UNL A   1      31.018  30.337  24.946  1.00  0.00    -0.352 N 
ATOM      4  C   UNL A   1      30.658  29.399  24.042  1.00  0.00     0.251 C 
ATOM      5  O   UNL A   1      29.678  29.690  23.349  1.00  0.00    -0.270 OA
ATOM      6  H   UNL A   1      30.413  31.112  24.915  1.00  0.00     0.163 HD
BRANCH   4   7
ATOM      7  C   UNL A   1      31.330  28.083  23.850  1.00  0.00     0.067 C 
ATOM      8  C   UNL A   1      33.154  23.396  24.454  1.00  0.00     0.060 A 
ATOM      9  C   UNL A   1      32.989  24.272  23.366  1.00  0.00     0.074 A 
ATOM     10  C   UNL A   1      32.624  23.818  25.697  1.00  0.00     0.065 A 
ATOM     11  C   UNL A   1      32.367  25.510  23.514  1.00  0.00     0.130 A 
ATOM     12  C   UNL A   1      31.946  25.041  25.828  1.00  0.00     0.034 A 
ATOM     13  Cl  UNL A   1      32.849  22.917  27.162  1.00  0.00    -0.082 Cl
ATOM     14  C   UNL A   1      31.825  25.896  24.735  1.00  0.00     0.019 A 
ATOM     15  O   UNL A   1      32.302  26.310  22.405  1.00  0.00    -0.475 OA
ATOM     16  C   UNL A   1      31.146  27.182  24.834  1.00  0.00     0.025 C 
ATOM     17  C   UNL A   1      32.210  27.738  22.681  1.00  0.00     0.314 C 
BRANCH   8  18
ATOM     18  N   UNL A   1      33.840  22.178  24.260  1.00  0.00    -0.365 N 
BRANCH  18  19
ATOM     19  C   UNL A   1      35.250  22.143  24.706  1.00  0.00     0.076 C 
ATOM     20  C   UNL A   1      35.740  20.733  25.029  1.00  0.00     0.030 C 
ATOM     21  C   UNL A   1      36.201  22.843  23.738  1.00  0.00     0.030 C 
ENDBRANCH  18  19
BRANCH  18  22
ATOM     22  C   UNL A   1      33.015  21.017  23.857  1.00  0.00     0.076 C 
ATOM     23  C   UNL A   1      32.193  20.451  25.012  1.00  0.00     0.030 C 
ATOM     24  C   UNL A   1      32.141  21.274  22.632  1.00  0.00     0.030 C 
ENDBRANCH  18  22
ENDBRANCH   8  18
BRANCH  17  25
ATOM     25  C   UNL A   1      33.626  28.334  22.820  1.00  0.00     0.429 C 
ATOM     26  F   UNL A   1      34.397  27.988  21.760  1.00  0.00    -0.167 F 
ATOM     27  F   UNL A   1      33.618  29.688  22.862  1.00  0.00    -0.167 F 
ATOM     28  F   UNL A   1      34.266  27.918  23.937  1.00  0.00    -0.167 F 
ENDBRANCH  17  25
ENDBRANCH   4   7
ENDBRANCH   2   3
ENDBRANCH   1   2
BRANCH   1  29
ATOM     29  C   UNL A   1      33.028  32.401  27.325  1.00  0.00     0.118 C 
BRANCH  29  30
ATOM     30  N   UNL A   1      32.789  33.808  27.640  1.00  0.00    -0.352 N 
ATOM     31  C   UNL A   1      33.270  34.579  28.674  1.00  0.00     0.251 C 
ATOM     32  H   UNL A   1      32.190  34.279  27.016  1.00  0.00     0.163 HD
ATOM     33  O   UNL A   1      32.752  35.666  28.915  1.00  0.00    -0.269 OA
BRANCH  31  34
ATOM     34  C   UNL A   1      34.387  34.079  29.502  1.00  0.00     0.039 A 
ATOM     35  C   UNL A   1      35.703  34.368  29.145  1.00  0.00     0.014 A 
ATOM     36  C   UNL A   1      34.122  33.302  30.634  1.00  0.00     0.014 A 
ATOM     37  C   UNL A   1      36.746  33.713  29.783  1.00  0.00     0.010 A 
ATOM     38  C   UNL A   1      35.182  32.733  31.344  1.00  0.00     0.010 A 
ATOM     39  C   UNL A   1      36.501  32.885  30.891  1.00  0.00    -0.014 A 
BRANCH  39  40
ATOM     40  C   UNL A   1      37.644  32.206  31.553  1.00  0.00     0.031 A 
ATOM     41  C   UNL A   1      38.383  31.089  30.866  1.00  0.00     0.074 A 
ATOM     42  C   UNL A   1      38.054  32.646  32.760  1.00  0.00     0.049 A 
ATOM     43  N   UNL A   1      39.407  30.399  31.295  1.00  0.00    -0.248 NA
ATOM     44  C   UNL A   1      37.912  30.689  29.529  1.00  0.00     0.031 C 
ATOM     45  C   UNL A   1      37.416  33.728  33.511  1.00  0.00     0.029 A 
ATOM     46  N   UNL A   1      39.107  32.266  33.555  1.00  0.00    -0.354 N 
ATOM     47  C   UNL A   1      39.686  29.468  30.300  1.00  0.00     0.074 A 
ATOM     48  C   UNL A   1      38.709  29.665  29.253  1.00  0.00     0.031 C 
ATOM     49  C   UNL A   1      38.121  33.965  34.624  1.00  0.00     0.029 A 
ATOM     50  C   UNL A   1      39.208  32.996  34.718  1.00  0.00     0.049 A 
ATOM     51  H   UNL A   1      39.729  31.542  33.316  1.00  0.00     0.167 HD
ATOM     52  C   UNL A   1      40.675  28.545  30.264  1.00  0.00     0.034 A 
ATOM     53  C   UNL A   1      40.059  32.885  35.758  1.00  0.00     0.034 A 
ATOM     54  C   UNL A   1      41.666  28.392  31.299  1.00  0.00     0.049 A 
ATOM     55  C   UNL A   1      41.136  31.836  35.703  1.00  0.00     0.074 A 
ATOM     56  C   UNL A   1      42.740  27.520  31.325  1.00  0.00     0.029 A 
ATOM     57  N   UNL A   1      41.711  29.119  32.478  1.00  0.00    -0.354 N 
ATOM     58  N   UNL A   1      41.409  30.994  34.733  1.00  0.00    -0.248 NA
ATOM     59  C   UNL A   1      42.015  31.710  36.872  1.00  0.00     0.031 C 
ATOM     60  C   UNL A   1      43.399  27.679  32.544  1.00  0.00     0.029 A 
ATOM     61  C   UNL A   1      42.776  28.694  33.255  1.00  0.00     0.049 A 
ATOM     62  H   UNL A   1      41.080  29.834  32.727  1.00  0.00     0.167 HD
ATOM     63  C   UNL A   1      42.491  30.239  35.176  1.00  0.00     0.074 A 
ATOM     64  C   UNL A   1      42.844  30.748  36.485  1.00  0.00     0.031 C 
ATOM     65  C   UNL A   1      43.121  29.211  34.557  1.00  0.00     0.034 A 
BRANCH  52  66
ATOM     66  C   UNL A   1      40.771  27.623  29.075  1.00  0.00     0.023 A 
ATOM     67  C   UNL A   1      41.702  27.893  28.054  1.00  0.00     0.031 A 
ATOM     68  C   UNL A   1      39.854  26.576  28.880  1.00  0.00     0.131 A 
ATOM     69  C   UNL A   1      41.670  27.150  26.868  1.00  0.00     0.055 A 
ATOM     70  C   UNL A   1      39.848  25.816  27.709  1.00  0.00     0.041 A 
ATOM     71  F   UNL A   1      38.948  26.279  29.826  1.00  0.00    -0.206 F 
ATOM     72  C   UNL A   1      40.751  26.111  26.691  1.00  0.00     0.022 A 
BRANCH  69  73
ATOM     73  S   UNL A   1      42.777  27.541  25.484  1.00  0.00     0.124 S 
ATOM     74  O   UNL A   1      42.044  28.612  24.809  1.00  0.00    -0.237 OA
ATOM     75  O   UNL A   1      43.993  27.959  26.176  1.00  0.00    -0.237 OA
ATOM     76  O   UNL A   1      42.867  26.290  24.742  1.00  0.00    -0.744 OA
ENDBRANCH  69  73
ENDBRANCH  52  66
BRANCH  53  77
ATOM     77  C   UNL A   1      39.907  33.817  36.914  1.00  0.00     0.023 A 
ATOM     78  C   UNL A   1      40.779  34.912  37.070  1.00  0.00     0.031 A 
ATOM     79  C   UNL A   1      38.991  33.552  37.945  1.00  0.00     0.131 A 
ATOM     80  C   UNL A   1      40.782  35.639  38.266  1.00  0.00     0.055 A 
ATOM     81  C   UNL A   1      38.943  34.330  39.103  1.00  0.00     0.041 A 
ATOM     82  F   UNL A   1      38.147  32.514  37.848  1.00  0.00    -0.206 F 
ATOM     83  C   UNL A   1      39.858  35.364  39.278  1.00  0.00     0.022 A 
BRANCH  80  84
ATOM     84  S   UNL A   1      42.096  36.841  38.614  1.00  0.00     0.124 S 
ATOM     85  O   UNL A   1      42.915  36.124  39.585  1.00  0.00    -0.237 OA
ATOM     86  O   UNL A   1      42.696  37.022  37.293  1.00  0.00    -0.237 OA
ATOM     87  O   UNL A   1      41.374  38.001  39.127  1.00  0.00    -0.744 OA
ENDBRANCH  80  84
ENDBRANCH  53  77
BRANCH  65  88
ATOM     88  C   UNL A   1      44.258  28.527  35.274  1.00  0.00     0.023 A 
ATOM     89  C   UNL A   1      43.994  27.488  36.185  1.00  0.00     0.031 A 
ATOM     90  C   UNL A   1      45.570  29.021  35.184  1.00  0.00     0.131 A 
ATOM     91  C   UNL A   1      45.020  27.011  37.011  1.00  0.00     0.055 A 
ATOM     92  C   UNL A   1      46.599  28.511  35.977  1.00  0.00     0.041 A 
ATOM     93  F   UNL A   1      45.866  30.019  34.335  1.00  0.00    -0.206 F 
ATOM     94  C   UNL A   1      46.321  27.513  36.907  1.00  0.00     0.022 A 
BRANCH  91  95
ATOM     95  S   UNL A   1      44.684  25.789  38.308  1.00  0.00     0.124 S 
ATOM     96  O   UNL A   1      46.032  25.408  38.721  1.00  0.00    -0.237 OA
ATOM     97  O   UNL A   1      43.931  26.575  39.282  1.00  0.00    -0.237 OA
ATOM     98  O   UNL A   1      43.926  24.748  37.623  1.00  0.00    -0.744 OA
ENDBRANCH  91  95
ENDBRANCH  65  88
ENDBRANCH  39  40
ENDBRANCH  31  34
ENDBRANCH  29  30
ENDBRANCH   1  29
TORSDOF 17
ENDMDL
