MODEL 1
REMARK VINA RESULT:     -11.4      0.000      0.000
REMARK SMILES CN(c1ccc(C(=O)NCCCNC(=O)c2ccc(-c3c4nc(c(-c5cc(S(=O)(=O)[O-])ccc5F)c5ccc([nH]5)c(-c5cc(S(=O)(=O)[O-])ccc5F)c5nc(c(-c6cc(S(=O)(=O)[O-])ccc6F)c6ccc3[nH]6)C=C5)C=C4)cc2)cc1)S(C)(=O)=O
REMARK SMILES IDX 11 1 10 2 9 3 7 4 8 5 6 7 3 8 4 9 80 10 5 11 79 12 2 13 1 14
REMARK SMILES IDX 81 15 82 16 83 17 84 18 12 19 13 20 14 21 15 23 16 24 17 25
REMARK SMILES IDX 78 26 18 27 77 28 19 29 20 30 21 31 71 32 22 33 76 34 70 35
REMARK SMILES IDX 72 36 23 37 75 38 69 39 68 40 24 42 56 43 36 44 55 45 37 46
REMARK SMILES IDX 40 47 54 48 73 49 38 50 39 51 53 53 74 54 41 55 25 56 26 57
REMARK SMILES IDX 34 58 27 59 33 60 35 61 32 62 28 63 29 64 30 65 31 66 57 67
REMARK SMILES IDX 58 68 66 69 59 70 65 71 67 72 64 73 60 74 61 75 62 76 63 77
REMARK SMILES IDX 42 78 43 79 51 80 44 81 50 82 52 83 49 84 45 85 46 86 47 87
REMARK SMILES IDX 48 88
REMARK H PARENT 9 6 13 22 72 41 40 52
REMARK Flexibility Score: inf
ROOT
ATOM      1  C   UNL A   1      31.345  31.989  26.497  1.00  0.00     0.042 C 
ENDROOT
BRANCH   1   2
ATOM      2  C   UNL A   1      31.432  30.626  25.813  1.00  0.00     0.118 C 
BRANCH   2   3
ATOM      3  N   UNL A   1      30.640  30.607  24.597  1.00  0.00    -0.352 N 
ATOM      4  C   UNL A   1      30.333  29.609  23.711  1.00  0.00     0.251 C 
ATOM      5  O   UNL A   1      29.582  29.889  22.777  1.00  0.00    -0.269 OA
ATOM      6  H   UNL A   1      30.249  31.480  24.364  1.00  0.00     0.163 HD
BRANCH   4   7
ATOM      7  C   UNL A   1      30.797  28.202  23.870  1.00  0.00     0.039 A 
ATOM      8  C   UNL A   1      31.484  25.511  24.331  1.00  0.00     0.051 A 
ATOM      9  C   UNL A   1      30.144  25.899  24.307  1.00  0.00     0.028 A 
ATOM     10  C   UNL A   1      32.477  26.453  24.061  1.00  0.00     0.028 A 
ATOM     11  C   UNL A   1      29.805  27.234  24.078  1.00  0.00     0.016 A 
ATOM     12  C   UNL A   1      32.131  27.788  23.806  1.00  0.00     0.016 A 
BRANCH   8  13
ATOM     13  N   UNL A   1      31.822  24.172  24.692  1.00  0.00    -0.274 N 
ATOM     14  C   UNL A   1      31.499  23.076  23.773  1.00  0.00     0.163 C 
BRANCH  13  15
ATOM     15  S   UNL A   1      32.331  23.816  26.260  1.00  0.00     0.231 S 
ATOM     16  C   UNL A   1      32.560  22.053  26.171  1.00  0.00     0.183 C 
ATOM     17  O   UNL A   1      33.647  24.403  26.441  1.00  0.00    -0.207 OA
ATOM     18  O   UNL A   1      31.271  24.076  27.208  1.00  0.00    -0.207 OA
ENDBRANCH  13  15
ENDBRANCH   8  13
ENDBRANCH   4   7
ENDBRANCH   2   3
ENDBRANCH   1   2
BRANCH   1  19
ATOM     19  C   UNL A   1      32.658  32.419  27.146  1.00  0.00     0.118 C 
BRANCH  19  20
ATOM     20  N   UNL A   1      32.604  33.799  27.607  1.00  0.00    -0.352 N 
ATOM     21  C   UNL A   1      33.273  34.412  28.636  1.00  0.00     0.251 C 
ATOM     22  H   UNL A   1      31.993  34.382  27.102  1.00  0.00     0.163 HD
ATOM     23  O   UNL A   1      32.882  35.507  29.032  1.00  0.00    -0.269 OA
BRANCH  21  24
ATOM     24  C   UNL A   1      34.442  33.764  29.270  1.00  0.00     0.039 A 
ATOM     25  C   UNL A   1      35.724  34.214  28.941  1.00  0.00     0.014 A 
ATOM     26  C   UNL A   1      34.286  32.688  30.148  1.00  0.00     0.014 A 
ATOM     27  C   UNL A   1      36.842  33.622  29.533  1.00  0.00     0.010 A 
ATOM     28  C   UNL A   1      35.396  32.150  30.796  1.00  0.00     0.010 A 
ATOM     29  C   UNL A   1      36.687  32.607  30.491  1.00  0.00    -0.014 A 
BRANCH  29  30
ATOM     30  C   UNL A   1      37.864  32.018  31.183  1.00  0.00     0.031 A 
ATOM     31  C   UNL A   1      38.676  30.941  30.511  1.00  0.00     0.074 A 
ATOM     32  C   UNL A   1      38.163  32.413  32.438  1.00  0.00     0.049 A 
ATOM     33  N   UNL A   1      39.690  30.259  30.979  1.00  0.00    -0.248 NA
ATOM     34  C   UNL A   1      38.282  30.564  29.144  1.00  0.00     0.031 C 
ATOM     35  C   UNL A   1      37.423  33.421  33.202  1.00  0.00     0.029 A 
ATOM     36  N   UNL A   1      39.155  32.013  33.300  1.00  0.00    -0.354 N 
ATOM     37  C   UNL A   1      40.039  29.360  29.978  1.00  0.00     0.074 A 
ATOM     38  C   UNL A   1      39.104  29.554  28.891  1.00  0.00     0.031 C 
ATOM     39  C   UNL A   1      37.996  33.571  34.407  1.00  0.00     0.029 A 
ATOM     40  C   UNL A   1      39.107  32.633  34.527  1.00  0.00     0.049 A 
ATOM     41  H   UNL A   1      39.836  31.344  33.060  1.00  0.00     0.167 HD
ATOM     42  C   UNL A   1      41.056  28.463  29.965  1.00  0.00     0.034 A 
ATOM     43  C   UNL A   1      39.856  32.451  35.634  1.00  0.00     0.034 A 
ATOM     44  C   UNL A   1      41.994  28.300  31.049  1.00  0.00     0.049 A 
ATOM     45  C   UNL A   1      40.972  31.435  35.592  1.00  0.00     0.074 A 
ATOM     46  C   UNL A   1      43.109  27.482  31.102  1.00  0.00     0.029 A 
ATOM     47  N   UNL A   1      41.921  28.953  32.272  1.00  0.00    -0.354 N 
ATOM     48  N   UNL A   1      41.336  30.649  34.604  1.00  0.00    -0.248 NA
ATOM     49  C   UNL A   1      41.788  31.291  36.804  1.00  0.00     0.031 C 
ATOM     50  C   UNL A   1      43.656  27.571  32.384  1.00  0.00     0.029 A 
ATOM     51  C   UNL A   1      42.945  28.520  33.101  1.00  0.00     0.049 A 
ATOM     52  H   UNL A   1      41.243  29.624  32.515  1.00  0.00     0.167 HD
ATOM     53  C   UNL A   1      42.447  29.947  35.068  1.00  0.00     0.074 A 
ATOM     54  C   UNL A   1      42.703  30.417  36.412  1.00  0.00     0.031 C 
ATOM     55  C   UNL A   1      43.189  28.999  34.441  1.00  0.00     0.034 A 
BRANCH  42  56
ATOM     56  C   UNL A   1      41.195  27.559  28.763  1.00  0.00     0.023 A 
ATOM     57  C   UNL A   1      42.187  27.757  27.789  1.00  0.00     0.031 A 
ATOM     58  C   UNL A   1      40.335  26.455  28.614  1.00  0.00     0.131 A 
ATOM     59  C   UNL A   1      42.269  26.889  26.687  1.00  0.00     0.055 A 
ATOM     60  C   UNL A   1      40.468  25.555  27.556  1.00  0.00     0.041 A 
ATOM     61  F   UNL A   1      39.354  26.229  29.500  1.00  0.00    -0.206 F 
ATOM     62  C   UNL A   1      41.435  25.774  26.580  1.00  0.00     0.022 A 
BRANCH  59  63
ATOM     63  S   UNL A   1      43.413  27.297  25.341  1.00  0.00     0.124 S 
ATOM     64  O   UNL A   1      43.950  25.981  25.001  1.00  0.00    -0.237 OA
ATOM     65  O   UNL A   1      42.532  27.901  24.348  1.00  0.00    -0.237 OA
ATOM     66  O   UNL A   1      44.368  28.209  25.966  1.00  0.00    -0.744 OA
ENDBRANCH  59  63
ENDBRANCH  42  56
BRANCH  43  67
ATOM     67  C   UNL A   1      39.566  33.206  36.891  1.00  0.00     0.023 A 
ATOM     68  C   UNL A   1      38.764  32.654  37.901  1.00  0.00     0.031 A 
ATOM     69  C   UNL A   1      40.017  34.528  37.061  1.00  0.00     0.131 A 
ATOM     70  C   UNL A   1      38.372  33.443  38.995  1.00  0.00     0.055 A 
ATOM     71  C   UNL A   1      39.687  35.284  38.187  1.00  0.00     0.041 A 
ATOM     72  F   UNL A   1      40.790  35.109  36.129  1.00  0.00    -0.206 F 
ATOM     73  C   UNL A   1      38.841  34.749  39.153  1.00  0.00     0.022 A 
BRANCH  70  74
ATOM     74  S   UNL A   1      37.122  32.785  40.135  1.00  0.00     0.124 S 
ATOM     75  O   UNL A   1      35.979  32.607  39.248  1.00  0.00    -0.237 OA
ATOM     76  O   UNL A   1      37.763  31.564  40.611  1.00  0.00    -0.237 OA
ATOM     77  O   UNL A   1      36.983  33.844  41.133  1.00  0.00    -0.744 OA
ENDBRANCH  70  74
ENDBRANCH  43  67
BRANCH  55  78
ATOM     78  C   UNL A   1      44.386  28.455  35.184  1.00  0.00     0.023 A 
ATOM     79  C   UNL A   1      44.289  27.344  36.038  1.00  0.00     0.031 A 
ATOM     80  C   UNL A   1      45.644  29.067  35.035  1.00  0.00     0.131 A 
ATOM     81  C   UNL A   1      45.414  26.917  36.760  1.00  0.00     0.055 A 
ATOM     82  C   UNL A   1      46.775  28.593  35.698  1.00  0.00     0.041 A 
ATOM     83  F   UNL A   1      45.795  30.136  34.235  1.00  0.00    -0.206 F 
ATOM     84  C   UNL A   1      46.662  27.521  36.578  1.00  0.00     0.022 A 
BRANCH  81  85
ATOM     85  S   UNL A   1      45.205  25.629  38.019  1.00  0.00     0.124 S 
ATOM     86  O   UNL A   1      45.080  24.427  37.202  1.00  0.00    -0.237 OA
ATOM     87  O   UNL A   1      46.434  25.749  38.796  1.00  0.00    -0.237 OA
ATOM     88  O   UNL A   1      43.987  26.032  38.721  1.00  0.00    -0.744 OA
ENDBRANCH  81  85
ENDBRANCH  55  78
ENDBRANCH  29  30
ENDBRANCH  21  24
ENDBRANCH  19  20
ENDBRANCH   1  19
TORSDOF 15
ENDMDL
MODEL 2
REMARK VINA RESULT:     -11.3      1.566      1.954
REMARK SMILES CN(c1ccc(C(=O)NCCCNC(=O)c2ccc(-c3c4nc(c(-c5cc(S(=O)(=O)[O-])ccc5F)c5ccc([nH]5)c(-c5cc(S(=O)(=O)[O-])ccc5F)c5nc(c(-c6cc(S(=O)(=O)[O-])ccc6F)c6ccc3[nH]6)C=C5)C=C4)cc2)cc1)S(C)(=O)=O
REMARK SMILES IDX 11 1 10 2 9 3 7 4 8 5 6 7 3 8 4 9 80 10 5 11 79 12 2 13 1 14
REMARK SMILES IDX 81 15 82 16 83 17 84 18 12 19 13 20 14 21 15 23 16 24 17 25
REMARK SMILES IDX 78 26 18 27 77 28 19 29 20 30 21 31 71 32 22 33 76 34 70 35
REMARK SMILES IDX 72 36 23 37 75 38 69 39 68 40 24 42 56 43 36 44 55 45 37 46
REMARK SMILES IDX 40 47 54 48 73 49 38 50 39 51 53 53 74 54 41 55 25 56 26 57
REMARK SMILES IDX 34 58 27 59 33 60 35 61 32 62 28 63 29 64 30 65 31 66 57 67
REMARK SMILES IDX 58 68 66 69 59 70 65 71 67 72 64 73 60 74 61 75 62 76 63 77
REMARK SMILES IDX 42 78 43 79 51 80 44 81 50 82 52 83 49 84 45 85 46 86 47 87
REMARK SMILES IDX 48 88
REMARK H PARENT 9 6 13 22 72 41 40 52
REMARK Flexibility Score: inf
ROOT
ATOM      1  C   UNL A   1      31.349  31.458  26.450  1.00  0.00     0.042 C 
ENDROOT
BRANCH   1   2
ATOM      2  C   UNL A   1      31.610  30.331  25.453  1.00  0.00     0.118 C 
BRANCH   2   3
ATOM      3  N   UNL A   1      30.607  30.326  24.405  1.00  0.00    -0.352 N 
ATOM      4  C   UNL A   1      30.214  29.368  23.508  1.00  0.00     0.251 C 
ATOM      5  O   UNL A   1      29.280  29.644  22.754  1.00  0.00    -0.269 OA
ATOM      6  H   UNL A   1      30.114  31.174  24.322  1.00  0.00     0.163 HD
BRANCH   4   7
ATOM      7  C   UNL A   1      30.804  28.001  23.459  1.00  0.00     0.039 A 
ATOM      8  C   UNL A   1      31.891  25.409  23.617  1.00  0.00     0.051 A 
ATOM      9  C   UNL A   1      30.850  25.786  24.466  1.00  0.00     0.028 A 
ATOM     10  C   UNL A   1      32.344  26.302  22.646  1.00  0.00     0.028 A 
ATOM     11  C   UNL A   1      30.312  27.072  24.388  1.00  0.00     0.016 A 
ATOM     12  C   UNL A   1      31.784  27.584  22.553  1.00  0.00     0.016 A 
BRANCH   8  13
ATOM     13  N   UNL A   1      32.517  24.139  23.794  1.00  0.00    -0.274 N 
ATOM     14  C   UNL A   1      31.685  22.945  23.975  1.00  0.00     0.163 C 
BRANCH  13  15
ATOM     15  S   UNL A   1      34.179  24.040  24.068  1.00  0.00     0.231 S 
ATOM     16  C   UNL A   1      34.310  22.474  24.906  1.00  0.00     0.183 C 
ATOM     17  O   UNL A   1      34.830  23.883  22.780  1.00  0.00    -0.207 OA
ATOM     18  O   UNL A   1      34.602  25.070  24.989  1.00  0.00    -0.207 OA
ENDBRANCH  13  15
ENDBRANCH   8  13
ENDBRANCH   4   7
ENDBRANCH   2   3
ENDBRANCH   1   2
BRANCH   1  19
ATOM     19  C   UNL A   1      32.626  32.019  27.070  1.00  0.00     0.118 C 
BRANCH  19  20
ATOM     20  N   UNL A   1      32.517  33.448  27.326  1.00  0.00    -0.352 N 
ATOM     21  C   UNL A   1      33.128  34.223  28.279  1.00  0.00     0.251 C 
ATOM     22  H   UNL A   1      31.912  33.934  26.721  1.00  0.00     0.163 HD
ATOM     23  O   UNL A   1      32.692  35.350  28.500  1.00  0.00    -0.269 OA
BRANCH  21  24
ATOM     24  C   UNL A   1      34.288  33.708  29.041  1.00  0.00     0.039 A 
ATOM     25  C   UNL A   1      34.086  32.675  29.960  1.00  0.00     0.014 A 
ATOM     26  C   UNL A   1      35.560  34.267  28.889  1.00  0.00     0.014 A 
ATOM     27  C   UNL A   1      35.168  32.168  30.685  1.00  0.00     0.010 A 
ATOM     28  C   UNL A   1      36.650  33.710  29.554  1.00  0.00     0.010 A 
ATOM     29  C   UNL A   1      36.465  32.658  30.464  1.00  0.00    -0.014 A 
BRANCH  29  30
ATOM     30  C   UNL A   1      37.636  32.079  31.174  1.00  0.00     0.031 A 
ATOM     31  C   UNL A   1      38.447  30.985  30.529  1.00  0.00     0.074 A 
ATOM     32  C   UNL A   1      37.931  32.498  32.421  1.00  0.00     0.049 A 
ATOM     33  N   UNL A   1      39.455  30.308  31.015  1.00  0.00    -0.248 NA
ATOM     34  C   UNL A   1      38.058  30.580  29.168  1.00  0.00     0.031 C 
ATOM     35  C   UNL A   1      37.191  33.524  33.161  1.00  0.00     0.029 A 
ATOM     36  N   UNL A   1      38.917  32.112  33.296  1.00  0.00    -0.354 N 
ATOM     37  C   UNL A   1      39.806  29.386  30.035  1.00  0.00     0.074 A 
ATOM     38  C   UNL A   1      38.877  29.562  28.940  1.00  0.00     0.031 C 
ATOM     39  C   UNL A   1      37.759  33.697  34.365  1.00  0.00     0.029 A 
ATOM     40  C   UNL A   1      38.866  32.758  34.510  1.00  0.00     0.049 A 
ATOM     41  H   UNL A   1      39.596  31.435  33.074  1.00  0.00     0.167 HD
ATOM     42  C   UNL A   1      40.819  28.485  30.045  1.00  0.00     0.034 A 
ATOM     43  C   UNL A   1      39.609  32.596  35.625  1.00  0.00     0.034 A 
ATOM     44  C   UNL A   1      41.751  28.342  31.137  1.00  0.00     0.049 A 
ATOM     45  C   UNL A   1      40.721  31.574  35.609  1.00  0.00     0.074 A 
ATOM     46  C   UNL A   1      42.862  27.520  31.213  1.00  0.00     0.029 A 
ATOM     47  N   UNL A   1      41.675  29.020  32.346  1.00  0.00    -0.354 N 
ATOM     48  N   UNL A   1      41.086  30.766  34.639  1.00  0.00    -0.248 NA
ATOM     49  C   UNL A   1      41.530  31.452  36.828  1.00  0.00     0.031 C 
ATOM     50  C   UNL A   1      43.404  27.633  32.495  1.00  0.00     0.029 A 
ATOM     51  C   UNL A   1      42.693  28.600  33.189  1.00  0.00     0.049 A 
ATOM     52  H   UNL A   1      40.999  29.699  32.572  1.00  0.00     0.167 HD
ATOM     53  C   UNL A   1      42.191  30.069  35.123  1.00  0.00     0.074 A 
ATOM     54  C   UNL A   1      42.443  30.567  36.458  1.00  0.00     0.031 C 
ATOM     55  C   UNL A   1      42.933  29.105  34.520  1.00  0.00     0.034 A 
BRANCH  42  56
ATOM     56  C   UNL A   1      40.960  27.556  28.863  1.00  0.00     0.023 A 
ATOM     57  C   UNL A   1      41.950  27.736  27.884  1.00  0.00     0.031 A 
ATOM     58  C   UNL A   1      40.104  26.446  28.739  1.00  0.00     0.131 A 
ATOM     59  C   UNL A   1      42.034  26.845  26.801  1.00  0.00     0.055 A 
ATOM     60  C   UNL A   1      40.239  25.524  27.701  1.00  0.00     0.041 A 
ATOM     61  F   UNL A   1      39.124  26.237  29.631  1.00  0.00    -0.206 F 
ATOM     62  C   UNL A   1      41.205  25.725  26.719  1.00  0.00     0.022 A 
BRANCH  59  63
ATOM     63  S   UNL A   1      43.176  27.227  25.446  1.00  0.00     0.124 S 
ATOM     64  O   UNL A   1      42.344  28.068  24.587  1.00  0.00    -0.237 OA
ATOM     65  O   UNL A   1      44.270  27.903  26.133  1.00  0.00    -0.237 OA
ATOM     66  O   UNL A   1      43.503  25.916  24.891  1.00  0.00    -0.744 OA
ENDBRANCH  59  63
ENDBRANCH  42  56
BRANCH  43  67
ATOM     67  C   UNL A   1      39.316  33.378  36.864  1.00  0.00     0.023 A 
ATOM     68  C   UNL A   1      39.938  34.613  37.107  1.00  0.00     0.031 A 
ATOM     69  C   UNL A   1      38.472  32.861  37.864  1.00  0.00     0.131 A 
ATOM     70  C   UNL A   1      39.772  35.248  38.349  1.00  0.00     0.055 A 
ATOM     71  C   UNL A   1      38.251  33.534  39.067  1.00  0.00     0.041 A 
ATOM     72  F   UNL A   1      37.847  31.686  37.687  1.00  0.00    -0.206 F 
ATOM     73  C   UNL A   1      38.921  34.726  39.324  1.00  0.00     0.022 A 
BRANCH  70  74
ATOM     74  S   UNL A   1      40.801  36.695  38.725  1.00  0.00     0.124 S 
ATOM     75  O   UNL A   1      41.583  36.828  37.502  1.00  0.00    -0.237 OA
ATOM     76  O   UNL A   1      39.796  37.726  38.961  1.00  0.00    -0.237 OA
ATOM     77  O   UNL A   1      41.553  36.277  39.907  1.00  0.00    -0.744 OA
ENDBRANCH  70  74
ENDBRANCH  43  67
BRANCH  55  78
ATOM     78  C   UNL A   1      44.124  28.573  35.280  1.00  0.00     0.023 A 
ATOM     79  C   UNL A   1      44.012  27.498  36.178  1.00  0.00     0.031 A 
ATOM     80  C   UNL A   1      45.390  29.158  35.103  1.00  0.00     0.131 A 
ATOM     81  C   UNL A   1      45.133  27.082  36.912  1.00  0.00     0.055 A 
ATOM     82  C   UNL A   1      46.517  28.693  35.780  1.00  0.00     0.041 A 
ATOM     83  F   UNL A   1      45.555  30.192  34.261  1.00  0.00    -0.206 F 
ATOM     84  C   UNL A   1      46.390  27.658  36.703  1.00  0.00     0.022 A 
BRANCH  81  85
ATOM     85  S   UNL A   1      44.908  25.848  38.222  1.00  0.00     0.124 S 
ATOM     86  O   UNL A   1      46.229  25.820  38.840  1.00  0.00    -0.237 OA
ATOM     87  O   UNL A   1      43.840  26.436  39.024  1.00  0.00    -0.237 OA
ATOM     88  O   UNL A   1      44.539  24.637  37.491  1.00  0.00    -0.744 OA
ENDBRANCH  81  85
ENDBRANCH  55  78
ENDBRANCH  29  30
ENDBRANCH  21  24
ENDBRANCH  19  20
ENDBRANCH   1  19
TORSDOF 15
ENDMDL
MODEL 3
REMARK VINA RESULT:     -11.2      3.546      8.999
REMARK SMILES CN(c1ccc(C(=O)NCCCNC(=O)c2ccc(-c3c4nc(c(-c5cc(S(=O)(=O)[O-])ccc5F)c5ccc([nH]5)c(-c5cc(S(=O)(=O)[O-])ccc5F)c5nc(c(-c6cc(S(=O)(=O)[O-])ccc6F)c6ccc3[nH]6)C=C5)C=C4)cc2)cc1)S(C)(=O)=O
REMARK SMILES IDX 11 1 10 2 9 3 7 4 8 5 6 7 3 8 4 9 80 10 5 11 79 12 2 13 1 14
REMARK SMILES IDX 81 15 82 16 83 17 84 18 12 19 13 20 14 21 15 23 16 24 17 25
REMARK SMILES IDX 78 26 18 27 77 28 19 29 20 30 21 31 71 32 22 33 76 34 70 35
REMARK SMILES IDX 72 36 23 37 75 38 69 39 68 40 24 42 56 43 36 44 55 45 37 46
REMARK SMILES IDX 40 47 54 48 73 49 38 50 39 51 53 53 74 54 41 55 25 56 26 57
REMARK SMILES IDX 34 58 27 59 33 60 35 61 32 62 28 63 29 64 30 65 31 66 57 67
REMARK SMILES IDX 58 68 66 69 59 70 65 71 67 72 64 73 60 74 61 75 62 76 63 77
REMARK SMILES IDX 42 78 43 79 51 80 44 81 50 82 52 83 49 84 45 85 46 86 47 87
REMARK SMILES IDX 48 88
REMARK H PARENT 9 6 13 22 72 41 40 52
REMARK Flexibility Score: inf
ROOT
ATOM      1  C   UNL A   1      32.508  28.485  26.511  1.00  0.00     0.042 C 
ENDROOT
BRANCH   1   2
ATOM      2  C   UNL A   1      32.637  26.963  26.479  1.00  0.00     0.118 C 
BRANCH   2   3
ATOM      3  N   UNL A   1      33.247  26.522  25.239  1.00  0.00    -0.352 N 
ATOM      4  C   UNL A   1      32.920  26.728  23.925  1.00  0.00     0.251 C 
ATOM      5  O   UNL A   1      33.671  26.258  23.071  1.00  0.00    -0.269 OA
ATOM      6  H   UNL A   1      34.051  25.967  25.367  1.00  0.00     0.163 HD
BRANCH   4   7
ATOM      7  C   UNL A   1      31.757  27.551  23.491  1.00  0.00     0.039 A 
ATOM      8  C   UNL A   1      29.699  29.311  22.719  1.00  0.00     0.051 A 
ATOM      9  C   UNL A   1      31.030  29.629  22.451  1.00  0.00     0.028 A 
ATOM     10  C   UNL A   1      29.390  28.086  23.312  1.00  0.00     0.028 A 
ATOM     11  C   UNL A   1      32.050  28.756  22.836  1.00  0.00     0.016 A 
ATOM     12  C   UNL A   1      30.415  27.200  23.673  1.00  0.00     0.016 A 
BRANCH   8  13
ATOM     13  N   UNL A   1      28.677  30.267  22.438  1.00  0.00    -0.274 N 
ATOM     14  C   UNL A   1      28.027  30.261  21.123  1.00  0.00     0.163 C 
BRANCH  13  15
ATOM     15  S   UNL A   1      28.408  31.559  23.489  1.00  0.00     0.231 S 
ATOM     16  C   UNL A   1      28.759  32.953  22.439  1.00  0.00     0.183 C 
ATOM     17  O   UNL A   1      26.988  31.600  23.783  1.00  0.00    -0.207 OA
ATOM     18  O   UNL A   1      29.383  31.554  24.556  1.00  0.00    -0.207 OA
ENDBRANCH  13  15
ENDBRANCH   8  13
ENDBRANCH   4   7
ENDBRANCH   2   3
ENDBRANCH   1   2
BRANCH   1  19
ATOM     19  C   UNL A   1      33.846  29.203  26.351  1.00  0.00     0.118 C 
BRANCH  19  20
ATOM     20  N   UNL A   1      33.797  30.556  26.886  1.00  0.00    -0.352 N 
ATOM     21  C   UNL A   1      34.560  31.148  27.861  1.00  0.00     0.251 C 
ATOM     22  H   UNL A   1      33.110  31.137  26.487  1.00  0.00     0.163 HD
ATOM     23  O   UNL A   1      34.179  32.205  28.356  1.00  0.00    -0.269 OA
BRANCH  21  24
ATOM     24  C   UNL A   1      35.818  30.519  28.320  1.00  0.00     0.039 A 
ATOM     25  C   UNL A   1      36.990  30.747  27.593  1.00  0.00     0.014 A 
ATOM     26  C   UNL A   1      35.842  29.673  29.432  1.00  0.00     0.014 A 
ATOM     27  C   UNL A   1      38.192  30.170  28.012  1.00  0.00     0.010 A 
ATOM     28  C   UNL A   1      37.053  29.162  29.894  1.00  0.00     0.010 A 
ATOM     29  C   UNL A   1      38.241  29.399  29.185  1.00  0.00    -0.014 A 
BRANCH  29  30
ATOM     30  C   UNL A   1      39.525  28.840  29.684  1.00  0.00     0.031 A 
ATOM     31  C   UNL A   1      40.245  29.503  30.829  1.00  0.00     0.074 A 
ATOM     32  C   UNL A   1      40.068  27.772  29.066  1.00  0.00     0.049 A 
ATOM     33  N   UNL A   1      41.405  29.207  31.357  1.00  0.00    -0.248 NA
ATOM     34  C   UNL A   1      39.588  30.667  31.446  1.00  0.00     0.031 C 
ATOM     35  C   UNL A   1      39.479  27.072  27.921  1.00  0.00     0.029 A 
ATOM     36  N   UNL A   1      41.239  27.091  29.297  1.00  0.00    -0.354 N 
ATOM     37  C   UNL A   1      41.627  30.157  32.349  1.00  0.00     0.074 A 
ATOM     38  C   UNL A   1      40.501  31.064  32.323  1.00  0.00     0.031 C 
ATOM     39  C   UNL A   1      40.280  26.055  27.564  1.00  0.00     0.029 A 
ATOM     40  C   UNL A   1      41.467  26.061  28.413  1.00  0.00     0.049 A 
ATOM     41  H   UNL A   1      41.857  27.321  30.028  1.00  0.00     0.167 HD
ATOM     42  C   UNL A   1      42.671  30.253  33.208  1.00  0.00     0.034 A 
ATOM     43  C   UNL A   1      42.522  25.231  28.283  1.00  0.00     0.034 A 
ATOM     44  C   UNL A   1      43.774  29.323  33.234  1.00  0.00     0.049 A 
ATOM     45  C   UNL A   1      43.675  25.373  29.248  1.00  0.00     0.074 A 
ATOM     46  C   UNL A   1      44.838  29.281  34.118  1.00  0.00     0.029 A 
ATOM     47  N   UNL A   1      43.966  28.286  32.331  1.00  0.00    -0.354 N 
ATOM     48  N   UNL A   1      43.828  26.230  30.232  1.00  0.00    -0.248 NA
ATOM     49  C   UNL A   1      44.789  24.428  29.097  1.00  0.00     0.031 C 
ATOM     50  C   UNL A   1      45.717  28.279  33.698  1.00  0.00     0.029 A 
ATOM     51  C   UNL A   1      45.155  27.629  32.611  1.00  0.00     0.049 A 
ATOM     52  H   UNL A   1      43.350  28.052  31.600  1.00  0.00     0.167 HD
ATOM     53  C   UNL A   1      45.039  25.899  30.837  1.00  0.00     0.074 A 
ATOM     54  C   UNL A   1      45.561  24.755  30.122  1.00  0.00     0.031 C 
ATOM     55  C   UNL A   1      45.664  26.487  31.889  1.00  0.00     0.034 A 
BRANCH  42  56
ATOM     56  C   UNL A   1      42.699  31.417  34.169  1.00  0.00     0.023 A 
ATOM     57  C   UNL A   1      42.007  31.394  35.392  1.00  0.00     0.031 A 
ATOM     58  C   UNL A   1      43.467  32.557  33.867  1.00  0.00     0.131 A 
ATOM     59  C   UNL A   1      42.063  32.507  36.247  1.00  0.00     0.055 A 
ATOM     60  C   UNL A   1      43.577  33.628  34.754  1.00  0.00     0.041 A 
ATOM     61  F   UNL A   1      44.130  32.644  32.704  1.00  0.00    -0.206 F 
ATOM     62  C   UNL A   1      42.865  33.610  35.950  1.00  0.00     0.022 A 
BRANCH  59  63
ATOM     63  S   UNL A   1      40.989  32.536  37.708  1.00  0.00     0.124 S 
ATOM     64  O   UNL A   1      41.809  31.831  38.691  1.00  0.00    -0.237 OA
ATOM     65  O   UNL A   1      40.804  33.964  37.938  1.00  0.00    -0.237 OA
ATOM     66  O   UNL A   1      39.795  31.815  37.272  1.00  0.00    -0.744 OA
ENDBRANCH  59  63
ENDBRANCH  42  56
BRANCH  43  67
ATOM     67  C   UNL A   1      42.572  24.219  27.185  1.00  0.00     0.023 A 
ATOM     68  C   UNL A   1      41.918  22.983  27.306  1.00  0.00     0.031 A 
ATOM     69  C   UNL A   1      43.347  24.439  26.032  1.00  0.00     0.131 A 
ATOM     70  C   UNL A   1      42.114  21.987  26.335  1.00  0.00     0.055 A 
ATOM     71  C   UNL A   1      43.479  23.474  25.033  1.00  0.00     0.041 A 
ATOM     72  F   UNL A   1      43.994  25.603  25.859  1.00  0.00    -0.206 F 
ATOM     73  C   UNL A   1      42.877  22.230  25.191  1.00  0.00     0.022 A 
BRANCH  70  74
ATOM     74  S   UNL A   1      41.476  20.320  26.661  1.00  0.00     0.124 S 
ATOM     75  O   UNL A   1      40.043  20.569  26.770  1.00  0.00    -0.237 OA
ATOM     76  O   UNL A   1      41.914  19.593  25.474  1.00  0.00    -0.237 OA
ATOM     77  O   UNL A   1      42.142  19.940  27.905  1.00  0.00    -0.744 OA
ENDBRANCH  70  74
ENDBRANCH  43  67
BRANCH  55  78
ATOM     78  C   UNL A   1      46.952  25.860  32.366  1.00  0.00     0.023 A 
ATOM     79  C   UNL A   1      46.978  24.914  33.405  1.00  0.00     0.031 A 
ATOM     80  C   UNL A   1      48.173  26.223  31.772  1.00  0.00     0.131 A 
ATOM     81  C   UNL A   1      48.206  24.410  33.860  1.00  0.00     0.055 A 
ATOM     82  C   UNL A   1      49.385  25.663  32.178  1.00  0.00     0.041 A 
ATOM     83  F   UNL A   1      48.210  27.126  30.778  1.00  0.00    -0.206 F 
ATOM     84  C   UNL A   1      49.407  24.762  33.239  1.00  0.00     0.022 A 
BRANCH  81  85
ATOM     85  S   UNL A   1      48.223  23.367  35.343  1.00  0.00     0.124 S 
ATOM     86  O   UNL A   1      49.224  22.364  34.996  1.00  0.00    -0.237 OA
ATOM     87  O   UNL A   1      48.604  24.314  36.386  1.00  0.00    -0.237 OA
ATOM     88  O   UNL A   1      46.850  22.871  35.429  1.00  0.00    -0.744 OA
ENDBRANCH  81  85
ENDBRANCH  55  78
ENDBRANCH  29  30
ENDBRANCH  21  24
ENDBRANCH  19  20
ENDBRANCH   1  19
TORSDOF 15
ENDMDL
