MODEL 1
REMARK VINA RESULT:     -11.5      0.000      0.000
REMARK SMILES CC(C)C[C@@H](CNC(=O)[C@@H]1CCOC1)C(=O)NCCCNC(=O)c1ccc(-c2c3nc(c(-c4cc(S(=O)(=O)[O-])ccc4F)c4ccc([nH]4)c(-c4cc(S(=O)(=O)[O-])ccc4F)c4nc(c(-c5cc(S(=O)(=O)[O-])ccc5F)c5ccc2[nH]5)C=C4)C=C3)cc1
REMARK SMILES IDX 19 1 18 2 17 3 15 4 16 5 5 7 4 8 2 9 1 10 3 11 6 12 7 13
REMARK SMILES IDX 8 14 9 16 10 17 11 18 14 19 12 20 13 21 20 22 21 23 22 24
REMARK SMILES IDX 23 26 24 27 25 28 86 29 26 30 85 31 27 32 28 33 29 34 79 35
REMARK SMILES IDX 30 36 84 37 78 38 80 39 31 40 83 41 77 42 76 43 32 45 64 46
REMARK SMILES IDX 44 47 63 48 45 49 48 50 62 51 81 52 46 53 47 54 61 56 82 57
REMARK SMILES IDX 49 58 33 59 34 60 42 61 35 62 41 63 43 64 40 65 36 66 37 67
REMARK SMILES IDX 38 68 39 69 65 70 66 71 74 72 67 73 73 74 75 75 72 76 68 77
REMARK SMILES IDX 69 78 70 79 71 80 50 81 51 82 59 83 52 84 58 85 60 86 57 87
REMARK SMILES IDX 53 88 54 89 55 90 56 91
REMARK H PARENT 17 6 7 15 21 25 80 44 48 55
REMARK Flexibility Score: inf
ROOT
ATOM      1  C   UNL A   1      35.894  21.682  25.119  1.00  0.00     0.042 C 
ENDROOT
BRANCH   1   2
ATOM      2  C   UNL A   1      35.359  22.991  25.673  1.00  0.00     0.117 C 
BRANCH   2   3
ATOM      3  N   UNL A   1      34.522  22.796  26.846  1.00  0.00    -0.356 N 
ATOM      4  C   UNL A   1      33.178  22.692  26.999  1.00  0.00     0.224 C 
ATOM      5  O   UNL A   1      32.766  22.461  28.141  1.00  0.00    -0.275 OA
ATOM      6  H   UNL A   1      35.026  22.725  27.688  1.00  0.00     0.163 HD
BRANCH   4   7
ATOM      7  C   UNL A   1      32.187  22.806  25.846  1.00  0.00     0.098 C 
BRANCH   7   8
ATOM      8  C   UNL A   1      32.231  24.177  25.148  1.00  0.00     0.018 C 
BRANCH   8   9
ATOM      9  C   UNL A   1      32.256  25.411  26.071  1.00  0.00    -0.017 C 
ATOM     10  C   UNL A   1      33.327  26.430  25.677  1.00  0.00     0.007 C 
ATOM     11  C   UNL A   1      30.880  26.086  26.053  1.00  0.00     0.007 C 
ENDBRANCH   8   9
ENDBRANCH   7   8
BRANCH   7  12
ATOM     12  C   UNL A   1      32.149  21.534  24.980  1.00  0.00     0.129 C 
BRANCH  12  13
ATOM     13  N   UNL A   1      32.207  20.273  25.692  1.00  0.00    -0.355 N 
ATOM     14  C   UNL A   1      32.730  19.059  25.396  1.00  0.00     0.225 C 
ATOM     15  H   UNL A   1      31.776  20.306  26.576  1.00  0.00     0.163 HD
ATOM     16  O   UNL A   1      32.467  18.158  26.203  1.00  0.00    -0.275 OA
BRANCH  14  17
ATOM     17  C   UNL A   1      33.675  18.745  24.246  1.00  0.00     0.106 C 
ATOM     18  C   UNL A   1      33.007  17.877  23.203  1.00  0.00     0.044 C 
ATOM     19  C   UNL A   1      34.982  18.038  24.513  1.00  0.00     0.173 C 
ATOM     20  C   UNL A   1      33.549  16.499  23.493  1.00  0.00     0.161 C 
ATOM     21  O   UNL A   1      34.841  16.673  24.085  1.00  0.00    -0.381 OA
ENDBRANCH  14  17
ENDBRANCH  12  13
ENDBRANCH   7  12
ENDBRANCH   4   7
ENDBRANCH   2   3
ENDBRANCH   1   2
BRANCH   1  22
ATOM     22  C   UNL A   1      37.344  21.779  24.667  1.00  0.00     0.118 C 
BRANCH  22  23
ATOM     23  N   UNL A   1      38.185  20.735  25.246  1.00  0.00    -0.352 N 
ATOM     24  C   UNL A   1      39.333  20.833  25.996  1.00  0.00     0.251 C 
ATOM     25  H   UNL A   1      37.881  19.815  25.070  1.00  0.00     0.163 HD
ATOM     26  O   UNL A   1      40.000  19.827  26.224  1.00  0.00    -0.269 OA
BRANCH  24  27
ATOM     27  C   UNL A   1      39.775  22.151  26.496  1.00  0.00     0.039 A 
ATOM     28  C   UNL A   1      40.959  22.245  27.230  1.00  0.00     0.014 A 
ATOM     29  C   UNL A   1      39.032  23.297  26.213  1.00  0.00     0.014 A 
ATOM     30  C   UNL A   1      41.447  23.503  27.594  1.00  0.00     0.010 A 
ATOM     31  C   UNL A   1      39.572  24.549  26.479  1.00  0.00     0.010 A 
ATOM     32  C   UNL A   1      40.786  24.667  27.172  1.00  0.00    -0.014 A 
BRANCH  32  33
ATOM     33  C   UNL A   1      41.326  26.026  27.441  1.00  0.00     0.031 A 
ATOM     34  C   UNL A   1      42.706  26.385  26.960  1.00  0.00     0.074 A 
ATOM     35  C   UNL A   1      40.625  26.888  28.205  1.00  0.00     0.049 A 
ATOM     36  N   UNL A   1      43.432  27.437  27.231  1.00  0.00    -0.248 NA
ATOM     37  C   UNL A   1      43.375  25.401  26.094  1.00  0.00     0.031 C 
ATOM     38  C   UNL A   1      39.296  26.636  28.769  1.00  0.00     0.029 A 
ATOM     39  N   UNL A   1      40.940  28.145  28.657  1.00  0.00    -0.354 N 
ATOM     40  C   UNL A   1      44.653  27.228  26.599  1.00  0.00     0.074 A 
ATOM     41  C   UNL A   1      44.588  25.918  25.986  1.00  0.00     0.031 C 
ATOM     42  C   UNL A   1      38.903  27.712  29.470  1.00  0.00     0.029 A 
ATOM     43  C   UNL A   1      39.969  28.707  29.454  1.00  0.00     0.049 A 
ATOM     44  H   UNL A   1      41.782  28.603  28.431  1.00  0.00     0.167 HD
ATOM     45  C   UNL A   1      45.720  28.060  26.515  1.00  0.00     0.034 A 
ATOM     46  C   UNL A   1      39.949  29.883  30.113  1.00  0.00     0.034 A 
ATOM     47  C   UNL A   1      45.751  29.376  27.104  1.00  0.00     0.049 A 
ATOM     48  C   UNL A   1      41.147  30.792  30.010  1.00  0.00     0.074 A 
ATOM     49  C   UNL A   1      46.746  30.335  27.023  1.00  0.00     0.029 A 
ATOM     50  N   UNL A   1      44.738  29.920  27.884  1.00  0.00    -0.354 N 
ATOM     51  N   UNL A   1      42.278  30.598  29.370  1.00  0.00    -0.248 NA
ATOM     52  C   UNL A   1      41.065  32.079  30.711  1.00  0.00     0.031 C 
ATOM     53  C   UNL A   1      46.361  31.432  27.801  1.00  0.00     0.029 A 
ATOM     54  C   UNL A   1      45.097  31.188  28.313  1.00  0.00     0.049 A 
ATOM     55  H   UNL A   1      43.890  29.470  28.101  1.00  0.00     0.167 HD
ATOM     56  C   UNL A   1      43.030  31.751  29.572  1.00  0.00     0.074 A 
ATOM     57  C   UNL A   1      42.219  32.640  30.381  1.00  0.00     0.031 C 
ATOM     58  C   UNL A   1      44.276  32.053  29.128  1.00  0.00     0.034 A 
BRANCH  45  59
ATOM     59  C   UNL A   1      46.938  27.556  25.778  1.00  0.00     0.023 A 
ATOM     60  C   UNL A   1      47.212  27.944  24.454  1.00  0.00     0.031 A 
ATOM     61  C   UNL A   1      47.816  26.645  26.390  1.00  0.00     0.131 A 
ATOM     62  C   UNL A   1      48.281  27.358  23.759  1.00  0.00     0.055 A 
ATOM     63  C   UNL A   1      48.928  26.131  25.719  1.00  0.00     0.041 A 
ATOM     64  F   UNL A   1      47.597  26.221  27.644  1.00  0.00    -0.206 F 
ATOM     65  C   UNL A   1      49.156  26.473  24.390  1.00  0.00     0.022 A 
BRANCH  62  66
ATOM     66  S   UNL A   1      48.413  27.653  21.974  1.00  0.00     0.124 S 
ATOM     67  O   UNL A   1      47.111  28.245  21.676  1.00  0.00    -0.237 OA
ATOM     68  O   UNL A   1      49.558  28.552  21.887  1.00  0.00    -0.237 OA
ATOM     69  O   UNL A   1      48.623  26.317  21.421  1.00  0.00    -0.744 OA
ENDBRANCH  62  66
ENDBRANCH  45  59
BRANCH  46  70
ATOM     70  C   UNL A   1      38.769  30.267  30.939  1.00  0.00     0.023 A 
ATOM     71  C   UNL A   1      37.707  30.997  30.382  1.00  0.00     0.031 A 
ATOM     72  C   UNL A   1      38.701  29.943  32.305  1.00  0.00     0.131 A 
ATOM     73  C   UNL A   1      36.643  31.418  31.196  1.00  0.00     0.055 A 
ATOM     74  C   UNL A   1      37.618  30.321  33.101  1.00  0.00     0.041 A 
ATOM     75  F   UNL A   1      39.686  29.240  32.887  1.00  0.00    -0.206 F 
ATOM     76  C   UNL A   1      36.585  31.074  32.549  1.00  0.00     0.022 A 
BRANCH  73  77
ATOM     77  S   UNL A   1      35.371  32.492  30.476  1.00  0.00     0.124 S 
ATOM     78  O   UNL A   1      34.973  31.731  29.297  1.00  0.00    -0.237 OA
ATOM     79  O   UNL A   1      34.391  32.565  31.554  1.00  0.00    -0.237 OA
ATOM     80  O   UNL A   1      36.091  33.735  30.204  1.00  0.00    -0.744 OA
ENDBRANCH  73  77
ENDBRANCH  46  70
BRANCH  58  81
ATOM     81  C   UNL A   1      44.813  33.418  29.473  1.00  0.00     0.023 A 
ATOM     82  C   UNL A   1      44.655  34.514  28.607  1.00  0.00     0.031 A 
ATOM     83  C   UNL A   1      45.490  33.623  30.688  1.00  0.00     0.131 A 
ATOM     84  C   UNL A   1      45.210  35.756  28.947  1.00  0.00     0.055 A 
ATOM     85  C   UNL A   1      45.992  34.874  31.046  1.00  0.00     0.041 A 
ATOM     86  F   UNL A   1      45.668  32.609  31.550  1.00  0.00    -0.206 F 
ATOM     87  C   UNL A   1      45.863  35.947  30.169  1.00  0.00     0.022 A 
BRANCH  84  88
ATOM     88  S   UNL A   1      45.131  37.107  27.739  1.00  0.00     0.124 S 
ATOM     89  O   UNL A   1      43.752  37.561  27.881  1.00  0.00    -0.237 OA
ATOM     90  O   UNL A   1      46.159  38.022  28.226  1.00  0.00    -0.237 OA
ATOM     91  O   UNL A   1      45.441  36.450  26.471  1.00  0.00    -0.744 OA
ENDBRANCH  84  88
ENDBRANCH  58  81
ENDBRANCH  32  33
ENDBRANCH  24  27
ENDBRANCH  22  23
ENDBRANCH   1  22
TORSDOF 18
ENDMDL
MODEL 2
REMARK VINA RESULT:     -11.3      1.642      8.301
REMARK SMILES CC(C)C[C@@H](CNC(=O)[C@@H]1CCOC1)C(=O)NCCCNC(=O)c1ccc(-c2c3nc(c(-c4cc(S(=O)(=O)[O-])ccc4F)c4ccc([nH]4)c(-c4cc(S(=O)(=O)[O-])ccc4F)c4nc(c(-c5cc(S(=O)(=O)[O-])ccc5F)c5ccc2[nH]5)C=C4)C=C3)cc1
REMARK SMILES IDX 19 1 18 2 17 3 15 4 16 5 5 7 4 8 2 9 1 10 3 11 6 12 7 13
REMARK SMILES IDX 8 14 9 16 10 17 11 18 14 19 12 20 13 21 20 22 21 23 22 24
REMARK SMILES IDX 23 26 24 27 25 28 86 29 26 30 85 31 27 32 28 33 29 34 79 35
REMARK SMILES IDX 30 36 84 37 78 38 80 39 31 40 83 41 77 42 76 43 32 45 64 46
REMARK SMILES IDX 44 47 63 48 45 49 48 50 62 51 81 52 46 53 47 54 61 56 82 57
REMARK SMILES IDX 49 58 33 59 34 60 42 61 35 62 41 63 43 64 40 65 36 66 37 67
REMARK SMILES IDX 38 68 39 69 65 70 66 71 74 72 67 73 73 74 75 75 72 76 68 77
REMARK SMILES IDX 69 78 70 79 71 80 50 81 51 82 59 83 52 84 58 85 60 86 57 87
REMARK SMILES IDX 53 88 54 89 55 90 56 91
REMARK H PARENT 17 6 7 15 21 25 80 44 48 55
REMARK Flexibility Score: inf
ROOT
ATOM      1  C   UNL A   1      35.042  22.596  26.495  1.00  0.00     0.042 C 
ENDROOT
BRANCH   1   2
ATOM      2  C   UNL A   1      33.782  21.818  26.156  1.00  0.00     0.117 C 
BRANCH   2   3
ATOM      3  N   UNL A   1      32.642  22.232  26.959  1.00  0.00    -0.356 N 
ATOM      4  C   UNL A   1      31.690  23.179  26.771  1.00  0.00     0.224 C 
ATOM      5  O   UNL A   1      30.798  23.247  27.623  1.00  0.00    -0.275 OA
ATOM      6  H   UNL A   1      32.542  21.727  27.798  1.00  0.00     0.163 HD
BRANCH   4   7
ATOM      7  C   UNL A   1      31.655  24.111  25.564  1.00  0.00     0.098 C 
BRANCH   7   8
ATOM      8  C   UNL A   1      31.914  23.381  24.233  1.00  0.00     0.018 C 
BRANCH   8   9
ATOM      9  C   UNL A   1      32.927  24.043  23.279  1.00  0.00    -0.017 C 
ATOM     10  C   UNL A   1      33.729  23.028  22.462  1.00  0.00     0.007 C 
ATOM     11  C   UNL A   1      32.185  24.989  22.328  1.00  0.00     0.007 C 
ENDBRANCH   8   9
ENDBRANCH   7   8
BRANCH   7  12
ATOM     12  C   UNL A   1      30.499  25.124  25.641  1.00  0.00     0.129 C 
BRANCH  12  13
ATOM     13  N   UNL A   1      30.639  26.181  26.622  1.00  0.00    -0.355 N 
ATOM     14  C   UNL A   1      31.607  27.094  26.877  1.00  0.00     0.225 C 
ATOM     15  H   UNL A   1      29.868  26.251  27.230  1.00  0.00     0.163 HD
ATOM     16  O   UNL A   1      31.443  27.767  27.903  1.00  0.00    -0.275 OA
BRANCH  14  17
ATOM     17  C   UNL A   1      32.789  27.425  25.978  1.00  0.00     0.106 C 
ATOM     18  C   UNL A   1      33.729  28.409  26.638  1.00  0.00     0.044 C 
ATOM     19  C   UNL A   1      32.553  28.021  24.611  1.00  0.00     0.173 C 
ATOM     20  C   UNL A   1      33.379  29.722  25.983  1.00  0.00     0.161 C 
ATOM     21  O   UNL A   1      32.880  29.420  24.677  1.00  0.00    -0.381 OA
ENDBRANCH  14  17
ENDBRANCH  12  13
ENDBRANCH   7  12
ENDBRANCH   4   7
ENDBRANCH   2   3
ENDBRANCH   1   2
BRANCH   1  22
ATOM     22  C   UNL A   1      36.048  22.618  25.354  1.00  0.00     0.118 C 
BRANCH  22  23
ATOM     23  N   UNL A   1      36.964  21.481  25.388  1.00  0.00    -0.352 N 
ATOM     24  C   UNL A   1      38.289  21.419  25.748  1.00  0.00     0.251 C 
ATOM     25  H   UNL A   1      36.569  20.623  25.110  1.00  0.00     0.163 HD
ATOM     26  O   UNL A   1      38.935  20.399  25.522  1.00  0.00    -0.269 OA
BRANCH  24  27
ATOM     27  C   UNL A   1      38.937  22.589  26.374  1.00  0.00     0.039 A 
ATOM     28  C   UNL A   1      40.002  22.395  27.257  1.00  0.00     0.014 A 
ATOM     29  C   UNL A   1      38.509  23.881  26.066  1.00  0.00     0.014 A 
ATOM     30  C   UNL A   1      40.700  23.500  27.751  1.00  0.00     0.010 A 
ATOM     31  C   UNL A   1      39.269  24.971  26.469  1.00  0.00     0.010 A 
ATOM     32  C   UNL A   1      40.373  24.795  27.316  1.00  0.00    -0.014 A 
BRANCH  32  33
ATOM     33  C   UNL A   1      41.156  25.989  27.729  1.00  0.00     0.031 A 
ATOM     34  C   UNL A   1      40.471  27.105  28.471  1.00  0.00     0.074 A 
ATOM     35  C   UNL A   1      42.442  26.114  27.344  1.00  0.00     0.049 A 
ATOM     36  N   UNL A   1      40.914  28.298  28.769  1.00  0.00    -0.248 NA
ATOM     37  C   UNL A   1      39.083  26.859  28.890  1.00  0.00     0.031 C 
ATOM     38  C   UNL A   1      43.201  25.120  26.582  1.00  0.00     0.029 A 
ATOM     39  N   UNL A   1      43.335  27.141  27.525  1.00  0.00    -0.354 N 
ATOM     40  C   UNL A   1      39.851  28.956  29.379  1.00  0.00     0.074 A 
ATOM     41  C   UNL A   1      38.724  28.048  29.348  1.00  0.00     0.031 C 
ATOM     42  C   UNL A   1      44.449  25.576  26.382  1.00  0.00     0.029 A 
ATOM     43  C   UNL A   1      44.565  26.914  26.950  1.00  0.00     0.049 A 
ATOM     44  H   UNL A   1      43.116  27.963  28.021  1.00  0.00     0.167 HD
ATOM     45  C   UNL A   1      39.824  30.191  29.937  1.00  0.00     0.034 A 
ATOM     46  C   UNL A   1      45.654  27.703  26.872  1.00  0.00     0.034 A 
ATOM     47  C   UNL A   1      40.969  31.066  29.989  1.00  0.00     0.049 A 
ATOM     48  C   UNL A   1      45.602  29.075  27.495  1.00  0.00     0.074 A 
ATOM     49  C   UNL A   1      41.080  32.308  30.591  1.00  0.00     0.029 A 
ATOM     50  N   UNL A   1      42.204  30.791  29.416  1.00  0.00    -0.354 N 
ATOM     51  N   UNL A   1      44.601  29.666  28.109  1.00  0.00    -0.248 NA
ATOM     52  C   UNL A   1      46.825  29.884  27.421  1.00  0.00     0.031 C 
ATOM     53  C   UNL A   1      42.361  32.807  30.332  1.00  0.00     0.029 A 
ATOM     54  C   UNL A   1      43.073  31.850  29.626  1.00  0.00     0.049 A 
ATOM     55  H   UNL A   1      42.430  29.965  28.930  1.00  0.00     0.167 HD
ATOM     56  C   UNL A   1      45.085  30.905  28.516  1.00  0.00     0.074 A 
ATOM     57  C   UNL A   1      46.469  30.971  28.090  1.00  0.00     0.031 C 
ATOM     58  C   UNL A   1      44.447  31.898  29.184  1.00  0.00     0.034 A 
BRANCH  45  59
ATOM     59  C   UNL A   1      38.511  30.664  30.512  1.00  0.00     0.023 A 
ATOM     60  C   UNL A   1      37.539  31.294  29.714  1.00  0.00     0.031 A 
ATOM     61  C   UNL A   1      38.241  30.522  31.885  1.00  0.00     0.131 A 
ATOM     62  C   UNL A   1      36.387  31.834  30.306  1.00  0.00     0.055 A 
ATOM     63  C   UNL A   1      37.052  30.986  32.453  1.00  0.00     0.041 A 
ATOM     64  F   UNL A   1      39.137  29.948  32.702  1.00  0.00    -0.206 F 
ATOM     65  C   UNL A   1      36.125  31.662  31.666  1.00  0.00     0.022 A 
BRANCH  62  66
ATOM     66  S   UNL A   1      35.318  32.898  29.298  1.00  0.00     0.124 S 
ATOM     67  O   UNL A   1      36.155  34.083  29.132  1.00  0.00    -0.237 OA
ATOM     68  O   UNL A   1      35.108  32.091  28.102  1.00  0.00    -0.237 OA
ATOM     69  O   UNL A   1      34.138  33.090  30.139  1.00  0.00    -0.744 OA
ENDBRANCH  62  66
ENDBRANCH  45  59
BRANCH  46  70
ATOM     70  C   UNL A   1      46.882  27.231  26.170  1.00  0.00     0.023 A 
ATOM     71  C   UNL A   1      47.137  27.601  24.840  1.00  0.00     0.031 A 
ATOM     72  C   UNL A   1      47.798  26.375  26.804  1.00  0.00     0.131 A 
ATOM     73  C   UNL A   1      48.258  27.082  24.171  1.00  0.00     0.055 A 
ATOM     74  C   UNL A   1      48.938  25.900  26.151  1.00  0.00     0.041 A 
ATOM     75  F   UNL A   1      47.606  25.996  28.077  1.00  0.00    -0.206 F 
ATOM     76  C   UNL A   1      49.166  26.244  24.821  1.00  0.00     0.022 A 
BRANCH  73  77
ATOM     77  S   UNL A   1      48.467  27.457  22.409  1.00  0.00     0.124 S 
ATOM     78  O   UNL A   1      48.553  26.122  21.829  1.00  0.00    -0.237 OA
ATOM     79  O   UNL A   1      47.253  28.209  22.113  1.00  0.00    -0.237 OA
ATOM     80  O   UNL A   1      49.705  28.235  22.372  1.00  0.00    -0.744 OA
ENDBRANCH  73  77
ENDBRANCH  46  70
BRANCH  58  81
ATOM     81  C   UNL A   1      45.260  33.120  29.531  1.00  0.00     0.023 A 
ATOM     82  C   UNL A   1      45.298  34.244  28.688  1.00  0.00     0.031 A 
ATOM     83  C   UNL A   1      46.003  33.157  30.723  1.00  0.00     0.131 A 
ATOM     84  C   UNL A   1      46.103  35.341  29.027  1.00  0.00     0.055 A 
ATOM     85  C   UNL A   1      46.759  34.273  31.082  1.00  0.00     0.041 A 
ATOM     86  F   UNL A   1      46.001  32.109  31.563  1.00  0.00    -0.206 F 
ATOM     87  C   UNL A   1      46.821  35.369  30.226  1.00  0.00     0.022 A 
BRANCH  84  88
ATOM     88  S   UNL A   1      46.260  36.706  27.843  1.00  0.00     0.124 S 
ATOM     89  O   UNL A   1      45.217  37.621  28.295  1.00  0.00    -0.237 OA
ATOM     90  O   UNL A   1      47.635  37.149  28.056  1.00  0.00    -0.237 OA
ATOM     91  O   UNL A   1      46.010  36.070  26.551  1.00  0.00    -0.744 OA
ENDBRANCH  84  88
ENDBRANCH  58  81
ENDBRANCH  32  33
ENDBRANCH  24  27
ENDBRANCH  22  23
ENDBRANCH   1  22
TORSDOF 18
ENDMDL
MODEL 3
REMARK VINA RESULT:     -11.2      5.980      9.027
REMARK SMILES CC(C)C[C@@H](CNC(=O)[C@@H]1CCOC1)C(=O)NCCCNC(=O)c1ccc(-c2c3nc(c(-c4cc(S(=O)(=O)[O-])ccc4F)c4ccc([nH]4)c(-c4cc(S(=O)(=O)[O-])ccc4F)c4nc(c(-c5cc(S(=O)(=O)[O-])ccc5F)c5ccc2[nH]5)C=C4)C=C3)cc1
REMARK SMILES IDX 19 1 18 2 17 3 15 4 16 5 5 7 4 8 2 9 1 10 3 11 6 12 7 13
REMARK SMILES IDX 8 14 9 16 10 17 11 18 14 19 12 20 13 21 20 22 21 23 22 24
REMARK SMILES IDX 23 26 24 27 25 28 86 29 26 30 85 31 27 32 28 33 29 34 79 35
REMARK SMILES IDX 30 36 84 37 78 38 80 39 31 40 83 41 77 42 76 43 32 45 64 46
REMARK SMILES IDX 44 47 63 48 45 49 48 50 62 51 81 52 46 53 47 54 61 56 82 57
REMARK SMILES IDX 49 58 33 59 34 60 42 61 35 62 41 63 43 64 40 65 36 66 37 67
REMARK SMILES IDX 38 68 39 69 65 70 66 71 74 72 67 73 73 74 75 75 72 76 68 77
REMARK SMILES IDX 69 78 70 79 71 80 50 81 51 82 59 83 52 84 58 85 60 86 57 87
REMARK SMILES IDX 53 88 54 89 55 90 56 91
REMARK H PARENT 17 6 7 15 21 25 80 44 48 55
REMARK Flexibility Score: inf
ROOT
ATOM      1  C   UNL A   1      31.979  31.539  26.446  1.00  0.00     0.042 C 
ENDROOT
BRANCH   1   2
ATOM      2  C   UNL A   1      32.241  30.050  26.305  1.00  0.00     0.117 C 
BRANCH   2   3
ATOM      3  N   UNL A   1      32.741  29.696  24.986  1.00  0.00    -0.356 N 
ATOM      4  C   UNL A   1      32.151  29.111  23.914  1.00  0.00     0.224 C 
ATOM      5  O   UNL A   1      32.839  29.000  22.894  1.00  0.00    -0.275 OA
ATOM      6  H   UNL A   1      33.687  29.927  24.844  1.00  0.00     0.163 HD
BRANCH   4   7
ATOM      7  C   UNL A   1      30.703  28.633  23.906  1.00  0.00     0.098 C 
BRANCH   7   8
ATOM      8  C   UNL A   1      29.971  28.955  22.590  1.00  0.00     0.018 C 
BRANCH   8   9
ATOM      9  C   UNL A   1      29.506  30.413  22.408  1.00  0.00    -0.017 C 
ATOM     10  C   UNL A   1      28.296  30.543  21.482  1.00  0.00     0.007 C 
ATOM     11  C   UNL A   1      29.167  31.012  23.777  1.00  0.00     0.007 C 
ENDBRANCH   8   9
ENDBRANCH   7   8
BRANCH   7  12
ATOM     12  C   UNL A   1      30.548  27.229  24.515  1.00  0.00     0.129 C 
BRANCH  12  13
ATOM     13  N   UNL A   1      31.776  26.512  24.792  1.00  0.00    -0.355 N 
ATOM     14  C   UNL A   1      32.329  25.381  24.291  1.00  0.00     0.225 C 
ATOM     15  H   UNL A   1      32.325  26.936  25.491  1.00  0.00     0.163 HD
ATOM     16  O   UNL A   1      33.346  24.984  24.876  1.00  0.00    -0.275 OA
BRANCH  14  17
ATOM     17  C   UNL A   1      31.879  24.640  23.041  1.00  0.00     0.106 C 
ATOM     18  C   UNL A   1      31.375  23.252  23.372  1.00  0.00     0.044 C 
ATOM     19  C   UNL A   1      32.852  24.404  21.912  1.00  0.00     0.173 C 
ATOM     20  C   UNL A   1      32.532  22.359  22.997  1.00  0.00     0.161 C 
ATOM     21  O   UNL A   1      33.254  23.023  21.955  1.00  0.00    -0.381 OA
ENDBRANCH  14  17
ENDBRANCH  12  13
ENDBRANCH   7  12
ENDBRANCH   4   7
ENDBRANCH   2   3
ENDBRANCH   1   2
BRANCH   1  22
ATOM     22  C   UNL A   1      32.925  32.216  27.427  1.00  0.00     0.118 C 
BRANCH  22  23
ATOM     23  N   UNL A   1      32.632  33.635  27.603  1.00  0.00    -0.352 N 
ATOM     24  C   UNL A   1      33.155  34.547  28.489  1.00  0.00     0.251 C 
ATOM     25  H   UNL A   1      31.951  33.997  26.990  1.00  0.00     0.163 HD
ATOM     26  O   UNL A   1      32.633  35.653  28.606  1.00  0.00    -0.269 OA
BRANCH  24  27
ATOM     27  C   UNL A   1      34.320  34.181  29.319  1.00  0.00     0.039 A 
ATOM     28  C   UNL A   1      34.118  33.533  30.540  1.00  0.00     0.014 A 
ATOM     29  C   UNL A   1      35.615  34.452  28.875  1.00  0.00     0.014 A 
ATOM     30  C   UNL A   1      35.219  33.070  31.267  1.00  0.00     0.010 A 
ATOM     31  C   UNL A   1      36.700  33.897  29.541  1.00  0.00     0.010 A 
ATOM     32  C   UNL A   1      36.515  33.200  30.745  1.00  0.00    -0.014 A 
BRANCH  32  33
ATOM     33  C   UNL A   1      37.704  32.627  31.429  1.00  0.00     0.031 A 
ATOM     34  C   UNL A   1      38.442  31.477  30.797  1.00  0.00     0.074 A 
ATOM     35  C   UNL A   1      38.048  33.066  32.657  1.00  0.00     0.049 A 
ATOM     36  N   UNL A   1      39.385  30.721  31.296  1.00  0.00    -0.248 NA
ATOM     37  C   UNL A   1      38.026  31.099  29.438  1.00  0.00     0.031 C 
ATOM     38  C   UNL A   1      37.381  34.143  33.392  1.00  0.00     0.029 A 
ATOM     39  N   UNL A   1      39.036  32.647  33.513  1.00  0.00    -0.354 N 
ATOM     40  C   UNL A   1      39.651  29.760  30.327  1.00  0.00     0.074 A 
ATOM     41  C   UNL A   1      38.723  29.992  29.240  1.00  0.00     0.031 C 
ATOM     42  C   UNL A   1      37.991  34.314  34.576  1.00  0.00     0.029 A 
ATOM     43  C   UNL A   1      39.056  33.326  34.710  1.00  0.00     0.049 A 
ATOM     44  H   UNL A   1      39.671  31.928  33.292  1.00  0.00     0.167 HD
ATOM     45  C   UNL A   1      40.598  28.789  30.331  1.00  0.00     0.034 A 
ATOM     46  C   UNL A   1      39.831  33.157  35.800  1.00  0.00     0.034 A 
ATOM     47  C   UNL A   1      41.536  28.598  31.409  1.00  0.00     0.049 A 
ATOM     48  C   UNL A   1      40.875  32.070  35.786  1.00  0.00     0.074 A 
ATOM     49  C   UNL A   1      42.584  27.697  31.492  1.00  0.00     0.029 A 
ATOM     50  N   UNL A   1      41.540  29.321  32.595  1.00  0.00    -0.354 N 
ATOM     51  N   UNL A   1      41.145  31.196  34.842  1.00  0.00    -0.248 NA
ATOM     52  C   UNL A   1      41.723  31.949  36.978  1.00  0.00     0.031 C 
ATOM     53  C   UNL A   1      43.182  27.836  32.749  1.00  0.00     0.029 A 
ATOM     54  C   UNL A   1      42.553  28.868  33.426  1.00  0.00     0.049 A 
ATOM     55  H   UNL A   1      40.914  30.049  32.815  1.00  0.00     0.167 HD
ATOM     56  C   UNL A   1      42.211  30.440  35.319  1.00  0.00     0.074 A 
ATOM     57  C   UNL A   1      42.543  30.969  36.627  1.00  0.00     0.031 C 
ATOM     58  C   UNL A   1      42.861  29.405  34.731  1.00  0.00     0.034 A 
BRANCH  45  59
ATOM     59  C   UNL A   1      40.644  27.859  29.143  1.00  0.00     0.023 A 
ATOM     60  C   UNL A   1      41.590  28.021  28.115  1.00  0.00     0.031 A 
ATOM     61  C   UNL A   1      39.705  26.820  29.014  1.00  0.00     0.131 A 
ATOM     62  C   UNL A   1      41.522  27.218  26.966  1.00  0.00     0.055 A 
ATOM     63  C   UNL A   1      39.698  25.968  27.907  1.00  0.00     0.041 A 
ATOM     64  F   UNL A   1      38.766  26.627  29.952  1.00  0.00    -0.206 F 
ATOM     65  C   UNL A   1      40.599  26.175  26.867  1.00  0.00     0.022 A 
BRANCH  62  66
ATOM     66  S   UNL A   1      42.557  27.658  25.543  1.00  0.00     0.124 S 
ATOM     67  O   UNL A   1      42.437  26.463  24.712  1.00  0.00    -0.237 OA
ATOM     68  O   UNL A   1      41.901  28.858  25.036  1.00  0.00    -0.237 OA
ATOM     69  O   UNL A   1      43.877  27.869  26.133  1.00  0.00    -0.744 OA
ENDBRANCH  62  66
ENDBRANCH  45  59
BRANCH  46  70
ATOM     70  C   UNL A   1      39.647  34.022  37.001  1.00  0.00     0.023 A 
ATOM     71  C   UNL A   1      39.025  33.525  38.157  1.00  0.00     0.031 A 
ATOM     72  C   UNL A   1      40.057  35.366  36.998  1.00  0.00     0.131 A 
ATOM     73  C   UNL A   1      38.790  34.378  39.247  1.00  0.00     0.055 A 
ATOM     74  C   UNL A   1      39.866  36.198  38.104  1.00  0.00     0.041 A 
ATOM     75  F   UNL A   1      40.663  35.890  35.921  1.00  0.00    -0.206 F 
ATOM     76  C   UNL A   1      39.217  35.707  39.233  1.00  0.00     0.022 A 
BRANCH  73  77
ATOM     77  S   UNL A   1      37.844  33.742  40.659  1.00  0.00     0.124 S 
ATOM     78  O   UNL A   1      37.506  34.970  41.368  1.00  0.00    -0.237 OA
ATOM     79  O   UNL A   1      36.738  33.058  39.997  1.00  0.00    -0.237 OA
ATOM     80  O   UNL A   1      38.797  32.868  41.340  1.00  0.00    -0.744 OA
ENDBRANCH  73  77
ENDBRANCH  46  70
BRANCH  58  81
ATOM     81  C   UNL A   1      44.023  28.811  35.484  1.00  0.00     0.023 A 
ATOM     82  C   UNL A   1      43.853  27.741  36.380  1.00  0.00     0.031 A 
ATOM     83  C   UNL A   1      45.319  29.324  35.301  1.00  0.00     0.131 A 
ATOM     84  C   UNL A   1      44.954  27.248  37.095  1.00  0.00     0.055 A 
ATOM     85  C   UNL A   1      46.420  28.794  35.974  1.00  0.00     0.041 A 
ATOM     86  F   UNL A   1      45.536  30.346  34.458  1.00  0.00    -0.206 F 
ATOM     87  C   UNL A   1      46.239  27.757  36.885  1.00  0.00     0.022 A 
BRANCH  84  88
ATOM     88  S   UNL A   1      44.675  25.979  38.360  1.00  0.00     0.124 S 
ATOM     89  O   UNL A   1      44.049  24.912  37.586  1.00  0.00    -0.237 OA
ATOM     90  O   UNL A   1      46.028  25.712  38.838  1.00  0.00    -0.237 OA
ATOM     91  O   UNL A   1      43.799  26.642  39.324  1.00  0.00    -0.744 OA
ENDBRANCH  84  88
ENDBRANCH  58  81
ENDBRANCH  32  33
ENDBRANCH  24  27
ENDBRANCH  22  23
ENDBRANCH   1  22
TORSDOF 18
ENDMDL
