MODEL 1
REMARK VINA RESULT:     -12.1      0.000      0.000
REMARK SMILES Cc1cc(C(=O)N2CCC[C@@H]2C)sc1/C=C/C(=O)NCCCNC(=O)c1ccc(-c2c3nc(c(-c4cc(S(=O)(=O)[O-])ccc4F)c4ccc([nH]4)c(-c4cc(S(=O)(=O)[O-])ccc4F)c4nc(c(-c5cc(S(=O)(=O)[O-])ccc5F)c5ccc2[nH]5)C=C4)C=C3)cc1
REMARK SMILES IDX 21 1 20 2 19 3 17 4 18 5 16 7 15 8 14 9 1 10 2 11 3 12 4 13
REMARK SMILES IDX 13 14 5 15 6 16 7 17 8 18 11 19 9 20 10 21 12 22 22 23 23 24
REMARK SMILES IDX 24 25 25 27 26 28 27 29 88 30 28 31 87 32 29 33 30 34 31 35
REMARK SMILES IDX 81 36 32 37 86 38 80 39 82 40 33 41 85 42 79 43 78 44 34 46
REMARK SMILES IDX 66 47 46 48 65 49 47 50 50 51 64 52 83 53 48 54 49 55 63 57
REMARK SMILES IDX 84 58 51 59 35 60 36 61 44 62 37 63 43 64 45 65 42 66 38 67
REMARK SMILES IDX 39 68 40 69 41 70 67 71 68 72 76 73 69 74 75 75 77 76 74 77
REMARK SMILES IDX 70 78 71 79 72 80 73 81 52 82 53 83 61 84 54 85 60 86 62 87
REMARK SMILES IDX 59 88 55 89 56 90 57 91 58 92
REMARK H PARENT 19 6 23 26 82 45 50 56
REMARK Flexibility Score: inf
ROOT
ATOM      1  C   UNL A   1      31.466  31.884  26.728  1.00  0.00     0.042 C 
ENDROOT
BRANCH   1   2
ATOM      2  C   UNL A   1      31.645  30.652  25.845  1.00  0.00     0.118 C 
BRANCH   2   3
ATOM      3  N   UNL A   1      30.768  30.692  24.686  1.00  0.00    -0.352 N 
ATOM      4  C   UNL A   1      30.326  29.688  23.885  1.00  0.00     0.244 C 
ATOM      5  O   UNL A   1      29.478  29.913  23.027  1.00  0.00    -0.270 OA
ATOM      6  H   UNL A   1      30.444  31.590  24.443  1.00  0.00     0.163 HD
BRANCH   4   7
ATOM      7  C   UNL A   1      30.785  28.302  24.103  1.00  0.00     0.072 C 
ATOM      8  C   UNL A   1      30.363  27.254  23.380  1.00  0.00     0.025 C 
BRANCH   8   9
ATOM      9  C   UNL A   1      30.816  25.920  23.621  1.00  0.00     0.031 A 
ATOM     10  C   UNL A   1      32.345  25.553  21.582  1.00  0.00     0.046 C 
ATOM     11  C   UNL A   1      31.645  25.127  22.835  1.00  0.00    -0.032 A 
ATOM     12  C   UNL A   1      31.799  23.812  23.398  1.00  0.00     0.029 A 
ATOM     13  C   UNL A   1      31.137  23.640  24.601  1.00  0.00     0.093 A 
ATOM     14  S   UNL A   1      30.341  25.077  25.038  1.00  0.00    -0.130 S 
BRANCH  13  15
ATOM     15  C   UNL A   1      31.273  22.499  25.503  1.00  0.00     0.264 C 
ATOM     16  O   UNL A   1      30.290  22.065  26.111  1.00  0.00    -0.268 OA
BRANCH  15  17
ATOM     17  N   UNL A   1      32.484  21.826  25.629  1.00  0.00    -0.335 N 
ATOM     18  C   UNL A   1      32.579  20.455  25.179  1.00  0.00     0.120 C 
ATOM     19  C   UNL A   1      33.763  22.267  26.198  1.00  0.00     0.082 C 
ATOM     20  C   UNL A   1      34.027  20.352  24.738  1.00  0.00     0.024 C 
ATOM     21  C   UNL A   1      34.761  21.164  25.799  1.00  0.00     0.026 C 
ATOM     22  C   UNL A   1      33.678  22.407  27.716  1.00  0.00     0.031 C 
ENDBRANCH  15  17
ENDBRANCH  13  15
ENDBRANCH   8   9
ENDBRANCH   4   7
ENDBRANCH   2   3
ENDBRANCH   1   2
BRANCH   1  23
ATOM     23  C   UNL A   1      32.785  32.521  27.157  1.00  0.00     0.118 C 
BRANCH  23  24
ATOM     24  N   UNL A   1      32.604  33.894  27.603  1.00  0.00    -0.352 N 
ATOM     25  C   UNL A   1      33.188  34.572  28.645  1.00  0.00     0.251 C 
ATOM     26  H   UNL A   1      31.962  34.421  27.074  1.00  0.00     0.163 HD
ATOM     27  O   UNL A   1      32.712  35.649  28.991  1.00  0.00    -0.269 OA
BRANCH  25  28
ATOM     28  C   UNL A   1      34.363  34.015  29.354  1.00  0.00     0.039 A 
ATOM     29  C   UNL A   1      34.149  33.152  30.433  1.00  0.00     0.014 A 
ATOM     30  C   UNL A   1      35.667  34.379  29.004  1.00  0.00     0.014 A 
ATOM     31  C   UNL A   1      35.237  32.616  31.125  1.00  0.00     0.010 A 
ATOM     32  C   UNL A   1      36.753  33.792  29.652  1.00  0.00     0.010 A 
ATOM     33  C   UNL A   1      36.550  32.910  30.724  1.00  0.00    -0.014 A 
BRANCH  33  34
ATOM     34  C   UNL A   1      37.720  32.315  31.423  1.00  0.00     0.031 A 
ATOM     35  C   UNL A   1      38.480  31.180  30.791  1.00  0.00     0.074 A 
ATOM     36  C   UNL A   1      38.062  32.759  32.647  1.00  0.00     0.049 A 
ATOM     37  N   UNL A   1      39.471  30.474  31.275  1.00  0.00    -0.248 NA
ATOM     38  C   UNL A   1      38.046  30.765  29.449  1.00  0.00     0.031 C 
ATOM     39  C   UNL A   1      37.379  33.831  33.377  1.00  0.00     0.029 A 
ATOM     40  N   UNL A   1      39.058  32.361  33.501  1.00  0.00    -0.354 N 
ATOM     41  C   UNL A   1      39.770  29.523  30.306  1.00  0.00     0.074 A 
ATOM     42  C   UNL A   1      38.815  29.708  29.232  1.00  0.00     0.031 C 
ATOM     43  C   UNL A   1      37.987  34.014  34.560  1.00  0.00     0.029 A 
ATOM     44  C   UNL A   1      39.073  33.049  34.694  1.00  0.00     0.049 A 
ATOM     45  H   UNL A   1      39.702  31.650  33.282  1.00  0.00     0.167 HD
ATOM     46  C   UNL A   1      40.761  28.596  30.301  1.00  0.00     0.034 A 
ATOM     47  C   UNL A   1      39.863  32.909  35.776  1.00  0.00     0.034 A 
ATOM     48  C   UNL A   1      41.711  28.433  31.375  1.00  0.00     0.049 A 
ATOM     49  C   UNL A   1      40.950  31.866  35.755  1.00  0.00     0.074 A 
ATOM     50  C   UNL A   1      42.783  27.560  31.455  1.00  0.00     0.029 A 
ATOM     51  N   UNL A   1      41.703  29.157  32.561  1.00  0.00    -0.354 N 
ATOM     52  N   UNL A   1      41.245  30.999  34.813  1.00  0.00    -0.248 NA
ATOM     53  C   UNL A   1      41.818  31.790  36.936  1.00  0.00     0.031 C 
ATOM     54  C   UNL A   1      43.383  27.713  32.711  1.00  0.00     0.029 A 
ATOM     55  C   UNL A   1      42.733  28.732  33.388  1.00  0.00     0.049 A 
ATOM     56  H   UNL A   1      41.059  29.867  32.783  1.00  0.00     0.167 HD
ATOM     57  C   UNL A   1      42.351  30.295  35.280  1.00  0.00     0.074 A 
ATOM     58  C   UNL A   1      42.678  30.848  36.578  1.00  0.00     0.031 C 
ATOM     59  C   UNL A   1      43.037  29.284  34.687  1.00  0.00     0.034 A 
BRANCH  46  60
ATOM     60  C   UNL A   1      40.843  27.674  29.106  1.00  0.00     0.023 A 
ATOM     61  C   UNL A   1      41.785  27.875  28.082  1.00  0.00     0.031 A 
ATOM     62  C   UNL A   1      39.946  26.600  28.971  1.00  0.00     0.131 A 
ATOM     63  C   UNL A   1      41.757  27.069  26.934  1.00  0.00     0.055 A 
ATOM     64  C   UNL A   1      39.978  25.749  27.863  1.00  0.00     0.041 A 
ATOM     65  F   UNL A   1      39.012  26.366  29.905  1.00  0.00    -0.206 F 
ATOM     66  C   UNL A   1      40.876  25.992  26.828  1.00  0.00     0.022 A 
BRANCH  63  67
ATOM     67  S   UNL A   1      42.786  27.544  25.518  1.00  0.00     0.124 S 
ATOM     68  O   UNL A   1      42.063  28.707  25.006  1.00  0.00    -0.237 OA
ATOM     69  O   UNL A   1      44.075  27.817  26.142  1.00  0.00    -0.237 OA
ATOM     70  O   UNL A   1      42.746  26.366  24.653  1.00  0.00    -0.744 OA
ENDBRANCH  63  67
ENDBRANCH  46  60
BRANCH  47  71
ATOM     71  C   UNL A   1      39.655  33.768  36.975  1.00  0.00     0.023 A 
ATOM     72  C   UNL A   1      39.013  33.271  38.119  1.00  0.00     0.031 A 
ATOM     73  C   UNL A   1      40.071  35.112  36.982  1.00  0.00     0.131 A 
ATOM     74  C   UNL A   1      38.768  34.122  39.208  1.00  0.00     0.055 A 
ATOM     75  C   UNL A   1      39.868  35.941  38.086  1.00  0.00     0.041 A 
ATOM     76  F   UNL A   1      40.698  35.634  35.915  1.00  0.00    -0.206 F 
ATOM     77  C   UNL A   1      39.201  35.450  39.203  1.00  0.00     0.022 A 
BRANCH  74  78
ATOM     78  S   UNL A   1      37.806  33.485  40.608  1.00  0.00     0.124 S 
ATOM     79  O   UNL A   1      36.665  32.878  39.932  1.00  0.00    -0.237 OA
ATOM     80  O   UNL A   1      38.750  32.562  41.228  1.00  0.00    -0.237 OA
ATOM     81  O   UNL A   1      37.507  34.683  41.388  1.00  0.00    -0.744 OA
ENDBRANCH  74  78
ENDBRANCH  47  71
BRANCH  59  82
ATOM     82  C   UNL A   1      44.236  28.746  35.430  1.00  0.00     0.023 A 
ATOM     83  C   UNL A   1      44.118  27.711  36.373  1.00  0.00     0.031 A 
ATOM     84  C   UNL A   1      45.511  29.295  35.203  1.00  0.00     0.131 A 
ATOM     85  C   UNL A   1      45.246  27.292  37.095  1.00  0.00     0.055 A 
ATOM     86  C   UNL A   1      46.640  28.835  35.883  1.00  0.00     0.041 A 
ATOM     87  F   UNL A   1      45.680  30.287  34.315  1.00  0.00    -0.206 F 
ATOM     88  C   UNL A   1      46.509  27.838  36.844  1.00  0.00     0.022 A 
BRANCH  85  89
ATOM     89  S   UNL A   1      45.026  26.088  38.433  1.00  0.00     0.124 S 
ATOM     90  O   UNL A   1      43.822  26.583  39.091  1.00  0.00    -0.237 OA
ATOM     91  O   UNL A   1      44.885  24.832  37.704  1.00  0.00    -0.237 OA
ATOM     92  O   UNL A   1      46.255  26.215  39.215  1.00  0.00    -0.744 OA
ENDBRANCH  85  89
ENDBRANCH  59  82
ENDBRANCH  33  34
ENDBRANCH  25  28
ENDBRANCH  23  24
ENDBRANCH   1  23
TORSDOF 16
ENDMDL
MODEL 2
REMARK VINA RESULT:     -11.9      1.773      2.076
REMARK SMILES Cc1cc(C(=O)N2CCC[C@@H]2C)sc1/C=C/C(=O)NCCCNC(=O)c1ccc(-c2c3nc(c(-c4cc(S(=O)(=O)[O-])ccc4F)c4ccc([nH]4)c(-c4cc(S(=O)(=O)[O-])ccc4F)c4nc(c(-c5cc(S(=O)(=O)[O-])ccc5F)c5ccc2[nH]5)C=C4)C=C3)cc1
REMARK SMILES IDX 21 1 20 2 19 3 17 4 18 5 16 7 15 8 14 9 1 10 2 11 3 12 4 13
REMARK SMILES IDX 13 14 5 15 6 16 7 17 8 18 11 19 9 20 10 21 12 22 22 23 23 24
REMARK SMILES IDX 24 25 25 27 26 28 27 29 88 30 28 31 87 32 29 33 30 34 31 35
REMARK SMILES IDX 81 36 32 37 86 38 80 39 82 40 33 41 85 42 79 43 78 44 34 46
REMARK SMILES IDX 66 47 46 48 65 49 47 50 50 51 64 52 83 53 48 54 49 55 63 57
REMARK SMILES IDX 84 58 51 59 35 60 36 61 44 62 37 63 43 64 45 65 42 66 38 67
REMARK SMILES IDX 39 68 40 69 41 70 67 71 68 72 76 73 69 74 75 75 77 76 74 77
REMARK SMILES IDX 70 78 71 79 72 80 73 81 52 82 53 83 61 84 54 85 60 86 62 87
REMARK SMILES IDX 59 88 55 89 56 90 57 91 58 92
REMARK H PARENT 19 6 23 26 82 45 50 56
REMARK Flexibility Score: inf
ROOT
ATOM      1  C   UNL A   1      31.505  32.260  26.685  1.00  0.00     0.042 C 
ENDROOT
BRANCH   1   2
ATOM      2  C   UNL A   1      31.641  30.857  26.100  1.00  0.00     0.118 C 
BRANCH   2   3
ATOM      3  N   UNL A   1      30.848  30.703  24.891  1.00  0.00    -0.352 N 
ATOM      4  C   UNL A   1      30.680  29.622  24.084  1.00  0.00     0.244 C 
ATOM      5  O   UNL A   1      29.857  29.656  23.175  1.00  0.00    -0.270 OA
ATOM      6  H   UNL A   1      30.354  31.508  24.614  1.00  0.00     0.163 HD
BRANCH   4   7
ATOM      7  C   UNL A   1      31.411  28.368  24.354  1.00  0.00     0.072 C 
ATOM      8  C   UNL A   1      32.531  28.005  23.712  1.00  0.00     0.025 C 
BRANCH   8   9
ATOM      9  C   UNL A   1      33.211  26.778  23.986  1.00  0.00     0.031 A 
ATOM     10  C   UNL A   1      33.706  27.052  26.498  1.00  0.00     0.046 C 
ATOM     11  C   UNL A   1      33.780  26.347  25.180  1.00  0.00    -0.032 A 
ATOM     12  C   UNL A   1      34.439  25.079  25.017  1.00  0.00     0.029 A 
ATOM     13  C   UNL A   1      34.327  24.552  23.743  1.00  0.00     0.093 A 
ATOM     14  S   UNL A   1      33.418  25.598  22.758  1.00  0.00    -0.130 S 
BRANCH  13  15
ATOM     15  C   UNL A   1      34.707  23.202  23.333  1.00  0.00     0.264 C 
ATOM     16  O   UNL A   1      35.606  23.033  22.502  1.00  0.00    -0.268 OA
BRANCH  15  17
ATOM     17  N   UNL A   1      34.132  22.084  23.928  1.00  0.00    -0.335 N 
ATOM     18  C   UNL A   1      32.712  21.856  23.777  1.00  0.00     0.120 C 
ATOM     19  C   UNL A   1      34.733  21.036  24.761  1.00  0.00     0.082 C 
ATOM     20  C   UNL A   1      32.615  20.343  23.809  1.00  0.00     0.024 C 
ATOM     21  C   UNL A   1      33.635  19.962  24.878  1.00  0.00     0.026 C 
ATOM     22  C   UNL A   1      35.123  21.573  26.136  1.00  0.00     0.031 C 
ENDBRANCH  15  17
ENDBRANCH  13  15
ENDBRANCH   8   9
ENDBRANCH   4   7
ENDBRANCH   2   3
ENDBRANCH   1   2
BRANCH   1  23
ATOM     23  C   UNL A   1      32.775  32.760  27.369  1.00  0.00     0.118 C 
BRANCH  23  24
ATOM     24  N   UNL A   1      32.650  34.143  27.802  1.00  0.00    -0.352 N 
ATOM     25  C   UNL A   1      33.268  34.809  28.832  1.00  0.00     0.251 C 
ATOM     26  H   UNL A   1      32.022  34.688  27.274  1.00  0.00     0.163 HD
ATOM     27  O   UNL A   1      32.836  35.906  29.172  1.00  0.00    -0.269 OA
BRANCH  25  28
ATOM     28  C   UNL A   1      34.429  34.216  29.536  1.00  0.00     0.039 A 
ATOM     29  C   UNL A   1      34.194  33.390  30.639  1.00  0.00     0.014 A 
ATOM     30  C   UNL A   1      35.742  34.510  29.155  1.00  0.00     0.014 A 
ATOM     31  C   UNL A   1      35.269  32.822  31.328  1.00  0.00     0.010 A 
ATOM     32  C   UNL A   1      36.810  33.889  29.800  1.00  0.00     0.010 A 
ATOM     33  C   UNL A   1      36.586  33.045  30.898  1.00  0.00    -0.014 A 
BRANCH  33  34
ATOM     34  C   UNL A   1      37.740  32.413  31.592  1.00  0.00     0.031 A 
ATOM     35  C   UNL A   1      38.515  31.311  30.920  1.00  0.00     0.074 A 
ATOM     36  C   UNL A   1      38.053  32.793  32.845  1.00  0.00     0.049 A 
ATOM     37  N   UNL A   1      39.494  30.580  31.390  1.00  0.00    -0.248 NA
ATOM     38  C   UNL A   1      38.112  30.966  29.549  1.00  0.00     0.031 C 
ATOM     39  C   UNL A   1      37.353  33.826  33.613  1.00  0.00     0.029 A 
ATOM     40  N   UNL A   1      39.029  32.350  33.700  1.00  0.00    -0.354 N 
ATOM     41  C   UNL A   1      39.816  29.680  30.381  1.00  0.00     0.074 A 
ATOM     42  C   UNL A   1      38.886  29.921  29.296  1.00  0.00     0.031 C 
ATOM     43  C   UNL A   1      37.933  33.948  34.818  1.00  0.00     0.029 A 
ATOM     44  C   UNL A   1      39.016  32.976  34.926  1.00  0.00     0.049 A 
ATOM     45  H   UNL A   1      39.678  31.651  33.460  1.00  0.00     0.167 HD
ATOM     46  C   UNL A   1      40.807  28.753  30.351  1.00  0.00     0.034 A 
ATOM     47  C   UNL A   1      39.780  32.780  36.018  1.00  0.00     0.034 A 
ATOM     48  C   UNL A   1      41.732  28.534  31.437  1.00  0.00     0.049 A 
ATOM     49  C   UNL A   1      40.868  31.738  35.969  1.00  0.00     0.074 A 
ATOM     50  C   UNL A   1      42.802  27.658  31.497  1.00  0.00     0.029 A 
ATOM     51  N   UNL A   1      41.696  29.196  32.658  1.00  0.00    -0.354 N 
ATOM     52  N   UNL A   1      41.185  30.921  34.991  1.00  0.00    -0.248 NA
ATOM     53  C   UNL A   1      41.708  31.601  37.165  1.00  0.00     0.031 C 
ATOM     54  C   UNL A   1      43.372  27.745  32.773  1.00  0.00     0.029 A 
ATOM     55  C   UNL A   1      42.706  28.728  33.486  1.00  0.00     0.049 A 
ATOM     56  H   UNL A   1      41.046  29.895  32.902  1.00  0.00     0.167 HD
ATOM     57  C   UNL A   1      42.279  30.192  35.447  1.00  0.00     0.074 A 
ATOM     58  C   UNL A   1      42.576  30.678  36.779  1.00  0.00     0.031 C 
ATOM     59  C   UNL A   1      42.980  29.213  34.819  1.00  0.00     0.034 A 
BRANCH  46  60
ATOM     60  C   UNL A   1      40.917  27.894  29.112  1.00  0.00     0.023 A 
ATOM     61  C   UNL A   1      41.946  28.081  28.173  1.00  0.00     0.031 A 
ATOM     62  C   UNL A   1      39.962  26.896  28.849  1.00  0.00     0.131 A 
ATOM     63  C   UNL A   1      41.951  27.343  26.980  1.00  0.00     0.055 A 
ATOM     64  C   UNL A   1      40.020  26.107  27.698  1.00  0.00     0.041 A 
ATOM     65  F   UNL A   1      38.945  26.681  29.698  1.00  0.00    -0.206 F 
ATOM     66  C   UNL A   1      41.009  26.340  26.747  1.00  0.00     0.022 A 
BRANCH  63  67
ATOM     67  S   UNL A   1      43.115  27.819  25.673  1.00  0.00     0.124 S 
ATOM     68  O   UNL A   1      43.908  26.600  25.527  1.00  0.00    -0.237 OA
ATOM     69  O   UNL A   1      42.227  28.141  24.562  1.00  0.00    -0.237 OA
ATOM     70  O   UNL A   1      43.833  28.955  26.249  1.00  0.00    -0.744 OA
ENDBRANCH  63  67
ENDBRANCH  46  60
BRANCH  47  71
ATOM     71  C   UNL A   1      39.544  33.577  37.255  1.00  0.00     0.023 A 
ATOM     72  C   UNL A   1      40.277  34.744  37.515  1.00  0.00     0.031 A 
ATOM     73  C   UNL A   1      38.598  33.164  38.210  1.00  0.00     0.131 A 
ATOM     74  C   UNL A   1      40.084  35.437  38.720  1.00  0.00     0.055 A 
ATOM     75  C   UNL A   1      38.375  33.883  39.385  1.00  0.00     0.041 A 
ATOM     76  F   UNL A   1      37.863  32.059  38.005  1.00  0.00    -0.206 F 
ATOM     77  C   UNL A   1      39.130  35.021  39.651  1.00  0.00     0.022 A 
BRANCH  74  78
ATOM     78  S   UNL A   1      41.154  36.856  39.086  1.00  0.00     0.124 S 
ATOM     79  O   UNL A   1      40.177  37.923  39.273  1.00  0.00    -0.237 OA
ATOM     80  O   UNL A   1      41.851  36.406  40.287  1.00  0.00    -0.237 OA
ATOM     81  O   UNL A   1      41.987  36.971  37.892  1.00  0.00    -0.744 OA
ENDBRANCH  74  78
ENDBRANCH  47  71
BRANCH  59  82
ATOM     82  C   UNL A   1      44.161  28.636  35.561  1.00  0.00     0.023 A 
ATOM     83  C   UNL A   1      44.013  27.590  36.488  1.00  0.00     0.031 A 
ATOM     84  C   UNL A   1      45.450  29.158  35.349  1.00  0.00     0.131 A 
ATOM     85  C   UNL A   1      45.126  27.135  37.211  1.00  0.00     0.055 A 
ATOM     86  C   UNL A   1      46.563  28.661  36.029  1.00  0.00     0.041 A 
ATOM     87  F   UNL A   1      45.647  30.159  34.478  1.00  0.00    -0.206 F 
ATOM     88  C   UNL A   1      46.403  27.654  36.975  1.00  0.00     0.022 A 
BRANCH  85  89
ATOM     89  S   UNL A   1      44.870  25.917  38.529  1.00  0.00     0.124 S 
ATOM     90  O   UNL A   1      43.880  26.583  39.369  1.00  0.00    -0.237 OA
ATOM     91  O   UNL A   1      44.398  24.751  37.791  1.00  0.00    -0.237 OA
ATOM     92  O   UNL A   1      46.196  25.776  39.129  1.00  0.00    -0.744 OA
ENDBRANCH  85  89
ENDBRANCH  59  82
ENDBRANCH  33  34
ENDBRANCH  25  28
ENDBRANCH  23  24
ENDBRANCH   1  23
TORSDOF 16
ENDMDL
MODEL 3
REMARK VINA RESULT:     -11.9      5.717     11.865
REMARK SMILES Cc1cc(C(=O)N2CCC[C@@H]2C)sc1/C=C/C(=O)NCCCNC(=O)c1ccc(-c2c3nc(c(-c4cc(S(=O)(=O)[O-])ccc4F)c4ccc([nH]4)c(-c4cc(S(=O)(=O)[O-])ccc4F)c4nc(c(-c5cc(S(=O)(=O)[O-])ccc5F)c5ccc2[nH]5)C=C4)C=C3)cc1
REMARK SMILES IDX 21 1 20 2 19 3 17 4 18 5 16 7 15 8 14 9 1 10 2 11 3 12 4 13
REMARK SMILES IDX 13 14 5 15 6 16 7 17 8 18 11 19 9 20 10 21 12 22 22 23 23 24
REMARK SMILES IDX 24 25 25 27 26 28 27 29 88 30 28 31 87 32 29 33 30 34 31 35
REMARK SMILES IDX 81 36 32 37 86 38 80 39 82 40 33 41 85 42 79 43 78 44 34 46
REMARK SMILES IDX 66 47 46 48 65 49 47 50 50 51 64 52 83 53 48 54 49 55 63 57
REMARK SMILES IDX 84 58 51 59 35 60 36 61 44 62 37 63 43 64 45 65 42 66 38 67
REMARK SMILES IDX 39 68 40 69 41 70 67 71 68 72 76 73 69 74 75 75 77 76 74 77
REMARK SMILES IDX 70 78 71 79 72 80 73 81 52 82 53 83 61 84 54 85 60 86 62 87
REMARK SMILES IDX 59 88 55 89 56 90 57 91 58 92
REMARK H PARENT 19 6 23 26 82 45 50 56
REMARK Flexibility Score: inf
ROOT
ATOM      1  C   UNL A   1      38.176  19.647  24.901  1.00  0.00     0.042 C 
ENDROOT
BRANCH   1   2
ATOM      2  C   UNL A   1      36.830  20.355  25.020  1.00  0.00     0.118 C 
BRANCH   2   3
ATOM      3  N   UNL A   1      35.728  19.408  25.056  1.00  0.00    -0.352 N 
ATOM      4  C   UNL A   1      34.403  19.595  24.821  1.00  0.00     0.244 C 
ATOM      5  O   UNL A   1      33.645  18.631  24.773  1.00  0.00    -0.270 OA
ATOM      6  H   UNL A   1      35.982  18.486  25.289  1.00  0.00     0.163 HD
BRANCH   4   7
ATOM      7  C   UNL A   1      33.880  20.942  24.520  1.00  0.00     0.072 C 
ATOM      8  C   UNL A   1      32.574  21.244  24.484  1.00  0.00     0.025 C 
BRANCH   8   9
ATOM      9  C   UNL A   1      32.096  22.556  24.179  1.00  0.00     0.031 A 
ATOM     10  C   UNL A   1      30.591  23.009  26.219  1.00  0.00     0.046 C 
ATOM     11  C   UNL A   1      31.193  23.340  24.889  1.00  0.00    -0.032 A 
ATOM     12  C   UNL A   1      30.917  24.573  24.202  1.00  0.00     0.029 A 
ATOM     13  C   UNL A   1      31.633  24.729  23.028  1.00  0.00     0.093 A 
ATOM     14  S   UNL A   1      32.635  23.380  22.774  1.00  0.00    -0.130 S 
BRANCH  13  15
ATOM     15  C   UNL A   1      31.723  25.949  22.230  1.00  0.00     0.264 C 
ATOM     16  O   UNL A   1      31.835  25.882  21.001  1.00  0.00    -0.268 OA
BRANCH  15  17
ATOM     17  N   UNL A   1      31.595  27.202  22.819  1.00  0.00    -0.335 N 
ATOM     18  C   UNL A   1      30.486  28.050  22.440  1.00  0.00     0.120 C 
ATOM     19  C   UNL A   1      32.449  27.884  23.799  1.00  0.00     0.082 C 
ATOM     20  C   UNL A   1      30.222  28.835  23.711  1.00  0.00     0.024 C 
ATOM     21  C   UNL A   1      31.627  29.112  24.236  1.00  0.00     0.026 C 
ATOM     22  C   UNL A   1      33.779  28.305  23.181  1.00  0.00     0.031 C 
ENDBRANCH  15  17
ENDBRANCH  13  15
ENDBRANCH   8   9
ENDBRANCH   4   7
ENDBRANCH   2   3
ENDBRANCH   1   2
BRANCH   1  23
ATOM     23  C   UNL A   1      39.203  20.115  25.929  1.00  0.00     0.118 C 
BRANCH  23  24
ATOM     24  N   UNL A   1      40.338  19.208  26.013  1.00  0.00    -0.352 N 
ATOM     25  C   UNL A   1      41.683  19.476  26.093  1.00  0.00     0.251 C 
ATOM     26  H   UNL A   1      40.106  18.251  26.012  1.00  0.00     0.163 HD
ATOM     27  O   UNL A   1      42.481  18.562  25.911  1.00  0.00    -0.269 OA
BRANCH  25  28
ATOM     28  C   UNL A   1      42.172  20.845  26.380  1.00  0.00     0.039 A 
ATOM     29  C   UNL A   1      42.383  21.216  27.712  1.00  0.00     0.014 A 
ATOM     30  C   UNL A   1      42.370  21.779  25.359  1.00  0.00     0.014 A 
ATOM     31  C   UNL A   1      42.838  22.502  28.015  1.00  0.00     0.010 A 
ATOM     32  C   UNL A   1      42.888  23.039  25.657  1.00  0.00     0.010 A 
ATOM     33  C   UNL A   1      43.120  23.417  26.988  1.00  0.00    -0.014 A 
BRANCH  33  34
ATOM     34  C   UNL A   1      43.645  24.775  27.289  1.00  0.00     0.031 A 
ATOM     35  C   UNL A   1      42.722  25.845  27.807  1.00  0.00     0.074 A 
ATOM     36  C   UNL A   1      44.938  25.059  27.042  1.00  0.00     0.049 A 
ATOM     37  N   UNL A   1      42.968  27.107  28.048  1.00  0.00    -0.248 NA
ATOM     38  C   UNL A   1      41.329  25.446  28.057  1.00  0.00     0.031 C 
ATOM     39  C   UNL A   1      45.922  24.114  26.507  1.00  0.00     0.029 A 
ATOM     40  N   UNL A   1      45.647  26.223  27.197  1.00  0.00    -0.354 N 
ATOM     41  C   UNL A   1      41.761  27.658  28.465  1.00  0.00     0.074 A 
ATOM     42  C   UNL A   1      40.773  26.602  28.385  1.00  0.00     0.031 C 
ATOM     43  C   UNL A   1      47.109  24.733  26.394  1.00  0.00     0.029 A 
ATOM     44  C   UNL A   1      46.964  26.125  26.806  1.00  0.00     0.049 A 
ATOM     45  H   UNL A   1      45.252  27.050  27.554  1.00  0.00     0.167 HD
ATOM     46  C   UNL A   1      41.504  28.920  28.893  1.00  0.00     0.034 A 
ATOM     47  C   UNL A   1      47.939  27.053  26.770  1.00  0.00     0.034 A 
ATOM     48  C   UNL A   1      42.504  29.957  28.976  1.00  0.00     0.049 A 
ATOM     49  C   UNL A   1      47.630  28.452  27.240  1.00  0.00     0.074 A 
ATOM     50  C   UNL A   1      42.367  31.255  29.439  1.00  0.00     0.029 A 
ATOM     51  N   UNL A   1      43.830  29.817  28.584  1.00  0.00    -0.354 N 
ATOM     52  N   UNL A   1      46.491  28.947  27.668  1.00  0.00    -0.248 NA
ATOM     53  C   UNL A   1      48.740  29.413  27.233  1.00  0.00     0.031 C 
ATOM     54  C   UNL A   1      43.591  31.916  29.269  1.00  0.00     0.029 A 
ATOM     55  C   UNL A   1      44.512  31.011  28.768  1.00  0.00     0.049 A 
ATOM     56  H   UNL A   1      44.228  28.991  28.225  1.00  0.00     0.167 HD
ATOM     57  C   UNL A   1      46.757  30.270  28.006  1.00  0.00     0.074 A 
ATOM     58  C   UNL A   1      48.166  30.490  27.747  1.00  0.00     0.031 C 
ATOM     59  C   UNL A   1      45.915  31.218  28.492  1.00  0.00     0.034 A 
BRANCH  46  60
ATOM     60  C   UNL A   1      40.079  29.246  29.276  1.00  0.00     0.023 A 
ATOM     61  C   UNL A   1      39.672  29.311  30.620  1.00  0.00     0.031 A 
ATOM     62  C   UNL A   1      39.105  29.463  28.285  1.00  0.00     0.131 A 
ATOM     63  C   UNL A   1      38.319  29.503  30.936  1.00  0.00     0.055 A 
ATOM     64  C   UNL A   1      37.775  29.737  28.608  1.00  0.00     0.041 A 
ATOM     65  F   UNL A   1      39.427  29.397  26.984  1.00  0.00    -0.206 F 
ATOM     66  C   UNL A   1      37.371  29.741  29.940  1.00  0.00     0.022 A 
BRANCH  63  67
ATOM     67  S   UNL A   1      37.793  29.285  32.658  1.00  0.00     0.124 S 
ATOM     68  O   UNL A   1      38.897  29.910  33.384  1.00  0.00    -0.237 OA
ATOM     69  O   UNL A   1      36.521  29.997  32.693  1.00  0.00    -0.237 OA
ATOM     70  O   UNL A   1      37.702  27.834  32.808  1.00  0.00    -0.744 OA
ENDBRANCH  63  67
ENDBRANCH  46  60
BRANCH  47  71
ATOM     71  C   UNL A   1      49.296  26.701  26.267  1.00  0.00     0.023 A 
ATOM     72  C   UNL A   1      49.736  27.137  25.009  1.00  0.00     0.031 A 
ATOM     73  C   UNL A   1      50.162  25.896  27.028  1.00  0.00     0.131 A 
ATOM     74  C   UNL A   1      50.992  26.733  24.529  1.00  0.00     0.055 A 
ATOM     75  C   UNL A   1      51.429  25.536  26.568  1.00  0.00     0.041 A 
ATOM     76  F   UNL A   1      49.792  25.460  28.244  1.00  0.00    -0.206 F 
ATOM     77  C   UNL A   1      51.846  25.945  25.305  1.00  0.00     0.022 A 
BRANCH  74  78
ATOM     78  S   UNL A   1      51.466  27.194  22.840  1.00  0.00     0.124 S 
ATOM     79  O   UNL A   1      50.257  26.866  22.093  1.00  0.00    -0.237 OA
ATOM     80  O   UNL A   1      51.763  28.615  22.987  1.00  0.00    -0.237 OA
ATOM     81  O   UNL A   1      52.621  26.343  22.566  1.00  0.00    -0.744 OA
ENDBRANCH  74  78
ENDBRANCH  47  71
BRANCH  59  82
ATOM     82  C   UNL A   1      46.515  32.566  28.810  1.00  0.00     0.023 A 
ATOM     83  C   UNL A   1      46.560  33.599  27.859  1.00  0.00     0.031 A 
ATOM     84  C   UNL A   1      47.068  32.809  30.081  1.00  0.00     0.131 A 
ATOM     85  C   UNL A   1      47.195  34.811  28.174  1.00  0.00     0.055 A 
ATOM     86  C   UNL A   1      47.646  34.036  30.407  1.00  0.00     0.041 A 
ATOM     87  F   UNL A   1      47.054  31.856  31.026  1.00  0.00    -0.206 F 
ATOM     88  C   UNL A   1      47.724  35.041  29.447  1.00  0.00     0.022 A 
BRANCH  85  89
ATOM     89  S   UNL A   1      47.401  36.051  26.867  1.00  0.00     0.124 S 
ATOM     90  O   UNL A   1      48.318  35.378  25.952  1.00  0.00    -0.237 OA
ATOM     91  O   UNL A   1      46.035  36.228  26.385  1.00  0.00    -0.237 OA
ATOM     92  O   UNL A   1      47.964  37.202  27.571  1.00  0.00    -0.744 OA
ENDBRANCH  85  89
ENDBRANCH  59  82
ENDBRANCH  33  34
ENDBRANCH  25  28
ENDBRANCH  23  24
ENDBRANCH   1  23
TORSDOF 16
ENDMDL
