MODEL 1
REMARK VINA RESULT:     -12.7      0.000      0.000
REMARK SMILES O=C(C[C@@H]1C[N@@H+]([C@@H]2CCOc3ccccc32)CCO1)NCCCNC(=O)c1ccc(-c2c3nc(c(-c4cc(S(=O)(=O)[O-])ccc4F)c4ccc([nH]4)c(-c4cc(S(=O)(=O)[O-])ccc4F)c4nc(c(-c5cc(S(=O)(=O)[O-])ccc5F)c5ccc2[nH]5)C=C4)C=C3)cc1
REMARK SMILES IDX 22 1 21 2 20 3 1 4 2 5 3 7 4 8 5 9 19 10 6 11 18 12 17 13
REMARK SMILES IDX 7 15 8 16 16 17 9 18 11 19 15 20 10 21 12 22 14 23 13 24
REMARK SMILES IDX 23 25 24 26 25 27 26 29 27 30 28 31 89 32 29 33 88 34 30 35
REMARK SMILES IDX 31 36 32 37 82 38 33 39 87 40 81 41 83 42 34 43 86 44 80 45
REMARK SMILES IDX 79 46 35 48 67 49 47 50 66 51 48 52 51 53 65 54 84 55 49 56
REMARK SMILES IDX 50 57 64 59 85 60 52 61 36 62 37 63 45 64 38 65 44 66 46 67
REMARK SMILES IDX 43 68 39 69 40 70 41 71 42 72 68 73 69 74 77 75 70 76 76 77
REMARK SMILES IDX 78 78 75 79 71 80 72 81 73 82 74 83 53 84 54 85 62 86 55 87
REMARK SMILES IDX 61 88 63 89 60 90 56 91 57 92 58 93 59 94
REMARK H PARENT 20 6 6 14 24 28 83 47 51 58
REMARK Flexibility Score: inf
ROOT
ATOM      1  C   UNL A   1      36.081  21.299  25.731  1.00  0.00     0.042 C 
ENDROOT
BRANCH   1   2
ATOM      2  C   UNL A   1      35.003  20.552  24.956  1.00  0.00     0.117 C 
BRANCH   2   3
ATOM      3  N   UNL A   1      34.097  21.438  24.250  1.00  0.00    -0.356 N 
ATOM      4  O   UNL A   1      32.611  19.798  23.618  1.00  0.00    -0.275 OA
ATOM      5  C   UNL A   1      32.921  20.981  23.686  1.00  0.00     0.222 C 
ATOM      6  H   UNL A   1      34.327  22.391  24.171  1.00  0.00     0.163 HD
BRANCH   5   7
ATOM      7  C   UNL A   1      32.010  22.092  23.210  1.00  0.00     0.138 C 
BRANCH   7   8
ATOM      8  C   UNL A   1      31.453  22.966  24.344  1.00  0.00     0.182 C 
ATOM      9  C   UNL A   1      32.234  24.273  24.604  1.00  0.00     0.295 C 
ATOM     10  O   UNL A   1      31.379  22.199  25.560  1.00  0.00    -0.366 OA
ATOM     11  N   UNL A   1      31.708  25.120  25.690  1.00  0.00    -0.324 N 
ATOM     12  C   UNL A   1      30.733  22.952  26.598  1.00  0.00     0.222 C 
ATOM     13  C   UNL A   1      31.428  24.299  26.876  1.00  0.00     0.291 C 
ATOM     14  H   UNL A   1      32.456  25.766  25.944  1.00  0.00     0.348 HD
BRANCH  11  15
ATOM     15  C   UNL A   1      30.693  26.131  25.324  1.00  0.00     0.222 C 
ATOM     16  C   UNL A   1      30.162  26.052  23.884  1.00  0.00     0.112 C 
ATOM     17  C   UNL A   1      31.105  27.549  25.699  1.00  0.00     0.051 A 
ATOM     18  C   UNL A   1      29.566  27.382  23.463  1.00  0.00     0.236 C 
ATOM     19  C   UNL A   1      31.073  28.577  24.748  1.00  0.00     0.128 A 
ATOM     20  C   UNL A   1      31.527  27.857  27.003  1.00  0.00     0.014 A 
ATOM     21  O   UNL A   1      30.577  28.394  23.484  1.00  0.00    -0.493 OA
ATOM     22  C   UNL A   1      31.552  29.850  25.052  1.00  0.00     0.047 A 
ATOM     23  C   UNL A   1      31.959  29.145  27.323  1.00  0.00     0.001 A 
ATOM     24  C   UNL A   1      31.992  30.135  26.343  1.00  0.00     0.004 A 
ENDBRANCH  11  15
ENDBRANCH   7   8
ENDBRANCH   5   7
ENDBRANCH   2   3
ENDBRANCH   1   2
BRANCH   1  25
ATOM     25  C   UNL A   1      37.416  21.449  25.006  1.00  0.00     0.118 C 
BRANCH  25  26
ATOM     26  N   UNL A   1      38.404  20.454  25.394  1.00  0.00    -0.352 N 
ATOM     27  C   UNL A   1      39.577  20.599  26.097  1.00  0.00     0.251 C 
ATOM     28  H   UNL A   1      38.201  19.533  25.109  1.00  0.00     0.163 HD
ATOM     29  O   UNL A   1      40.323  19.632  26.242  1.00  0.00    -0.269 OA
BRANCH  27  30
ATOM     30  C   UNL A   1      39.963  21.916  26.652  1.00  0.00     0.039 A 
ATOM     31  C   UNL A   1      40.916  21.960  27.674  1.00  0.00     0.014 A 
ATOM     32  C   UNL A   1      39.408  23.101  26.164  1.00  0.00     0.014 A 
ATOM     33  C   UNL A   1      41.390  23.193  28.128  1.00  0.00     0.010 A 
ATOM     34  C   UNL A   1      39.928  24.330  26.571  1.00  0.00     0.010 A 
ATOM     35  C   UNL A   1      40.943  24.387  27.539  1.00  0.00    -0.014 A 
BRANCH  35  36
ATOM     36  C   UNL A   1      41.565  25.694  27.878  1.00  0.00     0.031 A 
ATOM     37  C   UNL A   1      40.774  26.758  28.585  1.00  0.00     0.074 A 
ATOM     38  C   UNL A   1      42.825  25.950  27.469  1.00  0.00     0.049 A 
ATOM     39  N   UNL A   1      41.113  27.989  28.871  1.00  0.00    -0.248 NA
ATOM     40  C   UNL A   1      39.413  26.394  29.004  1.00  0.00     0.031 C 
ATOM     41  C   UNL A   1      43.683  25.012  26.741  1.00  0.00     0.029 A 
ATOM     42  N   UNL A   1      43.600  27.077  27.593  1.00  0.00    -0.354 N 
ATOM     43  C   UNL A   1      40.004  28.554  29.493  1.00  0.00     0.074 A 
ATOM     44  C   UNL A   1      38.967  27.542  29.495  1.00  0.00     0.031 C 
ATOM     45  C   UNL A   1      44.866  25.597  26.495  1.00  0.00     0.029 A 
ATOM     46  C   UNL A   1      44.838  26.964  27.003  1.00  0.00     0.049 A 
ATOM     47  H   UNL A   1      43.298  27.889  28.060  1.00  0.00     0.167 HD
ATOM     48  C   UNL A   1      39.872  29.794  30.029  1.00  0.00     0.034 A 
ATOM     49  C   UNL A   1      45.831  27.865  26.865  1.00  0.00     0.034 A 
ATOM     50  C   UNL A   1      40.917  30.790  30.023  1.00  0.00     0.049 A 
ATOM     51  C   UNL A   1      45.647  29.247  27.434  1.00  0.00     0.074 A 
ATOM     52  C   UNL A   1      40.908  32.053  30.591  1.00  0.00     0.029 A 
ATOM     53  N   UNL A   1      42.154  30.643  29.410  1.00  0.00    -0.354 N 
ATOM     54  N   UNL A   1      44.609  29.749  28.064  1.00  0.00    -0.248 NA
ATOM     55  C   UNL A   1      46.768  30.183  27.278  1.00  0.00     0.031 C 
ATOM     56  C   UNL A   1      42.110  32.692  30.265  1.00  0.00     0.029 A 
ATOM     57  C   UNL A   1      42.901  31.804  29.554  1.00  0.00     0.049 A 
ATOM     58  H   UNL A   1      42.458  29.833  28.941  1.00  0.00     0.167 HD
ATOM     59  C   UNL A   1      44.964  31.052  28.398  1.00  0.00     0.074 A 
ATOM     60  C   UNL A   1      46.316  31.252  27.916  1.00  0.00     0.031 C 
ATOM     61  C   UNL A   1      44.240  31.999  29.048  1.00  0.00     0.034 A 
BRANCH  48  62
ATOM     62  C   UNL A   1      38.535  30.146  30.637  1.00  0.00     0.023 A 
ATOM     63  C   UNL A   1      37.554  30.840  29.907  1.00  0.00     0.031 A 
ATOM     64  C   UNL A   1      38.246  29.806  31.969  1.00  0.00     0.131 A 
ATOM     65  C   UNL A   1      36.364  31.239  30.536  1.00  0.00     0.055 A 
ATOM     66  C   UNL A   1      37.026  30.136  32.566  1.00  0.00     0.041 A 
ATOM     67  F   UNL A   1      39.150  29.160  32.722  1.00  0.00    -0.206 F 
ATOM     68  C   UNL A   1      36.084  30.871  31.854  1.00  0.00     0.022 A 
BRANCH  65  69
ATOM     69  S   UNL A   1      35.255  32.369  29.652  1.00  0.00     0.124 S 
ATOM     70  O   UNL A   1      36.206  33.264  28.998  1.00  0.00    -0.237 OA
ATOM     71  O   UNL A   1      34.520  31.466  28.774  1.00  0.00    -0.237 OA
ATOM     72  O   UNL A   1      34.468  32.981  30.720  1.00  0.00    -0.744 OA
ENDBRANCH  65  69
ENDBRANCH  48  62
BRANCH  49  73
ATOM     73  C   UNL A   1      47.082  27.504  26.139  1.00  0.00     0.023 A 
ATOM     74  C   UNL A   1      47.230  27.785  24.772  1.00  0.00     0.031 A 
ATOM     75  C   UNL A   1      48.131  26.834  26.794  1.00  0.00     0.131 A 
ATOM     76  C   UNL A   1      48.383  27.361  24.093  1.00  0.00     0.055 A 
ATOM     77  C   UNL A   1      49.297  26.458  26.125  1.00  0.00     0.041 A 
ATOM     78  F   UNL A   1      48.041  26.546  28.102  1.00  0.00    -0.206 F 
ATOM     79  C   UNL A   1      49.422  26.710  24.762  1.00  0.00     0.022 A 
BRANCH  76  80
ATOM     80  S   UNL A   1      48.470  27.604  22.298  1.00  0.00     0.124 S 
ATOM     81  O   UNL A   1      49.599  28.520  22.176  1.00  0.00    -0.237 OA
ATOM     82  O   UNL A   1      48.692  26.245  21.818  1.00  0.00    -0.237 OA
ATOM     83  O   UNL A   1      47.164  28.174  21.968  1.00  0.00    -0.744 OA
ENDBRANCH  76  80
ENDBRANCH  49  73
BRANCH  61  84
ATOM     84  C   UNL A   1      44.918  33.323  29.298  1.00  0.00     0.023 A 
ATOM     85  C   UNL A   1      44.656  34.448  28.497  1.00  0.00     0.031 A 
ATOM     86  C   UNL A   1      45.852  33.454  30.341  1.00  0.00     0.131 A 
ATOM     87  C   UNL A   1      45.361  35.642  28.717  1.00  0.00     0.055 A 
ATOM     88  C   UNL A   1      46.509  34.660  30.591  1.00  0.00     0.041 A 
ATOM     89  F   UNL A   1      46.142  32.410  31.134  1.00  0.00    -0.206 F 
ATOM     90  C   UNL A   1      46.274  35.758  29.769  1.00  0.00     0.022 A 
BRANCH  87  91
ATOM     91  S   UNL A   1      45.131  37.017  27.557  1.00  0.00     0.124 S 
ATOM     92  O   UNL A   1      44.812  38.121  28.456  1.00  0.00    -0.237 OA
ATOM     93  O   UNL A   1      46.430  37.088  26.896  1.00  0.00    -0.237 OA
ATOM     94  O   UNL A   1      44.029  36.569  26.708  1.00  0.00    -0.744 OA
ENDBRANCH  87  91
ENDBRANCH  61  84
ENDBRANCH  35  36
ENDBRANCH  27  30
ENDBRANCH  25  26
ENDBRANCH   1  25
TORSDOF 15
ENDMDL
MODEL 2
REMARK VINA RESULT:     -12.6      5.009     10.426
REMARK SMILES O=C(C[C@@H]1C[N@@H+]([C@@H]2CCOc3ccccc32)CCO1)NCCCNC(=O)c1ccc(-c2c3nc(c(-c4cc(S(=O)(=O)[O-])ccc4F)c4ccc([nH]4)c(-c4cc(S(=O)(=O)[O-])ccc4F)c4nc(c(-c5cc(S(=O)(=O)[O-])ccc5F)c5ccc2[nH]5)C=C4)C=C3)cc1
REMARK SMILES IDX 22 1 21 2 20 3 1 4 2 5 3 7 4 8 5 9 19 10 6 11 18 12 17 13
REMARK SMILES IDX 7 15 8 16 16 17 9 18 11 19 15 20 10 21 12 22 14 23 13 24
REMARK SMILES IDX 23 25 24 26 25 27 26 29 27 30 28 31 89 32 29 33 88 34 30 35
REMARK SMILES IDX 31 36 32 37 82 38 33 39 87 40 81 41 83 42 34 43 86 44 80 45
REMARK SMILES IDX 79 46 35 48 67 49 47 50 66 51 48 52 51 53 65 54 84 55 49 56
REMARK SMILES IDX 50 57 64 59 85 60 52 61 36 62 37 63 45 64 38 65 44 66 46 67
REMARK SMILES IDX 43 68 39 69 40 70 41 71 42 72 68 73 69 74 77 75 70 76 76 77
REMARK SMILES IDX 78 78 75 79 71 80 72 81 73 82 74 83 53 84 54 85 62 86 55 87
REMARK SMILES IDX 61 88 63 89 60 90 56 91 57 92 58 93 59 94
REMARK H PARENT 20 6 6 14 24 28 83 47 51 58
REMARK Flexibility Score: inf
ROOT
ATOM      1  C   UNL A   1      32.313  29.705  25.170  1.00  0.00     0.042 C 
ENDROOT
BRANCH   1   2
ATOM      2  C   UNL A   1      31.044  29.390  24.386  1.00  0.00     0.117 C 
BRANCH   2   3
ATOM      3  N   UNL A   1      30.745  27.972  24.339  1.00  0.00    -0.356 N 
ATOM      4  O   UNL A   1      28.760  28.189  23.195  1.00  0.00    -0.275 OA
ATOM      5  C   UNL A   1      29.637  27.481  23.676  1.00  0.00     0.222 C 
ATOM      6  H   UNL A   1      31.350  27.341  24.792  1.00  0.00     0.163 HD
BRANCH   5   7
ATOM      7  C   UNL A   1      29.634  25.973  23.540  1.00  0.00     0.138 C 
BRANCH   7   8
ATOM      8  C   UNL A   1      30.971  25.391  23.058  1.00  0.00     0.182 C 
ATOM      9  C   UNL A   1      31.934  24.953  24.184  1.00  0.00     0.295 C 
ATOM     10  O   UNL A   1      31.634  26.337  22.199  1.00  0.00    -0.366 OA
ATOM     11  N   UNL A   1      33.222  24.393  23.734  1.00  0.00    -0.324 N 
ATOM     12  C   UNL A   1      32.818  25.762  21.627  1.00  0.00     0.222 C 
ATOM     13  C   UNL A   1      33.806  25.250  22.694  1.00  0.00     0.291 C 
ATOM     14  H   UNL A   1      33.850  24.426  24.537  1.00  0.00     0.348 HD
BRANCH  11  15
ATOM     15  C   UNL A   1      33.277  22.934  23.503  1.00  0.00     0.222 C 
ATOM     16  C   UNL A   1      32.069  22.131  24.012  1.00  0.00     0.112 C 
ATOM     17  C   UNL A   1      34.596  22.312  23.944  1.00  0.00     0.051 A 
ATOM     18  C   UNL A   1      32.441  20.674  24.206  1.00  0.00     0.236 C 
ATOM     19  C   UNL A   1      34.612  21.205  24.802  1.00  0.00     0.128 A 
ATOM     20  C   UNL A   1      35.823  22.836  23.505  1.00  0.00     0.014 A 
ATOM     21  O   UNL A   1      33.468  20.564  25.197  1.00  0.00    -0.493 OA
ATOM     22  C   UNL A   1      35.813  20.699  25.298  1.00  0.00     0.047 A 
ATOM     23  C   UNL A   1      37.028  22.297  23.961  1.00  0.00     0.001 A 
ATOM     24  C   UNL A   1      37.022  21.245  24.873  1.00  0.00     0.004 A 
ENDBRANCH  11  15
ENDBRANCH   7   8
ENDBRANCH   5   7
ENDBRANCH   2   3
ENDBRANCH   1   2
BRANCH   1  25
ATOM     25  C   UNL A   1      32.095  30.092  26.630  1.00  0.00     0.118 C 
BRANCH  25  26
ATOM     26  N   UNL A   1      32.019  31.529  26.845  1.00  0.00    -0.352 N 
ATOM     27  C   UNL A   1      32.924  32.385  27.430  1.00  0.00     0.251 C 
ATOM     28  H   UNL A   1      31.193  31.956  26.522  1.00  0.00     0.163 HD
ATOM     29  O   UNL A   1      32.624  33.566  27.596  1.00  0.00    -0.269 OA
BRANCH  27  30
ATOM     30  C   UNL A   1      34.240  31.888  27.889  1.00  0.00     0.039 A 
ATOM     31  C   UNL A   1      35.298  32.795  28.002  1.00  0.00     0.014 A 
ATOM     32  C   UNL A   1      34.435  30.545  28.222  1.00  0.00     0.014 A 
ATOM     33  C   UNL A   1      36.514  32.380  28.551  1.00  0.00     0.010 A 
ATOM     34  C   UNL A   1      35.625  30.147  28.830  1.00  0.00     0.010 A 
ATOM     35  C   UNL A   1      36.668  31.066  29.024  1.00  0.00    -0.014 A 
BRANCH  35  36
ATOM     36  C   UNL A   1      37.884  30.655  29.775  1.00  0.00     0.031 A 
ATOM     37  C   UNL A   1      38.852  29.669  29.183  1.00  0.00     0.074 A 
ATOM     38  C   UNL A   1      38.068  31.111  31.031  1.00  0.00     0.049 A 
ATOM     39  N   UNL A   1      39.906  29.117  29.726  1.00  0.00    -0.248 NA
ATOM     40  C   UNL A   1      38.581  29.230  27.807  1.00  0.00     0.031 C 
ATOM     41  C   UNL A   1      37.179  32.042  31.730  1.00  0.00     0.029 A 
ATOM     42  N   UNL A   1      39.053  30.845  31.949  1.00  0.00    -0.354 N 
ATOM     43  C   UNL A   1      40.421  28.254  28.764  1.00  0.00     0.074 A 
ATOM     44  C   UNL A   1      39.530  28.323  27.624  1.00  0.00     0.031 C 
ATOM     45  C   UNL A   1      37.666  32.278  32.958  1.00  0.00     0.029 A 
ATOM     46  C   UNL A   1      38.873  31.482  33.155  1.00  0.00     0.049 A 
ATOM     47  H   UNL A   1      39.818  30.253  31.762  1.00  0.00     0.167 HD
ATOM     48  C   UNL A   1      41.543  27.492  28.821  1.00  0.00     0.034 A 
ATOM     49  C   UNL A   1      39.583  31.416  34.299  1.00  0.00     0.034 A 
ATOM     50  C   UNL A   1      42.423  27.439  29.964  1.00  0.00     0.049 A 
ATOM     51  C   UNL A   1      40.802  30.534  34.351  1.00  0.00     0.074 A 
ATOM     52  C   UNL A   1      43.616  26.749  30.102  1.00  0.00     0.029 A 
ATOM     53  N   UNL A   1      42.204  28.091  31.170  1.00  0.00    -0.354 N 
ATOM     54  N   UNL A   1      41.304  29.762  33.414  1.00  0.00    -0.248 NA
ATOM     55  C   UNL A   1      41.554  30.517  35.613  1.00  0.00     0.031 C 
ATOM     56  C   UNL A   1      44.081  26.930  31.410  1.00  0.00     0.029 A 
ATOM     57  C   UNL A   1      43.217  27.791  32.069  1.00  0.00     0.049 A 
ATOM     58  H   UNL A   1      41.440  28.682  31.361  1.00  0.00     0.167 HD
ATOM     59  C   UNL A   1      42.442  29.186  33.969  1.00  0.00     0.074 A 
ATOM     60  C   UNL A   1      42.563  29.712  35.313  1.00  0.00     0.031 C 
ATOM     61  C   UNL A   1      43.313  28.304  33.415  1.00  0.00     0.034 A 
BRANCH  48  62
ATOM     62  C   UNL A   1      41.857  26.633  27.620  1.00  0.00     0.023 A 
ATOM     63  C   UNL A   1      41.471  25.283  27.559  1.00  0.00     0.031 A 
ATOM     64  C   UNL A   1      42.573  27.162  26.532  1.00  0.00     0.131 A 
ATOM     65  C   UNL A   1      41.869  24.488  26.473  1.00  0.00     0.055 A 
ATOM     66  C   UNL A   1      42.898  26.387  25.416  1.00  0.00     0.041 A 
ATOM     67  F   UNL A   1      42.985  28.439  26.541  1.00  0.00    -0.206 F 
ATOM     68  C   UNL A   1      42.559  25.037  25.389  1.00  0.00     0.022 A 
BRANCH  65  69
ATOM     69  S   UNL A   1      41.598  22.697  26.564  1.00  0.00     0.124 S 
ATOM     70  O   UNL A   1      42.242  22.367  27.833  1.00  0.00    -0.237 OA
ATOM     71  O   UNL A   1      40.144  22.597  26.540  1.00  0.00    -0.237 OA
ATOM     72  O   UNL A   1      42.280  22.186  25.377  1.00  0.00    -0.744 OA
ENDBRANCH  65  69
ENDBRANCH  48  62
BRANCH  49  73
ATOM     73  C   UNL A   1      39.151  32.187  35.500  1.00  0.00     0.023 A 
ATOM     74  C   UNL A   1      38.481  31.557  36.560  1.00  0.00     0.031 A 
ATOM     75  C   UNL A   1      39.368  33.574  35.585  1.00  0.00     0.131 A 
ATOM     76  C   UNL A   1      38.012  32.319  37.641  1.00  0.00     0.055 A 
ATOM     77  C   UNL A   1      38.943  34.319  36.686  1.00  0.00     0.041 A 
ATOM     78  F   UNL A   1      40.008  34.223  34.600  1.00  0.00    -0.206 F 
ATOM     79  C   UNL A   1      38.249  33.694  37.717  1.00  0.00     0.022 A 
BRANCH  76  80
ATOM     80  S   UNL A   1      37.016  31.497  38.914  1.00  0.00     0.124 S 
ATOM     81  O   UNL A   1      35.794  32.294  38.897  1.00  0.00    -0.237 OA
ATOM     82  O   UNL A   1      36.905  30.143  38.384  1.00  0.00    -0.237 OA
ATOM     83  O   UNL A   1      37.830  31.627  40.121  1.00  0.00    -0.744 OA
ENDBRANCH  76  80
ENDBRANCH  49  73
BRANCH  61  84
ATOM     84  C   UNL A   1      44.488  27.884  34.264  1.00  0.00     0.023 A 
ATOM     85  C   UNL A   1      44.419  26.770  35.119  1.00  0.00     0.031 A 
ATOM     86  C   UNL A   1      45.685  28.619  34.228  1.00  0.00     0.131 A 
ATOM     87  C   UNL A   1      45.509  26.455  35.945  1.00  0.00     0.055 A 
ATOM     88  C   UNL A   1      46.787  28.268  35.011  1.00  0.00     0.041 A 
ATOM     89  F   UNL A   1      45.805  29.694  33.432  1.00  0.00    -0.206 F 
ATOM     90  C   UNL A   1      46.697  27.188  35.885  1.00  0.00     0.022 A 
BRANCH  87  91
ATOM     91  S   UNL A   1      45.324  25.124  37.163  1.00  0.00     0.124 S 
ATOM     92  O   UNL A   1      43.887  24.872  37.121  1.00  0.00    -0.237 OA
ATOM     93  O   UNL A   1      46.171  24.073  36.608  1.00  0.00    -0.237 OA
ATOM     94  O   UNL A   1      45.813  25.723  38.403  1.00  0.00    -0.744 OA
ENDBRANCH  87  91
ENDBRANCH  61  84
ENDBRANCH  35  36
ENDBRANCH  27  30
ENDBRANCH  25  26
ENDBRANCH   1  25
TORSDOF 15
ENDMDL
MODEL 3
REMARK VINA RESULT:     -12.6      1.421      1.723
REMARK SMILES O=C(C[C@@H]1C[N@@H+]([C@@H]2CCOc3ccccc32)CCO1)NCCCNC(=O)c1ccc(-c2c3nc(c(-c4cc(S(=O)(=O)[O-])ccc4F)c4ccc([nH]4)c(-c4cc(S(=O)(=O)[O-])ccc4F)c4nc(c(-c5cc(S(=O)(=O)[O-])ccc5F)c5ccc2[nH]5)C=C4)C=C3)cc1
REMARK SMILES IDX 22 1 21 2 20 3 1 4 2 5 3 7 4 8 5 9 19 10 6 11 18 12 17 13
REMARK SMILES IDX 7 15 8 16 16 17 9 18 11 19 15 20 10 21 12 22 14 23 13 24
REMARK SMILES IDX 23 25 24 26 25 27 26 29 27 30 28 31 89 32 29 33 88 34 30 35
REMARK SMILES IDX 31 36 32 37 82 38 33 39 87 40 81 41 83 42 34 43 86 44 80 45
REMARK SMILES IDX 79 46 35 48 67 49 47 50 66 51 48 52 51 53 65 54 84 55 49 56
REMARK SMILES IDX 50 57 64 59 85 60 52 61 36 62 37 63 45 64 38 65 44 66 46 67
REMARK SMILES IDX 43 68 39 69 40 70 41 71 42 72 68 73 69 74 77 75 70 76 76 77
REMARK SMILES IDX 78 78 75 79 71 80 72 81 73 82 74 83 53 84 54 85 62 86 55 87
REMARK SMILES IDX 61 88 63 89 60 90 56 91 57 92 58 93 59 94
REMARK H PARENT 20 6 6 14 24 28 83 47 51 58
REMARK Flexibility Score: inf
ROOT
ATOM      1  C   UNL A   1      35.930  21.222  25.703  1.00  0.00     0.042 C 
ENDROOT
BRANCH   1   2
ATOM      2  C   UNL A   1      34.812  20.507  24.954  1.00  0.00     0.117 C 
BRANCH   2   3
ATOM      3  N   UNL A   1      33.930  21.417  24.249  1.00  0.00    -0.356 N 
ATOM      4  O   UNL A   1      32.500  19.795  23.461  1.00  0.00    -0.275 OA
ATOM      5  C   UNL A   1      32.791  20.977  23.604  1.00  0.00     0.222 C 
ATOM      6  H   UNL A   1      34.151  22.376  24.229  1.00  0.00     0.163 HD
BRANCH   5   7
ATOM      7  C   UNL A   1      31.889  22.101  23.138  1.00  0.00     0.138 C 
BRANCH   7   8
ATOM      8  C   UNL A   1      31.340  22.969  24.280  1.00  0.00     0.182 C 
ATOM      9  C   UNL A   1      32.148  24.254  24.568  1.00  0.00     0.295 C 
ATOM     10  O   UNL A   1      31.236  22.185  25.483  1.00  0.00    -0.366 OA
ATOM     11  N   UNL A   1      31.630  25.096  25.663  1.00  0.00    -0.324 N 
ATOM     12  C   UNL A   1      30.596  22.936  26.525  1.00  0.00     0.222 C 
ATOM     13  C   UNL A   1      31.319  24.263  26.832  1.00  0.00     0.291 C 
ATOM     14  H   UNL A   1      32.389  25.720  25.934  1.00  0.00     0.348 HD
BRANCH  11  15
ATOM     15  C   UNL A   1      30.642  26.134  25.303  1.00  0.00     0.222 C 
ATOM     16  C   UNL A   1      30.114  26.082  23.860  1.00  0.00     0.112 C 
ATOM     17  C   UNL A   1      31.088  27.538  25.692  1.00  0.00     0.051 A 
ATOM     18  C   UNL A   1      29.553  27.430  23.449  1.00  0.00     0.236 C 
ATOM     19  C   UNL A   1      31.085  28.575  24.750  1.00  0.00     0.128 A 
ATOM     20  C   UNL A   1      31.513  27.824  27.000  1.00  0.00     0.014 A 
ATOM     21  O   UNL A   1      30.589  28.416  23.482  1.00  0.00    -0.493 OA
ATOM     22  C   UNL A   1      31.595  29.834  25.067  1.00  0.00     0.047 A 
ATOM     23  C   UNL A   1      31.977  29.098  27.332  1.00  0.00     0.001 A 
ATOM     24  C   UNL A   1      32.037  30.096  26.361  1.00  0.00     0.004 A 
ENDBRANCH  11  15
ENDBRANCH   7   8
ENDBRANCH   5   7
ENDBRANCH   2   3
ENDBRANCH   1   2
BRANCH   1  25
ATOM     25  C   UNL A   1      37.245  21.351  24.938  1.00  0.00     0.118 C 
BRANCH  25  26
ATOM     26  N   UNL A   1      38.222  20.331  25.287  1.00  0.00    -0.352 N 
ATOM     27  C   UNL A   1      39.416  20.443  25.961  1.00  0.00     0.251 C 
ATOM     28  H   UNL A   1      37.994  19.418  24.995  1.00  0.00     0.163 HD
ATOM     29  O   UNL A   1      40.146  19.460  26.074  1.00  0.00    -0.269 OA
BRANCH  27  30
ATOM     30  C   UNL A   1      39.843  21.745  26.522  1.00  0.00     0.039 A 
ATOM     31  C   UNL A   1      40.815  21.756  27.526  1.00  0.00     0.014 A 
ATOM     32  C   UNL A   1      39.305  22.948  26.058  1.00  0.00     0.014 A 
ATOM     33  C   UNL A   1      41.327  22.973  27.984  1.00  0.00     0.010 A 
ATOM     34  C   UNL A   1      39.861  24.160  26.468  1.00  0.00     0.010 A 
ATOM     35  C   UNL A   1      40.896  24.183  27.417  1.00  0.00    -0.014 A 
BRANCH  35  36
ATOM     36  C   UNL A   1      41.554  25.472  27.757  1.00  0.00     0.031 A 
ATOM     37  C   UNL A   1      40.784  26.569  28.437  1.00  0.00     0.074 A 
ATOM     38  C   UNL A   1      42.831  25.681  27.375  1.00  0.00     0.049 A 
ATOM     39  N   UNL A   1      41.157  27.791  28.719  1.00  0.00    -0.248 NA
ATOM     40  C   UNL A   1      39.402  26.255  28.828  1.00  0.00     0.031 C 
ATOM     41  C   UNL A   1      43.672  24.708  26.674  1.00  0.00     0.029 A 
ATOM     42  N   UNL A   1      43.640  26.782  27.505  1.00  0.00    -0.354 N 
ATOM     43  C   UNL A   1      40.055  28.399  29.311  1.00  0.00     0.074 A 
ATOM     44  C   UNL A   1      38.985  27.422  29.298  1.00  0.00     0.031 C 
ATOM     45  C   UNL A   1      44.879  25.250  26.450  1.00  0.00     0.029 A 
ATOM     46  C   UNL A   1      44.887  26.623  26.945  1.00  0.00     0.049 A 
ATOM     47  H   UNL A   1      43.355  27.609  27.958  1.00  0.00     0.167 HD
ATOM     48  C   UNL A   1      39.953  29.647  29.832  1.00  0.00     0.034 A 
ATOM     49  C   UNL A   1      45.912  27.488  26.821  1.00  0.00     0.034 A 
ATOM     50  C   UNL A   1      41.031  30.608  29.841  1.00  0.00     0.049 A 
ATOM     51  C   UNL A   1      45.762  28.881  27.373  1.00  0.00     0.074 A 
ATOM     52  C   UNL A   1      41.052  31.876  30.397  1.00  0.00     0.029 A 
ATOM     53  N   UNL A   1      42.276  30.413  29.256  1.00  0.00    -0.354 N 
ATOM     54  N   UNL A   1      44.728  29.424  27.975  1.00  0.00    -0.248 NA
ATOM     55  C   UNL A   1      46.917  29.777  27.233  1.00  0.00     0.031 C 
ATOM     56  C   UNL A   1      42.282  32.471  30.092  1.00  0.00     0.029 A 
ATOM     57  C   UNL A   1      43.058  31.550  29.406  1.00  0.00     0.049 A 
ATOM     58  H   UNL A   1      42.563  29.589  28.802  1.00  0.00     0.167 HD
ATOM     59  C   UNL A   1      45.120  30.718  28.304  1.00  0.00     0.074 A 
ATOM     60  C   UNL A   1      46.488  30.868  27.851  1.00  0.00     0.031 C 
ATOM     61  C   UNL A   1      44.413  31.695  28.929  1.00  0.00     0.034 A 
BRANCH  48  62
ATOM     62  C   UNL A   1      38.616  30.050  30.406  1.00  0.00     0.023 A 
ATOM     63  C   UNL A   1      37.665  30.748  29.641  1.00  0.00     0.031 A 
ATOM     64  C   UNL A   1      38.296  29.755  31.743  1.00  0.00     0.131 A 
ATOM     65  C   UNL A   1      36.476  31.195  30.238  1.00  0.00     0.055 A 
ATOM     66  C   UNL A   1      37.075  30.133  32.309  1.00  0.00     0.041 A 
ATOM     67  F   UNL A   1      39.170  29.108  32.528  1.00  0.00    -0.206 F 
ATOM     68  C   UNL A   1      36.164  30.871  31.560  1.00  0.00     0.022 A 
BRANCH  65  69
ATOM     69  S   UNL A   1      35.411  32.327  29.303  1.00  0.00     0.124 S 
ATOM     70  O   UNL A   1      34.561  31.393  28.569  1.00  0.00    -0.237 OA
ATOM     71  O   UNL A   1      34.758  33.090  30.360  1.00  0.00    -0.237 OA
ATOM     72  O   UNL A   1      36.353  33.080  28.478  1.00  0.00    -0.744 OA
ENDBRANCH  65  69
ENDBRANCH  48  62
BRANCH  49  73
ATOM     73  C   UNL A   1      47.166  27.078  26.126  1.00  0.00     0.023 A 
ATOM     74  C   UNL A   1      48.180  26.392  26.812  1.00  0.00     0.031 A 
ATOM     75  C   UNL A   1      47.384  27.404  24.776  1.00  0.00     0.131 A 
ATOM     76  C   UNL A   1      49.385  26.090  26.158  1.00  0.00     0.055 A 
ATOM     77  C   UNL A   1      48.564  27.058  24.116  1.00  0.00     0.041 A 
ATOM     78  F   UNL A   1      46.444  28.056  24.074  1.00  0.00    -0.206 F 
ATOM     79  C   UNL A   1      49.579  26.408  24.812  1.00  0.00     0.022 A 
BRANCH  76  80
ATOM     80  S   UNL A   1      50.729  25.343  27.119  1.00  0.00     0.124 S 
ATOM     81  O   UNL A   1      51.163  26.465  27.945  1.00  0.00    -0.237 OA
ATOM     82  O   UNL A   1      50.040  24.262  27.814  1.00  0.00    -0.237 OA
ATOM     83  O   UNL A   1      51.682  24.916  26.096  1.00  0.00    -0.744 OA
ENDBRANCH  76  80
ENDBRANCH  49  73
BRANCH  61  84
ATOM     84  C   UNL A   1      45.130  32.997  29.182  1.00  0.00     0.023 A 
ATOM     85  C   UNL A   1      45.153  34.025  28.223  1.00  0.00     0.031 A 
ATOM     86  C   UNL A   1      45.814  33.205  30.392  1.00  0.00     0.131 A 
ATOM     87  C   UNL A   1      45.891  35.193  28.468  1.00  0.00     0.055 A 
ATOM     88  C   UNL A   1      46.501  34.393  30.654  1.00  0.00     0.041 A 
ATOM     89  F   UNL A   1      45.828  32.256  31.342  1.00  0.00    -0.206 F 
ATOM     90  C   UNL A   1      46.552  35.389  29.683  1.00  0.00     0.022 A 
BRANCH  87  91
ATOM     91  S   UNL A   1      46.047  36.421  27.141  1.00  0.00     0.124 S 
ATOM     92  O   UNL A   1      46.102  35.577  25.952  1.00  0.00    -0.237 OA
ATOM     93  O   UNL A   1      44.831  37.212  27.304  1.00  0.00    -0.237 OA
ATOM     94  O   UNL A   1      47.288  37.120  27.465  1.00  0.00    -0.744 OA
ENDBRANCH  87  91
ENDBRANCH  61  84
ENDBRANCH  35  36
ENDBRANCH  27  30
ENDBRANCH  25  26
ENDBRANCH   1  25
TORSDOF 15
ENDMDL
