MODEL 1
REMARK VINA RESULT:     -10.8      0.000      0.000
REMARK SMILES O=C(NCCCNC(=O)[C@H]1CC[C@@H]2CCCC[C@H]2[NH2+]1)c1ccc(-c2c3nc(c(-c4cc(S(=O)(=O)[O-])ccc4F)c4ccc([nH]4)c(-c4cc(S(=O)(=O)[O-])ccc4F)c4nc(c(-c5cc(S(=O)(=O)[O-])ccc5F)c5ccc2[nH]5)C=C4)C=C3)cc1
REMARK SMILES IDX 1 1 2 2 3 3 20 5 21 6 82 7 22 8 81 9 23 10 24 11 25 12 75 13
REMARK SMILES IDX 26 14 80 15 74 16 76 17 27 18 79 19 73 20 72 21 28 23 60 24
REMARK SMILES IDX 40 25 59 26 41 27 44 28 58 29 77 30 42 31 43 32 57 34 78 35
REMARK SMILES IDX 45 36 29 37 30 38 38 39 31 40 37 41 39 42 36 43 32 44 33 45
REMARK SMILES IDX 34 46 35 47 61 48 62 49 70 50 63 51 69 52 71 53 68 54 64 55
REMARK SMILES IDX 65 56 66 57 67 58 46 59 47 60 55 61 48 62 54 63 56 64 53 65
REMARK SMILES IDX 49 66 50 67 51 68 52 69 4 70 5 71 6 72 7 73 8 74 9 76 10 77
REMARK SMILES IDX 11 78 19 79 12 80 18 81 13 84 17 85 14 86 16 87 15 88
REMARK H PARENT 3 4 76 22 44 33 7 75 19 82 19 83
REMARK Flexibility Score: inf
ROOT
ATOM      1  O   UNL A   1      33.311  30.531  26.518  1.00  0.00    -0.269 OA
ATOM      2  C   UNL A   1      33.977  31.209  27.297  1.00  0.00     0.251 C 
ATOM      3  N   UNL A   1      33.525  32.455  27.665  1.00  0.00    -0.352 N 
ATOM      4  H   UNL A   1      32.612  32.671  27.367  1.00  0.00     0.163 HD
ENDROOT
BRANCH   2   5
ATOM      5  C   UNL A   1      35.268  30.692  27.811  1.00  0.00     0.039 A 
ATOM      6  C   UNL A   1      35.344  29.457  28.455  1.00  0.00     0.014 A 
ATOM      7  C   UNL A   1      36.426  31.455  27.634  1.00  0.00     0.014 A 
ATOM      8  C   UNL A   1      36.530  29.067  29.068  1.00  0.00     0.010 A 
ATOM      9  C   UNL A   1      37.642  31.014  28.169  1.00  0.00     0.010 A 
ATOM     10  C   UNL A   1      37.696  29.838  28.932  1.00  0.00    -0.014 A 
BRANCH  10  11
ATOM     11  C   UNL A   1      38.952  29.378  29.584  1.00  0.00     0.031 A 
ATOM     12  C   UNL A   1      39.344  29.874  30.951  1.00  0.00     0.074 A 
ATOM     13  C   UNL A   1      39.719  28.464  28.955  1.00  0.00     0.049 A 
ATOM     14  N   UNL A   1      40.373  29.538  31.689  1.00  0.00    -0.248 NA
ATOM     15  C   UNL A   1      38.476  30.889  31.565  1.00  0.00     0.031 C 
ATOM     16  C   UNL A   1      39.449  27.916  27.623  1.00  0.00     0.029 A 
ATOM     17  N   UNL A   1      40.859  27.813  29.354  1.00  0.00    -0.354 N 
ATOM     18  C   UNL A   1      40.288  30.313  32.843  1.00  0.00     0.074 A 
ATOM     19  C   UNL A   1      39.126  31.163  32.686  1.00  0.00     0.031 C 
ATOM     20  C   UNL A   1      40.360  26.972  27.342  1.00  0.00     0.029 A 
ATOM     21  C   UNL A   1      41.315  26.892  28.441  1.00  0.00     0.049 A 
ATOM     22  H   UNL A   1      41.307  27.990  30.213  1.00  0.00     0.167 HD
ATOM     23  C   UNL A   1      41.099  30.308  33.933  1.00  0.00     0.034 A 
ATOM     24  C   UNL A   1      42.386  26.076  28.476  1.00  0.00     0.034 A 
ATOM     25  C   UNL A   1      42.248  29.445  34.078  1.00  0.00     0.049 A 
ATOM     26  C   UNL A   1      43.276  26.100  29.690  1.00  0.00     0.074 A 
ATOM     27  C   UNL A   1      43.113  29.332  35.154  1.00  0.00     0.029 A 
ATOM     28  N   UNL A   1      42.700  28.549  33.116  1.00  0.00    -0.354 N 
ATOM     29  N   UNL A   1      43.166  26.822  30.782  1.00  0.00    -0.248 NA
ATOM     30  C   UNL A   1      44.430  25.194  29.678  1.00  0.00     0.031 C 
ATOM     31  C   UNL A   1      44.121  28.422  34.818  1.00  0.00     0.029 A 
ATOM     32  C   UNL A   1      43.845  27.903  33.563  1.00  0.00     0.049 A 
ATOM     33  H   UNL A   1      42.269  28.394  32.245  1.00  0.00     0.167 HD
ATOM     34  C   UNL A   1      44.224  26.434  31.598  1.00  0.00     0.074 A 
ATOM     35  C   UNL A   1      44.945  25.403  30.880  1.00  0.00     0.031 C 
ATOM     36  C   UNL A   1      44.565  26.887  32.832  1.00  0.00     0.034 A 
BRANCH  23  37
ATOM     37  C   UNL A   1      40.794  31.301  35.032  1.00  0.00     0.023 A 
ATOM     38  C   UNL A   1      39.725  31.115  35.928  1.00  0.00     0.031 A 
ATOM     39  C   UNL A   1      41.570  32.465  35.170  1.00  0.00     0.131 A 
ATOM     40  C   UNL A   1      39.420  32.110  36.871  1.00  0.00     0.055 A 
ATOM     41  C   UNL A   1      41.309  33.413  36.162  1.00  0.00     0.041 A 
ATOM     42  F   UNL A   1      42.590  32.709  34.334  1.00  0.00    -0.206 F 
ATOM     43  C   UNL A   1      40.218  33.246  37.010  1.00  0.00     0.022 A 
BRANCH  40  44
ATOM     44  S   UNL A   1      37.876  31.965  37.815  1.00  0.00     0.124 S 
ATOM     45  O   UNL A   1      37.484  30.586  37.534  1.00  0.00    -0.237 OA
ATOM     46  O   UNL A   1      38.314  32.238  39.179  1.00  0.00    -0.237 OA
ATOM     47  O   UNL A   1      37.013  32.984  37.221  1.00  0.00    -0.744 OA
ENDBRANCH  40  44
ENDBRANCH  23  37
BRANCH  24  48
ATOM     48  C   UNL A   1      42.685  25.177  27.325  1.00  0.00     0.023 A 
ATOM     49  C   UNL A   1      42.178  23.870  27.276  1.00  0.00     0.031 A 
ATOM     50  C   UNL A   1      43.511  25.607  26.271  1.00  0.00     0.131 A 
ATOM     51  C   UNL A   1      42.535  23.023  26.215  1.00  0.00     0.055 A 
ATOM     52  C   UNL A   1      43.819  24.779  25.191  1.00  0.00     0.041 A 
ATOM     53  F   UNL A   1      44.017  26.850  26.268  1.00  0.00    -0.206 F 
ATOM     54  C   UNL A   1      43.339  23.473  25.165  1.00  0.00     0.022 A 
BRANCH  51  55
ATOM     55  S   UNL A   1      41.994  21.293  26.266  1.00  0.00     0.124 S 
ATOM     56  O   UNL A   1      42.882  20.673  25.290  1.00  0.00    -0.237 OA
ATOM     57  O   UNL A   1      42.230  20.942  27.662  1.00  0.00    -0.237 OA
ATOM     58  O   UNL A   1      40.587  21.365  25.874  1.00  0.00    -0.744 OA
ENDBRANCH  51  55
ENDBRANCH  24  48
BRANCH  36  59
ATOM     59  C   UNL A   1      45.751  26.227  33.493  1.00  0.00     0.023 A 
ATOM     60  C   UNL A   1      45.612  25.075  34.288  1.00  0.00     0.031 A 
ATOM     61  C   UNL A   1      47.034  26.785  33.356  1.00  0.00     0.131 A 
ATOM     62  C   UNL A   1      46.724  24.558  34.969  1.00  0.00     0.055 A 
ATOM     63  C   UNL A   1      48.149  26.229  33.987  1.00  0.00     0.041 A 
ATOM     64  F   UNL A   1      47.226  27.886  32.612  1.00  0.00    -0.206 F 
ATOM     65  C   UNL A   1      47.994  25.118  34.812  1.00  0.00     0.022 A 
BRANCH  62  66
ATOM     66  S   UNL A   1      46.468  23.209  36.155  1.00  0.00     0.124 S 
ATOM     67  O   UNL A   1      47.836  22.895  36.559  1.00  0.00    -0.237 OA
ATOM     68  O   UNL A   1      45.633  23.840  37.170  1.00  0.00    -0.237 OA
ATOM     69  O   UNL A   1      45.804  22.175  35.361  1.00  0.00    -0.744 OA
ENDBRANCH  62  66
ENDBRANCH  36  59
ENDBRANCH  10  11
ENDBRANCH   2   5
BRANCH   3  70
ATOM     70  C   UNL A   1      34.187  33.504  28.428  1.00  0.00     0.118 C 
BRANCH  70  71
ATOM     71  C   UNL A   1      33.246  34.625  28.846  1.00  0.00     0.042 C 
BRANCH  71  72
ATOM     72  C   UNL A   1      33.627  35.309  30.155  1.00  0.00     0.118 C 
BRANCH  72  73
ATOM     73  N   UNL A   1      33.366  34.467  31.310  1.00  0.00    -0.351 N 
ATOM     74  C   UNL A   1      34.178  34.102  32.341  1.00  0.00     0.278 C 
ATOM     75  H   UNL A   1      32.453  34.100  31.355  1.00  0.00     0.163 HD
ATOM     76  O   UNL A   1      33.691  33.389  33.225  1.00  0.00    -0.268 OA
BRANCH  74  77
ATOM     77  C   UNL A   1      35.642  34.578  32.443  1.00  0.00     0.272 C 
ATOM     78  C   UNL A   1      36.305  34.197  33.768  1.00  0.00     0.076 C 
ATOM     79  N   UNL A   1      36.402  34.111  31.263  1.00  0.00    -0.333 N 
ATOM     80  C   UNL A   1      37.761  34.654  33.811  1.00  0.00     0.016 C 
ATOM     81  C   UNL A   1      37.780  34.610  31.287  1.00  0.00     0.186 C 
ATOM     82  H   UNL A   1      35.942  34.447  30.416  1.00  0.00     0.347 HD
ATOM     83  H   UNL A   1      36.428  33.092  31.279  1.00  0.00     0.347 HD
ATOM     84  C   UNL A   1      38.508  34.156  32.567  1.00  0.00     0.048 C 
ATOM     85  C   UNL A   1      38.520  34.114  30.040  1.00  0.00     0.065 C 
ATOM     86  C   UNL A   1      39.963  34.642  32.565  1.00  0.00     0.010 C 
ATOM     87  C   UNL A   1      39.972  34.586  30.037  1.00  0.00     0.006 C 
ATOM     88  C   UNL A   1      40.702  34.176  31.312  1.00  0.00     0.001 C 
ENDBRANCH  74  77
ENDBRANCH  72  73
ENDBRANCH  71  72
ENDBRANCH  70  71
ENDBRANCH   3  70
TORSDOF 13
ENDMDL
MODEL 2
REMARK VINA RESULT:     -10.7      5.754     11.540
REMARK SMILES O=C(NCCCNC(=O)[C@H]1CC[C@@H]2CCCC[C@H]2[NH2+]1)c1ccc(-c2c3nc(c(-c4cc(S(=O)(=O)[O-])ccc4F)c4ccc([nH]4)c(-c4cc(S(=O)(=O)[O-])ccc4F)c4nc(c(-c5cc(S(=O)(=O)[O-])ccc5F)c5ccc2[nH]5)C=C4)C=C3)cc1
REMARK SMILES IDX 1 1 2 2 3 3 20 5 21 6 82 7 22 8 81 9 23 10 24 11 25 12 75 13
REMARK SMILES IDX 26 14 80 15 74 16 76 17 27 18 79 19 73 20 72 21 28 23 60 24
REMARK SMILES IDX 40 25 59 26 41 27 44 28 58 29 77 30 42 31 43 32 57 34 78 35
REMARK SMILES IDX 45 36 29 37 30 38 38 39 31 40 37 41 39 42 36 43 32 44 33 45
REMARK SMILES IDX 34 46 35 47 61 48 62 49 70 50 63 51 69 52 71 53 68 54 64 55
REMARK SMILES IDX 65 56 66 57 67 58 46 59 47 60 55 61 48 62 54 63 56 64 53 65
REMARK SMILES IDX 49 66 50 67 51 68 52 69 4 70 5 71 6 72 7 73 8 74 9 76 10 77
REMARK SMILES IDX 11 78 19 79 12 80 18 81 13 84 17 85 14 86 16 87 15 88
REMARK H PARENT 3 4 76 22 44 33 7 75 19 82 19 83
REMARK Flexibility Score: inf
ROOT
ATOM      1  O   UNL A   1      39.415  20.176  25.736  1.00  0.00    -0.269 OA
ATOM      2  C   UNL A   1      38.700  21.155  25.945  1.00  0.00     0.251 C 
ATOM      3  N   UNL A   1      37.352  21.075  25.685  1.00  0.00    -0.352 N 
ATOM      4  H   UNL A   1      37.025  20.173  25.462  1.00  0.00     0.163 HD
ENDROOT
BRANCH   2   5
ATOM      5  C   UNL A   1      39.298  22.414  26.448  1.00  0.00     0.039 A 
ATOM      6  C   UNL A   1      38.778  23.656  26.081  1.00  0.00     0.014 A 
ATOM      7  C   UNL A   1      40.395  22.350  27.312  1.00  0.00     0.014 A 
ATOM      8  C   UNL A   1      39.452  24.821  26.434  1.00  0.00     0.010 A 
ATOM      9  C   UNL A   1      41.014  23.528  27.746  1.00  0.00     0.010 A 
ATOM     10  C   UNL A   1      40.576  24.774  27.274  1.00  0.00    -0.014 A 
BRANCH  10  11
ATOM     11  C   UNL A   1      41.257  26.044  27.648  1.00  0.00     0.031 A 
ATOM     12  C   UNL A   1      42.629  26.374  27.120  1.00  0.00     0.074 A 
ATOM     13  C   UNL A   1      40.608  26.927  28.432  1.00  0.00     0.049 A 
ATOM     14  N   UNL A   1      43.345  27.456  27.299  1.00  0.00    -0.248 NA
ATOM     15  C   UNL A   1      43.288  25.352  26.293  1.00  0.00     0.031 C 
ATOM     16  C   UNL A   1      39.280  26.716  29.014  1.00  0.00     0.029 A 
ATOM     17  N   UNL A   1      40.954  28.186  28.853  1.00  0.00    -0.354 N 
ATOM     18  C   UNL A   1      44.545  27.238  26.627  1.00  0.00     0.074 A 
ATOM     19  C   UNL A   1      44.471  25.904  26.069  1.00  0.00     0.031 C 
ATOM     20  C   UNL A   1      38.901  27.826  29.664  1.00  0.00     0.029 A 
ATOM     21  C   UNL A   1      39.981  28.804  29.602  1.00  0.00     0.049 A 
ATOM     22  H   UNL A   1      41.819  28.607  28.640  1.00  0.00     0.167 HD
ATOM     23  C   UNL A   1      45.603  28.077  26.482  1.00  0.00     0.034 A 
ATOM     24  C   UNL A   1      39.957  30.020  30.182  1.00  0.00     0.034 A 
ATOM     25  C   UNL A   1      45.656  29.410  27.036  1.00  0.00     0.049 A 
ATOM     26  C   UNL A   1      41.150  30.925  30.018  1.00  0.00     0.074 A 
ATOM     27  C   UNL A   1      46.662  30.355  26.919  1.00  0.00     0.029 A 
ATOM     28  N   UNL A   1      44.665  29.989  27.820  1.00  0.00    -0.354 N 
ATOM     29  N   UNL A   1      42.265  30.711  29.358  1.00  0.00    -0.248 NA
ATOM     30  C   UNL A   1      41.074  32.236  30.671  1.00  0.00     0.031 C 
ATOM     31  C   UNL A   1      46.310  31.474  27.681  1.00  0.00     0.029 A 
ATOM     32  C   UNL A   1      45.048  31.264  28.214  1.00  0.00     0.049 A 
ATOM     33  H   UNL A   1      43.813  29.558  28.059  1.00  0.00     0.167 HD
ATOM     34  C   UNL A   1      43.013  31.876  29.496  1.00  0.00     0.074 A 
ATOM     35  C   UNL A   1      42.213  32.791  30.283  1.00  0.00     0.031 C 
ATOM     36  C   UNL A   1      44.248  32.163  29.011  1.00  0.00     0.034 A 
BRANCH  23  37
ATOM     37  C   UNL A   1      46.808  27.555  25.733  1.00  0.00     0.023 A 
ATOM     38  C   UNL A   1      47.085  27.939  24.408  1.00  0.00     0.031 A 
ATOM     39  C   UNL A   1      47.682  26.638  26.346  1.00  0.00     0.131 A 
ATOM     40  C   UNL A   1      48.160  27.354  23.718  1.00  0.00     0.055 A 
ATOM     41  C   UNL A   1      48.795  26.121  25.680  1.00  0.00     0.041 A 
ATOM     42  F   UNL A   1      47.461  26.218  27.601  1.00  0.00    -0.206 F 
ATOM     43  C   UNL A   1      49.030  26.466  24.352  1.00  0.00     0.022 A 
BRANCH  40  44
ATOM     44  S   UNL A   1      48.317  27.660  21.936  1.00  0.00     0.124 S 
ATOM     45  O   UNL A   1      48.545  26.311  21.422  1.00  0.00    -0.237 OA
ATOM     46  O   UNL A   1      47.029  28.260  21.604  1.00  0.00    -0.237 OA
ATOM     47  O   UNL A   1      49.466  28.557  21.841  1.00  0.00    -0.744 OA
ENDBRANCH  40  44
ENDBRANCH  23  37
BRANCH  24  48
ATOM     48  C   UNL A   1      38.775  30.449  30.981  1.00  0.00     0.023 A 
ATOM     49  C   UNL A   1      37.691  31.105  30.377  1.00  0.00     0.031 A 
ATOM     50  C   UNL A   1      38.727  30.235  32.371  1.00  0.00     0.131 A 
ATOM     51  C   UNL A   1      36.624  31.561  31.166  1.00  0.00     0.055 A 
ATOM     52  C   UNL A   1      37.638  30.642  33.142  1.00  0.00     0.041 A 
ATOM     53  F   UNL A   1      39.736  29.608  32.996  1.00  0.00    -0.206 F 
ATOM     54  C   UNL A   1      36.583  31.321  32.542  1.00  0.00     0.022 A 
BRANCH  51  55
ATOM     55  S   UNL A   1      35.320  32.544  30.377  1.00  0.00     0.124 S 
ATOM     56  O   UNL A   1      34.962  31.707  29.238  1.00  0.00    -0.237 OA
ATOM     57  O   UNL A   1      34.326  32.638  31.441  1.00  0.00    -0.237 OA
ATOM     58  O   UNL A   1      35.994  33.797  30.045  1.00  0.00    -0.744 OA
ENDBRANCH  51  55
ENDBRANCH  24  48
BRANCH  36  59
ATOM     59  C   UNL A   1      44.780  33.548  29.289  1.00  0.00     0.023 A 
ATOM     60  C   UNL A   1      44.607  34.607  28.379  1.00  0.00     0.031 A 
ATOM     61  C   UNL A   1      45.507  33.801  30.466  1.00  0.00     0.131 A 
ATOM     62  C   UNL A   1      45.210  35.848  28.629  1.00  0.00     0.055 A 
ATOM     63  C   UNL A   1      46.052  35.057  30.738  1.00  0.00     0.041 A 
ATOM     64  F   UNL A   1      45.706  32.828  31.369  1.00  0.00    -0.206 F 
ATOM     65  C   UNL A   1      45.919  36.085  29.809  1.00  0.00     0.022 A 
BRANCH  62  66
ATOM     66  S   UNL A   1      45.151  37.120  27.336  1.00  0.00     0.124 S 
ATOM     67  O   UNL A   1      46.044  36.565  26.322  1.00  0.00    -0.237 OA
ATOM     68  O   UNL A   1      43.734  37.149  26.991  1.00  0.00    -0.237 OA
ATOM     69  O   UNL A   1      45.649  38.319  28.010  1.00  0.00    -0.744 OA
ENDBRANCH  62  66
ENDBRANCH  36  59
ENDBRANCH  10  11
ENDBRANCH   2   5
BRANCH   3  70
ATOM     70  C   UNL A   1      36.333  22.116  25.690  1.00  0.00     0.118 C 
BRANCH  70  71
ATOM     71  C   UNL A   1      35.016  21.662  26.303  1.00  0.00     0.042 C 
BRANCH  71  72
ATOM     72  C   UNL A   1      33.825  21.731  25.354  1.00  0.00     0.118 C 
BRANCH  72  73
ATOM     73  N   UNL A   1      34.204  22.202  24.032  1.00  0.00    -0.351 N 
ATOM     74  C   UNL A   1      33.975  23.398  23.420  1.00  0.00     0.278 C 
ATOM     75  H   UNL A   1      34.709  21.552  23.492  1.00  0.00     0.163 HD
ATOM     76  O   UNL A   1      34.440  23.554  22.286  1.00  0.00    -0.268 OA
BRANCH  74  77
ATOM     77  C   UNL A   1      33.202  24.540  24.110  1.00  0.00     0.272 C 
ATOM     78  C   UNL A   1      34.097  25.435  24.970  1.00  0.00     0.076 C 
ATOM     79  N   UNL A   1      32.427  25.298  23.102  1.00  0.00    -0.333 N 
ATOM     80  C   UNL A   1      33.299  26.573  25.602  1.00  0.00     0.016 C 
ATOM     81  C   UNL A   1      31.618  26.345  23.732  1.00  0.00     0.186 C 
ATOM     82  H   UNL A   1      31.811  24.655  22.605  1.00  0.00     0.347 HD
ATOM     83  H   UNL A   1      33.083  25.739  22.458  1.00  0.00     0.347 HD
ATOM     84  C   UNL A   1      32.506  27.324  24.525  1.00  0.00     0.048 C 
ATOM     85  C   UNL A   1      30.825  27.089  22.652  1.00  0.00     0.065 C 
ATOM     86  C   UNL A   1      31.659  28.444  25.143  1.00  0.00     0.010 C 
ATOM     87  C   UNL A   1      29.987  28.212  23.259  1.00  0.00     0.006 C 
ATOM     88  C   UNL A   1      30.842  29.174  24.078  1.00  0.00     0.001 C 
ENDBRANCH  74  77
ENDBRANCH  72  73
ENDBRANCH  71  72
ENDBRANCH  70  71
ENDBRANCH   3  70
TORSDOF 13
ENDMDL
MODEL 3
REMARK VINA RESULT:     -10.7      5.001     12.063
REMARK SMILES O=C(NCCCNC(=O)[C@H]1CC[C@@H]2CCCC[C@H]2[NH2+]1)c1ccc(-c2c3nc(c(-c4cc(S(=O)(=O)[O-])ccc4F)c4ccc([nH]4)c(-c4cc(S(=O)(=O)[O-])ccc4F)c4nc(c(-c5cc(S(=O)(=O)[O-])ccc5F)c5ccc2[nH]5)C=C4)C=C3)cc1
REMARK SMILES IDX 1 1 2 2 3 3 20 5 21 6 82 7 22 8 81 9 23 10 24 11 25 12 75 13
REMARK SMILES IDX 26 14 80 15 74 16 76 17 27 18 79 19 73 20 72 21 28 23 60 24
REMARK SMILES IDX 40 25 59 26 41 27 44 28 58 29 77 30 42 31 43 32 57 34 78 35
REMARK SMILES IDX 45 36 29 37 30 38 38 39 31 40 37 41 39 42 36 43 32 44 33 45
REMARK SMILES IDX 34 46 35 47 61 48 62 49 70 50 63 51 69 52 71 53 68 54 64 55
REMARK SMILES IDX 65 56 66 57 67 58 46 59 47 60 55 61 48 62 54 63 56 64 53 65
REMARK SMILES IDX 49 66 50 67 51 68 52 69 4 70 5 71 6 72 7 73 8 74 9 76 10 77
REMARK SMILES IDX 11 78 19 79 12 80 18 81 13 84 17 85 14 86 16 87 15 88
REMARK H PARENT 3 4 76 22 44 33 7 75 19 82 19 83
REMARK Flexibility Score: inf
ROOT
ATOM      1  O   UNL A   1      37.930  21.756  25.930  1.00  0.00    -0.269 OA
ATOM      2  C   UNL A   1      39.104  21.944  26.245  1.00  0.00     0.251 C 
ATOM      3  N   UNL A   1      40.004  20.910  26.141  1.00  0.00    -0.352 N 
ATOM      4  H   UNL A   1      39.661  20.103  25.692  1.00  0.00     0.163 HD
ENDROOT
BRANCH   2   5
ATOM      5  C   UNL A   1      39.531  23.269  26.752  1.00  0.00     0.039 A 
ATOM      6  C   UNL A   1      39.176  24.443  26.088  1.00  0.00     0.014 A 
ATOM      7  C   UNL A   1      40.294  23.336  27.922  1.00  0.00     0.014 A 
ATOM      8  C   UNL A   1      39.722  25.658  26.491  1.00  0.00     0.010 A 
ATOM      9  C   UNL A   1      40.762  24.573  28.382  1.00  0.00     0.010 A 
ATOM     10  C   UNL A   1      40.519  25.741  27.644  1.00  0.00    -0.014 A 
BRANCH  10  11
ATOM     11  C   UNL A   1      41.067  27.063  28.056  1.00  0.00     0.031 A 
ATOM     12  C   UNL A   1      42.481  27.457  27.718  1.00  0.00     0.074 A 
ATOM     13  C   UNL A   1      40.261  27.933  28.697  1.00  0.00     0.049 A 
ATOM     14  N   UNL A   1      43.102  28.586  27.950  1.00  0.00    -0.248 NA
ATOM     15  C   UNL A   1      43.309  26.448  27.042  1.00  0.00     0.031 C 
ATOM     16  C   UNL A   1      38.875  27.662  29.090  1.00  0.00     0.029 A 
ATOM     17  N   UNL A   1      40.472  29.225  29.107  1.00  0.00    -0.354 N 
ATOM     18  C   UNL A   1      44.398  28.418  27.470  1.00  0.00     0.074 A 
ATOM     19  C   UNL A   1      44.480  27.062  26.967  1.00  0.00     0.031 C 
ATOM     20  C   UNL A   1      38.344  28.770  29.628  1.00  0.00     0.029 A 
ATOM     21  C   UNL A   1      39.366  29.809  29.679  1.00  0.00     0.049 A 
ATOM     22  H   UNL A   1      41.334  29.689  29.003  1.00  0.00     0.167 HD
ATOM     23  C   UNL A   1      45.418  29.314  27.442  1.00  0.00     0.034 A 
ATOM     24  C   UNL A   1      39.191  31.041  30.195  1.00  0.00     0.034 A 
ATOM     25  C   UNL A   1      45.315  30.667  27.938  1.00  0.00     0.049 A 
ATOM     26  C   UNL A   1      40.342  32.011  30.165  1.00  0.00     0.074 A 
ATOM     27  C   UNL A   1      46.274  31.667  27.925  1.00  0.00     0.029 A 
ATOM     28  N   UNL A   1      44.189  31.213  28.543  1.00  0.00    -0.354 N 
ATOM     29  N   UNL A   1      41.553  31.841  29.683  1.00  0.00    -0.248 NA
ATOM     30  C   UNL A   1      40.100  33.338  30.741  1.00  0.00     0.031 C 
ATOM     31  C   UNL A   1      45.753  32.789  28.578  1.00  0.00     0.029 A 
ATOM     32  C   UNL A   1      44.439  32.522  28.931  1.00  0.00     0.049 A 
ATOM     33  H   UNL A   1      43.337  30.738  28.675  1.00  0.00     0.167 HD
ATOM     34  C   UNL A   1      42.207  33.054  29.876  1.00  0.00     0.074 A 
ATOM     35  C   UNL A   1      41.251  33.947  30.497  1.00  0.00     0.031 C 
ATOM     36  C   UNL A   1      43.482  33.399  29.563  1.00  0.00     0.034 A 
BRANCH  23  37
ATOM     37  C   UNL A   1      46.747  28.839  26.899  1.00  0.00     0.023 A 
ATOM     38  C   UNL A   1      46.944  28.585  25.530  1.00  0.00     0.031 A 
ATOM     39  C   UNL A   1      47.829  28.614  27.770  1.00  0.00     0.131 A 
ATOM     40  C   UNL A   1      48.165  28.053  25.084  1.00  0.00     0.055 A 
ATOM     41  C   UNL A   1      49.066  28.160  27.309  1.00  0.00     0.041 A 
ATOM     42  F   UNL A   1      47.698  28.819  29.089  1.00  0.00    -0.206 F 
ATOM     43  C   UNL A   1      49.235  27.861  25.959  1.00  0.00     0.022 A 
BRANCH  40  44
ATOM     44  S   UNL A   1      48.285  27.478  23.366  1.00  0.00     0.124 S 
ATOM     45  O   UNL A   1      49.636  27.904  23.004  1.00  0.00    -0.237 OA
ATOM     46  O   UNL A   1      48.083  26.040  23.499  1.00  0.00    -0.237 OA
ATOM     47  O   UNL A   1      47.211  28.200  22.687  1.00  0.00    -0.744 OA
ENDBRANCH  40  44
ENDBRANCH  23  37
BRANCH  24  48
ATOM     48  C   UNL A   1      37.881  31.426  30.794  1.00  0.00     0.023 A 
ATOM     49  C   UNL A   1      36.906  32.093  30.037  1.00  0.00     0.031 A 
ATOM     50  C   UNL A   1      37.601  31.158  32.146  1.00  0.00     0.131 A 
ATOM     51  C   UNL A   1      35.711  32.506  30.647  1.00  0.00     0.055 A 
ATOM     52  C   UNL A   1      36.389  31.523  32.734  1.00  0.00     0.041 A 
ATOM     53  F   UNL A   1      38.498  30.518  32.912  1.00  0.00    -0.206 F 
ATOM     54  C   UNL A   1      35.440  32.213  31.986  1.00  0.00     0.022 A 
BRANCH  51  55
ATOM     55  S   UNL A   1      34.545  33.505  29.683  1.00  0.00     0.124 S 
ATOM     56  O   UNL A   1      35.434  34.466  29.041  1.00  0.00    -0.237 OA
ATOM     57  O   UNL A   1      33.941  32.505  28.808  1.00  0.00    -0.237 OA
ATOM     58  O   UNL A   1      33.653  34.060  30.698  1.00  0.00    -0.744 OA
ENDBRANCH  51  55
ENDBRANCH  24  48
BRANCH  36  59
ATOM     59  C   UNL A   1      43.891  34.823  29.853  1.00  0.00     0.023 A 
ATOM     60  C   UNL A   1      43.676  35.860  28.928  1.00  0.00     0.031 A 
ATOM     61  C   UNL A   1      44.542  35.138  31.059  1.00  0.00     0.131 A 
ATOM     62  C   UNL A   1      44.167  37.146  29.193  1.00  0.00     0.055 A 
ATOM     63  C   UNL A   1      44.974  36.434  31.345  1.00  0.00     0.041 A 
ATOM     64  F   UNL A   1      44.776  34.187  31.977  1.00  0.00    -0.206 F 
ATOM     65  C   UNL A   1      44.802  37.444  30.402  1.00  0.00     0.022 A 
BRANCH  62  66
ATOM     66  S   UNL A   1      44.067  38.403  27.889  1.00  0.00     0.124 S 
ATOM     67  O   UNL A   1      42.786  38.090  27.261  1.00  0.00    -0.237 OA
ATOM     68  O   UNL A   1      44.117  39.647  28.649  1.00  0.00    -0.237 OA
ATOM     69  O   UNL A   1      45.244  38.135  27.062  1.00  0.00    -0.744 OA
ENDBRANCH  62  66
ENDBRANCH  36  59
ENDBRANCH  10  11
ENDBRANCH   2   5
BRANCH   3  70
ATOM     70  C   UNL A   1      41.386  20.822  26.593  1.00  0.00     0.118 C 
BRANCH  70  71
ATOM     71  C   UNL A   1      42.113  19.595  26.059  1.00  0.00     0.042 C 
BRANCH  71  72
ATOM     72  C   UNL A   1      43.589  19.826  25.751  1.00  0.00     0.118 C 
BRANCH  72  73
ATOM     73  N   UNL A   1      43.780  20.735  24.633  1.00  0.00    -0.351 N 
ATOM     74  C   UNL A   1      44.510  21.882  24.541  1.00  0.00     0.278 C 
ATOM     75  H   UNL A   1      43.304  20.482  23.809  1.00  0.00     0.163 HD
ATOM     76  O   UNL A   1      44.526  22.459  23.448  1.00  0.00    -0.268 OA
BRANCH  74  77
ATOM     77  C   UNL A   1      45.322  22.438  25.728  1.00  0.00     0.272 C 
ATOM     78  C   UNL A   1      46.311  23.531  25.318  1.00  0.00     0.076 C 
ATOM     79  N   UNL A   1      44.403  22.867  26.805  1.00  0.00    -0.333 N 
ATOM     80  C   UNL A   1      47.066  24.078  26.527  1.00  0.00     0.016 C 
ATOM     81  C   UNL A   1      45.143  23.330  27.982  1.00  0.00     0.186 C 
ATOM     82  H   UNL A   1      43.813  22.079  27.073  1.00  0.00     0.347 HD
ATOM     83  H   UNL A   1      43.836  23.639  26.456  1.00  0.00     0.347 HD
ATOM     84  C   UNL A   1      46.076  24.502  27.620  1.00  0.00     0.048 C 
ATOM     85  C   UNL A   1      44.150  23.747  29.072  1.00  0.00     0.065 C 
ATOM     86  C   UNL A   1      46.813  25.013  28.864  1.00  0.00     0.010 C 
ATOM     87  C   UNL A   1      44.878  24.266  30.311  1.00  0.00     0.006 C 
ATOM     88  C   UNL A   1      45.833  25.405  29.968  1.00  0.00     0.001 C 
ENDBRANCH  74  77
ENDBRANCH  72  73
ENDBRANCH  71  72
ENDBRANCH  70  71
ENDBRANCH   3  70
TORSDOF 13
ENDMDL
