MODEL 1
REMARK VINA RESULT:     -11.8      0.000      0.000
REMARK SMILES C[C@]1(C(=O)NCCn2cc(C(=O)NCCCNC(=O)c3ccc(-c4c5nc(c(-c6cc(S(=O)(=O)[O-])ccc6F)c6ccc([nH]6)c(-c6cc(S(=O)(=O)[O-])ccc6F)c6nc(c(-c7cc(S(=O)(=O)[O-])ccc7F)c7ccc4[nH]7)C=C6)C=C5)cc3)nn2)CCCO1
REMARK SMILES IDX 14 1 13 2 11 3 12 4 10 6 8 7 9 8 84 9 83 10 7 11 6 12 5 13
REMARK SMILES IDX 3 14 4 15 2 17 1 18 85 19 88 20 86 21 87 22 15 23 16 24
REMARK SMILES IDX 17 25 18 26 19 28 20 29 21 30 82 31 22 32 81 33 23 34 24 35
REMARK SMILES IDX 25 36 75 37 26 38 80 39 74 40 76 41 27 42 79 43 73 44 72 45
REMARK SMILES IDX 28 47 60 48 40 49 59 50 41 51 44 52 58 53 77 54 42 55 43 56
REMARK SMILES IDX 57 58 78 59 45 60 29 61 30 62 38 63 31 64 37 65 39 66 36 67
REMARK SMILES IDX 32 68 33 69 34 70 35 71 61 72 62 73 70 74 63 75 69 76 71 77
REMARK SMILES IDX 68 78 64 79 65 80 66 81 67 82 46 83 47 84 55 85 48 86 54 87
REMARK SMILES IDX 56 88 53 89 49 90 50 91 51 92 52 93
REMARK H PARENT 13 5 5 16 17 27 76 46 44 57
REMARK Flexibility Score: inf
ROOT
ATOM      1  C   UNL A   1      31.907  29.697  25.673  1.00  0.00     0.118 C 
ENDROOT
BRANCH   1   2
ATOM      2  N   UNL A   1      32.958  29.742  24.669  1.00  0.00    -0.351 N 
ATOM      3  C   UNL A   1      33.231  28.932  23.587  1.00  0.00     0.273 C 
ATOM      4  O   UNL A   1      34.096  29.321  22.804  1.00  0.00    -0.267 OA
ATOM      5  H   UNL A   1      33.591  30.487  24.783  1.00  0.00     0.163 HD
BRANCH   3   6
ATOM      6  C   UNL A   1      32.534  27.664  23.381  1.00  0.00     0.170 A 
ATOM      7  N   UNL A   1      31.925  25.611  23.025  1.00  0.00    -0.250 N 
ATOM      8  C   UNL A   1      33.013  26.374  23.317  1.00  0.00     0.145 A 
ATOM      9  N   UNL A   1      30.811  26.345  22.955  1.00  0.00    -0.067 NA
ATOM     10  N   UNL A   1      31.167  27.608  23.158  1.00  0.00    -0.125 NA
BRANCH   7  11
ATOM     11  C   UNL A   1      31.895  24.176  22.850  1.00  0.00     0.167 C 
BRANCH  11  12
ATOM     12  C   UNL A   1      30.812  23.491  23.695  1.00  0.00     0.139 C 
BRANCH  12  13
ATOM     13  N   UNL A   1      30.789  23.951  25.077  1.00  0.00    -0.352 N 
ATOM     14  C   UNL A   1      31.454  23.554  26.198  1.00  0.00     0.252 C 
ATOM     15  O   UNL A   1      31.027  24.020  27.261  1.00  0.00    -0.272 OA
ATOM     16  H   UNL A   1      30.166  24.698  25.233  1.00  0.00     0.163 HD
BRANCH  14  17
ATOM     17  C   UNL A   1      32.667  22.584  26.159  1.00  0.00     0.143 C 
ATOM     18  C   UNL A   1      33.136  22.318  27.601  1.00  0.00     0.053 C 
ATOM     19  C   UNL A   1      32.408  21.257  25.454  1.00  0.00     0.048 C 
ATOM     20  O   UNL A   1      33.766  23.195  25.457  1.00  0.00    -0.365 OA
ATOM     21  C   UNL A   1      33.763  20.883  24.901  1.00  0.00     0.032 C 
ATOM     22  C   UNL A   1      34.411  22.222  24.630  1.00  0.00     0.162 C 
ENDBRANCH  14  17
ENDBRANCH  12  13
ENDBRANCH  11  12
ENDBRANCH   7  11
ENDBRANCH   3   6
ENDBRANCH   1   2
BRANCH   1  23
ATOM     23  C   UNL A   1      31.476  31.085  26.168  1.00  0.00     0.042 C 
BRANCH  23  24
ATOM     24  C   UNL A   1      32.495  31.695  27.120  1.00  0.00     0.118 C 
BRANCH  24  25
ATOM     25  N   UNL A   1      32.275  33.135  27.329  1.00  0.00    -0.352 N 
ATOM     26  C   UNL A   1      32.911  34.002  28.210  1.00  0.00     0.251 C 
ATOM     27  H   UNL A   1      31.578  33.542  26.765  1.00  0.00     0.163 HD
ATOM     28  O   UNL A   1      32.396  35.063  28.513  1.00  0.00    -0.269 OA
BRANCH  26  29
ATOM     29  C   UNL A   1      34.217  33.600  28.762  1.00  0.00     0.039 A 
ATOM     30  C   UNL A   1      34.342  32.808  29.908  1.00  0.00     0.014 A 
ATOM     31  C   UNL A   1      35.340  33.992  28.048  1.00  0.00     0.014 A 
ATOM     32  C   UNL A   1      35.610  32.346  30.261  1.00  0.00     0.010 A 
ATOM     33  C   UNL A   1      36.518  33.337  28.245  1.00  0.00     0.010 A 
ATOM     34  C   UNL A   1      36.692  32.599  29.404  1.00  0.00    -0.014 A 
BRANCH  34  35
ATOM     35  C   UNL A   1      38.020  32.045  29.624  1.00  0.00     0.031 A 
ATOM     36  C   UNL A   1      38.184  30.644  29.166  1.00  0.00     0.074 A 
ATOM     37  C   UNL A   1      39.079  32.814  29.967  1.00  0.00     0.049 A 
ATOM     38  N   UNL A   1      38.288  29.591  29.902  1.00  0.00    -0.248 NA
ATOM     39  C   UNL A   1      38.045  30.349  27.731  1.00  0.00     0.031 C 
ATOM     40  C   UNL A   1      39.137  34.271  30.150  1.00  0.00     0.029 A 
ATOM     41  N   UNL A   1      40.380  32.454  30.107  1.00  0.00    -0.354 N 
ATOM     42  C   UNL A   1      38.497  28.531  29.028  1.00  0.00     0.074 A 
ATOM     43  C   UNL A   1      38.099  29.015  27.733  1.00  0.00     0.031 C 
ATOM     44  C   UNL A   1      40.424  34.683  30.131  1.00  0.00     0.029 A 
ATOM     45  C   UNL A   1      41.283  33.514  30.121  1.00  0.00     0.049 A 
ATOM     46  H   UNL A   1      40.663  31.515  30.192  1.00  0.00     0.167 HD
ATOM     47  C   UNL A   1      39.225  27.444  29.410  1.00  0.00     0.034 A 
ATOM     48  C   UNL A   1      42.641  33.436  30.112  1.00  0.00     0.034 A 
ATOM     49  C   UNL A   1      39.423  27.440  30.847  1.00  0.00     0.049 A 
ATOM     50  C   UNL A   1      42.975  32.087  30.640  1.00  0.00     0.074 A 
ATOM     51  C   UNL A   1      38.573  27.455  31.938  1.00  0.00     0.029 A 
ATOM     52  N   UNL A   1      40.643  27.862  31.333  1.00  0.00    -0.354 N 
ATOM     53  N   UNL A   1      42.685  31.714  31.860  1.00  0.00    -0.248 NA
ATOM     54  C   UNL A   1      43.130  30.998  29.686  1.00  0.00     0.031 C 
ATOM     55  C   UNL A   1      39.171  28.377  32.849  1.00  0.00     0.029 A 
ATOM     56  C   UNL A   1      40.394  28.791  32.316  1.00  0.00     0.049 A 
ATOM     57  H   UNL A   1      41.529  27.553  31.031  1.00  0.00     0.167 HD
ATOM     58  C   UNL A   1      42.184  30.426  31.733  1.00  0.00     0.074 A 
ATOM     59  C   UNL A   1      42.576  30.002  30.388  1.00  0.00     0.031 C 
ATOM     60  C   UNL A   1      41.250  29.931  32.602  1.00  0.00     0.034 A 
BRANCH  47  61
ATOM     61  C   UNL A   1      40.072  26.591  28.493  1.00  0.00     0.023 A 
ATOM     62  C   UNL A   1      41.200  27.205  27.914  1.00  0.00     0.031 A 
ATOM     63  C   UNL A   1      39.705  25.344  27.939  1.00  0.00     0.131 A 
ATOM     64  C   UNL A   1      41.824  26.654  26.782  1.00  0.00     0.055 A 
ATOM     65  C   UNL A   1      40.373  24.765  26.856  1.00  0.00     0.041 A 
ATOM     66  F   UNL A   1      38.630  24.657  28.340  1.00  0.00    -0.206 F 
ATOM     67  C   UNL A   1      41.418  25.436  26.247  1.00  0.00     0.022 A 
BRANCH  64  68
ATOM     68  S   UNL A   1      43.053  27.660  25.911  1.00  0.00     0.124 S 
ATOM     69  O   UNL A   1      42.349  27.978  24.674  1.00  0.00    -0.237 OA
ATOM     70  O   UNL A   1      43.252  28.764  26.843  1.00  0.00    -0.237 OA
ATOM     71  O   UNL A   1      44.190  26.753  25.767  1.00  0.00    -0.744 OA
ENDBRANCH  64  68
ENDBRANCH  47  61
BRANCH  48  72
ATOM     72  C   UNL A   1      43.584  34.312  29.355  1.00  0.00     0.023 A 
ATOM     73  C   UNL A   1      44.133  33.967  28.099  1.00  0.00     0.031 A 
ATOM     74  C   UNL A   1      43.781  35.647  29.779  1.00  0.00     0.131 A 
ATOM     75  C   UNL A   1      44.840  34.934  27.336  1.00  0.00     0.055 A 
ATOM     76  C   UNL A   1      44.478  36.594  29.025  1.00  0.00     0.041 A 
ATOM     77  F   UNL A   1      43.226  36.104  30.913  1.00  0.00    -0.206 F 
ATOM     78  C   UNL A   1      45.004  36.243  27.794  1.00  0.00     0.022 A 
BRANCH  75  79
ATOM     79  S   UNL A   1      45.493  34.525  25.682  1.00  0.00     0.124 S 
ATOM     80  O   UNL A   1      46.441  35.608  25.444  1.00  0.00    -0.237 OA
ATOM     81  O   UNL A   1      46.064  33.198  25.888  1.00  0.00    -0.237 OA
ATOM     82  O   UNL A   1      44.306  34.551  24.827  1.00  0.00    -0.744 OA
ENDBRANCH  75  79
ENDBRANCH  48  72
BRANCH  60  83
ATOM     83  C   UNL A   1      40.923  30.730  33.853  1.00  0.00     0.023 A 
ATOM     84  C   UNL A   1      39.858  31.656  33.973  1.00  0.00     0.031 A 
ATOM     85  C   UNL A   1      41.643  30.423  35.021  1.00  0.00     0.131 A 
ATOM     86  C   UNL A   1      39.558  32.237  35.224  1.00  0.00     0.055 A 
ATOM     87  C   UNL A   1      41.331  30.981  36.260  1.00  0.00     0.041 A 
ATOM     88  F   UNL A   1      42.647  29.530  34.985  1.00  0.00    -0.206 F 
ATOM     89  C   UNL A   1      40.288  31.895  36.365  1.00  0.00     0.022 A 
BRANCH  86  90
ATOM     90  S   UNL A   1      38.212  33.458  35.391  1.00  0.00     0.124 S 
ATOM     91  O   UNL A   1      37.209  32.752  36.178  1.00  0.00    -0.237 OA
ATOM     92  O   UNL A   1      38.875  34.577  36.055  1.00  0.00    -0.237 OA
ATOM     93  O   UNL A   1      37.819  33.723  34.005  1.00  0.00    -0.744 OA
ENDBRANCH  86  90
ENDBRANCH  60  83
ENDBRANCH  34  35
ENDBRANCH  26  29
ENDBRANCH  24  25
ENDBRANCH  23  24
ENDBRANCH   1  23
TORSDOF 17
ENDMDL
MODEL 2
REMARK VINA RESULT:     -11.4      4.867      8.518
REMARK SMILES C[C@]1(C(=O)NCCn2cc(C(=O)NCCCNC(=O)c3ccc(-c4c5nc(c(-c6cc(S(=O)(=O)[O-])ccc6F)c6ccc([nH]6)c(-c6cc(S(=O)(=O)[O-])ccc6F)c6nc(c(-c7cc(S(=O)(=O)[O-])ccc7F)c7ccc4[nH]7)C=C6)C=C5)cc3)nn2)CCCO1
REMARK SMILES IDX 14 1 13 2 11 3 12 4 10 6 8 7 9 8 84 9 83 10 7 11 6 12 5 13
REMARK SMILES IDX 3 14 4 15 2 17 1 18 85 19 88 20 86 21 87 22 15 23 16 24
REMARK SMILES IDX 17 25 18 26 19 28 20 29 21 30 82 31 22 32 81 33 23 34 24 35
REMARK SMILES IDX 25 36 75 37 26 38 80 39 74 40 76 41 27 42 79 43 73 44 72 45
REMARK SMILES IDX 28 47 60 48 40 49 59 50 41 51 44 52 58 53 77 54 42 55 43 56
REMARK SMILES IDX 57 58 78 59 45 60 29 61 30 62 38 63 31 64 37 65 39 66 36 67
REMARK SMILES IDX 32 68 33 69 34 70 35 71 61 72 62 73 70 74 63 75 69 76 71 77
REMARK SMILES IDX 68 78 64 79 65 80 66 81 67 82 46 83 47 84 55 85 48 86 54 87
REMARK SMILES IDX 56 88 53 89 49 90 50 91 51 92 52 93
REMARK H PARENT 13 5 5 16 17 27 76 46 44 57
REMARK Flexibility Score: inf
ROOT
ATOM      1  C   UNL A   1      38.865  30.117  32.131  1.00  0.00     0.118 C 
ENDROOT
BRANCH   1   2
ATOM      2  N   UNL A   1      38.965  30.164  33.581  1.00  0.00    -0.351 N 
ATOM      3  C   UNL A   1      38.465  31.053  34.509  1.00  0.00     0.273 C 
ATOM      4  O   UNL A   1      38.566  30.738  35.693  1.00  0.00    -0.267 OA
ATOM      5  H   UNL A   1      39.486  29.426  33.972  1.00  0.00     0.163 HD
BRANCH   3   6
ATOM      6  C   UNL A   1      37.851  32.317  34.108  1.00  0.00     0.170 A 
ATOM      7  N   UNL A   1      36.545  33.959  33.550  1.00  0.00    -0.250 N 
ATOM      8  C   UNL A   1      36.532  32.715  34.103  1.00  0.00     0.145 A 
ATOM      9  N   UNL A   1      37.786  34.359  33.265  1.00  0.00    -0.067 NA
ATOM     10  N   UNL A   1      38.600  33.361  33.587  1.00  0.00    -0.125 NA
BRANCH   7  11
ATOM     11  C   UNL A   1      35.403  34.815  33.321  1.00  0.00     0.167 C 
BRANCH  11  12
ATOM     12  C   UNL A   1      34.528  34.348  32.149  1.00  0.00     0.139 C 
BRANCH  12  13
ATOM     13  N   UNL A   1      33.484  35.301  31.799  1.00  0.00    -0.352 N 
ATOM     14  C   UNL A   1      33.119  35.886  30.624  1.00  0.00     0.252 C 
ATOM     15  O   UNL A   1      32.322  36.826  30.724  1.00  0.00    -0.272 OA
ATOM     16  H   UNL A   1      32.931  35.579  32.565  1.00  0.00     0.163 HD
BRANCH  14  17
ATOM     17  C   UNL A   1      33.660  35.417  29.244  1.00  0.00     0.143 C 
ATOM     18  C   UNL A   1      33.897  36.653  28.358  1.00  0.00     0.053 C 
ATOM     19  C   UNL A   1      34.932  34.579  29.302  1.00  0.00     0.048 C 
ATOM     20  O   UNL A   1      32.678  34.597  28.582  1.00  0.00    -0.365 OA
ATOM     21  C   UNL A   1      34.817  33.683  28.092  1.00  0.00     0.032 C 
ATOM     22  C   UNL A   1      33.325  33.498  27.934  1.00  0.00     0.162 C 
ENDBRANCH  14  17
ENDBRANCH  12  13
ENDBRANCH  11  12
ENDBRANCH   7  11
ENDBRANCH   3   6
ENDBRANCH   1   2
BRANCH   1  23
ATOM     23  C   UNL A   1      37.418  30.084  31.620  1.00  0.00     0.042 C 
BRANCH  23  24
ATOM     24  C   UNL A   1      37.236  30.918  30.361  1.00  0.00     0.118 C 
BRANCH  24  25
ATOM     25  N   UNL A   1      36.264  30.323  29.429  1.00  0.00    -0.352 N 
ATOM     26  C   UNL A   1      36.492  29.616  28.255  1.00  0.00     0.251 C 
ATOM     27  H   UNL A   1      35.318  30.445  29.672  1.00  0.00     0.163 HD
ATOM     28  O   UNL A   1      35.609  29.493  27.426  1.00  0.00    -0.269 OA
BRANCH  26  29
ATOM     29  C   UNL A   1      37.827  29.026  28.045  1.00  0.00     0.039 A 
ATOM     30  C   UNL A   1      38.757  29.561  27.148  1.00  0.00     0.014 A 
ATOM     31  C   UNL A   1      38.154  27.935  28.836  1.00  0.00     0.014 A 
ATOM     32  C   UNL A   1      40.048  29.032  27.137  1.00  0.00     0.010 A 
ATOM     33  C   UNL A   1      39.464  27.599  29.002  1.00  0.00     0.010 A 
ATOM     34  C   UNL A   1      40.397  28.062  28.089  1.00  0.00    -0.014 A 
BRANCH  34  35
ATOM     35  C   UNL A   1      41.753  27.552  28.236  1.00  0.00     0.031 A 
ATOM     36  C   UNL A   1      42.055  26.362  27.405  1.00  0.00     0.074 A 
ATOM     37  C   UNL A   1      42.726  28.252  28.863  1.00  0.00     0.049 A 
ATOM     38  N   UNL A   1      42.206  25.147  27.810  1.00  0.00    -0.248 NA
ATOM     39  C   UNL A   1      42.014  26.494  25.940  1.00  0.00     0.031 C 
ATOM     40  C   UNL A   1      42.655  29.591  29.465  1.00  0.00     0.029 A 
ATOM     41  N   UNL A   1      44.043  27.950  28.988  1.00  0.00    -0.354 N 
ATOM     42  C   UNL A   1      42.546  24.408  26.684  1.00  0.00     0.074 A 
ATOM     43  C   UNL A   1      42.177  25.225  25.559  1.00  0.00     0.031 C 
ATOM     44  C   UNL A   1      43.904  30.071  29.660  1.00  0.00     0.029 A 
ATOM     45  C   UNL A   1      44.855  29.014  29.374  1.00  0.00     0.049 A 
ATOM     46  H   UNL A   1      44.398  27.047  28.817  1.00  0.00     0.167 HD
ATOM     47  C   UNL A   1      43.341  23.305  26.787  1.00  0.00     0.034 A 
ATOM     48  C   UNL A   1      46.213  29.028  29.442  1.00  0.00     0.034 A 
ATOM     49  C   UNL A   1      43.464  22.890  28.171  1.00  0.00     0.049 A 
ATOM     50  C   UNL A   1      46.629  27.607  29.580  1.00  0.00     0.074 A 
ATOM     51  C   UNL A   1      42.560  22.529  29.154  1.00  0.00     0.029 A 
ATOM     52  N   UNL A   1      44.619  23.227  28.846  1.00  0.00    -0.354 N 
ATOM     53  N   UNL A   1      46.308  26.874  30.614  1.00  0.00    -0.248 NA
ATOM     54  C   UNL A   1      46.921  26.860  28.365  1.00  0.00     0.031 C 
ATOM     55  C   UNL A   1      43.034  23.178  30.335  1.00  0.00     0.029 A 
ATOM     56  C   UNL A   1      44.244  23.807  30.035  1.00  0.00     0.049 A 
ATOM     57  H   UNL A   1      45.542  23.078  28.534  1.00  0.00     0.167 HD
ATOM     58  C   UNL A   1      45.922  25.651  30.084  1.00  0.00     0.074 A 
ATOM     59  C   UNL A   1      46.416  25.668  28.706  1.00  0.00     0.031 C 
ATOM     60  C   UNL A   1      44.987  24.865  30.701  1.00  0.00     0.034 A 
BRANCH  47  61
ATOM     61  C   UNL A   1      44.301  22.815  25.725  1.00  0.00     0.023 A 
ATOM     62  C   UNL A   1      44.331  21.428  25.486  1.00  0.00     0.031 A 
ATOM     63  C   UNL A   1      45.359  23.556  25.153  1.00  0.00     0.131 A 
ATOM     64  C   UNL A   1      45.417  20.829  24.824  1.00  0.00     0.055 A 
ATOM     65  C   UNL A   1      46.401  22.964  24.434  1.00  0.00     0.041 A 
ATOM     66  F   UNL A   1      45.504  24.874  25.329  1.00  0.00    -0.206 F 
ATOM     67  C   UNL A   1      46.455  21.589  24.296  1.00  0.00     0.022 A 
BRANCH  64  68
ATOM     68  S   UNL A   1      45.535  19.022  24.839  1.00  0.00     0.124 S 
ATOM     69  O   UNL A   1      45.709  18.727  23.421  1.00  0.00    -0.237 OA
ATOM     70  O   UNL A   1      46.699  18.805  25.691  1.00  0.00    -0.237 OA
ATOM     71  O   UNL A   1      44.257  18.605  25.410  1.00  0.00    -0.744 OA
ENDBRANCH  64  68
ENDBRANCH  47  61
BRANCH  48  72
ATOM     72  C   UNL A   1      47.119  30.146  29.043  1.00  0.00     0.023 A 
ATOM     73  C   UNL A   1      46.843  31.032  27.977  1.00  0.00     0.031 A 
ATOM     74  C   UNL A   1      48.196  30.500  29.888  1.00  0.00     0.131 A 
ATOM     75  C   UNL A   1      47.628  32.201  27.795  1.00  0.00     0.055 A 
ATOM     76  C   UNL A   1      48.966  31.651  29.704  1.00  0.00     0.041 A 
ATOM     77  F   UNL A   1      48.487  29.777  30.982  1.00  0.00    -0.206 F 
ATOM     78  C   UNL A   1      48.680  32.513  28.660  1.00  0.00     0.022 A 
BRANCH  75  79
ATOM     79  S   UNL A   1      47.240  33.391  26.467  1.00  0.00     0.124 S 
ATOM     80  O   UNL A   1      46.091  32.771  25.818  1.00  0.00    -0.237 OA
ATOM     81  O   UNL A   1      46.981  34.619  27.210  1.00  0.00    -0.237 OA
ATOM     82  O   UNL A   1      48.461  33.414  25.659  1.00  0.00    -0.744 OA
ENDBRANCH  75  79
ENDBRANCH  48  72
BRANCH  60  83
ATOM     83  C   UNL A   1      44.533  25.237  32.103  1.00  0.00     0.023 A 
ATOM     84  C   UNL A   1      43.758  26.377  32.431  1.00  0.00     0.031 A 
ATOM     85  C   UNL A   1      44.779  24.309  33.129  1.00  0.00     0.131 A 
ATOM     86  C   UNL A   1      43.271  26.551  33.745  1.00  0.00     0.055 A 
ATOM     87  C   UNL A   1      44.278  24.472  34.421  1.00  0.00     0.041 A 
ATOM     88  F   UNL A   1      45.482  23.191  32.879  1.00  0.00    -0.206 F 
ATOM     89  C   UNL A   1      43.525  25.598  34.735  1.00  0.00     0.022 A 
BRANCH  86  90
ATOM     90  S   UNL A   1      42.300  28.029  34.195  1.00  0.00     0.124 S 
ATOM     91  O   UNL A   1      42.659  28.259  35.589  1.00  0.00    -0.237 OA
ATOM     92  O   UNL A   1      42.774  29.027  33.239  1.00  0.00    -0.237 OA
ATOM     93  O   UNL A   1      40.915  27.602  33.987  1.00  0.00    -0.744 OA
ENDBRANCH  86  90
ENDBRANCH  60  83
ENDBRANCH  34  35
ENDBRANCH  26  29
ENDBRANCH  24  25
ENDBRANCH  23  24
ENDBRANCH   1  23
TORSDOF 17
ENDMDL
MODEL 3
REMARK VINA RESULT:     -11.4      5.074      8.627
REMARK SMILES C[C@]1(C(=O)NCCn2cc(C(=O)NCCCNC(=O)c3ccc(-c4c5nc(c(-c6cc(S(=O)(=O)[O-])ccc6F)c6ccc([nH]6)c(-c6cc(S(=O)(=O)[O-])ccc6F)c6nc(c(-c7cc(S(=O)(=O)[O-])ccc7F)c7ccc4[nH]7)C=C6)C=C5)cc3)nn2)CCCO1
REMARK SMILES IDX 14 1 13 2 11 3 12 4 10 6 8 7 9 8 84 9 83 10 7 11 6 12 5 13
REMARK SMILES IDX 3 14 4 15 2 17 1 18 85 19 88 20 86 21 87 22 15 23 16 24
REMARK SMILES IDX 17 25 18 26 19 28 20 29 21 30 82 31 22 32 81 33 23 34 24 35
REMARK SMILES IDX 25 36 75 37 26 38 80 39 74 40 76 41 27 42 79 43 73 44 72 45
REMARK SMILES IDX 28 47 60 48 40 49 59 50 41 51 44 52 58 53 77 54 42 55 43 56
REMARK SMILES IDX 57 58 78 59 45 60 29 61 30 62 38 63 31 64 37 65 39 66 36 67
REMARK SMILES IDX 32 68 33 69 34 70 35 71 61 72 62 73 70 74 63 75 69 76 71 77
REMARK SMILES IDX 68 78 64 79 65 80 66 81 67 82 46 83 47 84 55 85 48 86 54 87
REMARK SMILES IDX 56 88 53 89 49 90 50 91 51 92 52 93
REMARK H PARENT 13 5 5 16 17 27 76 46 44 57
REMARK Flexibility Score: inf
ROOT
ATOM      1  C   UNL A   1      37.895  30.773  33.523  1.00  0.00     0.118 C 
ENDROOT
BRANCH   1   2
ATOM      2  N   UNL A   1      37.120  31.754  34.266  1.00  0.00    -0.351 N 
ATOM      3  C   UNL A   1      36.273  32.760  33.853  1.00  0.00     0.273 C 
ATOM      4  O   UNL A   1      35.614  33.326  34.724  1.00  0.00    -0.267 OA
ATOM      5  H   UNL A   1      37.219  31.687  35.243  1.00  0.00     0.163 HD
BRANCH   3   6
ATOM      6  C   UNL A   1      36.166  33.146  32.448  1.00  0.00     0.170 A 
ATOM      7  N   UNL A   1      35.637  33.445  30.364  1.00  0.00    -0.250 N 
ATOM      8  C   UNL A   1      35.151  32.953  31.536  1.00  0.00     0.145 A 
ATOM      9  N   UNL A   1      36.856  33.967  30.515  1.00  0.00    -0.067 NA
ATOM     10  N   UNL A   1      37.203  33.780  31.783  1.00  0.00    -0.125 NA
BRANCH   7  11
ATOM     11  C   UNL A   1      34.952  33.480  29.091  1.00  0.00     0.167 C 
BRANCH  11  12
ATOM     12  C   UNL A   1      33.570  34.142  29.171  1.00  0.00     0.139 C 
BRANCH  12  13
ATOM     13  N   UNL A   1      33.597  35.563  28.851  1.00  0.00    -0.352 N 
ATOM     14  C   UNL A   1      33.312  36.682  29.575  1.00  0.00     0.252 C 
ATOM     15  O   UNL A   1      33.225  37.728  28.921  1.00  0.00    -0.272 OA
ATOM     16  H   UNL A   1      33.875  35.754  27.926  1.00  0.00     0.163 HD
BRANCH  14  17
ATOM     17  C   UNL A   1      33.108  36.661  31.115  1.00  0.00     0.143 C 
ATOM     18  C   UNL A   1      31.812  35.894  31.433  1.00  0.00     0.053 C 
ATOM     19  C   UNL A   1      34.263  36.063  31.910  1.00  0.00     0.048 C 
ATOM     20  O   UNL A   1      32.944  38.004  31.609  1.00  0.00    -0.365 OA
ATOM     21  C   UNL A   1      34.201  36.797  33.228  1.00  0.00     0.032 C 
ATOM     22  C   UNL A   1      33.647  38.151  32.847  1.00  0.00     0.162 C 
ENDBRANCH  14  17
ENDBRANCH  12  13
ENDBRANCH  11  12
ENDBRANCH   7  11
ENDBRANCH   3   6
ENDBRANCH   1   2
BRANCH   1  23
ATOM     23  C   UNL A   1      37.065  29.990  32.496  1.00  0.00     0.042 C 
BRANCH  23  24
ATOM     24  C   UNL A   1      37.449  30.336  31.066  1.00  0.00     0.118 C 
BRANCH  24  25
ATOM     25  N   UNL A   1      36.447  29.880  30.090  1.00  0.00    -0.352 N 
ATOM     26  C   UNL A   1      36.633  29.390  28.802  1.00  0.00     0.251 C 
ATOM     27  H   UNL A   1      35.511  29.929  30.391  1.00  0.00     0.163 HD
ATOM     28  O   UNL A   1      35.714  29.383  28.005  1.00  0.00    -0.269 OA
BRANCH  26  29
ATOM     29  C   UNL A   1      37.969  28.886  28.436  1.00  0.00     0.039 A 
ATOM     30  C   UNL A   1      38.740  29.457  27.418  1.00  0.00     0.014 A 
ATOM     31  C   UNL A   1      38.469  27.842  29.200  1.00  0.00     0.014 A 
ATOM     32  C   UNL A   1      40.053  29.015  27.252  1.00  0.00     0.010 A 
ATOM     33  C   UNL A   1      39.810  27.601  29.205  1.00  0.00     0.010 A 
ATOM     34  C   UNL A   1      40.586  28.099  28.171  1.00  0.00    -0.014 A 
BRANCH  34  35
ATOM     35  C   UNL A   1      41.982  27.686  28.154  1.00  0.00     0.031 A 
ATOM     36  C   UNL A   1      42.243  26.432  27.407  1.00  0.00     0.074 A 
ATOM     37  C   UNL A   1      42.985  28.503  28.551  1.00  0.00     0.049 A 
ATOM     38  N   UNL A   1      42.541  25.278  27.900  1.00  0.00    -0.248 NA
ATOM     39  C   UNL A   1      41.975  26.403  25.960  1.00  0.00     0.031 C 
ATOM     40  C   UNL A   1      42.907  29.893  29.023  1.00  0.00     0.029 A 
ATOM     41  N   UNL A   1      44.324  28.292  28.498  1.00  0.00    -0.354 N 
ATOM     42  C   UNL A   1      42.762  24.443  26.812  1.00  0.00     0.074 A 
ATOM     43  C   UNL A   1      42.171  25.112  25.684  1.00  0.00     0.031 C 
ATOM     44  C   UNL A   1      44.132  30.462  28.973  1.00  0.00     0.029 A 
ATOM     45  C   UNL A   1      45.104  29.435  28.647  1.00  0.00     0.049 A 
ATOM     46  H   UNL A   1      44.714  27.398  28.363  1.00  0.00     0.167 HD
ATOM     47  C   UNL A   1      43.641  23.404  26.897  1.00  0.00     0.034 A 
ATOM     48  C   UNL A   1      46.453  29.535  28.501  1.00  0.00     0.034 A 
ATOM     49  C   UNL A   1      43.999  23.149  28.279  1.00  0.00     0.049 A 
ATOM     50  C   UNL A   1      46.987  28.163  28.710  1.00  0.00     0.074 A 
ATOM     51  C   UNL A   1      43.281  22.845  29.422  1.00  0.00     0.029 A 
ATOM     52  N   UNL A   1      45.215  23.621  28.730  1.00  0.00    -0.354 N 
ATOM     53  N   UNL A   1      46.879  27.528  29.849  1.00  0.00    -0.248 NA
ATOM     54  C   UNL A   1      47.149  27.307  27.544  1.00  0.00     0.031 C 
ATOM     55  C   UNL A   1      43.877  23.643  30.445  1.00  0.00     0.029 A 
ATOM     56  C   UNL A   1      44.980  24.304  29.901  1.00  0.00     0.049 A 
ATOM     57  H   UNL A   1      46.089  23.492  28.294  1.00  0.00     0.167 HD
ATOM     58  C   UNL A   1      46.508  26.235  29.507  1.00  0.00     0.074 A 
ATOM     59  C   UNL A   1      46.788  26.132  28.074  1.00  0.00     0.031 C 
ATOM     60  C   UNL A   1      45.735  25.468  30.336  1.00  0.00     0.034 A 
BRANCH  47  61
ATOM     61  C   UNL A   1      44.466  22.859  25.752  1.00  0.00     0.023 A 
ATOM     62  C   UNL A   1      44.449  21.463  25.565  1.00  0.00     0.031 A 
ATOM     63  C   UNL A   1      45.461  23.559  25.034  1.00  0.00     0.131 A 
ATOM     64  C   UNL A   1      45.443  20.821  24.806  1.00  0.00     0.055 A 
ATOM     65  C   UNL A   1      46.405  22.922  24.223  1.00  0.00     0.041 A 
ATOM     66  F   UNL A   1      45.643  24.879  25.141  1.00  0.00    -0.206 F 
ATOM     67  C   UNL A   1      46.423  21.542  24.133  1.00  0.00     0.022 A 
BRANCH  64  68
ATOM     68  S   UNL A   1      45.538  19.014  24.877  1.00  0.00     0.124 S 
ATOM     69  O   UNL A   1      44.258  18.677  25.491  1.00  0.00    -0.237 OA
ATOM     70  O   UNL A   1      45.689  18.666  23.469  1.00  0.00    -0.237 OA
ATOM     71  O   UNL A   1      46.712  18.771  25.711  1.00  0.00    -0.744 OA
ENDBRANCH  64  68
ENDBRANCH  47  61
BRANCH  48  72
ATOM     72  C   UNL A   1      47.206  30.653  27.859  1.00  0.00     0.023 A 
ATOM     73  C   UNL A   1      46.583  31.715  27.164  1.00  0.00     0.031 A 
ATOM     74  C   UNL A   1      48.585  30.806  28.131  1.00  0.00     0.131 A 
ATOM     75  C   UNL A   1      47.336  32.854  26.774  1.00  0.00     0.055 A 
ATOM     76  C   UNL A   1      49.321  31.929  27.744  1.00  0.00     0.041 A 
ATOM     77  F   UNL A   1      49.253  29.899  28.862  1.00  0.00    -0.206 F 
ATOM     78  C   UNL A   1      48.696  32.964  27.070  1.00  0.00     0.022 A 
BRANCH  75  79
ATOM     79  S   UNL A   1      46.533  34.264  25.939  1.00  0.00     0.124 S 
ATOM     80  O   UNL A   1      45.350  33.646  25.349  1.00  0.00    -0.237 OA
ATOM     81  O   UNL A   1      46.298  35.191  27.040  1.00  0.00    -0.237 OA
ATOM     82  O   UNL A   1      47.538  34.709  24.971  1.00  0.00    -0.744 OA
ENDBRANCH  75  79
ENDBRANCH  48  72
BRANCH  60  83
ATOM     83  C   UNL A   1      45.469  25.963  31.749  1.00  0.00     0.023 A 
ATOM     84  C   UNL A   1      44.284  26.613  32.173  1.00  0.00     0.031 A 
ATOM     85  C   UNL A   1      46.407  25.624  32.739  1.00  0.00     0.131 A 
ATOM     86  C   UNL A   1      44.083  26.903  33.540  1.00  0.00     0.055 A 
ATOM     87  C   UNL A   1      46.196  25.892  34.091  1.00  0.00     0.041 A 
ATOM     88  F   UNL A   1      47.540  24.979  32.409  1.00  0.00    -0.206 F 
ATOM     89  C   UNL A   1      45.033  26.538  34.497  1.00  0.00     0.022 A 
BRANCH  86  90
ATOM     90  S   UNL A   1      42.579  27.771  34.101  1.00  0.00     0.124 S 
ATOM     91  O   UNL A   1      41.776  26.708  34.696  1.00  0.00    -0.237 OA
ATOM     92  O   UNL A   1      43.111  28.766  35.028  1.00  0.00    -0.237 OA
ATOM     93  O   UNL A   1      42.026  28.329  32.865  1.00  0.00    -0.744 OA
ENDBRANCH  86  90
ENDBRANCH  60  83
ENDBRANCH  34  35
ENDBRANCH  26  29
ENDBRANCH  24  25
ENDBRANCH  23  24
ENDBRANCH   1  23
TORSDOF 17
ENDMDL
