MODEL 1
REMARK VINA RESULT:      -7.8      0.000      0.000
REMARK SMILES CCCCCCNC(=O)Oc1cccc(-c2ccc([C@@H](C)C(=O)NCCCNC(=O)c3ccc(-c4c5nc(c(-c6cc(S(=O)(=O)[O-])ccc6F)c6ccc([nH]6)c(-c6cc(S(=O)(=O)[O-])ccc6F)c6nc(c(-c7cc(S(=O)(=O)[O-])ccc7F)c7ccc4[nH]7)C=C6)C=C5)cc3)cc2O)c1
REMARK SMILES IDX 20 1 21 2 19 3 16 4 17 5 95 6 18 7 94 8 15 9 11 10 12 11
REMARK SMILES IDX 97 12 13 13 14 14 10 15 8 16 7 17 9 19 6 20 5 21 4 22 3 23
REMARK SMILES IDX 2 24 1 25 96 26 22 28 23 29 24 30 25 32 26 33 27 34 28 35
REMARK SMILES IDX 29 36 30 38 31 39 32 40 93 41 33 42 92 43 34 44 35 45 36 46
REMARK SMILES IDX 86 47 37 48 91 49 85 50 87 51 38 52 90 53 84 54 83 55 39 57
REMARK SMILES IDX 71 58 51 59 70 60 52 61 55 62 69 63 88 64 53 65 54 66 68 68
REMARK SMILES IDX 89 69 56 70 40 71 41 72 49 73 42 74 48 75 50 76 47 77 43 78
REMARK SMILES IDX 44 79 45 80 46 81 72 82 73 83 81 84 74 85 80 86 82 87 79 88
REMARK SMILES IDX 75 89 76 90 77 91 78 92 57 93 58 94 66 95 59 96 65 97 67 98
REMARK SMILES IDX 64 99 60 100 61 101 62 102 63 103
REMARK H PARENT 7 18 96 27 24 31 28 37 87 56 55 67
REMARK Flexibility Score: inf
ROOT
ATOM      1  C   UNL A   1      36.981  32.469  39.588  1.00  0.00     0.105 C 
ATOM      2  C   UNL A   1      35.502  32.360  39.958  1.00  0.00     0.023 C 
ENDROOT
BRANCH   1   3
ATOM      3  C   UNL A   1      37.277  32.418  38.098  1.00  0.00    -0.032 A 
ATOM      4  C   UNL A   1      37.754  32.208  35.278  1.00  0.00     0.024 A 
ATOM      5  C   UNL A   1      37.188  33.357  35.854  1.00  0.00     0.013 A 
ATOM      6  C   UNL A   1      38.123  31.185  36.169  1.00  0.00     0.123 A 
ATOM      7  C   UNL A   1      37.002  33.479  37.236  1.00  0.00     0.005 A 
ATOM      8  C   UNL A   1      37.851  31.267  37.541  1.00  0.00     0.051 A 
BRANCH   4   9
ATOM      9  C   UNL A   1      37.925  32.140  33.806  1.00  0.00    -0.011 A 
ATOM     10  C   UNL A   1      37.302  31.277  31.621  1.00  0.00     0.133 A 
ATOM     11  C   UNL A   1      38.292  32.031  31.000  1.00  0.00     0.047 A 
ATOM     12  C   UNL A   1      37.100  31.337  33.001  1.00  0.00     0.056 A 
ATOM     13  C   UNL A   1      39.095  32.860  31.773  1.00  0.00     0.004 A 
ATOM     14  C   UNL A   1      38.922  32.900  33.159  1.00  0.00     0.009 A 
BRANCH  10  15
ATOM     15  O   UNL A   1      36.631  30.343  30.813  1.00  0.00    -0.410 OA
BRANCH  15  16
ATOM     16  C   UNL A   1      36.205  30.704  29.543  1.00  0.00     0.412 C 
ATOM     17  N   UNL A   1      36.909  30.076  28.555  1.00  0.00    -0.321 N 
ATOM     18  H   UNL A   1      36.701  30.339  27.629  1.00  0.00     0.167 HD
ATOM     19  O   UNL A   1      35.297  31.481  29.284  1.00  0.00    -0.224 OA
BRANCH  17  20
ATOM     20  C   UNL A   1      37.929  29.060  28.728  1.00  0.00     0.119 C 
BRANCH  20  21
ATOM     21  C   UNL A   1      39.316  29.588  28.362  1.00  0.00     0.021 C 
BRANCH  21  22
ATOM     22  C   UNL A   1      40.368  29.441  29.468  1.00  0.00     0.002 C 
BRANCH  22  23
ATOM     23  C   UNL A   1      40.173  28.244  30.404  1.00  0.00    -0.000 C 
BRANCH  23  24
ATOM     24  C   UNL A   1      39.737  28.593  31.829  1.00  0.00    -0.003 C 
ATOM     25  C   UNL A   1      38.547  27.775  32.309  1.00  0.00     0.004 C 
ENDBRANCH  23  24
ENDBRANCH  22  23
ENDBRANCH  21  22
ENDBRANCH  20  21
ENDBRANCH  17  20
ENDBRANCH  15  16
ENDBRANCH  10  15
ENDBRANCH   4   9
BRANCH   6  26
ATOM     26  O   UNL A   1      38.808  30.062  35.780  1.00  0.00    -0.507 OA
ATOM     27  H   UNL A   1      38.352  29.252  35.666  1.00  0.00     0.293 HD
ENDBRANCH   6  26
ENDBRANCH   1   3
BRANCH   1  28
ATOM     28  C   UNL A   1      37.916  31.608  40.450  1.00  0.00     0.227 C 
ATOM     29  O   UNL A   1      37.561  30.474  40.798  1.00  0.00    -0.274 OA
ATOM     30  N   UNL A   1      39.159  31.992  40.850  1.00  0.00    -0.356 N 
ATOM     31  H   UNL A   1      39.650  31.298  41.347  1.00  0.00     0.163 HD
BRANCH  30  32
ATOM     32  C   UNL A   1      39.897  33.228  40.682  1.00  0.00     0.117 C 
BRANCH  32  33
ATOM     33  C   UNL A   1      41.324  32.987  40.201  1.00  0.00     0.042 C 
BRANCH  33  34
ATOM     34  C   UNL A   1      42.279  34.119  40.545  1.00  0.00     0.118 C 
BRANCH  34  35
ATOM     35  N   UNL A   1      41.706  35.427  40.249  1.00  0.00    -0.352 N 
ATOM     36  C   UNL A   1      41.559  36.072  39.043  1.00  0.00     0.251 C 
ATOM     37  H   UNL A   1      41.375  35.925  41.031  1.00  0.00     0.163 HD
ATOM     38  O   UNL A   1      41.269  37.265  39.032  1.00  0.00    -0.269 OA
BRANCH  36  39
ATOM     39  C   UNL A   1      41.767  35.340  37.772  1.00  0.00     0.039 A 
ATOM     40  C   UNL A   1      43.065  35.181  37.276  1.00  0.00     0.014 A 
ATOM     41  C   UNL A   1      40.682  34.829  37.058  1.00  0.00     0.014 A 
ATOM     42  C   UNL A   1      43.278  34.450  36.103  1.00  0.00     0.010 A 
ATOM     43  C   UNL A   1      40.902  34.027  35.944  1.00  0.00     0.010 A 
ATOM     44  C   UNL A   1      42.201  33.836  35.447  1.00  0.00    -0.014 A 
BRANCH  44  45
ATOM     45  C   UNL A   1      42.374  33.028  34.210  1.00  0.00     0.031 A 
ATOM     46  C   UNL A   1      42.540  31.536  34.326  1.00  0.00     0.074 A 
ATOM     47  C   UNL A   1      42.489  33.633  33.011  1.00  0.00     0.049 A 
ATOM     48  N   UNL A   1      42.912  30.666  33.423  1.00  0.00    -0.248 NA
ATOM     49  C   UNL A   1      42.291  30.955  35.655  1.00  0.00     0.031 C 
ATOM     50  C   UNL A   1      42.363  35.072  32.772  1.00  0.00     0.029 A 
ATOM     51  N   UNL A   1      42.765  33.114  31.770  1.00  0.00    -0.354 N 
ATOM     52  C   UNL A   1      42.975  29.443  34.082  1.00  0.00     0.074 A 
ATOM     53  C   UNL A   1      42.657  29.697  35.470  1.00  0.00     0.031 C 
ATOM     54  C   UNL A   1      42.552  35.319  31.465  1.00  0.00     0.029 A 
ATOM     55  C   UNL A   1      42.874  34.068  30.784  1.00  0.00     0.049 A 
ATOM     56  H   UNL A   1      42.874  32.150  31.600  1.00  0.00     0.167 HD
ATOM     57  C   UNL A   1      43.256  28.218  33.571  1.00  0.00     0.034 A 
ATOM     58  C   UNL A   1      43.225  33.952  29.487  1.00  0.00     0.034 A 
ATOM     59  C   UNL A   1      43.549  27.985  32.177  1.00  0.00     0.049 A 
ATOM     60  C   UNL A   1      43.564  32.585  28.944  1.00  0.00     0.074 A 
ATOM     61  C   UNL A   1      43.806  26.784  31.540  1.00  0.00     0.029 A 
ATOM     62  N   UNL A   1      43.627  28.976  31.206  1.00  0.00    -0.354 N 
ATOM     63  N   UNL A   1      43.604  31.432  29.572  1.00  0.00    -0.248 NA
ATOM     64  C   UNL A   1      43.900  32.500  27.516  1.00  0.00     0.031 C 
ATOM     65  C   UNL A   1      44.102  27.055  30.200  1.00  0.00     0.029 A 
ATOM     66  C   UNL A   1      43.947  28.415  29.980  1.00  0.00     0.049 A 
ATOM     67  H   UNL A   1      43.476  29.935  31.365  1.00  0.00     0.167 HD
ATOM     68  C   UNL A   1      43.923  30.482  28.605  1.00  0.00     0.074 A 
ATOM     69  C   UNL A   1      44.067  31.196  27.353  1.00  0.00     0.031 C 
ATOM     70  C   UNL A   1      44.073  29.140  28.738  1.00  0.00     0.034 A 
BRANCH  57  71
ATOM     71  C   UNL A   1      43.284  27.053  34.531  1.00  0.00     0.023 A 
ATOM     72  C   UNL A   1      44.488  26.568  35.072  1.00  0.00     0.031 A 
ATOM     73  C   UNL A   1      42.094  26.391  34.884  1.00  0.00     0.131 A 
ATOM     74  C   UNL A   1      44.487  25.410  35.862  1.00  0.00     0.055 A 
ATOM     75  C   UNL A   1      42.090  25.291  35.745  1.00  0.00     0.041 A 
ATOM     76  F   UNL A   1      40.914  26.792  34.386  1.00  0.00    -0.206 F 
ATOM     77  C   UNL A   1      43.293  24.784  36.225  1.00  0.00     0.022 A 
BRANCH  74  78
ATOM     78  S   UNL A   1      46.078  24.644  36.274  1.00  0.00     0.124 S 
ATOM     79  O   UNL A   1      46.081  23.478  35.395  1.00  0.00    -0.237 OA
ATOM     80  O   UNL A   1      47.031  25.696  35.941  1.00  0.00    -0.237 OA
ATOM     81  O   UNL A   1      45.955  24.341  37.699  1.00  0.00    -0.744 OA
ENDBRANCH  74  78
ENDBRANCH  57  71
BRANCH  58  82
ATOM     82  C   UNL A   1      43.294  35.158  28.610  1.00  0.00     0.023 A 
ATOM     83  C   UNL A   1      44.523  35.771  28.321  1.00  0.00     0.031 A 
ATOM     84  C   UNL A   1      42.128  35.741  28.081  1.00  0.00     0.131 A 
ATOM     85  C   UNL A   1      44.557  36.956  27.569  1.00  0.00     0.055 A 
ATOM     86  C   UNL A   1      42.171  36.888  27.286  1.00  0.00     0.041 A 
ATOM     87  F   UNL A   1      40.925  35.197  28.324  1.00  0.00    -0.206 F 
ATOM     88  C   UNL A   1      43.390  37.511  27.038  1.00  0.00     0.022 A 
BRANCH  85  89
ATOM     89  S   UNL A   1      46.142  37.816  27.375  1.00  0.00     0.124 S 
ATOM     90  O   UNL A   1      47.039  36.713  27.050  1.00  0.00    -0.237 OA
ATOM     91  O   UNL A   1      45.850  38.749  26.292  1.00  0.00    -0.237 OA
ATOM     92  O   UNL A   1      46.357  38.431  28.683  1.00  0.00    -0.744 OA
ENDBRANCH  85  89
ENDBRANCH  58  82
BRANCH  70  93
ATOM     93  C   UNL A   1      44.323  28.341  27.483  1.00  0.00     0.023 A 
ATOM     94  C   UNL A   1      45.615  28.144  26.966  1.00  0.00     0.031 A 
ATOM     95  C   UNL A   1      43.241  27.744  26.813  1.00  0.00     0.131 A 
ATOM     96  C   UNL A   1      45.786  27.398  25.788  1.00  0.00     0.055 A 
ATOM     97  C   UNL A   1      43.423  26.957  25.675  1.00  0.00     0.041 A 
ATOM     98  F   UNL A   1      41.986  27.902  27.264  1.00  0.00    -0.206 F 
ATOM     99  C   UNL A   1      44.702  26.788  25.152  1.00  0.00     0.022 A 
BRANCH  96 100
ATOM    100  S   UNL A   1      47.443  27.283  25.059  1.00  0.00     0.124 S 
ATOM    101  O   UNL A   1      48.032  28.563  25.439  1.00  0.00    -0.237 OA
ATOM    102  O   UNL A   1      47.997  26.106  25.720  1.00  0.00    -0.237 OA
ATOM    103  O   UNL A   1      47.179  27.123  23.630  1.00  0.00    -0.744 OA
ENDBRANCH  96 100
ENDBRANCH  70  93
ENDBRANCH  44  45
ENDBRANCH  36  39
ENDBRANCH  34  35
ENDBRANCH  33  34
ENDBRANCH  32  33
ENDBRANCH  30  32
ENDBRANCH   1  28
TORSDOF 23
ENDMDL
MODEL 2
REMARK VINA RESULT:      -7.8      4.813      8.629
REMARK SMILES CCCCCCNC(=O)Oc1cccc(-c2ccc([C@@H](C)C(=O)NCCCNC(=O)c3ccc(-c4c5nc(c(-c6cc(S(=O)(=O)[O-])ccc6F)c6ccc([nH]6)c(-c6cc(S(=O)(=O)[O-])ccc6F)c6nc(c(-c7cc(S(=O)(=O)[O-])ccc7F)c7ccc4[nH]7)C=C6)C=C5)cc3)cc2O)c1
REMARK SMILES IDX 20 1 21 2 19 3 16 4 17 5 95 6 18 7 94 8 15 9 11 10 12 11
REMARK SMILES IDX 97 12 13 13 14 14 10 15 8 16 7 17 9 19 6 20 5 21 4 22 3 23
REMARK SMILES IDX 2 24 1 25 96 26 22 28 23 29 24 30 25 32 26 33 27 34 28 35
REMARK SMILES IDX 29 36 30 38 31 39 32 40 93 41 33 42 92 43 34 44 35 45 36 46
REMARK SMILES IDX 86 47 37 48 91 49 85 50 87 51 38 52 90 53 84 54 83 55 39 57
REMARK SMILES IDX 71 58 51 59 70 60 52 61 55 62 69 63 88 64 53 65 54 66 68 68
REMARK SMILES IDX 89 69 56 70 40 71 41 72 49 73 42 74 48 75 50 76 47 77 43 78
REMARK SMILES IDX 44 79 45 80 46 81 72 82 73 83 81 84 74 85 80 86 82 87 79 88
REMARK SMILES IDX 75 89 76 90 77 91 78 92 57 93 58 94 66 95 59 96 65 97 67 98
REMARK SMILES IDX 64 99 60 100 61 101 62 102 63 103
REMARK H PARENT 7 18 96 27 24 31 28 37 87 56 55 67
REMARK Flexibility Score: inf
ROOT
ATOM      1  C   UNL A   1      35.949  32.842  29.371  1.00  0.00     0.105 C 
ATOM      2  C   UNL A   1      37.126  33.510  28.660  1.00  0.00     0.023 C 
ENDROOT
BRANCH   1   3
ATOM      3  C   UNL A   1      35.339  31.660  28.636  1.00  0.00    -0.032 A 
ATOM      4  C   UNL A   1      34.187  29.508  27.131  1.00  0.00     0.024 A 
ATOM      5  C   UNL A   1      35.414  29.376  27.800  1.00  0.00     0.013 A 
ATOM      6  C   UNL A   1      33.528  30.741  27.283  1.00  0.00     0.123 A 
ATOM      7  C   UNL A   1      35.951  30.409  28.576  1.00  0.00     0.005 A 
ATOM      8  C   UNL A   1      34.109  31.808  27.981  1.00  0.00     0.051 A 
BRANCH   4   9
ATOM      9  C   UNL A   1      33.671  28.376  26.324  1.00  0.00    -0.011 A 
ATOM     10  C   UNL A   1      33.491  27.149  24.233  1.00  0.00     0.133 A 
ATOM     11  C   UNL A   1      32.654  26.205  24.817  1.00  0.00     0.047 A 
ATOM     12  C   UNL A   1      34.013  28.214  24.971  1.00  0.00     0.056 A 
ATOM     13  C   UNL A   1      32.333  26.325  26.163  1.00  0.00     0.004 A 
ATOM     14  C   UNL A   1      32.823  27.406  26.900  1.00  0.00     0.009 A 
BRANCH  10  15
ATOM     15  O   UNL A   1      33.650  27.065  22.839  1.00  0.00    -0.410 OA
BRANCH  15  16
ATOM     16  C   UNL A   1      33.026  26.048  22.131  1.00  0.00     0.412 C 
ATOM     17  N   UNL A   1      31.793  26.412  21.667  1.00  0.00    -0.321 N 
ATOM     18  H   UNL A   1      31.269  25.713  21.213  1.00  0.00     0.167 HD
ATOM     19  O   UNL A   1      33.490  24.939  21.907  1.00  0.00    -0.224 OA
BRANCH  17  20
ATOM     20  C   UNL A   1      31.179  27.721  21.772  1.00  0.00     0.119 C 
BRANCH  20  21
ATOM     21  C   UNL A   1      30.082  27.743  22.837  1.00  0.00     0.021 C 
BRANCH  21  22
ATOM     22  C   UNL A   1      29.281  29.050  22.903  1.00  0.00     0.002 C 
BRANCH  22  23
ATOM     23  C   UNL A   1      29.943  30.185  23.691  1.00  0.00    -0.000 C 
BRANCH  23  24
ATOM     24  C   UNL A   1      29.080  31.433  23.889  1.00  0.00    -0.003 C 
ATOM     25  C   UNL A   1      27.624  31.222  23.504  1.00  0.00     0.004 C 
ENDBRANCH  23  24
ENDBRANCH  22  23
ENDBRANCH  21  22
ENDBRANCH  20  21
ENDBRANCH  17  20
ENDBRANCH  15  16
ENDBRANCH  10  15
ENDBRANCH   4   9
BRANCH   6  26
ATOM     26  O   UNL A   1      32.264  30.980  26.806  1.00  0.00    -0.507 OA
ATOM     27  H   UNL A   1      31.644  31.443  27.334  1.00  0.00     0.293 HD
ENDBRANCH   6  26
ENDBRANCH   1   3
BRANCH   1  28
ATOM     28  C   UNL A   1      34.923  33.823  29.959  1.00  0.00     0.227 C 
ATOM     29  O   UNL A   1      34.612  34.839  29.325  1.00  0.00    -0.274 OA
ATOM     30  N   UNL A   1      34.283  33.641  31.146  1.00  0.00    -0.356 N 
ATOM     31  H   UNL A   1      33.612  34.333  31.347  1.00  0.00     0.163 HD
BRANCH  30  32
ATOM     32  C   UNL A   1      34.401  32.623  32.171  1.00  0.00     0.117 C 
BRANCH  32  33
ATOM     33  C   UNL A   1      35.226  33.096  33.363  1.00  0.00     0.042 C 
BRANCH  33  34
ATOM     34  C   UNL A   1      36.670  32.619  33.329  1.00  0.00     0.118 C 
BRANCH  34  35
ATOM     35  N   UNL A   1      36.770  31.171  33.472  1.00  0.00    -0.352 N 
ATOM     36  C   UNL A   1      37.616  30.281  32.853  1.00  0.00     0.251 C 
ATOM     37  H   UNL A   1      36.136  30.769  34.108  1.00  0.00     0.163 HD
ATOM     38  O   UNL A   1      37.384  29.078  32.932  1.00  0.00    -0.269 OA
BRANCH  36  39
ATOM     39  C   UNL A   1      38.783  30.769  32.081  1.00  0.00     0.039 A 
ATOM     40  C   UNL A   1      38.739  30.751  30.683  1.00  0.00     0.014 A 
ATOM     41  C   UNL A   1      39.929  31.226  32.735  1.00  0.00     0.014 A 
ATOM     42  C   UNL A   1      39.814  31.255  29.946  1.00  0.00     0.010 A 
ATOM     43  C   UNL A   1      40.957  31.809  32.004  1.00  0.00     0.010 A 
ATOM     44  C   UNL A   1      40.918  31.821  30.601  1.00  0.00    -0.014 A 
BRANCH  44  45
ATOM     45  C   UNL A   1      42.077  32.393  29.865  1.00  0.00     0.031 A 
ATOM     46  C   UNL A   1      43.258  31.510  29.558  1.00  0.00     0.074 A 
ATOM     47  C   UNL A   1      42.117  33.707  29.570  1.00  0.00     0.049 A 
ATOM     48  N   UNL A   1      44.449  31.832  29.125  1.00  0.00    -0.248 NA
ATOM     49  C   UNL A   1      43.081  30.073  29.817  1.00  0.00     0.031 C 
ATOM     50  C   UNL A   1      41.043  34.667  29.829  1.00  0.00     0.029 A 
ATOM     51  N   UNL A   1      43.113  34.468  29.009  1.00  0.00    -0.354 N 
ATOM     52  C   UNL A   1      45.173  30.645  29.092  1.00  0.00     0.074 A 
ATOM     53  C   UNL A   1      44.302  29.608  29.602  1.00  0.00     0.031 C 
ATOM     54  C   UNL A   1      41.434  35.886  29.422  1.00  0.00     0.029 A 
ATOM     55  C   UNL A   1      42.806  35.808  28.930  1.00  0.00     0.049 A 
ATOM     56  H   UNL A   1      43.967  34.092  28.693  1.00  0.00     0.167 HD
ATOM     57  C   UNL A   1      46.441  30.437  28.660  1.00  0.00     0.034 A 
ATOM     58  C   UNL A   1      43.557  36.857  28.538  1.00  0.00     0.034 A 
ATOM     59  C   UNL A   1      47.285  31.482  28.134  1.00  0.00     0.049 A 
ATOM     60  C   UNL A   1      44.978  36.609  28.089  1.00  0.00     0.074 A 
ATOM     61  C   UNL A   1      48.569  31.381  27.628  1.00  0.00     0.029 A 
ATOM     62  N   UNL A   1      46.928  32.822  28.049  1.00  0.00    -0.354 N 
ATOM     63  N   UNL A   1      45.645  35.479  28.045  1.00  0.00    -0.248 NA
ATOM     64  C   UNL A   1      45.744  37.776  27.630  1.00  0.00     0.031 C 
ATOM     65  C   UNL A   1      49.011  32.666  27.298  1.00  0.00     0.029 A 
ATOM     66  C   UNL A   1      47.975  33.559  27.518  1.00  0.00     0.049 A 
ATOM     67  H   UNL A   1      46.060  33.194  28.325  1.00  0.00     0.167 HD
ATOM     68  C   UNL A   1      46.893  35.795  27.512  1.00  0.00     0.074 A 
ATOM     69  C   UNL A   1      46.885  37.218  27.251  1.00  0.00     0.031 C 
ATOM     70  C   UNL A   1      47.944  34.978  27.251  1.00  0.00     0.034 A 
BRANCH  57  71
ATOM     71  C   UNL A   1      46.991  29.034  28.766  1.00  0.00     0.023 A 
ATOM     72  C   UNL A   1      46.778  28.077  27.758  1.00  0.00     0.031 A 
ATOM     73  C   UNL A   1      47.709  28.634  29.908  1.00  0.00     0.131 A 
ATOM     74  C   UNL A   1      47.197  26.752  27.947  1.00  0.00     0.055 A 
ATOM     75  C   UNL A   1      48.204  27.336  30.050  1.00  0.00     0.041 A 
ATOM     76  F   UNL A   1      47.929  29.494  30.914  1.00  0.00    -0.206 F 
ATOM     77  C   UNL A   1      47.934  26.381  29.075  1.00  0.00     0.022 A 
BRANCH  74  78
ATOM     78  S   UNL A   1      46.630  25.490  26.776  1.00  0.00     0.124 S 
ATOM     79  O   UNL A   1      47.767  24.574  26.756  1.00  0.00    -0.237 OA
ATOM     80  O   UNL A   1      45.418  24.990  27.413  1.00  0.00    -0.237 OA
ATOM     81  O   UNL A   1      46.421  26.239  25.538  1.00  0.00    -0.744 OA
ENDBRANCH  74  78
ENDBRANCH  57  71
BRANCH  58  82
ATOM     82  C   UNL A   1      42.998  38.241  28.563  1.00  0.00     0.023 A 
ATOM     83  C   UNL A   1      43.285  39.115  29.623  1.00  0.00     0.031 A 
ATOM     84  C   UNL A   1      42.134  38.696  27.551  1.00  0.00     0.131 A 
ATOM     85  C   UNL A   1      42.676  40.379  29.675  1.00  0.00     0.055 A 
ATOM     86  C   UNL A   1      41.576  39.975  27.577  1.00  0.00     0.041 A 
ATOM     87  F   UNL A   1      41.826  37.903  26.513  1.00  0.00    -0.206 F 
ATOM     88  C   UNL A   1      41.835  40.821  28.651  1.00  0.00     0.022 A 
BRANCH  85  89
ATOM     89  S   UNL A   1      42.927  41.405  31.150  1.00  0.00     0.124 S 
ATOM     90  O   UNL A   1      42.301  40.590  32.186  1.00  0.00    -0.237 OA
ATOM     91  O   UNL A   1      44.380  41.510  31.203  1.00  0.00    -0.237 OA
ATOM     92  O   UNL A   1      42.226  42.644  30.823  1.00  0.00    -0.744 OA
ENDBRANCH  85  89
ENDBRANCH  58  82
BRANCH  70  93
ATOM     93  C   UNL A   1      49.145  35.588  26.571  1.00  0.00     0.023 A 
ATOM     94  C   UNL A   1      50.185  36.199  27.291  1.00  0.00     0.031 A 
ATOM     95  C   UNL A   1      49.255  35.525  25.169  1.00  0.00     0.131 A 
ATOM     96  C   UNL A   1      51.274  36.758  26.603  1.00  0.00     0.055 A 
ATOM     97  C   UNL A   1      50.366  36.032  24.495  1.00  0.00     0.041 A 
ATOM     98  F   UNL A   1      48.289  34.953  24.433  1.00  0.00    -0.206 F 
ATOM     99  C   UNL A   1      51.379  36.661  25.213  1.00  0.00     0.022 A 
BRANCH  96 100
ATOM    100  S   UNL A   1      52.527  37.672  27.543  1.00  0.00     0.124 S 
ATOM    101  O   UNL A   1      52.126  39.057  27.320  1.00  0.00    -0.237 OA
ATOM    102  O   UNL A   1      52.336  37.164  28.898  1.00  0.00    -0.237 OA
ATOM    103  O   UNL A   1      53.785  37.282  26.908  1.00  0.00    -0.744 OA
ENDBRANCH  96 100
ENDBRANCH  70  93
ENDBRANCH  44  45
ENDBRANCH  36  39
ENDBRANCH  34  35
ENDBRANCH  33  34
ENDBRANCH  32  33
ENDBRANCH  30  32
ENDBRANCH   1  28
TORSDOF 23
ENDMDL
MODEL 3
REMARK VINA RESULT:      -7.7      2.782     12.006
REMARK SMILES CCCCCCNC(=O)Oc1cccc(-c2ccc([C@@H](C)C(=O)NCCCNC(=O)c3ccc(-c4c5nc(c(-c6cc(S(=O)(=O)[O-])ccc6F)c6ccc([nH]6)c(-c6cc(S(=O)(=O)[O-])ccc6F)c6nc(c(-c7cc(S(=O)(=O)[O-])ccc7F)c7ccc4[nH]7)C=C6)C=C5)cc3)cc2O)c1
REMARK SMILES IDX 20 1 21 2 19 3 16 4 17 5 95 6 18 7 94 8 15 9 11 10 12 11
REMARK SMILES IDX 97 12 13 13 14 14 10 15 8 16 7 17 9 19 6 20 5 21 4 22 3 23
REMARK SMILES IDX 2 24 1 25 96 26 22 28 23 29 24 30 25 32 26 33 27 34 28 35
REMARK SMILES IDX 29 36 30 38 31 39 32 40 93 41 33 42 92 43 34 44 35 45 36 46
REMARK SMILES IDX 86 47 37 48 91 49 85 50 87 51 38 52 90 53 84 54 83 55 39 57
REMARK SMILES IDX 71 58 51 59 70 60 52 61 55 62 69 63 88 64 53 65 54 66 68 68
REMARK SMILES IDX 89 69 56 70 40 71 41 72 49 73 42 74 48 75 50 76 47 77 43 78
REMARK SMILES IDX 44 79 45 80 46 81 72 82 73 83 81 84 74 85 80 86 82 87 79 88
REMARK SMILES IDX 75 89 76 90 77 91 78 92 57 93 58 94 66 95 59 96 65 97 67 98
REMARK SMILES IDX 64 99 60 100 61 101 62 102 63 103
REMARK H PARENT 7 18 96 27 24 31 28 37 87 56 55 67
REMARK Flexibility Score: inf
ROOT
ATOM      1  C   UNL A   1      42.635  23.622  26.030  1.00  0.00     0.105 C 
ATOM      2  C   UNL A   1      43.315  23.918  24.693  1.00  0.00     0.023 C 
ENDROOT
BRANCH   1   3
ATOM      3  C   UNL A   1      42.025  24.829  26.723  1.00  0.00    -0.032 A 
ATOM      4  C   UNL A   1      40.757  27.091  27.949  1.00  0.00     0.024 A 
ATOM      5  C   UNL A   1      41.154  25.967  28.691  1.00  0.00     0.013 A 
ATOM      6  C   UNL A   1      41.063  27.067  26.576  1.00  0.00     0.123 A 
ATOM      7  C   UNL A   1      41.818  24.885  28.101  1.00  0.00     0.005 A 
ATOM      8  C   UNL A   1      41.642  25.946  25.968  1.00  0.00     0.051 A 
BRANCH   4   9
ATOM      9  C   UNL A   1      40.057  28.205  28.632  1.00  0.00    -0.011 A 
ATOM     10  C   UNL A   1      39.865  29.817  30.442  1.00  0.00     0.133 A 
ATOM     11  C   UNL A   1      38.684  30.326  29.913  1.00  0.00     0.047 A 
ATOM     12  C   UNL A   1      40.560  28.784  29.810  1.00  0.00     0.056 A 
ATOM     13  C   UNL A   1      38.189  29.793  28.729  1.00  0.00     0.004 A 
ATOM     14  C   UNL A   1      38.860  28.736  28.108  1.00  0.00     0.009 A 
BRANCH  10  15
ATOM     15  O   UNL A   1      40.229  30.284  31.716  1.00  0.00    -0.410 OA
BRANCH  15  16
ATOM     16  C   UNL A   1      39.599  29.781  32.845  1.00  0.00     0.412 C 
ATOM     17  N   UNL A   1      38.880  30.731  33.513  1.00  0.00    -0.321 N 
ATOM     18  H   UNL A   1      38.463  30.455  34.361  1.00  0.00     0.167 HD
ATOM     19  O   UNL A   1      39.638  28.622  33.233  1.00  0.00    -0.224 OA
BRANCH  17  20
ATOM     20  C   UNL A   1      38.667  32.105  33.102  1.00  0.00     0.119 C 
BRANCH  20  21
ATOM     21  C   UNL A   1      37.309  32.629  33.571  1.00  0.00     0.021 C 
BRANCH  21  22
ATOM     22  C   UNL A   1      36.331  32.970  32.440  1.00  0.00     0.002 C 
BRANCH  22  23
ATOM     23  C   UNL A   1      34.850  32.738  32.761  1.00  0.00    -0.000 C 
BRANCH  23  24
ATOM     24  C   UNL A   1      34.046  33.999  33.082  1.00  0.00    -0.003 C 
ATOM     25  C   UNL A   1      34.919  35.198  33.415  1.00  0.00     0.004 C 
ENDBRANCH  23  24
ENDBRANCH  22  23
ENDBRANCH  21  22
ENDBRANCH  20  21
ENDBRANCH  17  20
ENDBRANCH  15  16
ENDBRANCH  10  15
ENDBRANCH   4   9
BRANCH   6  26
ATOM     26  O   UNL A   1      40.864  28.140  25.745  1.00  0.00    -0.507 OA
ATOM     27  H   UNL A   1      41.251  28.968  25.947  1.00  0.00     0.293 HD
ENDBRANCH   6  26
ENDBRANCH   1   3
BRANCH   1  28
ATOM     28  C   UNL A   1      43.436  22.695  26.957  1.00  0.00     0.227 C 
ATOM     29  O   UNL A   1      42.935  21.631  27.343  1.00  0.00    -0.274 OA
ATOM     30  N   UNL A   1      44.706  22.943  27.377  1.00  0.00    -0.356 N 
ATOM     31  H   UNL A   1      45.095  22.219  27.918  1.00  0.00     0.163 HD
BRANCH  30  32
ATOM     32  C   UNL A   1      45.596  24.070  27.178  1.00  0.00     0.117 C 
BRANCH  32  33
ATOM     33  C   UNL A   1      46.452  23.915  25.926  1.00  0.00     0.042 C 
BRANCH  33  34
ATOM     34  C   UNL A   1      47.722  24.752  25.953  1.00  0.00     0.118 C 
BRANCH  34  35
ATOM     35  N   UNL A   1      47.755  25.730  24.872  1.00  0.00    -0.352 N 
ATOM     36  C   UNL A   1      47.072  26.917  24.736  1.00  0.00     0.251 C 
ATOM     37  H   UNL A   1      48.356  25.507  24.125  1.00  0.00     0.163 HD
ATOM     38  O   UNL A   1      47.058  27.479  23.645  1.00  0.00    -0.269 OA
BRANCH  36  39
ATOM     39  C   UNL A   1      46.346  27.499  25.888  1.00  0.00     0.039 A 
ATOM     40  C   UNL A   1      44.948  27.445  25.917  1.00  0.00     0.014 A 
ATOM     41  C   UNL A   1      47.039  28.116  26.930  1.00  0.00     0.014 A 
ATOM     42  C   UNL A   1      44.254  27.947  27.022  1.00  0.00     0.010 A 
ATOM     43  C   UNL A   1      46.356  28.532  28.067  1.00  0.00     0.010 A 
ATOM     44  C   UNL A   1      44.955  28.462  28.123  1.00  0.00    -0.014 A 
BRANCH  44  45
ATOM     45  C   UNL A   1      44.267  28.987  29.333  1.00  0.00     0.031 A 
ATOM     46  C   UNL A   1      43.871  30.439  29.380  1.00  0.00     0.074 A 
ATOM     47  C   UNL A   1      44.095  28.201  30.414  1.00  0.00     0.049 A 
ATOM     48  N   UNL A   1      43.462  31.159  30.391  1.00  0.00    -0.248 NA
ATOM     49  C   UNL A   1      43.996  31.188  28.119  1.00  0.00     0.031 C 
ATOM     50  C   UNL A   1      44.451  26.784  30.497  1.00  0.00     0.029 A 
ATOM     51  N   UNL A   1      43.602  28.493  31.662  1.00  0.00    -0.354 N 
ATOM     52  C   UNL A   1      43.313  32.452  29.899  1.00  0.00     0.074 A 
ATOM     53  C   UNL A   1      43.731  32.424  28.514  1.00  0.00     0.031 C 
ATOM     54  C   UNL A   1      44.157  26.328  31.726  1.00  0.00     0.029 A 
ATOM     55  C   UNL A   1      43.650  27.430  32.537  1.00  0.00     0.049 A 
ATOM     56  H   UNL A   1      43.246  29.377  31.909  1.00  0.00     0.167 HD
ATOM     57  C   UNL A   1      42.855  33.555  30.540  1.00  0.00     0.034 A 
ATOM     58  C   UNL A   1      43.352  27.363  33.851  1.00  0.00     0.034 A 
ATOM     59  C   UNL A   1      42.423  33.555  31.916  1.00  0.00     0.049 A 
ATOM     60  C   UNL A   1      42.873  28.610  34.554  1.00  0.00     0.074 A 
ATOM     61  C   UNL A   1      41.901  34.602  32.656  1.00  0.00     0.029 A 
ATOM     62  N   UNL A   1      42.467  32.453  32.761  1.00  0.00    -0.354 N 
ATOM     63  N   UNL A   1      42.719  29.823  34.074  1.00  0.00    -0.248 NA
ATOM     64  C   UNL A   1      42.519  28.479  35.974  1.00  0.00     0.031 C 
ATOM     65  C   UNL A   1      41.690  34.150  33.962  1.00  0.00     0.029 A 
ATOM     66  C   UNL A   1      41.999  32.801  34.019  1.00  0.00     0.049 A 
ATOM     67  H   UNL A   1      42.782  31.557  32.505  1.00  0.00     0.167 HD
ATOM     68  C   UNL A   1      42.209  30.585  35.121  1.00  0.00     0.074 A 
ATOM     69  C   UNL A   1      42.082  29.698  36.258  1.00  0.00     0.031 C 
ATOM     70  C   UNL A   1      41.865  31.898  35.138  1.00  0.00     0.034 A 
BRANCH  57  71
ATOM     71  C   UNL A   1      42.826  34.850  29.762  1.00  0.00     0.023 A 
ATOM     72  C   UNL A   1      43.929  35.721  29.734  1.00  0.00     0.031 A 
ATOM     73  C   UNL A   1      41.666  35.239  29.068  1.00  0.00     0.131 A 
ATOM     74  C   UNL A   1      43.823  36.969  29.104  1.00  0.00     0.055 A 
ATOM     75  C   UNL A   1      41.597  36.444  28.365  1.00  0.00     0.041 A 
ATOM     76  F   UNL A   1      40.572  34.462  29.073  1.00  0.00    -0.206 F 
ATOM     77  C   UNL A   1      42.674  37.326  28.395  1.00  0.00     0.022 A 
BRANCH  74  78
ATOM     78  S   UNL A   1      45.147  38.181  29.359  1.00  0.00     0.124 S 
ATOM     79  O   UNL A   1      46.332  37.402  29.008  1.00  0.00    -0.237 OA
ATOM     80  O   UNL A   1      44.785  39.245  28.429  1.00  0.00    -0.237 OA
ATOM     81  O   UNL A   1      45.032  38.524  30.775  1.00  0.00    -0.744 OA
ENDBRANCH  74  78
ENDBRANCH  57  71
BRANCH  58  82
ATOM     82  C   UNL A   1      43.510  26.081  34.598  1.00  0.00     0.023 A 
ATOM     83  C   UNL A   1      44.784  25.575  34.901  1.00  0.00     0.031 A 
ATOM     84  C   UNL A   1      42.392  25.320  34.984  1.00  0.00     0.131 A 
ATOM     85  C   UNL A   1      44.913  24.324  35.524  1.00  0.00     0.055 A 
ATOM     86  C   UNL A   1      42.523  24.103  35.655  1.00  0.00     0.041 A 
ATOM     87  F   UNL A   1      41.150  25.756  34.722  1.00  0.00    -0.206 F 
ATOM     88  C   UNL A   1      43.790  23.591  35.917  1.00  0.00     0.022 A 
BRANCH  85  89
ATOM     89  S   UNL A   1      46.572  23.622  35.731  1.00  0.00     0.124 S 
ATOM     90  O   UNL A   1      46.267  22.259  36.154  1.00  0.00    -0.237 OA
ATOM     91  O   UNL A   1      47.134  23.771  34.393  1.00  0.00    -0.237 OA
ATOM     92  O   UNL A   1      47.174  24.473  36.755  1.00  0.00    -0.744 OA
ENDBRANCH  85  89
ENDBRANCH  58  82
BRANCH  70  93
ATOM     93  C   UNL A   1      41.237  32.436  36.399  1.00  0.00     0.023 A 
ATOM     94  C   UNL A   1      39.879  32.239  36.703  1.00  0.00     0.031 A 
ATOM     95  C   UNL A   1      42.030  33.136  37.326  1.00  0.00     0.131 A 
ATOM     96  C   UNL A   1      39.347  32.770  37.889  1.00  0.00     0.055 A 
ATOM     97  C   UNL A   1      41.509  33.614  38.528  1.00  0.00     0.041 A 
ATOM     98  F   UNL A   1      43.333  33.353  37.084  1.00  0.00    -0.206 F 
ATOM     99  C   UNL A   1      40.157  33.439  38.811  1.00  0.00     0.022 A 
BRANCH  96 100
ATOM    100  S   UNL A   1      37.563  32.632  38.187  1.00  0.00     0.124 S 
ATOM    101  O   UNL A   1      37.395  33.421  39.402  1.00  0.00    -0.237 OA
ATOM    102  O   UNL A   1      36.996  33.206  36.971  1.00  0.00    -0.237 OA
ATOM    103  O   UNL A   1      37.353  31.194  38.348  1.00  0.00    -0.744 OA
ENDBRANCH  96 100
ENDBRANCH  70  93
ENDBRANCH  44  45
ENDBRANCH  36  39
ENDBRANCH  34  35
ENDBRANCH  33  34
ENDBRANCH  32  33
ENDBRANCH  30  32
ENDBRANCH   1  28
TORSDOF 23
ENDMDL
