MODEL 1
REMARK VINA RESULT:     -11.3      0.000      0.000
REMARK SMILES CN(CC(C)(C)O)C(=O)N[C@H]1CC[C@H](C(=O)NCCCNC(=O)c2ccc(-c3c4nc(c(-c5cc(S(=O)(=O)[O-])ccc5F)c5ccc([nH]5)c(-c5cc(S(=O)(=O)[O-])ccc5F)c5nc(c(-c6cc(S(=O)(=O)[O-])ccc6F)c6ccc3[nH]6)C=C5)C=C4)cc2)C1
REMARK SMILES IDX 18 1 17 2 15 3 16 4 14 6 11 7 12 8 87 9 13 10 10 11 8 12
REMARK SMILES IDX 9 13 2 15 1 16 3 17 4 18 5 19 6 20 7 21 19 23 20 24 21 25
REMARK SMILES IDX 22 26 23 28 24 29 25 30 86 31 26 32 85 33 27 34 28 35 29 36
REMARK SMILES IDX 79 37 30 38 84 39 78 40 80 41 31 42 83 43 77 44 76 45 32 47
REMARK SMILES IDX 64 48 44 49 63 50 45 51 48 52 62 53 81 54 46 55 47 56 61 58
REMARK SMILES IDX 82 59 49 60 33 61 34 62 42 63 35 64 41 65 43 66 40 67 36 68
REMARK SMILES IDX 37 69 38 70 39 71 65 72 66 73 74 74 67 75 73 76 75 77 72 78
REMARK SMILES IDX 68 79 69 80 70 81 71 82 50 83 51 84 59 85 52 86 58 87 60 88
REMARK SMILES IDX 57 89 53 90 54 91 55 92 56 93
REMARK H PARENT 17 5 10 14 7 22 21 27 80 46 48 57
REMARK Flexibility Score: inf
ROOT
ATOM      1  C   UNL A   1      32.113  30.113  26.190  1.00  0.00     0.117 C 
ENDROOT
BRANCH   1   2
ATOM      2  N   UNL A   1      31.769  30.059  24.776  1.00  0.00    -0.356 N 
ATOM      3  C   UNL A   1      31.232  29.074  24.007  1.00  0.00     0.223 C 
ATOM      4  O   UNL A   1      31.156  29.274  22.793  1.00  0.00    -0.275 OA
ATOM      5  H   UNL A   1      31.960  30.891  24.285  1.00  0.00     0.163 HD
BRANCH   3   6
ATOM      6  C   UNL A   1      30.616  27.829  24.620  1.00  0.00     0.080 C 
ATOM      7  C   UNL A   1      31.253  25.456  24.577  1.00  0.00     0.084 C 
ATOM      8  C   UNL A   1      29.909  25.611  23.850  1.00  0.00     0.026 C 
ATOM      9  C   UNL A   1      31.729  26.851  24.907  1.00  0.00     0.038 C 
ATOM     10  C   UNL A   1      29.557  27.097  23.819  1.00  0.00     0.015 C 
BRANCH   7  11
ATOM     11  N   UNL A   1      31.182  24.598  25.739  1.00  0.00    -0.335 N 
ATOM     12  C   UNL A   1      31.926  23.581  26.211  1.00  0.00     0.317 C 
ATOM     13  O   UNL A   1      31.630  23.217  27.357  1.00  0.00    -0.249 OA
ATOM     14  H   UNL A   1      30.412  24.805  26.316  1.00  0.00     0.165 HD
BRANCH  12  15
ATOM     15  N   UNL A   1      32.988  23.033  25.542  1.00  0.00    -0.325 N 
ATOM     16  C   UNL A   1      34.287  23.501  26.017  1.00  0.00     0.148 C 
BRANCH  15  17
ATOM     17  C   UNL A   1      33.056  22.105  24.394  1.00  0.00     0.155 C 
BRANCH  17  18
ATOM     18  C   UNL A   1      32.857  20.573  24.555  1.00  0.00     0.077 C 
ATOM     19  C   UNL A   1      32.306  19.788  23.369  1.00  0.00     0.043 C 
ATOM     20  C   UNL A   1      34.226  19.979  24.953  1.00  0.00     0.043 C 
BRANCH  18  21
ATOM     21  O   UNL A   1      31.966  20.365  25.664  1.00  0.00    -0.389 OA
ATOM     22  H   UNL A   1      32.256  19.590  26.170  1.00  0.00     0.211 HD
ENDBRANCH  18  21
ENDBRANCH  17  18
ENDBRANCH  15  17
ENDBRANCH  12  15
ENDBRANCH   7  11
ENDBRANCH   3   6
ENDBRANCH   1   2
BRANCH   1  23
ATOM     23  C   UNL A   1      31.745  31.457  26.790  1.00  0.00     0.042 C 
BRANCH  23  24
ATOM     24  C   UNL A   1      32.947  32.215  27.327  1.00  0.00     0.118 C 
BRANCH  24  25
ATOM     25  N   UNL A   1      32.669  33.629  27.542  1.00  0.00    -0.352 N 
ATOM     26  C   UNL A   1      33.185  34.480  28.489  1.00  0.00     0.251 C 
ATOM     27  H   UNL A   1      32.019  34.031  26.921  1.00  0.00     0.163 HD
ATOM     28  O   UNL A   1      32.682  35.590  28.646  1.00  0.00    -0.269 OA
BRANCH  26  29
ATOM     29  C   UNL A   1      34.313  34.033  29.336  1.00  0.00     0.039 A 
ATOM     30  C   UNL A   1      34.062  33.177  30.409  1.00  0.00     0.014 A 
ATOM     31  C   UNL A   1      35.621  34.429  29.046  1.00  0.00     0.014 A 
ATOM     32  C   UNL A   1      35.132  32.654  31.137  1.00  0.00     0.010 A 
ATOM     33  C   UNL A   1      36.687  33.820  29.697  1.00  0.00     0.010 A 
ATOM     34  C   UNL A   1      36.457  32.931  30.756  1.00  0.00    -0.014 A 
BRANCH  34  35
ATOM     35  C   UNL A   1      37.614  32.322  31.464  1.00  0.00     0.031 A 
ATOM     36  C   UNL A   1      38.355  31.173  30.831  1.00  0.00     0.074 A 
ATOM     37  C   UNL A   1      37.959  32.759  32.691  1.00  0.00     0.049 A 
ATOM     38  N   UNL A   1      39.323  30.443  31.321  1.00  0.00    -0.248 NA
ATOM     39  C   UNL A   1      37.927  30.772  29.481  1.00  0.00     0.031 C 
ATOM     40  C   UNL A   1      37.291  33.837  33.426  1.00  0.00     0.029 A 
ATOM     41  N   UNL A   1      38.951  32.347  33.546  1.00  0.00    -0.354 N 
ATOM     42  C   UNL A   1      39.618  29.499  30.342  1.00  0.00     0.074 A 
ATOM     43  C   UNL A   1      38.667  29.697  29.270  1.00  0.00     0.031 C 
ATOM     44  C   UNL A   1      37.910  34.018  34.603  1.00  0.00     0.029 A 
ATOM     45  C   UNL A   1      38.980  33.036  34.737  1.00  0.00     0.049 A 
ATOM     46  H   UNL A   1      39.584  31.626  33.327  1.00  0.00     0.167 HD
ATOM     47  C   UNL A   1      40.612  28.577  30.322  1.00  0.00     0.034 A 
ATOM     48  C   UNL A   1      39.768  32.882  35.821  1.00  0.00     0.034 A 
ATOM     49  C   UNL A   1      41.555  28.395  31.396  1.00  0.00     0.049 A 
ATOM     50  C   UNL A   1      40.835  31.814  35.795  1.00  0.00     0.074 A 
ATOM     51  C   UNL A   1      42.614  27.507  31.471  1.00  0.00     0.029 A 
ATOM     52  N   UNL A   1      41.553  29.112  32.586  1.00  0.00    -0.354 N 
ATOM     53  N   UNL A   1      41.124  30.957  34.843  1.00  0.00    -0.248 NA
ATOM     54  C   UNL A   1      41.691  31.703  36.983  1.00  0.00     0.031 C 
ATOM     55  C   UNL A   1      43.209  27.642  32.730  1.00  0.00     0.029 A 
ATOM     56  C   UNL A   1      42.577  28.671  33.409  1.00  0.00     0.049 A 
ATOM     57  H   UNL A   1      40.918  29.830  32.810  1.00  0.00     0.167 HD
ATOM     58  C   UNL A   1      42.218  30.231  35.305  1.00  0.00     0.074 A 
ATOM     59  C   UNL A   1      42.549  30.765  36.609  1.00  0.00     0.031 C 
ATOM     60  C   UNL A   1      42.894  29.216  34.708  1.00  0.00     0.034 A 
BRANCH  47  61
ATOM     61  C   UNL A   1      40.715  27.697  29.099  1.00  0.00     0.023 A 
ATOM     62  C   UNL A   1      41.658  27.955  28.089  1.00  0.00     0.031 A 
ATOM     63  C   UNL A   1      39.852  26.600  28.927  1.00  0.00     0.131 A 
ATOM     64  C   UNL A   1      41.667  27.177  26.922  1.00  0.00     0.055 A 
ATOM     65  C   UNL A   1      39.924  25.776  27.802  1.00  0.00     0.041 A 
ATOM     66  F   UNL A   1      38.915  26.317  29.845  1.00  0.00    -0.206 F 
ATOM     67  C   UNL A   1      40.826  26.072  26.783  1.00  0.00     0.022 A 
BRANCH  64  68
ATOM     68  S   UNL A   1      42.691  27.723  25.528  1.00  0.00     0.124 S 
ATOM     69  O   UNL A   1      43.968  27.989  26.188  1.00  0.00    -0.237 OA
ATOM     70  O   UNL A   1      42.660  26.567  24.641  1.00  0.00    -0.237 OA
ATOM     71  O   UNL A   1      41.995  28.909  25.035  1.00  0.00    -0.744 OA
ENDBRANCH  64  68
ENDBRANCH  47  61
BRANCH  48  72
ATOM     72  C   UNL A   1      39.575  33.734  37.032  1.00  0.00     0.023 A 
ATOM     73  C   UNL A   1      40.396  34.848  37.274  1.00  0.00     0.031 A 
ATOM     74  C   UNL A   1      38.615  33.404  38.006  1.00  0.00     0.131 A 
ATOM     75  C   UNL A   1      40.289  35.547  38.487  1.00  0.00     0.055 A 
ATOM     76  C   UNL A   1      38.467  34.145  39.181  1.00  0.00     0.041 A 
ATOM     77  F   UNL A   1      37.801  32.350  37.829  1.00  0.00    -0.206 F 
ATOM     78  C   UNL A   1      39.320  35.213  39.435  1.00  0.00     0.022 A 
BRANCH  75  79
ATOM     79  S   UNL A   1      41.524  36.823  38.862  1.00  0.00     0.124 S 
ATOM     80  O   UNL A   1      42.201  36.965  37.578  1.00  0.00    -0.237 OA
ATOM     81  O   UNL A   1      40.684  37.943  39.273  1.00  0.00    -0.237 OA
ATOM     82  O   UNL A   1      42.321  36.220  39.927  1.00  0.00    -0.744 OA
ENDBRANCH  75  79
ENDBRANCH  48  72
BRANCH  60  83
ATOM     83  C   UNL A   1      44.092  28.661  35.440  1.00  0.00     0.023 A 
ATOM     84  C   UNL A   1      43.981  27.589  36.342  1.00  0.00     0.031 A 
ATOM     85  C   UNL A   1      45.365  29.221  35.233  1.00  0.00     0.131 A 
ATOM     86  C   UNL A   1      45.111  27.153  37.050  1.00  0.00     0.055 A 
ATOM     87  C   UNL A   1      46.498  28.738  35.888  1.00  0.00     0.041 A 
ATOM     88  F   UNL A   1      45.530  30.248  34.383  1.00  0.00    -0.206 F 
ATOM     89  C   UNL A   1      46.372  27.707  36.815  1.00  0.00     0.022 A 
BRANCH  86  90
ATOM     90  S   UNL A   1      44.893  25.917  38.359  1.00  0.00     0.124 S 
ATOM     91  O   UNL A   1      44.058  24.919  37.698  1.00  0.00    -0.237 OA
ATOM     92  O   UNL A   1      46.266  25.514  38.640  1.00  0.00    -0.237 OA
ATOM     93  O   UNL A   1      44.235  26.663  39.430  1.00  0.00    -0.744 OA
ENDBRANCH  86  90
ENDBRANCH  60  83
ENDBRANCH  34  35
ENDBRANCH  26  29
ENDBRANCH  24  25
ENDBRANCH  23  24
ENDBRANCH   1  23
TORSDOF 18
ENDMDL
MODEL 2
REMARK VINA RESULT:     -11.2      2.786      3.587
REMARK SMILES CN(CC(C)(C)O)C(=O)N[C@H]1CC[C@H](C(=O)NCCCNC(=O)c2ccc(-c3c4nc(c(-c5cc(S(=O)(=O)[O-])ccc5F)c5ccc([nH]5)c(-c5cc(S(=O)(=O)[O-])ccc5F)c5nc(c(-c6cc(S(=O)(=O)[O-])ccc6F)c6ccc3[nH]6)C=C5)C=C4)cc2)C1
REMARK SMILES IDX 18 1 17 2 15 3 16 4 14 6 11 7 12 8 87 9 13 10 10 11 8 12
REMARK SMILES IDX 9 13 2 15 1 16 3 17 4 18 5 19 6 20 7 21 19 23 20 24 21 25
REMARK SMILES IDX 22 26 23 28 24 29 25 30 86 31 26 32 85 33 27 34 28 35 29 36
REMARK SMILES IDX 79 37 30 38 84 39 78 40 80 41 31 42 83 43 77 44 76 45 32 47
REMARK SMILES IDX 64 48 44 49 63 50 45 51 48 52 62 53 81 54 46 55 47 56 61 58
REMARK SMILES IDX 82 59 49 60 33 61 34 62 42 63 35 64 41 65 43 66 40 67 36 68
REMARK SMILES IDX 37 69 38 70 39 71 65 72 66 73 74 74 67 75 73 76 75 77 72 78
REMARK SMILES IDX 68 79 69 80 70 81 71 82 50 83 51 84 59 85 52 86 58 87 60 88
REMARK SMILES IDX 57 89 53 90 54 91 55 92 56 93
REMARK H PARENT 17 5 10 14 7 22 21 27 80 46 48 57
REMARK Flexibility Score: inf
ROOT
ATOM      1  C   UNL A   1      31.586  27.351  24.470  1.00  0.00     0.117 C 
ENDROOT
BRANCH   1   2
ATOM      2  N   UNL A   1      32.467  27.189  23.322  1.00  0.00    -0.356 N 
ATOM      3  C   UNL A   1      33.339  26.205  22.976  1.00  0.00     0.223 C 
ATOM      4  O   UNL A   1      34.050  26.393  21.986  1.00  0.00    -0.275 OA
ATOM      5  H   UNL A   1      32.423  27.932  22.676  1.00  0.00     0.163 HD
BRANCH   3   6
ATOM      6  C   UNL A   1      33.350  24.863  23.685  1.00  0.00     0.080 C 
ATOM      7  C   UNL A   1      35.095  23.631  24.902  1.00  0.00     0.084 C 
ATOM      8  C   UNL A   1      34.715  22.826  23.651  1.00  0.00     0.026 C 
ATOM      9  C   UNL A   1      34.346  24.941  24.816  1.00  0.00     0.038 C 
ATOM     10  C   UNL A   1      33.684  23.632  22.864  1.00  0.00     0.015 C 
BRANCH   7  11
ATOM     11  N   UNL A   1      34.845  22.923  26.139  1.00  0.00    -0.335 N 
ATOM     12  C   UNL A   1      33.880  22.094  26.576  1.00  0.00     0.317 C 
ATOM     13  O   UNL A   1      34.126  21.543  27.657  1.00  0.00    -0.249 OA
ATOM     14  H   UNL A   1      35.540  23.087  26.816  1.00  0.00     0.165 HD
BRANCH  12  15
ATOM     15  N   UNL A   1      32.749  21.791  25.865  1.00  0.00    -0.325 N 
ATOM     16  C   UNL A   1      31.651  22.729  26.076  1.00  0.00     0.148 C 
BRANCH  15  17
ATOM     17  C   UNL A   1      32.421  20.658  24.973  1.00  0.00     0.155 C 
BRANCH  17  18
ATOM     18  C   UNL A   1      33.016  19.239  25.185  1.00  0.00     0.077 C 
ATOM     19  C   UNL A   1      32.357  18.066  24.466  1.00  0.00     0.043 C 
ATOM     20  C   UNL A   1      34.503  19.307  24.770  1.00  0.00     0.043 C 
BRANCH  18  21
ATOM     21  O   UNL A   1      32.982  18.959  26.594  1.00  0.00    -0.389 OA
ATOM     22  H   UNL A   1      32.081  19.089  26.928  1.00  0.00     0.211 HD
ENDBRANCH  18  21
ENDBRANCH  17  18
ENDBRANCH  15  17
ENDBRANCH  12  15
ENDBRANCH   7  11
ENDBRANCH   3   6
ENDBRANCH   1   2
BRANCH   1  23
ATOM     23  C   UNL A   1      32.320  27.985  25.637  1.00  0.00     0.042 C 
BRANCH  23  24
ATOM     24  C   UNL A   1      33.085  29.239  25.245  1.00  0.00     0.118 C 
BRANCH  24  25
ATOM     25  N   UNL A   1      32.519  30.446  25.830  1.00  0.00    -0.352 N 
ATOM     26  C   UNL A   1      32.969  31.185  26.898  1.00  0.00     0.251 C 
ATOM     27  H   UNL A   1      31.700  30.781  25.400  1.00  0.00     0.163 HD
ATOM     28  O   UNL A   1      32.250  32.060  27.377  1.00  0.00    -0.269 OA
BRANCH  26  29
ATOM     29  C   UNL A   1      34.294  30.888  27.486  1.00  0.00     0.039 A 
ATOM     30  C   UNL A   1      35.222  31.920  27.629  1.00  0.00     0.014 A 
ATOM     31  C   UNL A   1      34.602  29.600  27.931  1.00  0.00     0.014 A 
ATOM     32  C   UNL A   1      36.425  31.676  28.294  1.00  0.00     0.010 A 
ATOM     33  C   UNL A   1      35.747  29.388  28.689  1.00  0.00     0.010 A 
ATOM     34  C   UNL A   1      36.678  30.420  28.874  1.00  0.00    -0.014 A 
BRANCH  34  35
ATOM     35  C   UNL A   1      37.914  30.158  29.656  1.00  0.00     0.031 A 
ATOM     36  C   UNL A   1      38.950  29.206  29.117  1.00  0.00     0.074 A 
ATOM     37  C   UNL A   1      38.078  30.726  30.867  1.00  0.00     0.049 A 
ATOM     38  N   UNL A   1      40.046  28.769  29.682  1.00  0.00    -0.248 NA
ATOM     39  C   UNL A   1      38.703  28.647  27.778  1.00  0.00     0.031 C 
ATOM     40  C   UNL A   1      37.126  31.633  31.515  1.00  0.00     0.029 A 
ATOM     41  N   UNL A   1      39.099  30.619  31.779  1.00  0.00    -0.354 N 
ATOM     42  C   UNL A   1      40.615  27.886  28.771  1.00  0.00     0.074 A 
ATOM     43  C   UNL A   1      39.699  27.786  27.656  1.00  0.00     0.031 C 
ATOM     44  C   UNL A   1      37.621  32.020  32.700  1.00  0.00     0.029 A 
ATOM     45  C   UNL A   1      38.896  31.348  32.929  1.00  0.00     0.049 A 
ATOM     46  H   UNL A   1      39.903  30.072  31.624  1.00  0.00     0.167 HD
ATOM     47  C   UNL A   1      41.808  27.246  28.839  1.00  0.00     0.034 A 
ATOM     48  C   UNL A   1      39.643  31.450  34.047  1.00  0.00     0.034 A 
ATOM     49  C   UNL A   1      42.714  27.359  29.954  1.00  0.00     0.049 A 
ATOM     50  C   UNL A   1      40.945  30.687  34.120  1.00  0.00     0.074 A 
ATOM     51  C   UNL A   1      43.956  26.773  30.118  1.00  0.00     0.029 A 
ATOM     52  N   UNL A   1      42.474  28.108  31.100  1.00  0.00    -0.354 N 
ATOM     53  N   UNL A   1      41.486  29.887  33.230  1.00  0.00    -0.248 NA
ATOM     54  C   UNL A   1      41.742  30.851  35.342  1.00  0.00     0.031 C 
ATOM     55  C   UNL A   1      44.437  27.113  31.387  1.00  0.00     0.029 A 
ATOM     56  C   UNL A   1      43.534  27.979  31.983  1.00  0.00     0.049 A 
ATOM     57  H   UNL A   1      41.669  28.651  31.260  1.00  0.00     0.167 HD
ATOM     58  C   UNL A   1      42.703  29.485  33.772  1.00  0.00     0.074 A 
ATOM     59  C   UNL A   1      42.825  30.145  35.054  1.00  0.00     0.031 C 
ATOM     60  C   UNL A   1      43.640  28.646  33.258  1.00  0.00     0.034 A 
BRANCH  47  61
ATOM     61  C   UNL A   1      42.189  26.364  27.673  1.00  0.00     0.023 A 
ATOM     62  C   UNL A   1      41.728  25.038  27.578  1.00  0.00     0.031 A 
ATOM     63  C   UNL A   1      43.034  26.840  26.655  1.00  0.00     0.131 A 
ATOM     64  C   UNL A   1      42.175  24.214  26.535  1.00  0.00     0.055 A 
ATOM     65  C   UNL A   1      43.404  26.041  25.572  1.00  0.00     0.041 A 
ATOM     66  F   UNL A   1      43.524  28.089  26.702  1.00  0.00    -0.206 F 
ATOM     67  C   UNL A   1      42.986  24.713  25.515  1.00  0.00     0.022 A 
BRANCH  64  68
ATOM     68  S   UNL A   1      41.797  22.442  26.613  1.00  0.00     0.124 S 
ATOM     69  O   UNL A   1      40.336  22.455  26.669  1.00  0.00    -0.237 OA
ATOM     70  O   UNL A   1      42.383  21.939  25.377  1.00  0.00    -0.237 OA
ATOM     71  O   UNL A   1      42.456  22.005  27.842  1.00  0.00    -0.744 OA
ENDBRANCH  64  68
ENDBRANCH  47  61
BRANCH  48  72
ATOM     72  C   UNL A   1      39.184  32.281  35.200  1.00  0.00     0.023 A 
ATOM     73  C   UNL A   1      39.607  33.611  35.349  1.00  0.00     0.031 A 
ATOM     74  C   UNL A   1      38.374  31.733  36.212  1.00  0.00     0.131 A 
ATOM     75  C   UNL A   1      39.278  34.326  36.511  1.00  0.00     0.055 A 
ATOM     76  C   UNL A   1      37.992  32.471  37.334  1.00  0.00     0.041 A 
ATOM     77  F   UNL A   1      37.938  30.466  36.123  1.00  0.00    -0.206 F 
ATOM     78  C   UNL A   1      38.461  33.770  37.498  1.00  0.00     0.022 A 
BRANCH  75  79
ATOM     79  S   UNL A   1      40.041  35.951  36.775  1.00  0.00     0.124 S 
ATOM     80  O   UNL A   1      41.445  35.594  36.945  1.00  0.00    -0.237 OA
ATOM     81  O   UNL A   1      39.701  36.647  35.538  1.00  0.00    -0.237 OA
ATOM     82  O   UNL A   1      39.372  36.449  37.974  1.00  0.00    -0.744 OA
ENDBRANCH  75  79
ENDBRANCH  48  72
BRANCH  60  83
ATOM     83  C   UNL A   1      44.902  28.448  34.063  1.00  0.00     0.023 A 
ATOM     84  C   UNL A   1      46.028  29.272  33.895  1.00  0.00     0.031 A 
ATOM     85  C   UNL A   1      44.978  27.409  35.009  1.00  0.00     0.131 A 
ATOM     86  C   UNL A   1      47.202  29.006  34.616  1.00  0.00     0.055 A 
ATOM     87  C   UNL A   1      46.125  27.192  35.773  1.00  0.00     0.041 A 
ATOM     88  F   UNL A   1      43.933  26.590  35.210  1.00  0.00    -0.206 F 
ATOM     89  C   UNL A   1      47.251  27.984  35.569  1.00  0.00     0.022 A 
BRANCH  86  90
ATOM     90  S   UNL A   1      48.698  29.951  34.222  1.00  0.00     0.124 S 
ATOM     91  O   UNL A   1      48.602  30.079  32.771  1.00  0.00    -0.237 OA
ATOM     92  O   UNL A   1      48.502  31.179  34.984  1.00  0.00    -0.237 OA
ATOM     93  O   UNL A   1      49.781  29.093  34.698  1.00  0.00    -0.744 OA
ENDBRANCH  86  90
ENDBRANCH  60  83
ENDBRANCH  34  35
ENDBRANCH  26  29
ENDBRANCH  24  25
ENDBRANCH  23  24
ENDBRANCH   1  23
TORSDOF 18
ENDMDL
MODEL 3
REMARK VINA RESULT:     -11.2      2.392      3.305
REMARK SMILES CN(CC(C)(C)O)C(=O)N[C@H]1CC[C@H](C(=O)NCCCNC(=O)c2ccc(-c3c4nc(c(-c5cc(S(=O)(=O)[O-])ccc5F)c5ccc([nH]5)c(-c5cc(S(=O)(=O)[O-])ccc5F)c5nc(c(-c6cc(S(=O)(=O)[O-])ccc6F)c6ccc3[nH]6)C=C5)C=C4)cc2)C1
REMARK SMILES IDX 18 1 17 2 15 3 16 4 14 6 11 7 12 8 87 9 13 10 10 11 8 12
REMARK SMILES IDX 9 13 2 15 1 16 3 17 4 18 5 19 6 20 7 21 19 23 20 24 21 25
REMARK SMILES IDX 22 26 23 28 24 29 25 30 86 31 26 32 85 33 27 34 28 35 29 36
REMARK SMILES IDX 79 37 30 38 84 39 78 40 80 41 31 42 83 43 77 44 76 45 32 47
REMARK SMILES IDX 64 48 44 49 63 50 45 51 48 52 62 53 81 54 46 55 47 56 61 58
REMARK SMILES IDX 82 59 49 60 33 61 34 62 42 63 35 64 41 65 43 66 40 67 36 68
REMARK SMILES IDX 37 69 38 70 39 71 65 72 66 73 74 74 67 75 73 76 75 77 72 78
REMARK SMILES IDX 68 79 69 80 70 81 71 82 50 83 51 84 59 85 52 86 58 87 60 88
REMARK SMILES IDX 57 89 53 90 54 91 55 92 56 93
REMARK H PARENT 17 5 10 14 7 22 21 27 80 46 48 57
REMARK Flexibility Score: inf
ROOT
ATOM      1  C   UNL A   1      34.020  28.223  23.271  1.00  0.00     0.117 C 
ENDROOT
BRANCH   1   2
ATOM      2  N   UNL A   1      33.581  27.520  22.074  1.00  0.00    -0.356 N 
ATOM      3  C   UNL A   1      33.320  26.207  21.834  1.00  0.00     0.223 C 
ATOM      4  O   UNL A   1      33.072  25.876  20.673  1.00  0.00    -0.275 OA
ATOM      5  H   UNL A   1      33.449  28.104  21.292  1.00  0.00     0.163 HD
BRANCH   3   6
ATOM      6  C   UNL A   1      33.197  25.199  22.963  1.00  0.00     0.080 C 
ATOM      7  C   UNL A   1      32.044  23.036  23.152  1.00  0.00     0.084 C 
ATOM      8  C   UNL A   1      31.389  24.023  24.130  1.00  0.00     0.026 C 
ATOM      9  C   UNL A   1      33.050  23.828  22.349  1.00  0.00     0.038 C 
ATOM     10  C   UNL A   1      32.064  25.382  23.954  1.00  0.00     0.015 C 
BRANCH   7  11
ATOM     11  N   UNL A   1      32.628  21.884  23.803  1.00  0.00    -0.335 N 
ATOM     12  C   UNL A   1      33.520  21.709  24.796  1.00  0.00     0.317 C 
ATOM     13  O   UNL A   1      33.624  20.541  25.193  1.00  0.00    -0.249 OA
ATOM     14  H   UNL A   1      32.299  21.033  23.435  1.00  0.00     0.165 HD
BRANCH  12  15
ATOM     15  N   UNL A   1      34.203  22.730  25.402  1.00  0.00    -0.325 N 
ATOM     16  C   UNL A   1      33.632  23.144  26.680  1.00  0.00     0.148 C 
BRANCH  15  17
ATOM     17  C   UNL A   1      35.372  23.525  24.970  1.00  0.00     0.155 C 
BRANCH  17  18
ATOM     18  C   UNL A   1      36.716  22.863  24.559  1.00  0.00     0.077 C 
ATOM     19  C   UNL A   1      37.000  21.444  25.042  1.00  0.00     0.043 C 
ATOM     20  C   UNL A   1      36.778  22.885  23.015  1.00  0.00     0.043 C 
BRANCH  18  21
ATOM     21  O   UNL A   1      37.779  23.705  25.036  1.00  0.00    -0.389 OA
ATOM     22  H   UNL A   1      38.620  23.414  24.650  1.00  0.00     0.211 HD
ENDBRANCH  18  21
ENDBRANCH  17  18
ENDBRANCH  15  17
ENDBRANCH  12  15
ENDBRANCH   7  11
ENDBRANCH   3   6
ENDBRANCH   1   2
BRANCH   1  23
ATOM     23  C   UNL A   1      32.863  28.949  23.933  1.00  0.00     0.042 C 
BRANCH  23  24
ATOM     24  C   UNL A   1      33.044  29.108  25.433  1.00  0.00     0.118 C 
BRANCH  24  25
ATOM     25  N   UNL A   1      32.546  30.385  25.925  1.00  0.00    -0.352 N 
ATOM     26  C   UNL A   1      33.050  31.187  26.921  1.00  0.00     0.251 C 
ATOM     27  H   UNL A   1      31.734  30.722  25.482  1.00  0.00     0.163 HD
ATOM     28  O   UNL A   1      32.383  32.131  27.337  1.00  0.00    -0.269 OA
BRANCH  26  29
ATOM     29  C   UNL A   1      34.372  30.877  27.509  1.00  0.00     0.039 A 
ATOM     30  C   UNL A   1      35.296  31.908  27.691  1.00  0.00     0.014 A 
ATOM     31  C   UNL A   1      34.682  29.577  27.916  1.00  0.00     0.014 A 
ATOM     32  C   UNL A   1      36.495  31.647  28.357  1.00  0.00     0.010 A 
ATOM     33  C   UNL A   1      35.823  29.345  28.677  1.00  0.00     0.010 A 
ATOM     34  C   UNL A   1      36.747  30.375  28.900  1.00  0.00    -0.014 A 
BRANCH  34  35
ATOM     35  C   UNL A   1      37.979  30.094  29.683  1.00  0.00     0.031 A 
ATOM     36  C   UNL A   1      39.013  29.146  29.133  1.00  0.00     0.074 A 
ATOM     37  C   UNL A   1      38.140  30.639  30.905  1.00  0.00     0.049 A 
ATOM     38  N   UNL A   1      40.104  28.694  29.695  1.00  0.00    -0.248 NA
ATOM     39  C   UNL A   1      38.769  28.612  27.783  1.00  0.00     0.031 C 
ATOM     40  C   UNL A   1      37.190  31.539  31.564  1.00  0.00     0.029 A 
ATOM     41  N   UNL A   1      39.157  30.511  31.819  1.00  0.00    -0.354 N 
ATOM     42  C   UNL A   1      40.673  27.824  28.770  1.00  0.00     0.074 A 
ATOM     43  C   UNL A   1      39.762  27.748  27.650  1.00  0.00     0.031 C 
ATOM     44  C   UNL A   1      37.681  31.903  32.758  1.00  0.00     0.029 A 
ATOM     45  C   UNL A   1      38.952  31.221  32.981  1.00  0.00     0.049 A 
ATOM     46  H   UNL A   1      39.958  29.964  31.659  1.00  0.00     0.167 HD
ATOM     47  C   UNL A   1      41.863  27.177  28.832  1.00  0.00     0.034 A 
ATOM     48  C   UNL A   1      39.694  31.300  34.104  1.00  0.00     0.034 A 
ATOM     49  C   UNL A   1      42.764  27.267  29.954  1.00  0.00     0.049 A 
ATOM     50  C   UNL A   1      40.992  30.530  34.170  1.00  0.00     0.074 A 
ATOM     51  C   UNL A   1      44.003  26.672  30.113  1.00  0.00     0.029 A 
ATOM     52  N   UNL A   1      42.523  27.996  31.111  1.00  0.00    -0.354 N 
ATOM     53  N   UNL A   1      41.533  29.743  33.268  1.00  0.00    -0.248 NA
ATOM     54  C   UNL A   1      41.784  30.669  35.398  1.00  0.00     0.031 C 
ATOM     55  C   UNL A   1      44.480  26.987  31.390  1.00  0.00     0.029 A 
ATOM     56  C   UNL A   1      43.578  27.847  31.997  1.00  0.00     0.049 A 
ATOM     57  H   UNL A   1      41.719  28.540  31.277  1.00  0.00     0.167 HD
ATOM     58  C   UNL A   1      42.746  29.325  33.808  1.00  0.00     0.074 A 
ATOM     59  C   UNL A   1      42.865  29.963  35.102  1.00  0.00     0.031 C 
ATOM     60  C   UNL A   1      43.682  28.492  33.284  1.00  0.00     0.034 A 
BRANCH  47  61
ATOM     61  C   UNL A   1      42.245  26.314  27.653  1.00  0.00     0.023 A 
ATOM     62  C   UNL A   1      41.744  25.008  27.510  1.00  0.00     0.031 A 
ATOM     63  C   UNL A   1      43.132  26.788  26.671  1.00  0.00     0.131 A 
ATOM     64  C   UNL A   1      42.190  24.196  26.457  1.00  0.00     0.055 A 
ATOM     65  C   UNL A   1      43.504  26.005  25.576  1.00  0.00     0.041 A 
ATOM     66  F   UNL A   1      43.662  28.018  26.764  1.00  0.00    -0.206 F 
ATOM     67  C   UNL A   1      43.044  24.695  25.472  1.00  0.00     0.022 A 
BRANCH  64  68
ATOM     68  S   UNL A   1      41.751  22.437  26.478  1.00  0.00     0.124 S 
ATOM     69  O   UNL A   1      42.135  22.054  27.835  1.00  0.00    -0.237 OA
ATOM     70  O   UNL A   1      40.320  22.464  26.204  1.00  0.00    -0.237 OA
ATOM     71  O   UNL A   1      42.580  21.864  25.419  1.00  0.00    -0.744 OA
ENDBRANCH  64  68
ENDBRANCH  47  61
BRANCH  48  72
ATOM     72  C   UNL A   1      39.234  32.113  35.269  1.00  0.00     0.023 A 
ATOM     73  C   UNL A   1      39.638  33.448  35.426  1.00  0.00     0.031 A 
ATOM     74  C   UNL A   1      38.443  31.543  36.283  1.00  0.00     0.131 A 
ATOM     75  C   UNL A   1      39.309  34.147  36.599  1.00  0.00     0.055 A 
ATOM     76  C   UNL A   1      38.060  32.265  37.416  1.00  0.00     0.041 A 
ATOM     77  F   UNL A   1      38.024  30.271  36.187  1.00  0.00    -0.206 F 
ATOM     78  C   UNL A   1      38.510  33.569  37.588  1.00  0.00     0.022 A 
BRANCH  75  79
ATOM     79  S   UNL A   1      40.050  35.781  36.870  1.00  0.00     0.124 S 
ATOM     80  O   UNL A   1      41.468  35.452  36.950  1.00  0.00    -0.237 OA
ATOM     81  O   UNL A   1      39.625  36.506  35.677  1.00  0.00    -0.237 OA
ATOM     82  O   UNL A   1      39.438  36.227  38.120  1.00  0.00    -0.744 OA
ENDBRANCH  75  79
ENDBRANCH  48  72
BRANCH  60  83
ATOM     83  C   UNL A   1      44.939  28.273  34.091  1.00  0.00     0.023 A 
ATOM     84  C   UNL A   1      45.060  27.213  35.005  1.00  0.00     0.031 A 
ATOM     85  C   UNL A   1      46.030  29.148  33.944  1.00  0.00     0.131 A 
ATOM     86  C   UNL A   1      46.222  27.091  35.782  1.00  0.00     0.055 A 
ATOM     87  C   UNL A   1      47.211  28.981  34.670  1.00  0.00     0.041 A 
ATOM     88  F   UNL A   1      45.970  30.180  33.086  1.00  0.00    -0.206 F 
ATOM     89  C   UNL A   1      47.305  27.956  35.606  1.00  0.00     0.022 A 
BRANCH  86  90
ATOM     90  S   UNL A   1      46.260  25.846  37.099  1.00  0.00     0.124 S 
ATOM     91  O   UNL A   1      46.856  24.701  36.417  1.00  0.00    -0.237 OA
ATOM     92  O   UNL A   1      47.091  26.487  38.113  1.00  0.00    -0.237 OA
ATOM     93  O   UNL A   1      44.853  25.687  37.463  1.00  0.00    -0.744 OA
ENDBRANCH  86  90
ENDBRANCH  60  83
ENDBRANCH  34  35
ENDBRANCH  26  29
ENDBRANCH  24  25
ENDBRANCH  23  24
ENDBRANCH   1  23
TORSDOF 18
ENDMDL
