MODEL 1
REMARK VINA RESULT:     -11.5      0.000      0.000
REMARK SMILES O=C(COc1ccc(S(=O)(=O)NC[C@@H]2CCCO2)cc1)NCCCNC(=O)c1ccc(-c2c3nc(c(-c4cc(S(=O)(=O)[O-])ccc4F)c4ccc([nH]4)c(-c4cc(S(=O)(=O)[O-])ccc4F)c4nc(c(-c5cc(S(=O)(=O)[O-])ccc5F)c5ccc2[nH]5)C=C4)C=C3)cc1
REMARK SMILES IDX 1 1 2 2 21 3 3 5 4 6 5 7 6 8 20 9 7 10 19 11 8 12 9 13 10 14
REMARK SMILES IDX 11 15 12 16 13 18 14 19 15 20 18 21 16 22 17 23 22 24 23 25
REMARK SMILES IDX 24 26 25 27 26 28 27 30 28 31 29 32 90 33 30 34 89 35 31 36
REMARK SMILES IDX 32 37 33 38 83 39 34 40 88 41 82 42 84 43 35 44 87 45 81 46
REMARK SMILES IDX 80 47 36 49 68 50 48 51 67 52 49 53 52 54 66 55 85 56 50 57
REMARK SMILES IDX 51 58 65 60 86 61 53 62 37 63 38 64 46 65 39 66 45 67 47 68
REMARK SMILES IDX 44 69 40 70 41 71 42 72 43 73 69 74 70 75 78 76 71 77 77 78
REMARK SMILES IDX 79 79 76 80 72 81 73 82 74 83 75 84 54 85 55 86 63 87 56 88
REMARK SMILES IDX 62 89 64 90 61 91 57 92 58 93 59 94 60 95
REMARK H PARENT 21 4 12 17 25 29 84 48 52 59
REMARK Flexibility Score: inf
ROOT
ATOM      1  O   UNL A   1      34.371  23.246  26.995  1.00  0.00    -0.271 OA
ATOM      2  C   UNL A   1      33.440  22.797  26.331  1.00  0.00     0.257 C 
ATOM      3  N   UNL A   1      33.605  22.167  25.116  1.00  0.00    -0.353 N 
ATOM      4  H   UNL A   1      32.839  21.696  24.715  1.00  0.00     0.163 HD
ENDROOT
BRANCH   2   5
ATOM      5  C   UNL A   1      31.981  22.946  26.779  1.00  0.00     0.329 C 
BRANCH   5   6
ATOM      6  O   UNL A   1      31.588  24.216  27.283  1.00  0.00    -0.484 OA
BRANCH   6   7
ATOM      7  C   UNL A   1      31.279  25.206  26.389  1.00  0.00     0.120 A 
ATOM      8  C   UNL A   1      30.685  24.752  25.209  1.00  0.00     0.048 A 
ATOM      9  C   UNL A   1      31.573  26.566  26.527  1.00  0.00     0.048 A 
ATOM     10  C   UNL A   1      30.426  25.633  24.158  1.00  0.00     0.025 A 
ATOM     11  C   UNL A   1      31.323  27.456  25.475  1.00  0.00     0.025 A 
ATOM     12  C   UNL A   1      30.769  26.981  24.287  1.00  0.00     0.082 A 
BRANCH  12  13
ATOM     13  S   UNL A   1      30.580  28.031  22.870  1.00  0.00     0.240 S 
ATOM     14  O   UNL A   1      31.440  29.176  23.064  1.00  0.00    -0.207 OA
ATOM     15  O   UNL A   1      30.695  27.187  21.702  1.00  0.00    -0.207 OA
BRANCH  13  16
ATOM     16  N   UNL A   1      28.998  28.561  22.902  1.00  0.00    -0.209 NA
ATOM     17  H   UNL A   1      28.844  28.907  23.849  1.00  0.00     0.141 HD
BRANCH  16  18
ATOM     18  C   UNL A   1      28.447  29.590  22.013  1.00  0.00     0.130 C 
BRANCH  18  19
ATOM     19  C   UNL A   1      28.188  30.945  22.680  1.00  0.00     0.133 C 
ATOM     20  C   UNL A   1      28.552  32.115  21.779  1.00  0.00     0.036 C 
ATOM     21  O   UNL A   1      29.027  31.103  23.846  1.00  0.00    -0.377 OA
ATOM     22  C   UNL A   1      28.761  33.219  22.781  1.00  0.00     0.031 C 
ATOM     23  C   UNL A   1      29.404  32.488  23.943  1.00  0.00     0.160 C 
ENDBRANCH  18  19
ENDBRANCH  16  18
ENDBRANCH  13  16
ENDBRANCH  12  13
ENDBRANCH   6   7
ENDBRANCH   5   6
ENDBRANCH   2   5
BRANCH   3  24
ATOM     24  C   UNL A   1      34.869  22.178  24.413  1.00  0.00     0.117 C 
BRANCH  24  25
ATOM     25  C   UNL A   1      35.850  21.122  24.899  1.00  0.00     0.042 C 
BRANCH  25  26
ATOM     26  C   UNL A   1      37.201  21.676  25.340  1.00  0.00     0.118 C 
BRANCH  26  27
ATOM     27  N   UNL A   1      38.192  20.639  25.599  1.00  0.00    -0.352 N 
ATOM     28  C   UNL A   1      39.458  20.737  26.129  1.00  0.00     0.251 C 
ATOM     29  H   UNL A   1      37.913  19.726  25.355  1.00  0.00     0.163 HD
ATOM     30  O   UNL A   1      40.186  19.747  26.133  1.00  0.00    -0.269 OA
BRANCH  28  31
ATOM     31  C   UNL A   1      39.950  22.029  26.656  1.00  0.00     0.039 A 
ATOM     32  C   UNL A   1      40.892  22.025  27.689  1.00  0.00     0.014 A 
ATOM     33  C   UNL A   1      39.494  23.240  26.131  1.00  0.00     0.014 A 
ATOM     34  C   UNL A   1      41.450  23.231  28.127  1.00  0.00     0.010 A 
ATOM     35  C   UNL A   1      40.100  24.433  26.518  1.00  0.00     0.010 A 
ATOM     36  C   UNL A   1      41.094  24.440  27.509  1.00  0.00    -0.014 A 
BRANCH  36  37
ATOM     37  C   UNL A   1      41.756  25.726  27.858  1.00  0.00     0.031 A 
ATOM     38  C   UNL A   1      40.991  26.787  28.600  1.00  0.00     0.074 A 
ATOM     39  C   UNL A   1      43.004  25.978  27.413  1.00  0.00     0.049 A 
ATOM     40  N   UNL A   1      41.318  28.030  28.839  1.00  0.00    -0.248 NA
ATOM     41  C   UNL A   1      39.666  26.401  29.108  1.00  0.00     0.031 C 
ATOM     42  C   UNL A   1      43.839  25.042  26.659  1.00  0.00     0.029 A 
ATOM     43  N   UNL A   1      43.778  27.109  27.508  1.00  0.00    -0.354 N 
ATOM     44  C   UNL A   1      40.230  28.586  29.504  1.00  0.00     0.074 A 
ATOM     45  C   UNL A   1      39.219  27.553  29.586  1.00  0.00     0.031 C 
ATOM     46  C   UNL A   1      45.008  25.633  26.365  1.00  0.00     0.029 A 
ATOM     47  C   UNL A   1      44.988  27.005  26.861  1.00  0.00     0.049 A 
ATOM     48  H   UNL A   1      43.494  27.917  27.993  1.00  0.00     0.167 HD
ATOM     49  C   UNL A   1      40.094  29.838  30.010  1.00  0.00     0.034 A 
ATOM     50  C   UNL A   1      45.960  27.919  26.664  1.00  0.00     0.034 A 
ATOM     51  C   UNL A   1      41.120  30.849  29.937  1.00  0.00     0.049 A 
ATOM     52  C   UNL A   1      45.779  29.309  27.216  1.00  0.00     0.074 A 
ATOM     53  C   UNL A   1      41.107  32.130  30.463  1.00  0.00     0.029 A 
ATOM     54  N   UNL A   1      42.341  30.698  29.293  1.00  0.00    -0.354 N 
ATOM     55  N   UNL A   1      44.755  29.812  27.865  1.00  0.00    -0.248 NA
ATOM     56  C   UNL A   1      46.886  30.254  27.013  1.00  0.00     0.031 C 
ATOM     57  C   UNL A   1      42.294  32.770  30.091  1.00  0.00     0.029 A 
ATOM     58  C   UNL A   1      43.078  31.869  29.389  1.00  0.00     0.049 A 
ATOM     59  H   UNL A   1      42.639  29.879  28.836  1.00  0.00     0.167 HD
ATOM     60  C   UNL A   1      45.111  31.121  28.179  1.00  0.00     0.074 A 
ATOM     61  C   UNL A   1      46.442  31.329  27.648  1.00  0.00     0.031 C 
ATOM     62  C   UNL A   1      44.404  32.061  28.855  1.00  0.00     0.034 A 
BRANCH  49  63
ATOM     63  C   UNL A   1      38.776  30.182  30.660  1.00  0.00     0.023 A 
ATOM     64  C   UNL A   1      37.808  30.959  29.999  1.00  0.00     0.031 A 
ATOM     65  C   UNL A   1      38.495  29.755  31.969  1.00  0.00     0.131 A 
ATOM     66  C   UNL A   1      36.643  31.351  30.675  1.00  0.00     0.055 A 
ATOM     67  C   UNL A   1      37.297  30.080  32.609  1.00  0.00     0.041 A 
ATOM     68  F   UNL A   1      39.388  29.028  32.658  1.00  0.00    -0.206 F 
ATOM     69  C   UNL A   1      36.370  30.896  31.967  1.00  0.00     0.022 A 
BRANCH  66  70
ATOM     70  S   UNL A   1      35.565  32.582  29.896  1.00  0.00     0.124 S 
ATOM     71  O   UNL A   1      36.347  33.805  30.062  1.00  0.00    -0.237 OA
ATOM     72  O   UNL A   1      35.445  32.079  28.533  1.00  0.00    -0.237 OA
ATOM     73  O   UNL A   1      34.342  32.522  30.695  1.00  0.00    -0.744 OA
ENDBRANCH  66  70
ENDBRANCH  49  63
BRANCH  50  74
ATOM     74  C   UNL A   1      47.181  27.562  25.889  1.00  0.00     0.023 A 
ATOM     75  C   UNL A   1      47.266  27.830  24.514  1.00  0.00     0.031 A 
ATOM     76  C   UNL A   1      48.268  26.918  26.505  1.00  0.00     0.131 A 
ATOM     77  C   UNL A   1      48.395  27.418  23.791  1.00  0.00     0.055 A 
ATOM     78  C   UNL A   1      49.409  26.553  25.790  1.00  0.00     0.041 A 
ATOM     79  F   UNL A   1      48.239  26.645  27.820  1.00  0.00    -0.206 F 
ATOM     80  C   UNL A   1      49.473  26.792  24.421  1.00  0.00     0.022 A 
BRANCH  77  81
ATOM     81  S   UNL A   1      48.405  27.650  21.991  1.00  0.00     0.124 S 
ATOM     82  O   UNL A   1      47.108  28.278  21.766  1.00  0.00    -0.237 OA
ATOM     83  O   UNL A   1      49.572  28.504  21.803  1.00  0.00    -0.237 OA
ATOM     84  O   UNL A   1      48.539  26.290  21.474  1.00  0.00    -0.744 OA
ENDBRANCH  77  81
ENDBRANCH  50  74
BRANCH  62  85
ATOM     85  C   UNL A   1      45.087  33.380  29.111  1.00  0.00     0.023 A 
ATOM     86  C   UNL A   1      45.012  34.446  28.198  1.00  0.00     0.031 A 
ATOM     87  C   UNL A   1      45.817  33.570  30.298  1.00  0.00     0.131 A 
ATOM     88  C   UNL A   1      45.690  35.644  28.471  1.00  0.00     0.055 A 
ATOM     89  C   UNL A   1      46.450  34.779  30.584  1.00  0.00     0.041 A 
ATOM     90  F   UNL A   1      45.920  32.581  31.201  1.00  0.00    -0.206 F 
ATOM     91  C   UNL A   1      46.395  35.822  29.664  1.00  0.00     0.022 A 
BRANCH  88  92
ATOM     92  S   UNL A   1      45.684  36.956  27.218  1.00  0.00     0.124 S 
ATOM     93  O   UNL A   1      44.258  37.224  27.067  1.00  0.00    -0.237 OA
ATOM     94  O   UNL A   1      46.466  38.008  27.861  1.00  0.00    -0.237 OA
ATOM     95  O   UNL A   1      46.324  36.331  26.062  1.00  0.00    -0.744 OA
ENDBRANCH  88  92
ENDBRANCH  62  85
ENDBRANCH  36  37
ENDBRANCH  28  31
ENDBRANCH  26  27
ENDBRANCH  25  26
ENDBRANCH  24  25
ENDBRANCH   3  24
TORSDOF 19
ENDMDL
MODEL 2
REMARK VINA RESULT:     -11.5      5.606     10.937
REMARK SMILES O=C(COc1ccc(S(=O)(=O)NC[C@@H]2CCCO2)cc1)NCCCNC(=O)c1ccc(-c2c3nc(c(-c4cc(S(=O)(=O)[O-])ccc4F)c4ccc([nH]4)c(-c4cc(S(=O)(=O)[O-])ccc4F)c4nc(c(-c5cc(S(=O)(=O)[O-])ccc5F)c5ccc2[nH]5)C=C4)C=C3)cc1
REMARK SMILES IDX 1 1 2 2 21 3 3 5 4 6 5 7 6 8 20 9 7 10 19 11 8 12 9 13 10 14
REMARK SMILES IDX 11 15 12 16 13 18 14 19 15 20 18 21 16 22 17 23 22 24 23 25
REMARK SMILES IDX 24 26 25 27 26 28 27 30 28 31 29 32 90 33 30 34 89 35 31 36
REMARK SMILES IDX 32 37 33 38 83 39 34 40 88 41 82 42 84 43 35 44 87 45 81 46
REMARK SMILES IDX 80 47 36 49 68 50 48 51 67 52 49 53 52 54 66 55 85 56 50 57
REMARK SMILES IDX 51 58 65 60 86 61 53 62 37 63 38 64 46 65 39 66 45 67 47 68
REMARK SMILES IDX 44 69 40 70 41 71 42 72 43 73 69 74 70 75 78 76 71 77 77 78
REMARK SMILES IDX 79 79 76 80 72 81 73 82 74 83 75 84 54 85 55 86 63 87 56 88
REMARK SMILES IDX 62 89 64 90 61 91 57 92 58 93 59 94 60 95
REMARK H PARENT 21 4 12 17 25 29 84 48 52 59
REMARK Flexibility Score: inf
ROOT
ATOM      1  O   UNL A   1      34.209  29.287  25.734  1.00  0.00    -0.271 OA
ATOM      2  C   UNL A   1      33.276  29.299  24.935  1.00  0.00     0.257 C 
ATOM      3  N   UNL A   1      32.066  29.909  25.186  1.00  0.00    -0.353 N 
ATOM      4  H   UNL A   1      31.423  30.015  24.448  1.00  0.00     0.163 HD
ENDROOT
BRANCH   2   5
ATOM      5  C   UNL A   1      33.360  28.581  23.583  1.00  0.00     0.329 C 
BRANCH   5   6
ATOM      6  O   UNL A   1      33.754  27.214  23.602  1.00  0.00    -0.484 OA
BRANCH   6   7
ATOM      7  C   UNL A   1      33.064  26.348  24.406  1.00  0.00     0.120 A 
ATOM      8  C   UNL A   1      33.856  25.666  25.333  1.00  0.00     0.048 A 
ATOM      9  C   UNL A   1      31.700  26.049  24.322  1.00  0.00     0.048 A 
ATOM     10  C   UNL A   1      33.309  24.665  26.137  1.00  0.00     0.025 A 
ATOM     11  C   UNL A   1      31.144  25.040  25.119  1.00  0.00     0.025 A 
ATOM     12  C   UNL A   1      31.956  24.339  26.009  1.00  0.00     0.082 A 
BRANCH  12  13
ATOM     13  S   UNL A   1      31.341  22.950  26.924  1.00  0.00     0.240 S 
ATOM     14  O   UNL A   1      32.358  22.580  27.882  1.00  0.00    -0.207 OA
ATOM     15  O   UNL A   1      29.995  23.281  27.339  1.00  0.00    -0.207 OA
BRANCH  13  16
ATOM     16  N   UNL A   1      31.191  21.707  25.822  1.00  0.00    -0.209 NA
ATOM     17  H   UNL A   1      30.877  22.144  24.956  1.00  0.00     0.141 HD
BRANCH  16  18
ATOM     18  C   UNL A   1      32.281  20.803  25.435  1.00  0.00     0.130 C 
BRANCH  18  19
ATOM     19  C   UNL A   1      33.005  21.187  24.140  1.00  0.00     0.133 C 
ATOM     20  C   UNL A   1      34.292  21.954  24.401  1.00  0.00     0.036 C 
ATOM     21  O   UNL A   1      32.192  22.088  23.354  1.00  0.00    -0.377 OA
ATOM     22  C   UNL A   1      34.487  22.677  23.094  1.00  0.00     0.031 C 
ATOM     23  C   UNL A   1      33.065  23.022  22.697  1.00  0.00     0.160 C 
ENDBRANCH  18  19
ENDBRANCH  16  18
ENDBRANCH  13  16
ENDBRANCH  12  13
ENDBRANCH   6   7
ENDBRANCH   5   6
ENDBRANCH   2   5
BRANCH   3  24
ATOM     24  C   UNL A   1      31.711  30.395  26.501  1.00  0.00     0.117 C 
BRANCH  24  25
ATOM     25  C   UNL A   1      31.572  31.908  26.578  1.00  0.00     0.042 C 
BRANCH  25  26
ATOM     26  C   UNL A   1      32.738  32.611  27.266  1.00  0.00     0.118 C 
BRANCH  26  27
ATOM     27  N   UNL A   1      32.455  34.002  27.600  1.00  0.00    -0.352 N 
ATOM     28  C   UNL A   1      33.044  34.825  28.531  1.00  0.00     0.251 C 
ATOM     29  H   UNL A   1      31.730  34.416  27.078  1.00  0.00     0.163 HD
ATOM     30  O   UNL A   1      32.557  35.933  28.748  1.00  0.00    -0.269 OA
BRANCH  28  31
ATOM     31  C   UNL A   1      34.230  34.369  29.289  1.00  0.00     0.039 A 
ATOM     32  C   UNL A   1      34.050  33.505  30.374  1.00  0.00     0.014 A 
ATOM     33  C   UNL A   1      35.515  34.782  28.931  1.00  0.00     0.014 A 
ATOM     34  C   UNL A   1      35.164  32.977  31.035  1.00  0.00     0.010 A 
ATOM     35  C   UNL A   1      36.623  34.203  29.544  1.00  0.00     0.010 A 
ATOM     36  C   UNL A   1      36.461  33.284  30.592  1.00  0.00    -0.014 A 
BRANCH  36  37
ATOM     37  C   UNL A   1      37.666  32.645  31.186  1.00  0.00     0.031 A 
ATOM     38  C   UNL A   1      38.391  31.565  30.431  1.00  0.00     0.074 A 
ATOM     39  C   UNL A   1      38.040  32.959  32.442  1.00  0.00     0.049 A 
ATOM     40  N   UNL A   1      39.341  30.764  30.838  1.00  0.00    -0.248 NA
ATOM     41  C   UNL A   1      37.961  31.338  29.043  1.00  0.00     0.031 C 
ATOM     42  C   UNL A   1      37.400  33.969  33.288  1.00  0.00     0.029 A 
ATOM     43  N   UNL A   1      39.032  32.442  33.238  1.00  0.00    -0.354 N 
ATOM     44  C   UNL A   1      39.608  29.918  29.766  1.00  0.00     0.074 A 
ATOM     45  C   UNL A   1      38.685  30.278  28.710  1.00  0.00     0.031 C 
ATOM     46  C   UNL A   1      38.019  34.001  34.479  1.00  0.00     0.029 A 
ATOM     47  C   UNL A   1      39.062  32.981  34.504  1.00  0.00     0.049 A 
ATOM     48  H   UNL A   1      39.663  31.752  32.932  1.00  0.00     0.167 HD
ATOM     49  C   UNL A   1      40.545  28.942  29.669  1.00  0.00     0.034 A 
ATOM     50  C   UNL A   1      39.822  32.671  35.573  1.00  0.00     0.034 A 
ATOM     51  C   UNL A   1      41.470  28.609  30.725  1.00  0.00     0.049 A 
ATOM     52  C   UNL A   1      40.843  31.569  35.450  1.00  0.00     0.074 A 
ATOM     53  C   UNL A   1      42.494  27.675  30.712  1.00  0.00     0.029 A 
ATOM     54  N   UNL A   1      41.484  29.193  31.984  1.00  0.00    -0.354 N 
ATOM     55  N   UNL A   1      41.101  30.795  34.421  1.00  0.00    -0.248 NA
ATOM     56  C   UNL A   1      41.677  31.300  36.629  1.00  0.00     0.031 C 
ATOM     57  C   UNL A   1      43.087  27.657  31.979  1.00  0.00     0.029 A 
ATOM     58  C   UNL A   1      42.481  28.625  32.763  1.00  0.00     0.049 A 
ATOM     59  H   UNL A   1      40.874  29.907  32.281  1.00  0.00     0.167 HD
ATOM     60  C   UNL A   1      42.151  29.974  34.819  1.00  0.00     0.074 A 
ATOM     61  C   UNL A   1      42.479  30.345  36.181  1.00  0.00     0.031 C 
ATOM     62  C   UNL A   1      42.794  29.006  34.118  1.00  0.00     0.034 A 
BRANCH  49  63
ATOM     63  C   UNL A   1      40.589  28.150  28.385  1.00  0.00     0.023 A 
ATOM     64  C   UNL A   1      39.949  26.904  28.264  1.00  0.00     0.031 A 
ATOM     65  C   UNL A   1      41.306  28.632  27.276  1.00  0.00     0.131 A 
ATOM     66  C   UNL A   1      40.104  26.148  27.093  1.00  0.00     0.055 A 
ATOM     67  C   UNL A   1      41.388  27.911  26.083  1.00  0.00     0.041 A 
ATOM     68  F   UNL A   1      41.954  29.806  27.338  1.00  0.00    -0.206 F 
ATOM     69  C   UNL A   1      40.799  26.653  25.993  1.00  0.00     0.022 A 
BRANCH  66  70
ATOM     70  S   UNL A   1      39.510  24.435  27.086  1.00  0.00     0.124 S 
ATOM     71  O   UNL A   1      39.300  24.191  28.511  1.00  0.00    -0.237 OA
ATOM     72  O   UNL A   1      38.306  24.522  26.268  1.00  0.00    -0.237 OA
ATOM     73  O   UNL A   1      40.618  23.690  26.491  1.00  0.00    -0.744 OA
ENDBRANCH  66  70
ENDBRANCH  49  63
BRANCH  50  74
ATOM     74  C   UNL A   1      39.637  33.393  36.863  1.00  0.00     0.023 A 
ATOM     75  C   UNL A   1      40.427  34.506  37.186  1.00  0.00     0.031 A 
ATOM     76  C   UNL A   1      38.689  32.958  37.807  1.00  0.00     0.131 A 
ATOM     77  C   UNL A   1      40.285  35.124  38.438  1.00  0.00     0.055 A 
ATOM     78  C   UNL A   1      38.519  33.606  39.031  1.00  0.00     0.041 A 
ATOM     79  F   UNL A   1      37.904  31.901  37.543  1.00  0.00    -0.206 F 
ATOM     80  C   UNL A   1      39.329  34.689  39.358  1.00  0.00     0.022 A 
BRANCH  77  81
ATOM     81  S   UNL A   1      41.424  36.467  38.876  1.00  0.00     0.124 S 
ATOM     82  O   UNL A   1      42.416  35.763  39.680  1.00  0.00    -0.237 OA
ATOM     83  O   UNL A   1      41.868  36.927  37.566  1.00  0.00    -0.237 OA
ATOM     84  O   UNL A   1      40.576  37.405  39.611  1.00  0.00    -0.744 OA
ENDBRANCH  77  81
ENDBRANCH  50  74
BRANCH  62  85
ATOM     85  C   UNL A   1      43.958  28.328  34.794  1.00  0.00     0.023 A 
ATOM     86  C   UNL A   1      43.796  27.158  35.556  1.00  0.00     0.031 A 
ATOM     87  C   UNL A   1      45.252  28.862  34.660  1.00  0.00     0.131 A 
ATOM     88  C   UNL A   1      44.909  26.581  36.189  1.00  0.00     0.055 A 
ATOM     89  C   UNL A   1      46.360  28.258  35.253  1.00  0.00     0.041 A 
ATOM     90  F   UNL A   1      45.459  29.979  33.943  1.00  0.00    -0.206 F 
ATOM     91  C   UNL A   1      46.190  27.115  36.030  1.00  0.00     0.022 A 
BRANCH  88  92
ATOM     92  S   UNL A   1      44.652  25.149  37.272  1.00  0.00     0.124 S 
ATOM     93  O   UNL A   1      43.300  24.735  36.911  1.00  0.00    -0.237 OA
ATOM     94  O   UNL A   1      45.725  24.249  36.861  1.00  0.00    -0.237 OA
ATOM     95  O   UNL A   1      44.794  25.704  38.617  1.00  0.00    -0.744 OA
ENDBRANCH  88  92
ENDBRANCH  62  85
ENDBRANCH  36  37
ENDBRANCH  28  31
ENDBRANCH  26  27
ENDBRANCH  25  26
ENDBRANCH  24  25
ENDBRANCH   3  24
TORSDOF 19
ENDMDL
MODEL 3
REMARK VINA RESULT:     -11.4      5.180      8.524
REMARK SMILES O=C(COc1ccc(S(=O)(=O)NC[C@@H]2CCCO2)cc1)NCCCNC(=O)c1ccc(-c2c3nc(c(-c4cc(S(=O)(=O)[O-])ccc4F)c4ccc([nH]4)c(-c4cc(S(=O)(=O)[O-])ccc4F)c4nc(c(-c5cc(S(=O)(=O)[O-])ccc5F)c5ccc2[nH]5)C=C4)C=C3)cc1
REMARK SMILES IDX 1 1 2 2 21 3 3 5 4 6 5 7 6 8 20 9 7 10 19 11 8 12 9 13 10 14
REMARK SMILES IDX 11 15 12 16 13 18 14 19 15 20 18 21 16 22 17 23 22 24 23 25
REMARK SMILES IDX 24 26 25 27 26 28 27 30 28 31 29 32 90 33 30 34 89 35 31 36
REMARK SMILES IDX 32 37 33 38 83 39 34 40 88 41 82 42 84 43 35 44 87 45 81 46
REMARK SMILES IDX 80 47 36 49 68 50 48 51 67 52 49 53 52 54 66 55 85 56 50 57
REMARK SMILES IDX 51 58 65 60 86 61 53 62 37 63 38 64 46 65 39 66 45 67 47 68
REMARK SMILES IDX 44 69 40 70 41 71 42 72 43 73 69 74 70 75 78 76 71 77 77 78
REMARK SMILES IDX 79 79 76 80 72 81 73 82 74 83 75 84 54 85 55 86 63 87 56 88
REMARK SMILES IDX 62 89 64 90 61 91 57 92 58 93 59 94 60 95
REMARK H PARENT 21 4 12 17 25 29 84 48 52 59
REMARK Flexibility Score: inf
ROOT
ATOM      1  O   UNL A   1      30.302  26.058  26.473  1.00  0.00    -0.271 OA
ATOM      2  C   UNL A   1      31.381  26.294  25.935  1.00  0.00     0.257 C 
ATOM      3  N   UNL A   1      32.283  27.221  26.411  1.00  0.00    -0.353 N 
ATOM      4  H   UNL A   1      33.187  27.248  26.025  1.00  0.00     0.163 HD
ENDROOT
BRANCH   2   5
ATOM      5  C   UNL A   1      31.805  25.601  24.634  1.00  0.00     0.329 C 
BRANCH   5   6
ATOM      6  O   UNL A   1      30.910  24.638  24.094  1.00  0.00    -0.484 OA
BRANCH   6   7
ATOM      7  C   UNL A   1      31.296  23.324  24.081  1.00  0.00     0.120 A 
ATOM      8  C   UNL A   1      31.205  22.684  25.319  1.00  0.00     0.048 A 
ATOM      9  C   UNL A   1      31.826  22.629  22.989  1.00  0.00     0.048 A 
ATOM     10  C   UNL A   1      31.677  21.381  25.482  1.00  0.00     0.025 A 
ATOM     11  C   UNL A   1      32.309  21.323  23.146  1.00  0.00     0.025 A 
ATOM     12  C   UNL A   1      32.250  20.713  24.397  1.00  0.00     0.082 A 
BRANCH  12  13
ATOM     13  S   UNL A   1      32.989  19.127  24.688  1.00  0.00     0.240 S 
ATOM     14  O   UNL A   1      32.207  18.467  25.707  1.00  0.00    -0.207 OA
ATOM     15  O   UNL A   1      33.211  18.521  23.393  1.00  0.00    -0.207 OA
BRANCH  13  16
ATOM     16  N   UNL A   1      34.503  19.437  25.317  1.00  0.00    -0.209 NA
ATOM     17  H   UNL A   1      35.001  18.547  25.285  1.00  0.00     0.141 HD
BRANCH  16  18
ATOM     18  C   UNL A   1      35.439  20.432  24.781  1.00  0.00     0.130 C 
BRANCH  18  19
ATOM     19  C   UNL A   1      35.655  21.658  25.675  1.00  0.00     0.133 C 
ATOM     20  C   UNL A   1      35.049  22.922  25.084  1.00  0.00     0.036 C 
ATOM     21  O   UNL A   1      37.065  21.950  25.801  1.00  0.00    -0.377 OA
ATOM     22  C   UNL A   1      35.841  23.996  25.781  1.00  0.00     0.031 C 
ATOM     23  C   UNL A   1      37.223  23.378  25.867  1.00  0.00     0.160 C 
ENDBRANCH  18  19
ENDBRANCH  16  18
ENDBRANCH  13  16
ENDBRANCH  12  13
ENDBRANCH   6   7
ENDBRANCH   5   6
ENDBRANCH   2   5
BRANCH   3  24
ATOM     24  C   UNL A   1      31.938  28.156  27.460  1.00  0.00     0.117 C 
BRANCH  24  25
ATOM     25  C   UNL A   1      31.489  29.516  26.945  1.00  0.00     0.042 C 
BRANCH  25  26
ATOM     26  C   UNL A   1      32.593  30.331  26.281  1.00  0.00     0.118 C 
BRANCH  26  27
ATOM     27  N   UNL A   1      32.577  31.739  26.660  1.00  0.00    -0.352 N 
ATOM     28  C   UNL A   1      33.423  32.442  27.486  1.00  0.00     0.251 C 
ATOM     29  H   UNL A   1      31.847  32.268  26.265  1.00  0.00     0.163 HD
ATOM     30  O   UNL A   1      33.147  33.602  27.783  1.00  0.00    -0.269 OA
BRANCH  28  31
ATOM     31  C   UNL A   1      34.634  31.798  28.041  1.00  0.00     0.039 A 
ATOM     32  C   UNL A   1      35.809  32.547  28.155  1.00  0.00     0.014 A 
ATOM     33  C   UNL A   1      34.614  30.465  28.456  1.00  0.00     0.014 A 
ATOM     34  C   UNL A   1      36.932  31.990  28.775  1.00  0.00     0.010 A 
ATOM     35  C   UNL A   1      35.708  29.934  29.135  1.00  0.00     0.010 A 
ATOM     36  C   UNL A   1      36.873  30.695  29.315  1.00  0.00    -0.014 A 
BRANCH  36  37
ATOM     37  C   UNL A   1      38.001  30.115  30.093  1.00  0.00     0.031 A 
ATOM     38  C   UNL A   1      38.288  30.613  31.483  1.00  0.00     0.074 A 
ATOM     39  C   UNL A   1      38.828  29.225  29.509  1.00  0.00     0.049 A 
ATOM     40  N   UNL A   1      39.317  30.374  32.252  1.00  0.00    -0.248 NA
ATOM     41  C   UNL A   1      37.296  31.528  32.066  1.00  0.00     0.031 C 
ATOM     42  C   UNL A   1      38.673  28.686  28.157  1.00  0.00     0.029 A 
ATOM     43  N   UNL A   1      39.980  28.635  29.970  1.00  0.00    -0.354 N 
ATOM     44  C   UNL A   1      39.113  31.129  33.403  1.00  0.00     0.074 A 
ATOM     45  C   UNL A   1      37.883  31.867  33.204  1.00  0.00     0.031 C 
ATOM     46  C   UNL A   1      39.686  27.843  27.900  1.00  0.00     0.029 A 
ATOM     47  C   UNL A   1      40.591  27.820  29.045  1.00  0.00     0.049 A 
ATOM     48  H   UNL A   1      40.334  28.781  30.877  1.00  0.00     0.167 HD
ATOM     49  C   UNL A   1      39.874  31.190  34.524  1.00  0.00     0.034 A 
ATOM     50  C   UNL A   1      41.761  27.152  29.100  1.00  0.00     0.034 A 
ATOM     51  C   UNL A   1      41.088  30.433  34.713  1.00  0.00     0.049 A 
ATOM     52  C   UNL A   1      42.601  27.250  30.347  1.00  0.00     0.074 A 
ATOM     53  C   UNL A   1      41.906  30.379  35.830  1.00  0.00     0.029 A 
ATOM     54  N   UNL A   1      41.662  29.601  33.761  1.00  0.00    -0.354 N 
ATOM     55  N   UNL A   1      42.381  27.949  31.437  1.00  0.00    -0.248 NA
ATOM     56  C   UNL A   1      43.845  26.468  30.374  1.00  0.00     0.031 C 
ATOM     57  C   UNL A   1      43.001  29.559  35.533  1.00  0.00     0.029 A 
ATOM     58  C   UNL A   1      42.834  29.048  34.256  1.00  0.00     0.049 A 
ATOM     59  H   UNL A   1      41.291  29.428  32.866  1.00  0.00     0.167 HD
ATOM     60  C   UNL A   1      43.441  27.660  32.291  1.00  0.00     0.074 A 
ATOM     61  C   UNL A   1      44.299  26.726  31.592  1.00  0.00     0.031 C 
ATOM     62  C   UNL A   1      43.678  28.119  33.546  1.00  0.00     0.034 A 
BRANCH  49  63
ATOM     63  C   UNL A   1      39.425  32.131  35.616  1.00  0.00     0.023 A 
ATOM     64  C   UNL A   1      39.860  33.467  35.663  1.00  0.00     0.031 A 
ATOM     65  C   UNL A   1      38.575  31.678  36.640  1.00  0.00     0.131 A 
ATOM     66  C   UNL A   1      39.509  34.278  36.753  1.00  0.00     0.055 A 
ATOM     67  C   UNL A   1      38.163  32.515  37.679  1.00  0.00     0.041 A 
ATOM     68  F   UNL A   1      38.143  30.407  36.659  1.00  0.00    -0.206 F 
ATOM     69  C   UNL A   1      38.645  33.819  37.748  1.00  0.00     0.022 A 
BRANCH  66  70
ATOM     70  S   UNL A   1      40.320  35.891  36.924  1.00  0.00     0.124 S 
ATOM     71  O   UNL A   1      39.933  36.271  38.282  1.00  0.00    -0.237 OA
ATOM     72  O   UNL A   1      41.726  35.559  36.730  1.00  0.00    -0.237 OA
ATOM     73  O   UNL A   1      39.714  36.694  35.865  1.00  0.00    -0.744 OA
ENDBRANCH  66  70
ENDBRANCH  49  63
BRANCH  50  74
ATOM     74  C   UNL A   1      42.225  26.351  27.933  1.00  0.00     0.023 A 
ATOM     75  C   UNL A   1      41.939  24.980  27.842  1.00  0.00     0.031 A 
ATOM     76  C   UNL A   1      42.989  26.936  26.908  1.00  0.00     0.131 A 
ATOM     77  C   UNL A   1      42.450  24.230  26.772  1.00  0.00     0.055 A 
ATOM     78  C   UNL A   1      43.454  26.196  25.821  1.00  0.00     0.041 A 
ATOM     79  F   UNL A   1      43.283  28.247  26.946  1.00  0.00    -0.206 F 
ATOM     80  C   UNL A   1      43.196  24.830  25.754  1.00  0.00     0.022 A 
BRANCH  77  81
ATOM     81  S   UNL A   1      42.185  22.435  26.765  1.00  0.00     0.124 S 
ATOM     82  O   UNL A   1      43.230  21.984  25.854  1.00  0.00    -0.237 OA
ATOM     83  O   UNL A   1      42.368  22.097  28.172  1.00  0.00    -0.237 OA
ATOM     84  O   UNL A   1      40.818  22.296  26.266  1.00  0.00    -0.744 OA
ENDBRANCH  77  81
ENDBRANCH  50  74
BRANCH  62  85
ATOM     85  C   UNL A   1      44.882  27.564  34.264  1.00  0.00     0.023 A 
ATOM     86  C   UNL A   1      44.820  26.374  35.009  1.00  0.00     0.031 A 
ATOM     87  C   UNL A   1      46.113  28.239  34.186  1.00  0.00     0.131 A 
ATOM     88  C   UNL A   1      45.964  25.916  35.682  1.00  0.00     0.055 A 
ATOM     89  C   UNL A   1      47.257  27.753  34.819  1.00  0.00     0.041 A 
ATOM     90  F   UNL A   1      46.223  29.381  33.488  1.00  0.00    -0.206 F 
ATOM     91  C   UNL A   1      47.184  26.589  35.579  1.00  0.00     0.022 A 
BRANCH  88  92
ATOM     92  S   UNL A   1      45.824  24.450  36.742  1.00  0.00     0.124 S 
ATOM     93  O   UNL A   1      47.173  23.898  36.673  1.00  0.00    -0.237 OA
ATOM     94  O   UNL A   1      45.436  25.026  38.025  1.00  0.00    -0.237 OA
ATOM     95  O   UNL A   1      44.792  23.649  36.087  1.00  0.00    -0.744 OA
ENDBRANCH  88  92
ENDBRANCH  62  85
ENDBRANCH  36  37
ENDBRANCH  28  31
ENDBRANCH  26  27
ENDBRANCH  25  26
ENDBRANCH  24  25
ENDBRANCH   3  24
TORSDOF 19
ENDMDL
