MODEL 1
REMARK VINA RESULT:     -12.9      0.000      0.000
REMARK SMILES O=C(NCCCNC(=O)c1csc(CNc2ccc(-n3cccn3)nc2)c1)c1ccc(-c2c3nc(c(-c4cc(S(=O)(=O)[O-])ccc4F)c4ccc([nH]4)c(-c4cc(S(=O)(=O)[O-])ccc4F)c4nc(c(-c5cc(S(=O)(=O)[O-])ccc5F)c5ccc2[nH]5)C=C4)C=C3)cc1
REMARK SMILES IDX 5 1 4 2 3 3 1 4 2 5 28 7 29 8 90 9 30 10 89 11 31 12 32 13
REMARK SMILES IDX 33 14 83 15 34 16 88 17 82 18 84 19 35 20 87 21 81 22 80 23
REMARK SMILES IDX 36 25 68 26 48 27 67 28 49 29 52 30 66 31 85 32 50 33 51 34
REMARK SMILES IDX 65 36 86 37 53 38 37 39 38 40 46 41 39 42 45 43 47 44 44 45
REMARK SMILES IDX 40 46 41 47 42 48 43 49 69 50 70 51 78 52 71 53 77 54 79 55
REMARK SMILES IDX 76 56 72 57 73 58 74 59 75 60 54 61 55 62 63 63 56 64 62 65
REMARK SMILES IDX 64 66 61 67 57 68 58 69 59 70 60 71 6 72 7 73 8 74 9 76
REMARK SMILES IDX 10 77 11 78 27 79 12 80 13 81 14 82 15 83 16 85 17 86 26 87
REMARK SMILES IDX 18 88 25 89 19 90 20 91 21 92 24 93 22 94 23 95
REMARK H PARENT 3 6 84 24 52 35 7 75 15 84
REMARK Flexibility Score: inf
ROOT
ATOM      1  C   UNL A   1      33.364  29.036  26.458  1.00  0.00     0.042 C 
ENDROOT
BRANCH   1   2
ATOM      2  C   UNL A   1      34.793  28.972  26.995  1.00  0.00     0.118 C 
BRANCH   2   3
ATOM      3  N   UNL A   1      34.986  29.570  28.300  1.00  0.00    -0.352 N 
ATOM      4  O   UNL A   1      35.828  30.516  30.101  1.00  0.00    -0.269 OA
ATOM      5  C   UNL A   1      36.071  29.860  29.084  1.00  0.00     0.251 C 
ATOM      6  H   UNL A   1      34.136  29.830  28.724  1.00  0.00     0.163 HD
BRANCH   5   7
ATOM      7  C   UNL A   1      37.473  29.418  28.830  1.00  0.00     0.039 A 
ATOM      8  C   UNL A   1      38.237  29.721  27.703  1.00  0.00     0.014 A 
ATOM      9  C   UNL A   1      38.059  28.628  29.839  1.00  0.00     0.014 A 
ATOM     10  C   UNL A   1      39.530  29.207  27.565  1.00  0.00     0.010 A 
ATOM     11  C   UNL A   1      39.353  28.123  29.710  1.00  0.00     0.010 A 
ATOM     12  C   UNL A   1      40.086  28.396  28.559  1.00  0.00    -0.014 A 
BRANCH  12  13
ATOM     13  C   UNL A   1      41.483  27.970  28.415  1.00  0.00     0.031 A 
ATOM     14  C   UNL A   1      41.698  26.656  27.735  1.00  0.00     0.074 A 
ATOM     15  C   UNL A   1      42.553  28.742  28.701  1.00  0.00     0.049 A 
ATOM     16  N   UNL A   1      42.323  25.609  28.171  1.00  0.00    -0.248 NA
ATOM     17  C   UNL A   1      41.086  26.468  26.410  1.00  0.00     0.031 C 
ATOM     18  C   UNL A   1      42.567  30.155  29.083  1.00  0.00     0.029 A 
ATOM     19  N   UNL A   1      43.881  28.433  28.607  1.00  0.00    -0.354 N 
ATOM     20  C   UNL A   1      42.337  24.688  27.124  1.00  0.00     0.074 A 
ATOM     21  C   UNL A   1      41.467  25.226  26.108  1.00  0.00     0.031 C 
ATOM     22  C   UNL A   1      43.828  30.632  28.982  1.00  0.00     0.029 A 
ATOM     23  C   UNL A   1      44.728  29.533  28.665  1.00  0.00     0.049 A 
ATOM     24  H   UNL A   1      44.209  27.510  28.507  1.00  0.00     0.167 HD
ATOM     25  C   UNL A   1      43.175  23.612  27.102  1.00  0.00     0.034 A 
ATOM     26  C   UNL A   1      46.064  29.563  28.418  1.00  0.00     0.034 A 
ATOM     27  C   UNL A   1      43.670  23.302  28.418  1.00  0.00     0.049 A 
ATOM     28  C   UNL A   1      46.581  28.187  28.594  1.00  0.00     0.074 A 
ATOM     29  C   UNL A   1      43.076  22.947  29.615  1.00  0.00     0.029 A 
ATOM     30  N   UNL A   1      44.955  23.661  28.748  1.00  0.00    -0.354 N 
ATOM     31  N   UNL A   1      46.606  27.565  29.738  1.00  0.00    -0.248 NA
ATOM     32  C   UNL A   1      46.690  27.330  27.424  1.00  0.00     0.031 C 
ATOM     33  C   UNL A   1      43.842  23.613  30.616  1.00  0.00     0.029 A 
ATOM     34  C   UNL A   1      44.885  24.282  29.973  1.00  0.00     0.049 A 
ATOM     35  H   UNL A   1      45.766  23.506  28.211  1.00  0.00     0.167 HD
ATOM     36  C   UNL A   1      46.299  26.248  29.440  1.00  0.00     0.074 A 
ATOM     37  C   UNL A   1      46.476  26.141  27.995  1.00  0.00     0.031 C 
ATOM     38  C   UNL A   1      45.672  25.440  30.346  1.00  0.00     0.034 A 
BRANCH  25  39
ATOM     39  C   UNL A   1      43.741  22.972  25.854  1.00  0.00     0.023 A 
ATOM     40  C   UNL A   1      43.653  21.570  25.715  1.00  0.00     0.031 A 
ATOM     41  C   UNL A   1      44.584  23.626  24.928  1.00  0.00     0.131 A 
ATOM     42  C   UNL A   1      44.409  20.887  24.742  1.00  0.00     0.055 A 
ATOM     43  C   UNL A   1      45.281  22.951  23.921  1.00  0.00     0.041 A 
ATOM     44  F   UNL A   1      44.853  24.935  25.006  1.00  0.00    -0.206 F 
ATOM     45  C   UNL A   1      45.216  21.570  23.837  1.00  0.00     0.022 A 
BRANCH  42  46
ATOM     46  S   UNL A   1      44.457  19.074  24.786  1.00  0.00     0.124 S 
ATOM     47  O   UNL A   1      45.531  18.824  25.740  1.00  0.00    -0.237 OA
ATOM     48  O   UNL A   1      43.107  18.748  25.235  1.00  0.00    -0.237 OA
ATOM     49  O   UNL A   1      44.757  18.709  23.402  1.00  0.00    -0.744 OA
ENDBRANCH  42  46
ENDBRANCH  25  39
BRANCH  26  50
ATOM     50  C   UNL A   1      46.830  30.645  27.743  1.00  0.00     0.023 A 
ATOM     51  C   UNL A   1      46.212  31.703  27.046  1.00  0.00     0.031 A 
ATOM     52  C   UNL A   1      48.215  30.770  27.993  1.00  0.00     0.131 A 
ATOM     53  C   UNL A   1      46.976  32.817  26.625  1.00  0.00     0.055 A 
ATOM     54  C   UNL A   1      48.965  31.867  27.569  1.00  0.00     0.041 A 
ATOM     55  F   UNL A   1      48.871  29.866  28.739  1.00  0.00    -0.206 F 
ATOM     56  C   UNL A   1      48.346  32.902  26.887  1.00  0.00     0.022 A 
BRANCH  53  57
ATOM     57  S   UNL A   1      46.170  34.235  25.810  1.00  0.00     0.124 S 
ATOM     58  O   UNL A   1      45.755  35.050  26.946  1.00  0.00    -0.237 OA
ATOM     59  O   UNL A   1      47.243  34.774  24.983  1.00  0.00    -0.237 OA
ATOM     60  O   UNL A   1      45.074  33.620  25.062  1.00  0.00    -0.744 OA
ENDBRANCH  53  57
ENDBRANCH  26  50
BRANCH  38  61
ATOM     61  C   UNL A   1      45.567  25.913  31.785  1.00  0.00     0.023 A 
ATOM     62  C   UNL A   1      44.409  26.491  32.354  1.00  0.00     0.031 A 
ATOM     63  C   UNL A   1      46.650  25.650  32.643  1.00  0.00     0.131 A 
ATOM     64  C   UNL A   1      44.373  26.798  33.728  1.00  0.00     0.055 A 
ATOM     65  C   UNL A   1      46.603  25.937  34.008  1.00  0.00     0.041 A 
ATOM     66  F   UNL A   1      47.768  25.072  32.173  1.00  0.00    -0.206 F 
ATOM     67  C   UNL A   1      45.465  26.519  34.554  1.00  0.00     0.022 A 
BRANCH  64  68
ATOM     68  S   UNL A   1      42.899  27.576  34.463  1.00  0.00     0.124 S 
ATOM     69  O   UNL A   1      42.494  26.634  35.500  1.00  0.00    -0.237 OA
ATOM     70  O   UNL A   1      43.419  28.859  34.929  1.00  0.00    -0.237 OA
ATOM     71  O   UNL A   1      41.970  27.675  33.335  1.00  0.00    -0.744 OA
ENDBRANCH  64  68
ENDBRANCH  38  61
ENDBRANCH  12  13
ENDBRANCH   5   7
ENDBRANCH   2   3
ENDBRANCH   1   2
BRANCH   1  72
ATOM     72  C   UNL A   1      33.238  29.484  24.998  1.00  0.00     0.118 C 
BRANCH  72  73
ATOM     73  N   UNL A   1      31.855  29.686  24.590  1.00  0.00    -0.352 N 
ATOM     74  C   UNL A   1      30.902  28.810  24.134  1.00  0.00     0.252 C 
ATOM     75  H   UNL A   1      31.547  30.619  24.652  1.00  0.00     0.163 HD
ATOM     76  O   UNL A   1      29.883  29.279  23.633  1.00  0.00    -0.269 OA
BRANCH  74  77
ATOM     77  C   UNL A   1      31.095  27.367  24.234  1.00  0.00     0.050 A 
ATOM     78  C   UNL A   1      30.447  26.529  25.121  1.00  0.00     0.079 A 
ATOM     79  C   UNL A   1      31.898  26.597  23.320  1.00  0.00     0.031 A 
ATOM     80  S   UNL A   1      30.851  24.883  24.903  1.00  0.00    -0.146 S 
ATOM     81  C   UNL A   1      31.880  25.241  23.582  1.00  0.00     0.024 A 
BRANCH  81  82
ATOM     82  C   UNL A   1      32.607  24.132  22.871  1.00  0.00     0.159 C 
BRANCH  82  83
ATOM     83  N   UNL A   1      33.639  23.510  23.690  1.00  0.00    -0.379 N 
ATOM     84  H   UNL A   1      34.363  24.059  24.070  1.00  0.00     0.160 HD
BRANCH  83  85
ATOM     85  C   UNL A   1      33.606  22.146  23.936  1.00  0.00     0.053 A 
ATOM     86  C   UNL A   1      32.469  21.372  23.714  1.00  0.00     0.031 A 
ATOM     87  C   UNL A   1      34.700  21.486  24.496  1.00  0.00     0.139 A 
ATOM     88  C   UNL A   1      32.479  20.001  23.992  1.00  0.00     0.051 A 
ATOM     89  N   UNL A   1      34.725  20.175  24.836  1.00  0.00    -0.235 NA
ATOM     90  C   UNL A   1      33.623  19.440  24.556  1.00  0.00     0.153 A 
BRANCH  90  91
ATOM     91  N   UNL A   1      33.640  18.043  24.856  1.00  0.00    -0.223 N 
ATOM     92  C   UNL A   1      32.633  17.302  25.449  1.00  0.00     0.117 A 
ATOM     93  N   UNL A   1      34.720  17.262  24.585  1.00  0.00    -0.175 NA
ATOM     94  C   UNL A   1      33.097  16.014  25.576  1.00  0.00     0.042 A 
ATOM     95  C   UNL A   1      34.398  16.058  25.054  1.00  0.00     0.135 A 
ENDBRANCH  90  91
ENDBRANCH  83  85
ENDBRANCH  82  83
ENDBRANCH  81  82
ENDBRANCH  74  77
ENDBRANCH  72  73
ENDBRANCH   1  72
TORSDOF 17
ENDMDL
MODEL 2
REMARK VINA RESULT:     -12.8      2.307      7.004
REMARK SMILES O=C(NCCCNC(=O)c1csc(CNc2ccc(-n3cccn3)nc2)c1)c1ccc(-c2c3nc(c(-c4cc(S(=O)(=O)[O-])ccc4F)c4ccc([nH]4)c(-c4cc(S(=O)(=O)[O-])ccc4F)c4nc(c(-c5cc(S(=O)(=O)[O-])ccc5F)c5ccc2[nH]5)C=C4)C=C3)cc1
REMARK SMILES IDX 5 1 4 2 3 3 1 4 2 5 28 7 29 8 90 9 30 10 89 11 31 12 32 13
REMARK SMILES IDX 33 14 83 15 34 16 88 17 82 18 84 19 35 20 87 21 81 22 80 23
REMARK SMILES IDX 36 25 68 26 48 27 67 28 49 29 52 30 66 31 85 32 50 33 51 34
REMARK SMILES IDX 65 36 86 37 53 38 37 39 38 40 46 41 39 42 45 43 47 44 44 45
REMARK SMILES IDX 40 46 41 47 42 48 43 49 69 50 70 51 78 52 71 53 77 54 79 55
REMARK SMILES IDX 76 56 72 57 73 58 74 59 75 60 54 61 55 62 63 63 56 64 62 65
REMARK SMILES IDX 64 66 61 67 57 68 58 69 59 70 60 71 6 72 7 73 8 74 9 76
REMARK SMILES IDX 10 77 11 78 27 79 12 80 13 81 14 82 15 83 16 85 17 86 26 87
REMARK SMILES IDX 18 88 25 89 19 90 20 91 21 92 24 93 22 94 23 95
REMARK H PARENT 3 6 84 24 52 35 7 75 15 84
REMARK Flexibility Score: inf
ROOT
ATOM      1  C   UNL A   1      32.442  30.370  26.751  1.00  0.00     0.042 C 
ENDROOT
BRANCH   1   2
ATOM      2  C   UNL A   1      33.704  30.399  27.612  1.00  0.00     0.118 C 
BRANCH   2   3
ATOM      3  N   UNL A   1      34.358  31.689  27.700  1.00  0.00    -0.352 N 
ATOM      4  O   UNL A   1      35.826  33.329  27.740  1.00  0.00    -0.269 OA
ATOM      5  C   UNL A   1      35.651  32.112  27.856  1.00  0.00     0.251 C 
ATOM      6  H   UNL A   1      33.723  32.438  27.632  1.00  0.00     0.163 HD
BRANCH   5   7
ATOM      7  C   UNL A   1      36.818  31.246  28.188  1.00  0.00     0.039 A 
ATOM      8  C   UNL A   1      36.993  29.919  27.794  1.00  0.00     0.014 A 
ATOM      9  C   UNL A   1      37.826  31.847  28.968  1.00  0.00     0.014 A 
ATOM     10  C   UNL A   1      38.117  29.198  28.210  1.00  0.00     0.010 A 
ATOM     11  C   UNL A   1      38.955  31.135  29.375  1.00  0.00     0.010 A 
ATOM     12  C   UNL A   1      39.094  29.798  29.012  1.00  0.00    -0.014 A 
BRANCH  12  13
ATOM     13  C   UNL A   1      40.304  29.033  29.332  1.00  0.00     0.031 A 
ATOM     14  C   UNL A   1      40.600  28.859  30.788  1.00  0.00     0.074 A 
ATOM     15  C   UNL A   1      41.047  28.361  28.428  1.00  0.00     0.049 A 
ATOM     16  N   UNL A   1      41.669  29.183  31.442  1.00  0.00    -0.248 NA
ATOM     17  C   UNL A   1      39.537  28.297  31.636  1.00  0.00     0.031 C 
ATOM     18  C   UNL A   1      40.762  28.148  27.009  1.00  0.00     0.029 A 
ATOM     19  N   UNL A   1      42.186  27.632  28.629  1.00  0.00    -0.354 N 
ATOM     20  C   UNL A   1      41.494  28.718  32.746  1.00  0.00     0.074 A 
ATOM     21  C   UNL A   1      40.123  28.282  32.833  1.00  0.00     0.031 C 
ATOM     22  C   UNL A   1      41.577  27.181  26.529  1.00  0.00     0.029 A 
ATOM     23  C   UNL A   1      42.529  26.806  27.564  1.00  0.00     0.049 A 
ATOM     24  H   UNL A   1      42.717  27.688  29.455  1.00  0.00     0.167 HD
ATOM     25  C   UNL A   1      42.529  28.590  33.626  1.00  0.00     0.034 A 
ATOM     26  C   UNL A   1      43.487  25.843  27.541  1.00  0.00     0.034 A 
ATOM     27  C   UNL A   1      43.662  29.386  33.228  1.00  0.00     0.049 A 
ATOM     28  C   UNL A   1      44.456  26.150  28.616  1.00  0.00     0.074 A 
ATOM     29  C   UNL A   1      43.867  30.736  33.021  1.00  0.00     0.029 A 
ATOM     30  N   UNL A   1      44.740  28.764  32.646  1.00  0.00    -0.354 N 
ATOM     31  N   UNL A   1      45.230  27.198  28.614  1.00  0.00    -0.248 NA
ATOM     32  C   UNL A   1      44.280  25.517  29.914  1.00  0.00     0.031 C 
ATOM     33  C   UNL A   1      44.740  30.806  31.895  1.00  0.00     0.029 A 
ATOM     34  C   UNL A   1      45.055  29.497  31.526  1.00  0.00     0.049 A 
ATOM     35  H   UNL A   1      45.197  27.953  32.966  1.00  0.00     0.167 HD
ATOM     36  C   UNL A   1      45.285  27.608  29.935  1.00  0.00     0.074 A 
ATOM     37  C   UNL A   1      44.778  26.473  30.701  1.00  0.00     0.031 C 
ATOM     38  C   UNL A   1      45.480  28.920  30.266  1.00  0.00     0.034 A 
BRANCH  25  39
ATOM     39  C   UNL A   1      42.613  27.560  34.730  1.00  0.00     0.023 A 
ATOM     40  C   UNL A   1      43.326  26.366  34.488  1.00  0.00     0.031 A 
ATOM     41  C   UNL A   1      41.823  27.573  35.900  1.00  0.00     0.131 A 
ATOM     42  C   UNL A   1      43.197  25.255  35.345  1.00  0.00     0.055 A 
ATOM     43  C   UNL A   1      41.750  26.491  36.785  1.00  0.00     0.041 A 
ATOM     44  F   UNL A   1      41.007  28.591  36.203  1.00  0.00    -0.206 F 
ATOM     45  C   UNL A   1      42.420  25.314  36.497  1.00  0.00     0.022 A 
BRANCH  42  46
ATOM     46  S   UNL A   1      43.924  23.672  34.839  1.00  0.00     0.124 S 
ATOM     47  O   UNL A   1      44.430  23.155  36.106  1.00  0.00    -0.237 OA
ATOM     48  O   UNL A   1      42.772  22.978  34.274  1.00  0.00    -0.237 OA
ATOM     49  O   UNL A   1      44.949  24.063  33.873  1.00  0.00    -0.744 OA
ENDBRANCH  42  46
ENDBRANCH  25  39
BRANCH  26  50
ATOM     50  C   UNL A   1      43.422  24.528  26.848  1.00  0.00     0.023 A 
ATOM     51  C   UNL A   1      42.615  23.463  27.297  1.00  0.00     0.031 A 
ATOM     52  C   UNL A   1      43.997  24.393  25.564  1.00  0.00     0.131 A 
ATOM     53  C   UNL A   1      42.419  22.326  26.476  1.00  0.00     0.055 A 
ATOM     54  C   UNL A   1      43.807  23.268  24.763  1.00  0.00     0.041 A 
ATOM     55  F   UNL A   1      44.695  25.397  25.008  1.00  0.00    -0.206 F 
ATOM     56  C   UNL A   1      43.009  22.229  25.214  1.00  0.00     0.022 A 
BRANCH  53  57
ATOM     57  S   UNL A   1      41.299  20.988  27.005  1.00  0.00     0.124 S 
ATOM     58  O   UNL A   1      40.348  20.925  25.901  1.00  0.00    -0.237 OA
ATOM     59  O   UNL A   1      42.207  19.856  27.145  1.00  0.00    -0.237 OA
ATOM     60  O   UNL A   1      40.745  21.485  28.265  1.00  0.00    -0.744 OA
ENDBRANCH  53  57
ENDBRANCH  26  50
BRANCH  38  61
ATOM     61  C   UNL A   1      45.918  29.882  29.177  1.00  0.00     0.023 A 
ATOM     62  C   UNL A   1      45.033  30.583  28.326  1.00  0.00     0.031 A 
ATOM     63  C   UNL A   1      47.287  30.191  29.085  1.00  0.00     0.131 A 
ATOM     64  C   UNL A   1      45.531  31.538  27.417  1.00  0.00     0.055 A 
ATOM     65  C   UNL A   1      47.774  31.152  28.198  1.00  0.00     0.041 A 
ATOM     66  F   UNL A   1      48.178  29.586  29.888  1.00  0.00    -0.206 F 
ATOM     67  C   UNL A   1      46.897  31.825  27.356  1.00  0.00     0.022 A 
BRANCH  64  68
ATOM     68  S   UNL A   1      44.402  32.419  26.292  1.00  0.00     0.124 S 
ATOM     69  O   UNL A   1      43.440  31.396  25.900  1.00  0.00    -0.237 OA
ATOM     70  O   UNL A   1      43.887  33.493  27.139  1.00  0.00    -0.237 OA
ATOM     71  O   UNL A   1      45.284  32.871  25.213  1.00  0.00    -0.744 OA
ENDBRANCH  64  68
ENDBRANCH  38  61
ENDBRANCH  12  13
ENDBRANCH   5   7
ENDBRANCH   2   3
ENDBRANCH   1   2
BRANCH   1  72
ATOM     72  C   UNL A   1      32.624  29.774  25.351  1.00  0.00     0.118 C 
BRANCH  72  73
ATOM     73  N   UNL A   1      31.411  29.845  24.549  1.00  0.00    -0.352 N 
ATOM     74  C   UNL A   1      30.729  28.887  23.841  1.00  0.00     0.252 C 
ATOM     75  H   UNL A   1      31.006  30.741  24.506  1.00  0.00     0.163 HD
ATOM     76  O   UNL A   1      29.862  29.262  23.055  1.00  0.00    -0.269 OA
BRANCH  74  77
ATOM     77  C   UNL A   1      31.028  27.469  24.011  1.00  0.00     0.050 A 
ATOM     78  C   UNL A   1      30.462  26.635  24.956  1.00  0.00     0.079 A 
ATOM     79  C   UNL A   1      31.865  26.711  23.117  1.00  0.00     0.031 A 
ATOM     80  S   UNL A   1      30.980  25.013  24.812  1.00  0.00    -0.146 S 
ATOM     81  C   UNL A   1      31.950  25.373  23.448  1.00  0.00     0.024 A 
BRANCH  81  82
ATOM     82  C   UNL A   1      32.741  24.282  22.777  1.00  0.00     0.159 C 
BRANCH  82  83
ATOM     83  N   UNL A   1      33.690  23.633  23.671  1.00  0.00    -0.379 N 
ATOM     84  H   UNL A   1      34.402  24.161  24.100  1.00  0.00     0.160 HD
BRANCH  83  85
ATOM     85  C   UNL A   1      33.596  22.272  23.919  1.00  0.00     0.053 A 
ATOM     86  C   UNL A   1      32.431  21.545  23.679  1.00  0.00     0.031 A 
ATOM     87  C   UNL A   1      34.652  21.568  24.499  1.00  0.00     0.139 A 
ATOM     88  C   UNL A   1      32.380  20.176  23.961  1.00  0.00     0.051 A 
ATOM     89  N   UNL A   1      34.617  20.259  24.843  1.00  0.00    -0.235 NA
ATOM     90  C   UNL A   1      33.489  19.569  24.546  1.00  0.00     0.153 A 
BRANCH  90  91
ATOM     91  N   UNL A   1      33.443  18.174  24.848  1.00  0.00    -0.223 N 
ATOM     92  C   UNL A   1      34.442  17.239  24.638  1.00  0.00     0.117 A 
ATOM     93  N   UNL A   1      32.341  17.591  25.390  1.00  0.00    -0.175 NA
ATOM     94  C   UNL A   1      33.949  16.021  25.041  1.00  0.00     0.042 A 
ATOM     95  C   UNL A   1      32.641  16.296  25.466  1.00  0.00     0.135 A 
ENDBRANCH  90  91
ENDBRANCH  83  85
ENDBRANCH  82  83
ENDBRANCH  81  82
ENDBRANCH  74  77
ENDBRANCH  72  73
ENDBRANCH   1  72
TORSDOF 17
ENDMDL
MODEL 3
REMARK VINA RESULT:     -12.7      2.579      7.006
REMARK SMILES O=C(NCCCNC(=O)c1csc(CNc2ccc(-n3cccn3)nc2)c1)c1ccc(-c2c3nc(c(-c4cc(S(=O)(=O)[O-])ccc4F)c4ccc([nH]4)c(-c4cc(S(=O)(=O)[O-])ccc4F)c4nc(c(-c5cc(S(=O)(=O)[O-])ccc5F)c5ccc2[nH]5)C=C4)C=C3)cc1
REMARK SMILES IDX 5 1 4 2 3 3 1 4 2 5 28 7 29 8 90 9 30 10 89 11 31 12 32 13
REMARK SMILES IDX 33 14 83 15 34 16 88 17 82 18 84 19 35 20 87 21 81 22 80 23
REMARK SMILES IDX 36 25 68 26 48 27 67 28 49 29 52 30 66 31 85 32 50 33 51 34
REMARK SMILES IDX 65 36 86 37 53 38 37 39 38 40 46 41 39 42 45 43 47 44 44 45
REMARK SMILES IDX 40 46 41 47 42 48 43 49 69 50 70 51 78 52 71 53 77 54 79 55
REMARK SMILES IDX 76 56 72 57 73 58 74 59 75 60 54 61 55 62 63 63 56 64 62 65
REMARK SMILES IDX 64 66 61 67 57 68 58 69 59 70 60 71 6 72 7 73 8 74 9 76
REMARK SMILES IDX 10 77 11 78 27 79 12 80 13 81 14 82 15 83 16 85 17 86 26 87
REMARK SMILES IDX 18 88 25 89 19 90 20 91 21 92 24 93 22 94 23 95
REMARK H PARENT 3 6 84 24 52 35 7 75 15 84
REMARK Flexibility Score: inf
ROOT
ATOM      1  C   UNL A   1      32.461  30.479  26.696  1.00  0.00     0.042 C 
ENDROOT
BRANCH   1   2
ATOM      2  C   UNL A   1      33.866  30.828  27.184  1.00  0.00     0.118 C 
BRANCH   2   3
ATOM      3  N   UNL A   1      33.917  31.627  28.391  1.00  0.00    -0.352 N 
ATOM      4  O   UNL A   1      34.566  32.772  30.156  1.00  0.00    -0.269 OA
ATOM      5  C   UNL A   1      34.877  31.912  29.326  1.00  0.00     0.251 C 
ATOM      6  H   UNL A   1      33.060  32.070  28.585  1.00  0.00     0.163 HD
BRANCH   5   7
ATOM      7  C   UNL A   1      36.209  31.252  29.438  1.00  0.00     0.039 A 
ATOM      8  C   UNL A   1      37.414  31.885  29.744  1.00  0.00     0.014 A 
ATOM      9  C   UNL A   1      36.225  29.861  29.214  1.00  0.00     0.014 A 
ATOM     10  C   UNL A   1      38.608  31.157  29.776  1.00  0.00     0.010 A 
ATOM     11  C   UNL A   1      37.412  29.130  29.256  1.00  0.00     0.010 A 
ATOM     12  C   UNL A   1      38.614  29.782  29.518  1.00  0.00    -0.014 A 
BRANCH  12  13
ATOM     13  C   UNL A   1      39.874  29.046  29.668  1.00  0.00     0.031 A 
ATOM     14  C   UNL A   1      40.331  28.813  31.073  1.00  0.00     0.074 A 
ATOM     15  C   UNL A   1      40.535  28.445  28.656  1.00  0.00     0.049 A 
ATOM     16  N   UNL A   1      41.454  29.144  31.625  1.00  0.00    -0.248 NA
ATOM     17  C   UNL A   1      39.383  28.173  31.998  1.00  0.00     0.031 C 
ATOM     18  C   UNL A   1      40.104  28.290  27.266  1.00  0.00     0.029 A 
ATOM     19  N   UNL A   1      41.711  27.748  28.697  1.00  0.00    -0.354 N 
ATOM     20  C   UNL A   1      41.436  28.610  32.914  1.00  0.00     0.074 A 
ATOM     21  C   UNL A   1      40.096  28.122  33.124  1.00  0.00     0.031 C 
ATOM     22  C   UNL A   1      40.892  27.377  26.653  1.00  0.00     0.029 A 
ATOM     23  C   UNL A   1      41.961  26.988  27.561  1.00  0.00     0.049 A 
ATOM     24  H   UNL A   1      42.326  27.784  29.464  1.00  0.00     0.167 HD
ATOM     25  C   UNL A   1      42.563  28.477  33.671  1.00  0.00     0.034 A 
ATOM     26  C   UNL A   1      42.940  26.061  27.385  1.00  0.00     0.034 A 
ATOM     27  C   UNL A   1      43.621  29.332  33.197  1.00  0.00     0.049 A 
ATOM     28  C   UNL A   1      44.010  26.351  28.366  1.00  0.00     0.074 A 
ATOM     29  C   UNL A   1      43.762  30.697  33.038  1.00  0.00     0.029 A 
ATOM     30  N   UNL A   1      44.649  28.778  32.471  1.00  0.00    -0.354 N 
ATOM     31  N   UNL A   1      44.747  27.425  28.335  1.00  0.00    -0.248 NA
ATOM     32  C   UNL A   1      43.994  25.651  29.640  1.00  0.00     0.031 C 
ATOM     33  C   UNL A   1      44.506  30.852  31.832  1.00  0.00     0.029 A 
ATOM     34  C   UNL A   1      44.818  29.574  31.364  1.00  0.00     0.049 A 
ATOM     35  H   UNL A   1      45.161  27.969  32.699  1.00  0.00     0.167 HD
ATOM     36  C   UNL A   1      44.932  27.772  29.662  1.00  0.00     0.074 A 
ATOM     37  C   UNL A   1      44.546  26.585  30.418  1.00  0.00     0.031 C 
ATOM     38  C   UNL A   1      45.122  29.073  30.037  1.00  0.00     0.034 A 
BRANCH  25  39
ATOM     39  C   UNL A   1      42.797  27.400  34.706  1.00  0.00     0.023 A 
ATOM     40  C   UNL A   1      43.564  26.272  34.344  1.00  0.00     0.031 A 
ATOM     41  C   UNL A   1      42.099  27.297  35.929  1.00  0.00     0.131 A 
ATOM     42  C   UNL A   1      43.573  25.112  35.144  1.00  0.00     0.055 A 
ATOM     43  C   UNL A   1      42.163  26.169  36.753  1.00  0.00     0.041 A 
ATOM     44  F   UNL A   1      41.245  28.240  36.348  1.00  0.00    -0.206 F 
ATOM     45  C   UNL A   1      42.884  25.056  36.351  1.00  0.00     0.022 A 
BRANCH  42  46
ATOM     46  S   UNL A   1      44.360  23.610  34.497  1.00  0.00     0.124 S 
ATOM     47  O   UNL A   1      43.702  23.458  33.204  1.00  0.00    -0.237 OA
ATOM     48  O   UNL A   1      45.766  23.998  34.462  1.00  0.00    -0.237 OA
ATOM     49  O   UNL A   1      44.020  22.594  35.492  1.00  0.00    -0.744 OA
ENDBRANCH  42  46
ENDBRANCH  25  39
BRANCH  26  50
ATOM     50  C   UNL A   1      42.841  24.779  26.637  1.00  0.00     0.023 A 
ATOM     51  C   UNL A   1      43.780  24.385  25.663  1.00  0.00     0.031 A 
ATOM     52  C   UNL A   1      41.917  23.799  27.065  1.00  0.00     0.131 A 
ATOM     53  C   UNL A   1      43.762  23.064  25.154  1.00  0.00     0.055 A 
ATOM     54  C   UNL A   1      41.900  22.501  26.554  1.00  0.00     0.041 A 
ATOM     55  F   UNL A   1      41.052  24.048  28.062  1.00  0.00    -0.206 F 
ATOM     56  C   UNL A   1      42.829  22.125  25.599  1.00  0.00     0.022 A 
BRANCH  53  57
ATOM     57  S   UNL A   1      45.033  22.515  23.967  1.00  0.00     0.124 S 
ATOM     58  O   UNL A   1      44.245  22.246  22.771  1.00  0.00    -0.237 OA
ATOM     59  O   UNL A   1      45.927  23.666  23.910  1.00  0.00    -0.237 OA
ATOM     60  O   UNL A   1      45.606  21.329  24.605  1.00  0.00    -0.744 OA
ENDBRANCH  53  57
ENDBRANCH  26  50
BRANCH  38  61
ATOM     61  C   UNL A   1      45.410  30.102  28.959  1.00  0.00     0.023 A 
ATOM     62  C   UNL A   1      46.706  30.496  28.555  1.00  0.00     0.031 A 
ATOM     63  C   UNL A   1      44.320  30.609  28.228  1.00  0.00     0.131 A 
ATOM     64  C   UNL A   1      46.872  31.378  27.470  1.00  0.00     0.055 A 
ATOM     65  C   UNL A   1      44.490  31.466  27.140  1.00  0.00     0.041 A 
ATOM     66  F   UNL A   1      43.064  30.248  28.538  1.00  0.00    -0.206 F 
ATOM     67  C   UNL A   1      45.768  31.859  26.761  1.00  0.00     0.022 A 
BRANCH  64  68
ATOM     68  S   UNL A   1      48.536  31.920  26.965  1.00  0.00     0.124 S 
ATOM     69  O   UNL A   1      49.144  30.708  26.427  1.00  0.00    -0.237 OA
ATOM     70  O   UNL A   1      48.245  32.975  25.998  1.00  0.00    -0.237 OA
ATOM     71  O   UNL A   1      49.132  32.394  28.217  1.00  0.00    -0.744 OA
ENDBRANCH  64  68
ENDBRANCH  38  61
ENDBRANCH  12  13
ENDBRANCH   5   7
ENDBRANCH   2   3
ENDBRANCH   1   2
BRANCH   1  72
ATOM     72  C   UNL A   1      32.398  29.791  25.329  1.00  0.00     0.118 C 
BRANCH  72  73
ATOM     73  N   UNL A   1      31.132  30.014  24.645  1.00  0.00    -0.352 N 
ATOM     74  C   UNL A   1      30.405  29.222  23.793  1.00  0.00     0.252 C 
ATOM     75  H   UNL A   1      30.724  30.891  24.826  1.00  0.00     0.163 HD
ATOM     76  O   UNL A   1      29.484  29.744  23.169  1.00  0.00    -0.269 OA
BRANCH  74  77
ATOM     77  C   UNL A   1      30.717  27.806  23.629  1.00  0.00     0.050 A 
ATOM     78  C   UNL A   1      31.184  27.213  22.472  1.00  0.00     0.079 A 
ATOM     79  C   UNL A   1      30.704  26.850  24.706  1.00  0.00     0.031 A 
ATOM     80  S   UNL A   1      31.525  25.550  22.662  1.00  0.00    -0.146 S 
ATOM     81  C   UNL A   1      31.093  25.583  24.319  1.00  0.00     0.024 A 
BRANCH  81  82
ATOM     82  C   UNL A   1      31.180  24.327  25.145  1.00  0.00     0.159 C 
BRANCH  82  83
ATOM     83  N   UNL A   1      32.539  23.815  25.262  1.00  0.00    -0.379 N 
ATOM     84  H   UNL A   1      33.285  24.434  25.434  1.00  0.00     0.160 HD
BRANCH  83  85
ATOM     85  C   UNL A   1      32.785  22.456  25.132  1.00  0.00     0.053 A 
ATOM     86  C   UNL A   1      34.013  21.954  24.706  1.00  0.00     0.031 A 
ATOM     87  C   UNL A   1      31.778  21.515  25.352  1.00  0.00     0.139 A 
ATOM     88  C   UNL A   1      34.207  20.575  24.575  1.00  0.00     0.051 A 
ATOM     89  N   UNL A   1      31.912  20.179  25.176  1.00  0.00    -0.235 NA
ATOM     90  C   UNL A   1      33.133  19.720  24.814  1.00  0.00     0.153 A 
BRANCH  90  91
ATOM     91  N   UNL A   1      33.318  18.311  24.672  1.00  0.00    -0.223 N 
ATOM     92  C   UNL A   1      32.915  17.322  25.552  1.00  0.00     0.117 A 
ATOM     93  N   UNL A   1      33.962  17.774  23.602  1.00  0.00    -0.175 NA
ATOM     94  C   UNL A   1      33.334  16.120  25.031  1.00  0.00     0.042 A 
ATOM     95  C   UNL A   1      33.998  16.465  23.846  1.00  0.00     0.135 A 
ENDBRANCH  90  91
ENDBRANCH  83  85
ENDBRANCH  82  83
ENDBRANCH  81  82
ENDBRANCH  74  77
ENDBRANCH  72  73
ENDBRANCH   1  72
TORSDOF 17
ENDMDL
