MODEL 1
REMARK VINA RESULT:     -11.9      0.000      0.000
REMARK SMILES Cc1cscc1-c1ncc(C(=O)NCCCNC(=O)c2ccc(-c3c4nc(c(-c5cc(S(=O)(=O)[O-])ccc5F)c5ccc([nH]5)c(-c5cc(S(=O)(=O)[O-])ccc5F)c5nc(c(-c6cc(S(=O)(=O)[O-])ccc6F)c6ccc3[nH]6)C=C5)C=C4)cc2)c(=O)[nH]1
REMARK SMILES IDX 16 1 15 2 14 3 13 4 11 5 12 6 10 8 7 9 8 10 85 11 9 12 83 13
REMARK SMILES IDX 84 15 6 16 1 17 2 18 3 19 4 20 5 21 17 22 18 23 19 25 20 26
REMARK SMILES IDX 21 27 82 28 22 29 81 30 23 31 24 32 25 33 75 34 26 35 80 36
REMARK SMILES IDX 74 37 76 38 27 39 79 40 73 41 72 42 28 44 60 45 40 46 59 47
REMARK SMILES IDX 41 48 44 49 58 50 77 51 42 52 43 53 57 55 78 56 45 57 29 58
REMARK SMILES IDX 30 59 38 60 31 61 37 62 39 63 36 64 32 65 33 66 34 67 35 68
REMARK SMILES IDX 61 69 62 70 70 71 63 72 69 73 71 74 68 75 64 76 65 77 66 78
REMARK SMILES IDX 67 79 46 80 47 81 55 82 48 83 54 84 56 85 53 86 49 87 50 88
REMARK SMILES IDX 51 89 52 90
REMARK H PARENT 13 7 85 14 17 24 76 43 44 54
REMARK Flexibility Score: inf
ROOT
ATOM      1  C   UNL A   1      32.657  32.192  27.174  1.00  0.00     0.118 C 
ENDROOT
BRANCH   1   2
ATOM      2  C   UNL A   1      31.394  31.669  26.496  1.00  0.00     0.042 C 
BRANCH   2   3
ATOM      3  C   UNL A   1      31.591  30.348  25.751  1.00  0.00     0.118 C 
BRANCH   3   4
ATOM      4  N   UNL A   1      30.834  30.315  24.512  1.00  0.00    -0.352 N 
ATOM      5  C   UNL A   1      30.547  29.314  23.641  1.00  0.00     0.258 C 
ATOM      6  O   UNL A   1      29.834  29.612  22.678  1.00  0.00    -0.269 OA
ATOM      7  H   UNL A   1      30.457  31.187  24.253  1.00  0.00     0.163 HD
BRANCH   5   8
ATOM      8  C   UNL A   1      30.974  27.904  23.839  1.00  0.00     0.123 A 
ATOM      9  C   UNL A   1      31.362  25.213  24.195  1.00  0.00     0.141 A 
ATOM     10  N   UNL A   1      30.177  25.609  23.872  1.00  0.00    -0.237 NA
ATOM     11  N   UNL A   1      32.424  26.047  24.354  1.00  0.00    -0.306 N 
ATOM     12  C   UNL A   1      30.011  26.967  23.732  1.00  0.00     0.133 A 
ATOM     13  C   UNL A   1      32.335  27.376  24.062  1.00  0.00     0.264 A 
ATOM     14  H   UNL A   1      33.275  25.684  24.686  1.00  0.00     0.171 HD
ATOM     15  O   UNL A   1      33.363  28.034  23.952  1.00  0.00    -0.269 OA
BRANCH   9  16
ATOM     16  C   UNL A   1      31.636  23.801  24.366  1.00  0.00     0.031 A 
ATOM     17  C   UNL A   1      30.493  23.528  26.681  1.00  0.00     0.046 C 
ATOM     18  C   UNL A   1      31.245  23.002  25.502  1.00  0.00    -0.029 A 
ATOM     19  C   UNL A   1      31.636  21.686  25.342  1.00  0.00     0.069 A 
ATOM     20  S   UNL A   1      32.455  21.410  23.869  1.00  0.00    -0.151 S 
ATOM     21  C   UNL A   1      32.294  23.048  23.412  1.00  0.00     0.077 A 
ENDBRANCH   9  16
ENDBRANCH   5   8
ENDBRANCH   3   4
ENDBRANCH   2   3
ENDBRANCH   1   2
BRANCH   1  22
ATOM     22  N   UNL A   1      32.565  33.611  27.486  1.00  0.00    -0.352 N 
ATOM     23  C   UNL A   1      33.227  34.352  28.432  1.00  0.00     0.251 C 
ATOM     24  H   UNL A   1      31.929  34.117  26.931  1.00  0.00     0.163 HD
ATOM     25  O   UNL A   1      32.829  35.487  28.679  1.00  0.00    -0.269 OA
BRANCH  23  26
ATOM     26  C   UNL A   1      34.396  33.801  29.159  1.00  0.00     0.039 A 
ATOM     27  C   UNL A   1      34.183  32.796  30.107  1.00  0.00     0.014 A 
ATOM     28  C   UNL A   1      35.686  34.303  28.959  1.00  0.00     0.014 A 
ATOM     29  C   UNL A   1      35.263  32.261  30.816  1.00  0.00     0.010 A 
ATOM     30  C   UNL A   1      36.770  33.725  29.619  1.00  0.00     0.010 A 
ATOM     31  C   UNL A   1      36.571  32.703  30.560  1.00  0.00    -0.014 A 
BRANCH  31  32
ATOM     32  C   UNL A   1      37.737  32.115  31.272  1.00  0.00     0.031 A 
ATOM     33  C   UNL A   1      38.539  31.015  30.629  1.00  0.00     0.074 A 
ATOM     34  C   UNL A   1      38.030  32.526  32.521  1.00  0.00     0.049 A 
ATOM     35  N   UNL A   1      39.530  30.316  31.120  1.00  0.00    -0.248 NA
ATOM     36  C   UNL A   1      38.155  30.631  29.262  1.00  0.00     0.031 C 
ATOM     37  C   UNL A   1      37.299  33.554  33.265  1.00  0.00     0.029 A 
ATOM     38  N   UNL A   1      39.008  32.119  33.395  1.00  0.00    -0.354 N 
ATOM     39  C   UNL A   1      39.873  29.394  30.136  1.00  0.00     0.074 A 
ATOM     40  C   UNL A   1      38.951  29.597  29.037  1.00  0.00     0.031 C 
ATOM     41  C   UNL A   1      37.859  33.704  34.476  1.00  0.00     0.029 A 
ATOM     42  C   UNL A   1      38.959  32.756  34.615  1.00  0.00     0.049 A 
ATOM     43  H   UNL A   1      39.681  31.437  33.171  1.00  0.00     0.167 HD
ATOM     44  C   UNL A   1      40.873  28.478  30.142  1.00  0.00     0.034 A 
ATOM     45  C   UNL A   1      39.705  32.583  35.725  1.00  0.00     0.034 A 
ATOM     46  C   UNL A   1      41.797  28.307  31.237  1.00  0.00     0.049 A 
ATOM     47  C   UNL A   1      40.813  31.561  35.705  1.00  0.00     0.074 A 
ATOM     48  C   UNL A   1      42.892  27.462  31.318  1.00  0.00     0.029 A 
ATOM     49  N   UNL A   1      41.733  28.987  32.447  1.00  0.00    -0.354 N 
ATOM     50  N   UNL A   1      41.163  30.741  34.741  1.00  0.00    -0.248 NA
ATOM     51  C   UNL A   1      41.637  31.453  36.917  1.00  0.00     0.031 C 
ATOM     52  C   UNL A   1      43.448  27.585  32.595  1.00  0.00     0.029 A 
ATOM     53  C   UNL A   1      42.749  28.559  33.289  1.00  0.00     0.049 A 
ATOM     54  H   UNL A   1      41.065  29.674  32.673  1.00  0.00     0.167 HD
ATOM     55  C   UNL A   1      42.264  30.039  35.223  1.00  0.00     0.074 A 
ATOM     56  C   UNL A   1      42.530  30.545  36.554  1.00  0.00     0.031 C 
ATOM     57  C   UNL A   1      42.994  29.066  34.619  1.00  0.00     0.034 A 
BRANCH  44  58
ATOM     58  C   UNL A   1      40.996  27.569  28.941  1.00  0.00     0.023 A 
ATOM     59  C   UNL A   1      42.008  27.741  27.980  1.00  0.00     0.031 A 
ATOM     60  C   UNL A   1      40.076  26.523  28.745  1.00  0.00     0.131 A 
ATOM     61  C   UNL A   1      42.033  26.930  26.836  1.00  0.00     0.055 A 
ATOM     62  C   UNL A   1      40.155  25.669  27.644  1.00  0.00     0.041 A 
ATOM     63  F   UNL A   1      39.076  26.320  29.618  1.00  0.00    -0.206 F 
ATOM     64  C   UNL A   1      41.129  25.878  26.673  1.00  0.00     0.022 A 
BRANCH  61  65
ATOM     65  S   UNL A   1      43.184  27.353  25.499  1.00  0.00     0.124 S 
ATOM     66  O   UNL A   1      42.324  28.120  24.600  1.00  0.00    -0.237 OA
ATOM     67  O   UNL A   1      44.215  28.110  26.198  1.00  0.00    -0.237 OA
ATOM     68  O   UNL A   1      43.606  26.050  24.985  1.00  0.00    -0.744 OA
ENDBRANCH  61  65
ENDBRANCH  44  58
BRANCH  45  69
ATOM     69  C   UNL A   1      39.422  33.377  36.955  1.00  0.00     0.023 A 
ATOM     70  C   UNL A   1      40.084  34.588  37.205  1.00  0.00     0.031 A 
ATOM     71  C   UNL A   1      38.511  32.910  37.920  1.00  0.00     0.131 A 
ATOM     72  C   UNL A   1      39.864  35.269  38.413  1.00  0.00     0.055 A 
ATOM     73  C   UNL A   1      38.256  33.618  39.097  1.00  0.00     0.041 A 
ATOM     74  F   UNL A   1      37.846  31.760  37.728  1.00  0.00    -0.206 F 
ATOM     75  C   UNL A   1      38.946  34.799  39.355  1.00  0.00     0.022 A 
BRANCH  72  76
ATOM     76  S   UNL A   1      40.863  36.740  38.775  1.00  0.00     0.124 S 
ATOM     77  O   UNL A   1      41.654  36.870  37.557  1.00  0.00    -0.237 OA
ATOM     78  O   UNL A   1      39.838  37.756  38.987  1.00  0.00    -0.237 OA
ATOM     79  O   UNL A   1      41.614  36.355  39.969  1.00  0.00    -0.744 OA
ENDBRANCH  72  76
ENDBRANCH  45  69
BRANCH  57  80
ATOM     80  C   UNL A   1      44.176  28.523  35.384  1.00  0.00     0.023 A 
ATOM     81  C   UNL A   1      44.035  27.491  36.328  1.00  0.00     0.031 A 
ATOM     82  C   UNL A   1      45.459  29.060  35.174  1.00  0.00     0.131 A 
ATOM     83  C   UNL A   1      45.149  27.064  37.066  1.00  0.00     0.055 A 
ATOM     84  C   UNL A   1      46.573  28.591  35.870  1.00  0.00     0.041 A 
ATOM     85  F   UNL A   1      45.649  30.050  34.287  1.00  0.00    -0.206 F 
ATOM     86  C   UNL A   1      46.420  27.597  36.832  1.00  0.00     0.022 A 
BRANCH  83  87
ATOM     87  S   UNL A   1      44.900  25.864  38.402  1.00  0.00     0.124 S 
ATOM     88  O   UNL A   1      44.158  26.650  39.383  1.00  0.00    -0.237 OA
ATOM     89  O   UNL A   1      44.150  24.805  37.736  1.00  0.00    -0.237 OA
ATOM     90  O   UNL A   1      46.261  25.503  38.798  1.00  0.00    -0.744 OA
ENDBRANCH  83  87
ENDBRANCH  57  80
ENDBRANCH  31  32
ENDBRANCH  23  26
ENDBRANCH   1  22
TORSDOF 14
ENDMDL
MODEL 2
REMARK VINA RESULT:     -11.9      1.357      1.650
REMARK SMILES Cc1cscc1-c1ncc(C(=O)NCCCNC(=O)c2ccc(-c3c4nc(c(-c5cc(S(=O)(=O)[O-])ccc5F)c5ccc([nH]5)c(-c5cc(S(=O)(=O)[O-])ccc5F)c5nc(c(-c6cc(S(=O)(=O)[O-])ccc6F)c6ccc3[nH]6)C=C5)C=C4)cc2)c(=O)[nH]1
REMARK SMILES IDX 16 1 15 2 14 3 13 4 11 5 12 6 10 8 7 9 8 10 85 11 9 12 83 13
REMARK SMILES IDX 84 15 6 16 1 17 2 18 3 19 4 20 5 21 17 22 18 23 19 25 20 26
REMARK SMILES IDX 21 27 82 28 22 29 81 30 23 31 24 32 25 33 75 34 26 35 80 36
REMARK SMILES IDX 74 37 76 38 27 39 79 40 73 41 72 42 28 44 60 45 40 46 59 47
REMARK SMILES IDX 41 48 44 49 58 50 77 51 42 52 43 53 57 55 78 56 45 57 29 58
REMARK SMILES IDX 30 59 38 60 31 61 37 62 39 63 36 64 32 65 33 66 34 67 35 68
REMARK SMILES IDX 61 69 62 70 70 71 63 72 69 73 71 74 68 75 64 76 65 77 66 78
REMARK SMILES IDX 67 79 46 80 47 81 55 82 48 83 54 84 56 85 53 86 49 87 50 88
REMARK SMILES IDX 51 89 52 90
REMARK H PARENT 13 7 85 14 17 24 76 43 44 54
REMARK Flexibility Score: inf
ROOT
ATOM      1  C   UNL A   1      32.723  32.325  27.109  1.00  0.00     0.118 C 
ENDROOT
BRANCH   1   2
ATOM      2  C   UNL A   1      31.408  31.786  26.554  1.00  0.00     0.042 C 
BRANCH   2   3
ATOM      3  C   UNL A   1      31.543  30.448  25.826  1.00  0.00     0.118 C 
BRANCH   3   4
ATOM      4  N   UNL A   1      30.748  30.417  24.611  1.00  0.00    -0.352 N 
ATOM      5  C   UNL A   1      30.448  29.422  23.738  1.00  0.00     0.258 C 
ATOM      6  O   UNL A   1      29.700  29.721  22.801  1.00  0.00    -0.269 OA
ATOM      7  H   UNL A   1      30.350  31.287  24.375  1.00  0.00     0.163 HD
BRANCH   5   8
ATOM      8  C   UNL A   1      30.902  28.017  23.905  1.00  0.00     0.123 A 
ATOM      9  C   UNL A   1      31.340  25.328  24.222  1.00  0.00     0.141 A 
ATOM     10  N   UNL A   1      30.138  25.710  23.953  1.00  0.00    -0.237 NA
ATOM     11  N   UNL A   1      32.397  26.176  24.341  1.00  0.00    -0.306 N 
ATOM     12  C   UNL A   1      29.948  27.068  23.832  1.00  0.00     0.133 A 
ATOM     13  C   UNL A   1      32.279  27.506  24.065  1.00  0.00     0.264 A 
ATOM     14  H   UNL A   1      33.267  25.822  24.634  1.00  0.00     0.171 HD
ATOM     15  O   UNL A   1      33.292  28.179  23.916  1.00  0.00    -0.269 OA
BRANCH   9  16
ATOM     16  C   UNL A   1      31.640  23.919  24.368  1.00  0.00     0.031 A 
ATOM     17  C   UNL A   1      30.532  23.594  26.693  1.00  0.00     0.046 C 
ATOM     18  C   UNL A   1      31.278  23.097  25.497  1.00  0.00    -0.029 A 
ATOM     19  C   UNL A   1      31.688  21.791  25.314  1.00  0.00     0.069 A 
ATOM     20  S   UNL A   1      32.493  21.550  23.827  1.00  0.00    -0.151 S 
ATOM     21  C   UNL A   1      32.299  23.191  23.396  1.00  0.00     0.077 A 
ENDBRANCH   9  16
ENDBRANCH   5   8
ENDBRANCH   3   4
ENDBRANCH   2   3
ENDBRANCH   1   2
BRANCH   1  22
ATOM     22  N   UNL A   1      32.608  33.707  27.549  1.00  0.00    -0.352 N 
ATOM     23  C   UNL A   1      33.246  34.365  28.571  1.00  0.00     0.251 C 
ATOM     24  H   UNL A   1      31.973  34.255  27.034  1.00  0.00     0.163 HD
ATOM     25  O   UNL A   1      32.829  35.467  28.915  1.00  0.00    -0.269 OA
BRANCH  23  26
ATOM     26  C   UNL A   1      34.412  33.763  29.261  1.00  0.00     0.039 A 
ATOM     27  C   UNL A   1      35.689  34.255  28.973  1.00  0.00     0.014 A 
ATOM     28  C   UNL A   1      34.267  32.685  30.139  1.00  0.00     0.014 A 
ATOM     29  C   UNL A   1      36.811  33.703  29.600  1.00  0.00     0.010 A 
ATOM     30  C   UNL A   1      35.378  32.178  30.813  1.00  0.00     0.010 A 
ATOM     31  C   UNL A   1      36.663  32.676  30.546  1.00  0.00    -0.014 A 
BRANCH  31  32
ATOM     32  C   UNL A   1      37.839  32.106  31.256  1.00  0.00     0.031 A 
ATOM     33  C   UNL A   1      38.657  31.019  30.611  1.00  0.00     0.074 A 
ATOM     34  C   UNL A   1      38.129  32.521  32.504  1.00  0.00     0.049 A 
ATOM     35  N   UNL A   1      39.660  30.335  31.100  1.00  0.00    -0.248 NA
ATOM     36  C   UNL A   1      38.276  30.630  29.245  1.00  0.00     0.031 C 
ATOM     37  C   UNL A   1      37.383  33.538  33.250  1.00  0.00     0.029 A 
ATOM     38  N   UNL A   1      39.114  32.129  33.376  1.00  0.00    -0.354 N 
ATOM     39  C   UNL A   1      40.015  29.419  30.114  1.00  0.00     0.074 A 
ATOM     40  C   UNL A   1      39.088  29.608  29.018  1.00  0.00     0.031 C 
ATOM     41  C   UNL A   1      37.943  33.696  34.460  1.00  0.00     0.029 A 
ATOM     42  C   UNL A   1      39.059  32.765  34.596  1.00  0.00     0.049 A 
ATOM     43  H   UNL A   1      39.798  31.458  33.150  1.00  0.00     0.167 HD
ATOM     44  C   UNL A   1      41.029  28.519  30.118  1.00  0.00     0.034 A 
ATOM     45  C   UNL A   1      39.809  32.604  35.705  1.00  0.00     0.034 A 
ATOM     46  C   UNL A   1      41.958  28.361  31.211  1.00  0.00     0.049 A 
ATOM     47  C   UNL A   1      40.933  31.599  35.682  1.00  0.00     0.074 A 
ATOM     48  C   UNL A   1      43.066  27.534  31.289  1.00  0.00     0.029 A 
ATOM     49  N   UNL A   1      41.886  29.041  32.421  1.00  0.00    -0.354 N 
ATOM     50  N   UNL A   1      41.294  30.784  34.717  1.00  0.00    -0.248 NA
ATOM     51  C   UNL A   1      41.761  31.503  36.892  1.00  0.00     0.031 C 
ATOM     52  C   UNL A   1      43.623  27.665  32.565  1.00  0.00     0.029 A 
ATOM     53  C   UNL A   1      42.910  28.628  33.261  1.00  0.00     0.049 A 
ATOM     54  H   UNL A   1      41.208  29.717  32.649  1.00  0.00     0.167 HD
ATOM     55  C   UNL A   1      42.407  30.100  35.196  1.00  0.00     0.074 A 
ATOM     56  C   UNL A   1      42.667  30.610  36.527  1.00  0.00     0.031 C 
ATOM     57  C   UNL A   1      43.151  29.139  34.590  1.00  0.00     0.034 A 
BRANCH  44  58
ATOM     58  C   UNL A   1      41.163  27.612  28.916  1.00  0.00     0.023 A 
ATOM     59  C   UNL A   1      42.162  27.809  27.946  1.00  0.00     0.031 A 
ATOM     60  C   UNL A   1      40.269  26.543  28.730  1.00  0.00     0.131 A 
ATOM     61  C   UNL A   1      42.196  26.998  26.801  1.00  0.00     0.055 A 
ATOM     62  C   UNL A   1      40.359  25.690  27.629  1.00  0.00     0.041 A 
ATOM     63  F   UNL A   1      39.283  26.315  29.613  1.00  0.00    -0.206 F 
ATOM     64  C   UNL A   1      41.317  25.923  26.648  1.00  0.00     0.022 A 
BRANCH  61  65
ATOM     65  S   UNL A   1      43.323  27.449  25.453  1.00  0.00     0.124 S 
ATOM     66  O   UNL A   1      44.028  28.593  26.028  1.00  0.00    -0.237 OA
ATOM     67  O   UNL A   1      44.110  26.235  25.279  1.00  0.00    -0.237 OA
ATOM     68  O   UNL A   1      42.422  27.773  24.347  1.00  0.00    -0.744 OA
ENDBRANCH  61  65
ENDBRANCH  44  58
BRANCH  45  69
ATOM     69  C   UNL A   1      39.516  33.393  36.936  1.00  0.00     0.023 A 
ATOM     70  C   UNL A   1      38.798  32.832  38.003  1.00  0.00     0.031 A 
ATOM     71  C   UNL A   1      39.917  34.737  37.043  1.00  0.00     0.131 A 
ATOM     72  C   UNL A   1      38.459  33.624  39.110  1.00  0.00     0.055 A 
ATOM     73  C   UNL A   1      39.623  35.506  38.171  1.00  0.00     0.041 A 
ATOM     74  F   UNL A   1      40.611  35.320  36.053  1.00  0.00    -0.206 F 
ATOM     75  C   UNL A   1      38.877  34.954  39.207  1.00  0.00     0.022 A 
BRANCH  72  76
ATOM     76  S   UNL A   1      37.386  32.915  40.390  1.00  0.00     0.124 S 
ATOM     77  O   UNL A   1      37.346  33.991  41.375  1.00  0.00    -0.237 OA
ATOM     78  O   UNL A   1      36.152  32.675  39.650  1.00  0.00    -0.237 OA
ATOM     79  O   UNL A   1      38.105  31.713  40.808  1.00  0.00    -0.744 OA
ENDBRANCH  72  76
ENDBRANCH  45  69
BRANCH  57  80
ATOM     80  C   UNL A   1      44.342  28.614  35.353  1.00  0.00     0.023 A 
ATOM     81  C   UNL A   1      44.221  27.574  36.290  1.00  0.00     0.031 A 
ATOM     82  C   UNL A   1      45.615  29.177  35.147  1.00  0.00     0.131 A 
ATOM     83  C   UNL A   1      45.342  27.164  37.027  1.00  0.00     0.055 A 
ATOM     84  C   UNL A   1      46.737  28.724  35.840  1.00  0.00     0.041 A 
ATOM     85  F   UNL A   1      45.786  30.175  34.265  1.00  0.00    -0.206 F 
ATOM     86  C   UNL A   1      46.603  27.723  36.796  1.00  0.00     0.022 A 
BRANCH  83  87
ATOM     87  S   UNL A   1      45.116  25.951  38.356  1.00  0.00     0.124 S 
ATOM     88  O   UNL A   1      43.988  26.514  39.092  1.00  0.00    -0.237 OA
ATOM     89  O   UNL A   1      44.846  24.723  37.616  1.00  0.00    -0.237 OA
ATOM     90  O   UNL A   1      46.395  25.977  39.066  1.00  0.00    -0.744 OA
ENDBRANCH  83  87
ENDBRANCH  57  80
ENDBRANCH  31  32
ENDBRANCH  23  26
ENDBRANCH   1  22
TORSDOF 14
ENDMDL
MODEL 3
REMARK VINA RESULT:     -11.7      2.639      3.271
REMARK SMILES Cc1cscc1-c1ncc(C(=O)NCCCNC(=O)c2ccc(-c3c4nc(c(-c5cc(S(=O)(=O)[O-])ccc5F)c5ccc([nH]5)c(-c5cc(S(=O)(=O)[O-])ccc5F)c5nc(c(-c6cc(S(=O)(=O)[O-])ccc6F)c6ccc3[nH]6)C=C5)C=C4)cc2)c(=O)[nH]1
REMARK SMILES IDX 16 1 15 2 14 3 13 4 11 5 12 6 10 8 7 9 8 10 85 11 9 12 83 13
REMARK SMILES IDX 84 15 6 16 1 17 2 18 3 19 4 20 5 21 17 22 18 23 19 25 20 26
REMARK SMILES IDX 21 27 82 28 22 29 81 30 23 31 24 32 25 33 75 34 26 35 80 36
REMARK SMILES IDX 74 37 76 38 27 39 79 40 73 41 72 42 28 44 60 45 40 46 59 47
REMARK SMILES IDX 41 48 44 49 58 50 77 51 42 52 43 53 57 55 78 56 45 57 29 58
REMARK SMILES IDX 30 59 38 60 31 61 37 62 39 63 36 64 32 65 33 66 34 67 35 68
REMARK SMILES IDX 61 69 62 70 70 71 63 72 69 73 71 74 68 75 64 76 65 77 66 78
REMARK SMILES IDX 67 79 46 80 47 81 55 82 48 83 54 84 56 85 53 86 49 87 50 88
REMARK SMILES IDX 51 89 52 90
REMARK H PARENT 13 7 85 14 17 24 76 43 44 54
REMARK Flexibility Score: inf
ROOT
ATOM      1  C   UNL A   1      32.651  29.676  25.382  1.00  0.00     0.118 C 
ENDROOT
BRANCH   1   2
ATOM      2  C   UNL A   1      31.486  28.712  25.176  1.00  0.00     0.042 C 
BRANCH   2   3
ATOM      3  C   UNL A   1      31.202  28.387  23.709  1.00  0.00     0.118 C 
BRANCH   3   4
ATOM      4  N   UNL A   1      32.393  28.526  22.890  1.00  0.00    -0.352 N 
ATOM      5  C   UNL A   1      33.403  27.670  22.589  1.00  0.00     0.258 C 
ATOM      6  O   UNL A   1      34.269  28.093  21.817  1.00  0.00    -0.269 OA
ATOM      7  H   UNL A   1      32.486  29.414  22.472  1.00  0.00     0.163 HD
BRANCH   5   8
ATOM      8  C   UNL A   1      33.460  26.265  23.071  1.00  0.00     0.123 A 
ATOM      9  C   UNL A   1      33.454  23.570  23.578  1.00  0.00     0.141 A 
ATOM     10  N   UNL A   1      33.348  23.948  22.349  1.00  0.00    -0.237 NA
ATOM     11  N   UNL A   1      33.582  24.427  24.627  1.00  0.00    -0.306 N 
ATOM     12  C   UNL A   1      33.323  25.306  22.134  1.00  0.00     0.133 A 
ATOM     13  C   UNL A   1      33.727  25.769  24.436  1.00  0.00     0.264 A 
ATOM     14  H   UNL A   1      33.569  24.071  25.543  1.00  0.00     0.171 HD
ATOM     15  O   UNL A   1      34.111  26.468  25.367  1.00  0.00    -0.269 OA
BRANCH   9  16
ATOM     16  C   UNL A   1      33.488  22.161  23.906  1.00  0.00     0.031 A 
ATOM     17  C   UNL A   1      35.897  22.112  24.873  1.00  0.00     0.046 C 
ATOM     18  C   UNL A   1      34.602  21.465  24.504  1.00  0.00    -0.029 A 
ATOM     19  C   UNL A   1      34.303  20.132  24.712  1.00  0.00     0.069 A 
ATOM     20  S   UNL A   1      32.726  19.718  24.201  1.00  0.00    -0.151 S 
ATOM     21  C   UNL A   1      32.411  21.319  23.698  1.00  0.00     0.077 A 
ENDBRANCH   9  16
ENDBRANCH   5   8
ENDBRANCH   3   4
ENDBRANCH   2   3
ENDBRANCH   1   2
BRANCH   1  22
ATOM     22  N   UNL A   1      32.207  30.978  25.857  1.00  0.00    -0.352 N 
ATOM     23  C   UNL A   1      32.648  31.729  26.919  1.00  0.00     0.251 C 
ATOM     24  H   UNL A   1      31.477  31.383  25.337  1.00  0.00     0.163 HD
ATOM     25  O   UNL A   1      31.978  32.692  27.280  1.00  0.00    -0.269 OA
BRANCH  23  26
ATOM     26  C   UNL A   1      33.903  31.387  27.631  1.00  0.00     0.039 A 
ATOM     27  C   UNL A   1      34.793  32.417  27.952  1.00  0.00     0.014 A 
ATOM     28  C   UNL A   1      34.238  30.064  27.931  1.00  0.00     0.014 A 
ATOM     29  C   UNL A   1      35.990  32.127  28.615  1.00  0.00     0.010 A 
ATOM     30  C   UNL A   1      35.399  29.782  28.650  1.00  0.00     0.010 A 
ATOM     31  C   UNL A   1      36.292  30.809  28.994  1.00  0.00    -0.014 A 
BRANCH  31  32
ATOM     32  C   UNL A   1      37.538  30.488  29.738  1.00  0.00     0.031 A 
ATOM     33  C   UNL A   1      38.582  29.598  29.117  1.00  0.00     0.074 A 
ATOM     34  C   UNL A   1      37.699  30.942  30.996  1.00  0.00     0.049 A 
ATOM     35  N   UNL A   1      39.689  29.131  29.635  1.00  0.00    -0.248 NA
ATOM     36  C   UNL A   1      38.330  29.151  27.738  1.00  0.00     0.031 C 
ATOM     37  C   UNL A   1      36.737  31.777  31.721  1.00  0.00     0.029 A 
ATOM     38  N   UNL A   1      38.717  30.754  31.898  1.00  0.00    -0.354 N 
ATOM     39  C   UNL A   1      40.255  28.316  28.659  1.00  0.00     0.074 A 
ATOM     40  C   UNL A   1      39.342  28.319  27.535  1.00  0.00     0.031 C 
ATOM     41  C   UNL A   1      37.216  32.036  32.948  1.00  0.00     0.029 A 
ATOM     42  C   UNL A   1      38.495  31.354  33.117  1.00  0.00     0.049 A 
ATOM     43  H   UNL A   1      39.531  30.239  31.692  1.00  0.00     0.167 HD
ATOM     44  C   UNL A   1      41.432  27.644  28.692  1.00  0.00     0.034 A 
ATOM     45  C   UNL A   1      39.229  31.341  34.248  1.00  0.00     0.034 A 
ATOM     46  C   UNL A   1      42.340  27.672  29.814  1.00  0.00     0.049 A 
ATOM     47  C   UNL A   1      40.536  30.589  34.258  1.00  0.00     0.074 A 
ATOM     48  C   UNL A   1      43.592  27.089  29.924  1.00  0.00     0.029 A 
ATOM     49  N   UNL A   1      42.093  28.311  31.023  1.00  0.00    -0.354 N 
ATOM     50  N   UNL A   1      41.085  29.874  33.304  1.00  0.00    -0.248 NA
ATOM     51  C   UNL A   1      41.328  30.655  35.493  1.00  0.00     0.031 C 
ATOM     52  C   UNL A   1      44.071  27.321  31.218  1.00  0.00     0.029 A 
ATOM     53  C   UNL A   1      43.154  28.110  31.894  1.00  0.00     0.049 A 
ATOM     54  H   UNL A   1      41.284  28.831  31.231  1.00  0.00     0.167 HD
ATOM     55  C   UNL A   1      42.300  29.430  33.815  1.00  0.00     0.074 A 
ATOM     56  C   UNL A   1      42.410  29.970  35.155  1.00  0.00     0.031 C 
ATOM     57  C   UNL A   1      43.244  28.648  33.231  1.00  0.00     0.034 A 
BRANCH  44  58
ATOM     58  C   UNL A   1      41.786  26.795  27.493  1.00  0.00     0.023 A 
ATOM     59  C   UNL A   1      41.475  25.425  27.435  1.00  0.00     0.031 A 
ATOM     60  C   UNL A   1      42.461  27.362  26.397  1.00  0.00     0.131 A 
ATOM     61  C   UNL A   1      41.900  24.656  26.341  1.00  0.00     0.055 A 
ATOM     62  C   UNL A   1      42.811  26.608  25.276  1.00  0.00     0.041 A 
ATOM     63  F   UNL A   1      42.801  28.661  26.402  1.00  0.00    -0.206 F 
ATOM     64  C   UNL A   1      42.544  25.243  25.249  1.00  0.00     0.022 A 
BRANCH  61  65
ATOM     65  S   UNL A   1      41.716  22.853  26.425  1.00  0.00     0.124 S 
ATOM     66  O   UNL A   1      42.382  22.547  27.689  1.00  0.00    -0.237 OA
ATOM     67  O   UNL A   1      40.268  22.683  26.408  1.00  0.00    -0.237 OA
ATOM     68  O   UNL A   1      42.415  22.381  25.231  1.00  0.00    -0.744 OA
ENDBRANCH  61  65
ENDBRANCH  44  58
BRANCH  45  69
ATOM     69  C   UNL A   1      38.742  32.041  35.472  1.00  0.00     0.023 A 
ATOM     70  C   UNL A   1      38.209  31.325  36.554  1.00  0.00     0.031 A 
ATOM     71  C   UNL A   1      38.766  33.445  35.556  1.00  0.00     0.131 A 
ATOM     72  C   UNL A   1      37.677  32.015  37.654  1.00  0.00     0.055 A 
ATOM     73  C   UNL A   1      38.284  34.125  36.676  1.00  0.00     0.041 A 
ATOM     74  F   UNL A   1      39.271  34.178  34.550  1.00  0.00    -0.206 F 
ATOM     75  C   UNL A   1      37.722  33.409  37.728  1.00  0.00     0.022 A 
BRANCH  72  76
ATOM     76  S   UNL A   1      36.844  31.064  38.956  1.00  0.00     0.124 S 
ATOM     77  O   UNL A   1      36.738  29.746  38.340  1.00  0.00    -0.237 OA
ATOM     78  O   UNL A   1      37.785  31.181  40.064  1.00  0.00    -0.237 OA
ATOM     79  O   UNL A   1      35.578  31.772  39.137  1.00  0.00    -0.744 OA
ENDBRANCH  72  76
ENDBRANCH  45  69
BRANCH  57  80
ATOM     80  C   UNL A   1      44.495  28.373  34.029  1.00  0.00     0.023 A 
ATOM     81  C   UNL A   1      44.582  27.286  34.916  1.00  0.00     0.031 A 
ATOM     82  C   UNL A   1      45.609  29.223  33.909  1.00  0.00     0.131 A 
ATOM     83  C   UNL A   1      45.739  27.108  35.690  1.00  0.00     0.055 A 
ATOM     84  C   UNL A   1      46.778  29.006  34.638  1.00  0.00     0.041 A 
ATOM     85  F   UNL A   1      45.578  30.277  33.079  1.00  0.00    -0.206 F 
ATOM     86  C   UNL A   1      46.844  27.952  35.545  1.00  0.00     0.022 A 
BRANCH  83  87
ATOM     87  S   UNL A   1      45.749  25.810  36.956  1.00  0.00     0.124 S 
ATOM     88  O   UNL A   1      44.738  26.290  37.892  1.00  0.00    -0.237 OA
ATOM     89  O   UNL A   1      45.393  24.621  36.188  1.00  0.00    -0.237 OA
ATOM     90  O   UNL A   1      47.122  25.832  37.460  1.00  0.00    -0.744 OA
ENDBRANCH  83  87
ENDBRANCH  57  80
ENDBRANCH  31  32
ENDBRANCH  23  26
ENDBRANCH   1  22
TORSDOF 14
ENDMDL
