MODEL 1
REMARK VINA RESULT:     -11.2      0.000      0.000
REMARK SMILES COCCCC(=O)N[C@H]1CC[C@@H](C(=O)NCCCNC(=O)c2ccc(-c3c4nc(c(-c5cc(S(=O)(=O)[O-])ccc5F)c5ccc([nH]5)c(-c5cc(S(=O)(=O)[O-])ccc5F)c5nc(c(-c6cc(S(=O)(=O)[O-])ccc6F)c6ccc3[nH]6)C=C5)C=C4)cc2)CC1
REMARK SMILES IDX 16 1 15 2 13 3 14 4 12 6 9 7 10 8 86 9 11 10 85 11 8 12 6 13
REMARK SMILES IDX 7 14 5 16 4 17 3 18 2 19 1 20 17 21 18 22 19 23 20 24 21 26
REMARK SMILES IDX 22 27 23 28 84 29 24 30 83 31 25 32 26 33 27 34 77 35 28 36
REMARK SMILES IDX 82 37 76 38 78 39 29 40 81 41 75 42 74 43 30 45 62 46 42 47
REMARK SMILES IDX 61 48 43 49 46 50 60 51 79 52 44 53 45 54 59 56 80 57 47 58
REMARK SMILES IDX 31 59 32 60 40 61 33 62 39 63 41 64 38 65 34 66 35 67 36 68
REMARK SMILES IDX 37 69 63 70 64 71 72 72 65 73 71 74 73 75 70 76 66 77 67 78
REMARK SMILES IDX 68 79 69 80 48 81 49 82 57 83 50 84 56 85 58 86 55 87 51 88
REMARK SMILES IDX 52 89 53 90 54 91
REMARK H PARENT 15 5 8 15 19 25 78 44 46 55
REMARK Flexibility Score: inf
ROOT
ATOM      1  C   UNL A   1      34.253  24.409  25.270  1.00  0.00     0.117 C 
ENDROOT
BRANCH   1   2
ATOM      2  N   UNL A   1      34.202  25.589  24.438  1.00  0.00    -0.356 N 
ATOM      3  C   UNL A   1      33.402  25.961  23.412  1.00  0.00     0.223 C 
ATOM      4  O   UNL A   1      33.529  27.132  23.029  1.00  0.00    -0.275 OA
ATOM      5  H   UNL A   1      34.889  26.258  24.662  1.00  0.00     0.163 HD
BRANCH   3   6
ATOM      6  C   UNL A   1      32.388  25.053  22.699  1.00  0.00     0.078 C 
ATOM      7  C   UNL A   1      31.885  22.195  23.460  1.00  0.00     0.082 C 
ATOM      8  C   UNL A   1      31.121  23.327  24.165  1.00  0.00     0.026 C 
ATOM      9  C   UNL A   1      33.122  22.591  22.657  1.00  0.00     0.026 C 
ATOM     10  C   UNL A   1      31.124  24.677  23.466  1.00  0.00     0.015 C 
ATOM     11  C   UNL A   1      32.990  23.901  21.900  1.00  0.00     0.015 C 
BRANCH   7  12
ATOM     12  N   UNL A   1      32.197  21.174  24.456  1.00  0.00    -0.353 N 
ATOM     13  C   UNL A   1      32.339  19.828  24.349  1.00  0.00     0.220 C 
ATOM     14  O   UNL A   1      32.315  19.165  25.387  1.00  0.00    -0.275 OA
ATOM     15  H   UNL A   1      32.328  21.524  25.366  1.00  0.00     0.163 HD
BRANCH  13  16
ATOM     16  C   UNL A   1      32.592  19.168  23.012  1.00  0.00     0.102 C 
BRANCH  16  17
ATOM     17  C   UNL A   1      32.654  17.639  23.006  1.00  0.00     0.038 C 
BRANCH  17  18
ATOM     18  C   UNL A   1      34.006  16.946  23.181  1.00  0.00     0.160 C 
BRANCH  18  19
ATOM     19  O   UNL A   1      34.105  15.899  24.144  1.00  0.00    -0.385 OA
ATOM     20  C   UNL A   1      33.019  15.693  25.027  1.00  0.00     0.194 C 
ENDBRANCH  18  19
ENDBRANCH  17  18
ENDBRANCH  16  17
ENDBRANCH  13  16
ENDBRANCH   7  12
ENDBRANCH   3   6
ENDBRANCH   1   2
BRANCH   1  21
ATOM     21  C   UNL A   1      35.424  23.492  24.954  1.00  0.00     0.042 C 
BRANCH  21  22
ATOM     22  C   UNL A   1      35.892  22.687  26.149  1.00  0.00     0.118 C 
BRANCH  22  23
ATOM     23  N   UNL A   1      36.850  21.646  25.781  1.00  0.00    -0.352 N 
ATOM     24  C   UNL A   1      38.229  21.622  25.827  1.00  0.00     0.251 C 
ATOM     25  H   UNL A   1      36.440  20.818  25.441  1.00  0.00     0.163 HD
ATOM     26  O   UNL A   1      38.824  20.678  25.330  1.00  0.00    -0.269 OA
BRANCH  24  27
ATOM     27  C   UNL A   1      38.982  22.742  26.442  1.00  0.00     0.039 A 
ATOM     28  C   UNL A   1      40.027  22.469  27.331  1.00  0.00     0.014 A 
ATOM     29  C   UNL A   1      38.666  24.063  26.139  1.00  0.00     0.014 A 
ATOM     30  C   UNL A   1      40.808  23.518  27.831  1.00  0.00     0.010 A 
ATOM     31  C   UNL A   1      39.525  25.084  26.519  1.00  0.00     0.010 A 
ATOM     32  C   UNL A   1      40.600  24.831  27.383  1.00  0.00    -0.014 A 
BRANCH  32  33
ATOM     33  C   UNL A   1      41.438  25.984  27.815  1.00  0.00     0.031 A 
ATOM     34  C   UNL A   1      40.790  27.106  28.590  1.00  0.00     0.074 A 
ATOM     35  C   UNL A   1      42.718  26.094  27.407  1.00  0.00     0.049 A 
ATOM     36  N   UNL A   1      41.227  28.314  28.830  1.00  0.00    -0.248 NA
ATOM     37  C   UNL A   1      39.435  26.846  29.102  1.00  0.00     0.031 C 
ATOM     38  C   UNL A   1      43.451  25.099  26.622  1.00  0.00     0.029 A 
ATOM     39  N   UNL A   1      43.626  27.112  27.577  1.00  0.00    -0.354 N 
ATOM     40  C   UNL A   1      40.179  28.974  29.464  1.00  0.00     0.074 A 
ATOM     41  C   UNL A   1      39.067  28.051  29.507  1.00  0.00     0.031 C 
ATOM     42  C   UNL A   1      44.699  25.544  26.400  1.00  0.00     0.029 A 
ATOM     43  C   UNL A   1      44.838  26.880  26.968  1.00  0.00     0.049 A 
ATOM     44  H   UNL A   1      43.427  27.930  28.087  1.00  0.00     0.167 HD
ATOM     45  C   UNL A   1      40.155  30.227  29.984  1.00  0.00     0.034 A 
ATOM     46  C   UNL A   1      45.928  27.667  26.859  1.00  0.00     0.034 A 
ATOM     47  C   UNL A   1      41.298  31.102  29.992  1.00  0.00     0.049 A 
ATOM     48  C   UNL A   1      45.894  29.044  27.472  1.00  0.00     0.074 A 
ATOM     49  C   UNL A   1      41.421  32.358  30.561  1.00  0.00     0.029 A 
ATOM     50  N   UNL A   1      42.527  30.805  29.415  1.00  0.00    -0.354 N 
ATOM     51  N   UNL A   1      44.902  29.649  28.085  1.00  0.00    -0.248 NA
ATOM     52  C   UNL A   1      47.123  29.843  27.383  1.00  0.00     0.031 C 
ATOM     53  C   UNL A   1      42.705  32.839  30.285  1.00  0.00     0.029 A 
ATOM     54  C   UNL A   1      43.406  31.858  29.602  1.00  0.00     0.049 A 
ATOM     55  H   UNL A   1      42.740  29.968  28.942  1.00  0.00     0.167 HD
ATOM     56  C   UNL A   1      45.402  30.884  28.487  1.00  0.00     0.074 A 
ATOM     57  C   UNL A   1      46.781  30.938  28.047  1.00  0.00     0.031 C 
ATOM     58  C   UNL A   1      44.781  31.882  29.165  1.00  0.00     0.034 A 
BRANCH  45  59
ATOM     59  C   UNL A   1      38.850  30.715  30.569  1.00  0.00     0.023 A 
ATOM     60  C   UNL A   1      37.834  31.258  29.764  1.00  0.00     0.031 A 
ATOM     61  C   UNL A   1      38.634  30.678  31.959  1.00  0.00     0.131 A 
ATOM     62  C   UNL A   1      36.699  31.831  30.357  1.00  0.00     0.055 A 
ATOM     63  C   UNL A   1      37.459  31.165  32.536  1.00  0.00     0.041 A 
ATOM     64  F   UNL A   1      39.573  30.189  32.784  1.00  0.00    -0.206 F 
ATOM     65  C   UNL A   1      36.491  31.764  31.735  1.00  0.00     0.022 A 
BRANCH  62  66
ATOM     66  S   UNL A   1      35.586  32.812  29.314  1.00  0.00     0.124 S 
ATOM     67  O   UNL A   1      35.651  32.082  28.050  1.00  0.00    -0.237 OA
ATOM     68  O   UNL A   1      34.322  32.727  30.035  1.00  0.00    -0.237 OA
ATOM     69  O   UNL A   1      36.208  34.134  29.295  1.00  0.00    -0.744 OA
ENDBRANCH  62  66
ENDBRANCH  45  59
BRANCH  46  70
ATOM     70  C   UNL A   1      47.140  27.182  26.138  1.00  0.00     0.023 A 
ATOM     71  C   UNL A   1      48.142  26.470  26.817  1.00  0.00     0.031 A 
ATOM     72  C   UNL A   1      47.333  27.447  24.771  1.00  0.00     0.131 A 
ATOM     73  C   UNL A   1      49.310  26.085  26.140  1.00  0.00     0.055 A 
ATOM     74  C   UNL A   1      48.473  27.018  24.089  1.00  0.00     0.041 A 
ATOM     75  F   UNL A   1      46.403  28.117  24.072  1.00  0.00    -0.206 F 
ATOM     76  C   UNL A   1      49.477  26.343  24.778  1.00  0.00     0.022 A 
BRANCH  73  77
ATOM     77  S   UNL A   1      50.648  25.309  27.089  1.00  0.00     0.124 S 
ATOM     78  O   UNL A   1      49.942  24.228  27.766  1.00  0.00    -0.237 OA
ATOM     79  O   UNL A   1      51.574  24.910  26.034  1.00  0.00    -0.237 OA
ATOM     80  O   UNL A   1      51.118  26.387  27.955  1.00  0.00    -0.744 OA
ENDBRANCH  73  77
ENDBRANCH  46  70
BRANCH  58  81
ATOM     81  C   UNL A   1      45.609  33.084  29.534  1.00  0.00     0.023 A 
ATOM     82  C   UNL A   1      45.728  34.194  28.682  1.00  0.00     0.031 A 
ATOM     83  C   UNL A   1      46.260  33.126  30.780  1.00  0.00     0.131 A 
ATOM     84  C   UNL A   1      46.508  35.290  29.075  1.00  0.00     0.055 A 
ATOM     85  C   UNL A   1      46.996  34.239  31.186  1.00  0.00     0.041 A 
ATOM     86  F   UNL A   1      46.175  32.089  31.630  1.00  0.00    -0.206 F 
ATOM     87  C   UNL A   1      47.130  35.327  30.328  1.00  0.00     0.022 A 
BRANCH  84  88
ATOM     88  S   UNL A   1      46.741  36.660  27.909  1.00  0.00     0.124 S 
ATOM     89  O   UNL A   1      46.558  35.996  26.622  1.00  0.00    -0.237 OA
ATOM     90  O   UNL A   1      45.687  37.590  28.301  1.00  0.00    -0.237 OA
ATOM     91  O   UNL A   1      48.102  37.117  28.182  1.00  0.00    -0.744 OA
ENDBRANCH  84  88
ENDBRANCH  58  81
ENDBRANCH  32  33
ENDBRANCH  24  27
ENDBRANCH  22  23
ENDBRANCH  21  22
ENDBRANCH   1  21
TORSDOF 18
ENDMDL
MODEL 2
REMARK VINA RESULT:     -10.7      4.703      9.531
REMARK SMILES COCCCC(=O)N[C@H]1CC[C@@H](C(=O)NCCCNC(=O)c2ccc(-c3c4nc(c(-c5cc(S(=O)(=O)[O-])ccc5F)c5ccc([nH]5)c(-c5cc(S(=O)(=O)[O-])ccc5F)c5nc(c(-c6cc(S(=O)(=O)[O-])ccc6F)c6ccc3[nH]6)C=C5)C=C4)cc2)CC1
REMARK SMILES IDX 16 1 15 2 13 3 14 4 12 6 9 7 10 8 86 9 11 10 85 11 8 12 6 13
REMARK SMILES IDX 7 14 5 16 4 17 3 18 2 19 1 20 17 21 18 22 19 23 20 24 21 26
REMARK SMILES IDX 22 27 23 28 84 29 24 30 83 31 25 32 26 33 27 34 77 35 28 36
REMARK SMILES IDX 82 37 76 38 78 39 29 40 81 41 75 42 74 43 30 45 62 46 42 47
REMARK SMILES IDX 61 48 43 49 46 50 60 51 79 52 44 53 45 54 59 56 80 57 47 58
REMARK SMILES IDX 31 59 32 60 40 61 33 62 39 63 41 64 38 65 34 66 35 67 36 68
REMARK SMILES IDX 37 69 63 70 64 71 72 72 65 73 71 74 73 75 70 76 66 77 67 78
REMARK SMILES IDX 68 79 69 80 48 81 49 82 57 83 50 84 56 85 58 86 55 87 51 88
REMARK SMILES IDX 52 89 53 90 54 91
REMARK H PARENT 15 5 8 15 19 25 78 44 46 55
REMARK Flexibility Score: inf
ROOT
ATOM      1  C   UNL A   1      31.963  27.016  25.067  1.00  0.00     0.117 C 
ENDROOT
BRANCH   1   2
ATOM      2  N   UNL A   1      33.259  26.489  24.708  1.00  0.00    -0.356 N 
ATOM      3  C   UNL A   1      33.804  25.252  24.777  1.00  0.00     0.223 C 
ATOM      4  O   UNL A   1      34.899  25.115  24.217  1.00  0.00    -0.275 OA
ATOM      5  H   UNL A   1      33.871  27.167  24.339  1.00  0.00     0.163 HD
BRANCH   3   6
ATOM      6  C   UNL A   1      33.182  24.044  25.496  1.00  0.00     0.078 C 
ATOM      7  C   UNL A   1      34.406  21.305  25.518  1.00  0.00     0.082 C 
ATOM      8  C   UNL A   1      34.822  22.345  26.572  1.00  0.00     0.026 C 
ATOM      9  C   UNL A   1      33.657  21.824  24.293  1.00  0.00     0.026 C 
ATOM     10  C   UNL A   1      33.890  23.534  26.746  1.00  0.00     0.015 C 
ATOM     11  C   UNL A   1      32.664  22.936  24.585  1.00  0.00     0.015 C 
BRANCH   7  12
ATOM     12  N   UNL A   1      35.596  20.549  25.138  1.00  0.00    -0.353 N 
ATOM     13  C   UNL A   1      35.777  19.228  24.881  1.00  0.00     0.220 C 
ATOM     14  O   UNL A   1      36.932  18.800  24.867  1.00  0.00    -0.275 OA
ATOM     15  H   UNL A   1      36.411  21.093  25.053  1.00  0.00     0.163 HD
BRANCH  13  16
ATOM     16  C   UNL A   1      34.610  18.325  24.550  1.00  0.00     0.102 C 
BRANCH  16  17
ATOM     17  C   UNL A   1      34.813  16.828  24.799  1.00  0.00     0.038 C 
BRANCH  17  18
ATOM     18  C   UNL A   1      33.833  15.829  24.181  1.00  0.00     0.160 C 
BRANCH  18  19
ATOM     19  O   UNL A   1      33.292  14.812  25.020  1.00  0.00    -0.385 OA
ATOM     20  C   UNL A   1      32.194  15.139  25.851  1.00  0.00     0.194 C 
ENDBRANCH  18  19
ENDBRANCH  17  18
ENDBRANCH  16  17
ENDBRANCH  13  16
ENDBRANCH   7  12
ENDBRANCH   3   6
ENDBRANCH   1   2
BRANCH   1  21
ATOM     21  C   UNL A   1      32.028  28.163  26.065  1.00  0.00     0.042 C 
BRANCH  21  22
ATOM     22  C   UNL A   1      32.860  29.332  25.579  1.00  0.00     0.118 C 
BRANCH  22  23
ATOM     23  N   UNL A   1      32.380  30.612  26.096  1.00  0.00    -0.352 N 
ATOM     24  C   UNL A   1      32.918  31.473  27.030  1.00  0.00     0.251 C 
ATOM     25  H   UNL A   1      31.525  30.911  25.711  1.00  0.00     0.163 HD
ATOM     26  O   UNL A   1      32.257  32.430  27.406  1.00  0.00    -0.269 OA
BRANCH  24  27
ATOM     27  C   UNL A   1      34.267  31.226  27.595  1.00  0.00     0.039 A 
ATOM     28  C   UNL A   1      35.176  32.283  27.706  1.00  0.00     0.014 A 
ATOM     29  C   UNL A   1      34.636  29.954  28.025  1.00  0.00     0.014 A 
ATOM     30  C   UNL A   1      36.409  32.077  28.336  1.00  0.00     0.010 A 
ATOM     31  C   UNL A   1      35.792  29.786  28.772  1.00  0.00     0.010 A 
ATOM     32  C   UNL A   1      36.705  30.840  28.927  1.00  0.00    -0.014 A 
BRANCH  32  33
ATOM     33  C   UNL A   1      37.964  30.571  29.675  1.00  0.00     0.031 A 
ATOM     34  C   UNL A   1      38.984  29.634  29.073  1.00  0.00     0.074 A 
ATOM     35  C   UNL A   1      38.135  31.044  30.925  1.00  0.00     0.049 A 
ATOM     36  N   UNL A   1      40.002  29.037  29.636  1.00  0.00    -0.248 NA
ATOM     37  C   UNL A   1      38.781  29.270  27.662  1.00  0.00     0.031 C 
ATOM     38  C   UNL A   1      37.209  31.928  31.636  1.00  0.00     0.029 A 
ATOM     39  N   UNL A   1      39.142  30.825  31.834  1.00  0.00    -0.354 N 
ATOM     40  C   UNL A   1      40.519  28.183  28.667  1.00  0.00     0.074 A 
ATOM     41  C   UNL A   1      39.660  28.293  27.509  1.00  0.00     0.031 C 
ATOM     42  C   UNL A   1      37.701  32.193  32.857  1.00  0.00     0.029 A 
ATOM     43  C   UNL A   1      38.943  31.451  33.044  1.00  0.00     0.049 A 
ATOM     44  H   UNL A   1      39.932  30.272  31.638  1.00  0.00     0.167 HD
ATOM     45  C   UNL A   1      41.624  27.398  28.729  1.00  0.00     0.034 A 
ATOM     46  C   UNL A   1      39.666  31.409  34.181  1.00  0.00     0.034 A 
ATOM     47  C   UNL A   1      42.504  27.360  29.868  1.00  0.00     0.049 A 
ATOM     48  C   UNL A   1      40.910  30.557  34.220  1.00  0.00     0.074 A 
ATOM     49  C   UNL A   1      43.695  26.670  30.018  1.00  0.00     0.029 A 
ATOM     50  N   UNL A   1      42.297  28.056  31.053  1.00  0.00    -0.354 N 
ATOM     51  N   UNL A   1      41.398  29.769  33.291  1.00  0.00    -0.248 NA
ATOM     52  C   UNL A   1      41.700  30.589  35.458  1.00  0.00     0.031 C 
ATOM     53  C   UNL A   1      44.179  26.909  31.308  1.00  0.00     0.029 A 
ATOM     54  C   UNL A   1      43.327  27.800  31.941  1.00  0.00     0.049 A 
ATOM     55  H   UNL A   1      41.528  28.645  31.234  1.00  0.00     0.167 HD
ATOM     56  C   UNL A   1      42.574  29.242  33.819  1.00  0.00     0.074 A 
ATOM     57  C   UNL A   1      42.720  29.801  35.147  1.00  0.00     0.031 C 
ATOM     58  C   UNL A   1      43.457  28.381  33.256  1.00  0.00     0.034 A 
BRANCH  45  59
ATOM     59  C   UNL A   1      41.924  26.518  27.538  1.00  0.00     0.023 A 
ATOM     60  C   UNL A   1      41.488  25.183  27.475  1.00  0.00     0.031 A 
ATOM     61  C   UNL A   1      42.694  27.007  26.467  1.00  0.00     0.131 A 
ATOM     62  C   UNL A   1      41.908  24.357  26.422  1.00  0.00     0.055 A 
ATOM     63  C   UNL A   1      43.029  26.205  25.373  1.00  0.00     0.041 A 
ATOM     64  F   UNL A   1      43.156  28.267  26.475  1.00  0.00    -0.206 F 
ATOM     65  C   UNL A   1      42.651  24.865  25.356  1.00  0.00     0.022 A 
BRANCH  62  66
ATOM     66  S   UNL A   1      41.607  22.574  26.554  1.00  0.00     0.124 S 
ATOM     67  O   UNL A   1      42.388  22.061  25.430  1.00  0.00    -0.237 OA
ATOM     68  O   UNL A   1      42.122  22.264  27.882  1.00  0.00    -0.237 OA
ATOM     69  O   UNL A   1      40.159  22.457  26.402  1.00  0.00    -0.744 OA
ENDBRANCH  62  66
ENDBRANCH  45  59
BRANCH  46  70
ATOM     70  C   UNL A   1      39.237  32.190  35.378  1.00  0.00     0.023 A 
ATOM     71  C   UNL A   1      39.685  33.505  35.575  1.00  0.00     0.031 A 
ATOM     72  C   UNL A   1      38.400  31.625  36.356  1.00  0.00     0.131 A 
ATOM     73  C   UNL A   1      39.330  34.199  36.743  1.00  0.00     0.055 A 
ATOM     74  C   UNL A   1      38.009  32.336  37.492  1.00  0.00     0.041 A 
ATOM     75  F   UNL A   1      37.937  30.373  36.213  1.00  0.00    -0.206 F 
ATOM     76  C   UNL A   1      38.485  33.628  37.697  1.00  0.00     0.022 A 
BRANCH  73  77
ATOM     77  S   UNL A   1      40.058  35.835  37.037  1.00  0.00     0.124 S 
ATOM     78  O   UNL A   1      39.372  36.251  38.254  1.00  0.00    -0.237 OA
ATOM     79  O   UNL A   1      41.475  35.514  37.175  1.00  0.00    -0.237 OA
ATOM     80  O   UNL A   1      39.705  36.583  35.833  1.00  0.00    -0.744 OA
ENDBRANCH  73  77
ENDBRANCH  46  70
BRANCH  58  81
ATOM     81  C   UNL A   1      44.695  28.047  34.045  1.00  0.00     0.023 A 
ATOM     82  C   UNL A   1      44.758  26.925  34.887  1.00  0.00     0.031 A 
ATOM     83  C   UNL A   1      45.840  28.854  33.922  1.00  0.00     0.131 A 
ATOM     84  C   UNL A   1      45.936  26.657  35.599  1.00  0.00     0.055 A 
ATOM     85  C   UNL A   1      47.024  28.556  34.595  1.00  0.00     0.041 A 
ATOM     86  F   UNL A   1      45.828  29.938  33.127  1.00  0.00    -0.206 F 
ATOM     87  C   UNL A   1      47.074  27.455  35.445  1.00  0.00     0.022 A 
BRANCH  84  88
ATOM     88  S   UNL A   1      45.954  25.270  36.768  1.00  0.00     0.124 S 
ATOM     89  O   UNL A   1      47.383  25.018  36.917  1.00  0.00    -0.237 OA
ATOM     90  O   UNL A   1      45.281  25.833  37.934  1.00  0.00    -0.237 OA
ATOM     91  O   UNL A   1      45.209  24.223  36.071  1.00  0.00    -0.744 OA
ENDBRANCH  84  88
ENDBRANCH  58  81
ENDBRANCH  32  33
ENDBRANCH  24  27
ENDBRANCH  22  23
ENDBRANCH  21  22
ENDBRANCH   1  21
TORSDOF 18
ENDMDL
MODEL 3
REMARK VINA RESULT:     -10.7      5.107      9.680
REMARK SMILES COCCCC(=O)N[C@H]1CC[C@@H](C(=O)NCCCNC(=O)c2ccc(-c3c4nc(c(-c5cc(S(=O)(=O)[O-])ccc5F)c5ccc([nH]5)c(-c5cc(S(=O)(=O)[O-])ccc5F)c5nc(c(-c6cc(S(=O)(=O)[O-])ccc6F)c6ccc3[nH]6)C=C5)C=C4)cc2)CC1
REMARK SMILES IDX 16 1 15 2 13 3 14 4 12 6 9 7 10 8 86 9 11 10 85 11 8 12 6 13
REMARK SMILES IDX 7 14 5 16 4 17 3 18 2 19 1 20 17 21 18 22 19 23 20 24 21 26
REMARK SMILES IDX 22 27 23 28 84 29 24 30 83 31 25 32 26 33 27 34 77 35 28 36
REMARK SMILES IDX 82 37 76 38 78 39 29 40 81 41 75 42 74 43 30 45 62 46 42 47
REMARK SMILES IDX 61 48 43 49 46 50 60 51 79 52 44 53 45 54 59 56 80 57 47 58
REMARK SMILES IDX 31 59 32 60 40 61 33 62 39 63 41 64 38 65 34 66 35 67 36 68
REMARK SMILES IDX 37 69 63 70 64 71 72 72 65 73 71 74 73 75 70 76 66 77 67 78
REMARK SMILES IDX 68 79 69 80 48 81 49 82 57 83 50 84 56 85 58 86 55 87 51 88
REMARK SMILES IDX 52 89 53 90 54 91
REMARK H PARENT 15 5 8 15 19 25 78 44 46 55
REMARK Flexibility Score: inf
ROOT
ATOM      1  C   UNL A   1      32.746  27.226  24.167  1.00  0.00     0.117 C 
ENDROOT
BRANCH   1   2
ATOM      2  N   UNL A   1      33.492  26.189  24.841  1.00  0.00    -0.356 N 
ATOM      3  C   UNL A   1      33.335  24.847  24.928  1.00  0.00     0.223 C 
ATOM      4  O   UNL A   1      34.269  24.230  25.457  1.00  0.00    -0.275 OA
ATOM      5  H   UNL A   1      34.272  26.526  25.337  1.00  0.00     0.163 HD
BRANCH   3   6
ATOM      6  C   UNL A   1      32.106  24.061  24.446  1.00  0.00     0.078 C 
ATOM      7  C   UNL A   1      32.054  21.079  24.124  1.00  0.00     0.082 C 
ATOM      8  C   UNL A   1      31.729  21.714  25.486  1.00  0.00     0.026 C 
ATOM      9  C   UNL A   1      32.736  21.972  23.090  1.00  0.00     0.026 C 
ATOM     10  C   UNL A   1      31.383  23.194  25.472  1.00  0.00     0.015 C 
ATOM     11  C   UNL A   1      32.243  23.408  23.075  1.00  0.00     0.015 C 
BRANCH   7  12
ATOM     12  N   UNL A   1      32.819  19.859  24.367  1.00  0.00    -0.353 N 
ATOM     13  C   UNL A   1      34.134  19.662  24.640  1.00  0.00     0.220 C 
ATOM     14  O   UNL A   1      34.581  18.521  24.514  1.00  0.00    -0.275 OA
ATOM     15  H   UNL A   1      32.286  19.033  24.326  1.00  0.00     0.163 HD
BRANCH  13  16
ATOM     16  C   UNL A   1      35.007  20.786  25.151  1.00  0.00     0.102 C 
BRANCH  16  17
ATOM     17  C   UNL A   1      36.504  20.488  25.271  1.00  0.00     0.038 C 
BRANCH  17  18
ATOM     18  C   UNL A   1      37.508  21.418  24.587  1.00  0.00     0.160 C 
BRANCH  18  19
ATOM     19  O   UNL A   1      37.104  22.758  24.315  1.00  0.00    -0.385 OA
ATOM     20  C   UNL A   1      36.605  23.062  23.026  1.00  0.00     0.194 C 
ENDBRANCH  18  19
ENDBRANCH  17  18
ENDBRANCH  16  17
ENDBRANCH  13  16
ENDBRANCH   7  12
ENDBRANCH   3   6
ENDBRANCH   1   2
BRANCH   1  21
ATOM     21  C   UNL A   1      32.249  28.321  25.098  1.00  0.00     0.042 C 
BRANCH  21  22
ATOM     22  C   UNL A   1      33.210  29.487  25.217  1.00  0.00     0.118 C 
BRANCH  22  23
ATOM     23  N   UNL A   1      32.612  30.637  25.891  1.00  0.00    -0.352 N 
ATOM     24  C   UNL A   1      33.043  31.386  26.967  1.00  0.00     0.251 C 
ATOM     25  H   UNL A   1      31.752  30.929  25.510  1.00  0.00     0.163 HD
ATOM     26  O   UNL A   1      32.294  32.226  27.444  1.00  0.00    -0.269 OA
BRANCH  24  27
ATOM     27  C   UNL A   1      34.383  31.154  27.558  1.00  0.00     0.039 A 
ATOM     28  C   UNL A   1      35.287  32.216  27.663  1.00  0.00     0.014 A 
ATOM     29  C   UNL A   1      34.749  29.892  28.017  1.00  0.00     0.014 A 
ATOM     30  C   UNL A   1      36.511  32.026  28.316  1.00  0.00     0.010 A 
ATOM     31  C   UNL A   1      35.893  29.742  28.786  1.00  0.00     0.010 A 
ATOM     32  C   UNL A   1      36.801  30.802  28.935  1.00  0.00    -0.014 A 
BRANCH  32  33
ATOM     33  C   UNL A   1      38.049  30.551  29.708  1.00  0.00     0.031 A 
ATOM     34  C   UNL A   1      39.090  29.624  29.131  1.00  0.00     0.074 A 
ATOM     35  C   UNL A   1      38.190  31.033  30.959  1.00  0.00     0.049 A 
ATOM     36  N   UNL A   1      40.104  29.042  29.716  1.00  0.00    -0.248 NA
ATOM     37  C   UNL A   1      38.919  29.250  27.718  1.00  0.00     0.031 C 
ATOM     38  C   UNL A   1      37.240  31.909  31.648  1.00  0.00     0.029 A 
ATOM     39  N   UNL A   1      39.182  30.830  31.888  1.00  0.00    -0.354 N 
ATOM     40  C   UNL A   1      40.650  28.189  28.761  1.00  0.00     0.074 A 
ATOM     41  C   UNL A   1      39.812  28.283  27.586  1.00  0.00     0.031 C 
ATOM     42  C   UNL A   1      37.707  32.186  32.876  1.00  0.00     0.029 A 
ATOM     43  C   UNL A   1      38.953  31.460  33.091  1.00  0.00     0.049 A 
ATOM     44  H   UNL A   1      39.982  30.285  31.710  1.00  0.00     0.167 HD
ATOM     45  C   UNL A   1      41.763  27.417  28.848  1.00  0.00     0.034 A 
ATOM     46  C   UNL A   1      39.655  31.433  34.241  1.00  0.00     0.034 A 
ATOM     47  C   UNL A   1      42.622  27.395  30.004  1.00  0.00     0.049 A 
ATOM     48  C   UNL A   1      40.907  30.595  34.309  1.00  0.00     0.074 A 
ATOM     49  C   UNL A   1      43.817  26.720  30.180  1.00  0.00     0.029 A 
ATOM     50  N   UNL A   1      42.383  28.095  31.181  1.00  0.00    -0.354 N 
ATOM     51  N   UNL A   1      41.423  29.808  33.392  1.00  0.00    -0.248 NA
ATOM     52  C   UNL A   1      41.674  30.643  35.561  1.00  0.00     0.031 C 
ATOM     53  C   UNL A   1      44.274  26.971  31.477  1.00  0.00     0.029 A 
ATOM     54  C   UNL A   1      43.400  27.856  32.090  1.00  0.00     0.049 A 
ATOM     55  H   UNL A   1      41.604  28.675  31.344  1.00  0.00     0.167 HD
ATOM     56  C   UNL A   1      42.594  29.298  33.945  1.00  0.00     0.074 A 
ATOM     57  C   UNL A   1      42.708  29.865  35.273  1.00  0.00     0.031 C 
ATOM     58  C   UNL A   1      43.498  28.444  33.404  1.00  0.00     0.034 A 
BRANCH  45  59
ATOM     59  C   UNL A   1      42.095  26.535  27.668  1.00  0.00     0.023 A 
ATOM     60  C   UNL A   1      41.621  25.215  27.573  1.00  0.00     0.031 A 
ATOM     61  C   UNL A   1      42.935  27.004  26.642  1.00  0.00     0.131 A 
ATOM     62  C   UNL A   1      42.067  24.382  26.536  1.00  0.00     0.055 A 
ATOM     63  C   UNL A   1      43.300  26.199  25.561  1.00  0.00     0.041 A 
ATOM     64  F   UNL A   1      43.436  28.249  26.683  1.00  0.00    -0.206 F 
ATOM     65  C   UNL A   1      42.881  24.872  25.514  1.00  0.00     0.022 A 
BRANCH  62  66
ATOM     66  S   UNL A   1      41.703  22.608  26.640  1.00  0.00     0.124 S 
ATOM     67  O   UNL A   1      42.569  22.196  27.742  1.00  0.00    -0.237 OA
ATOM     68  O   UNL A   1      40.271  22.596  26.915  1.00  0.00    -0.237 OA
ATOM     69  O   UNL A   1      42.092  22.100  25.327  1.00  0.00    -0.744 OA
ENDBRANCH  62  66
ENDBRANCH  45  59
BRANCH  46  70
ATOM     70  C   UNL A   1      39.194  32.214  35.425  1.00  0.00     0.023 A 
ATOM     71  C   UNL A   1      38.537  31.580  36.492  1.00  0.00     0.031 A 
ATOM     72  C   UNL A   1      39.374  33.606  35.497  1.00  0.00     0.131 A 
ATOM     73  C   UNL A   1      38.045  32.341  37.564  1.00  0.00     0.055 A 
ATOM     74  C   UNL A   1      38.928  34.352  36.589  1.00  0.00     0.041 A 
ATOM     75  F   UNL A   1      40.003  34.262  34.509  1.00  0.00    -0.206 F 
ATOM     76  C   UNL A   1      38.247  33.720  37.626  1.00  0.00     0.022 A 
BRANCH  73  77
ATOM     77  S   UNL A   1      37.063  31.507  38.842  1.00  0.00     0.124 S 
ATOM     78  O   UNL A   1      37.904  31.678  40.021  1.00  0.00    -0.237 OA
ATOM     79  O   UNL A   1      35.823  32.276  38.820  1.00  0.00    -0.237 OA
ATOM     80  O   UNL A   1      36.955  30.137  38.345  1.00  0.00    -0.744 OA
ENDBRANCH  73  77
ENDBRANCH  46  70
BRANCH  58  81
ATOM     81  C   UNL A   1      44.724  28.129  34.218  1.00  0.00     0.023 A 
ATOM     82  C   UNL A   1      44.731  27.113  35.187  1.00  0.00     0.031 A 
ATOM     83  C   UNL A   1      45.915  28.842  33.991  1.00  0.00     0.131 A 
ATOM     84  C   UNL A   1      45.900  26.857  35.917  1.00  0.00     0.055 A 
ATOM     85  C   UNL A   1      47.088  28.552  34.686  1.00  0.00     0.041 A 
ATOM     86  F   UNL A   1      45.958  29.823  33.073  1.00  0.00    -0.206 F 
ATOM     87  C   UNL A   1      47.083  27.559  35.661  1.00  0.00     0.022 A 
BRANCH  84  88
ATOM     88  S   UNL A   1      45.850  25.620  37.242  1.00  0.00     0.124 S 
ATOM     89  O   UNL A   1      44.643  26.002  37.967  1.00  0.00    -0.237 OA
ATOM     90  O   UNL A   1      45.776  24.366  36.499  1.00  0.00    -0.237 OA
ATOM     91  O   UNL A   1      47.102  25.837  37.964  1.00  0.00    -0.744 OA
ENDBRANCH  84  88
ENDBRANCH  58  81
ENDBRANCH  32  33
ENDBRANCH  24  27
ENDBRANCH  22  23
ENDBRANCH  21  22
ENDBRANCH   1  21
TORSDOF 18
ENDMDL
