MODEL 1
REMARK VINA RESULT:     -11.8      0.000      0.000
REMARK SMILES CCc1ccc(Nc2nc(OCC(=O)NCCCNC(=O)c3ccc(-c4c5nc(c(-c6cc(S(=O)(=O)[O-])ccc6F)c6ccc([nH]6)c(-c6cc(S(=O)(=O)[O-])ccc6F)c6nc(c(-c7cc(S(=O)(=O)[O-])ccc7F)c7ccc4[nH]7)C=C6)C=C5)cc3)cc(-c3cccnc3)n2)cc1
REMARK SMILES IDX 16 1 15 2 13 3 14 4 12 6 11 7 10 8 8 9 9 10 93 11 86 12
REMARK SMILES IDX 85 13 7 14 6 16 3 17 4 18 95 19 5 20 94 21 2 22 1 23 87 24
REMARK SMILES IDX 88 25 92 26 89 27 91 28 90 29 17 30 18 31 19 32 20 33 21 35
REMARK SMILES IDX 22 36 23 37 84 38 24 39 83 40 25 41 26 42 27 43 77 44 28 45
REMARK SMILES IDX 82 46 76 47 78 48 29 49 81 50 75 51 74 52 30 54 62 55 42 56
REMARK SMILES IDX 61 57 43 58 46 59 60 60 79 61 44 62 45 63 59 65 80 66 47 67
REMARK SMILES IDX 31 68 32 69 40 70 33 71 39 72 41 73 38 74 34 75 35 76 36 77
REMARK SMILES IDX 37 78 63 79 64 80 72 81 65 82 71 83 73 84 70 85 66 86 67 87
REMARK SMILES IDX 68 88 69 89 48 90 49 91 57 92 50 93 56 94 58 95 55 96 51 97
REMARK SMILES IDX 52 98 53 99 54 100
REMARK H PARENT 15 5 7 15 19 34 78 53 46 64
REMARK Flexibility Score: inf
ROOT
ATOM      1  C   UNL A   1      32.987  28.457  23.560  1.00  0.00     0.117 C 
ENDROOT
BRANCH   1   2
ATOM      2  N   UNL A   1      33.384  27.695  22.391  1.00  0.00    -0.353 N 
ATOM      3  C   UNL A   1      32.879  26.516  21.935  1.00  0.00     0.258 C 
ATOM      4  O   UNL A   1      33.349  26.024  20.907  1.00  0.00    -0.271 OA
ATOM      5  H   UNL A   1      34.116  28.082  21.857  1.00  0.00     0.163 HD
BRANCH   3   6
ATOM      6  C   UNL A   1      31.731  25.830  22.691  1.00  0.00     0.331 C 
BRANCH   6   7
ATOM      7  O   UNL A   1      32.027  25.281  23.963  1.00  0.00    -0.467 OA
BRANCH   7   8
ATOM      8  C   UNL A   1      32.851  24.193  24.016  1.00  0.00     0.219 A 
ATOM      9  C   UNL A   1      32.922  21.920  23.721  1.00  0.00     0.231 A 
ATOM     10  N   UNL A   1      32.251  23.071  23.588  1.00  0.00    -0.177 NA
ATOM     11  N   UNL A   1      34.183  21.849  24.175  1.00  0.00    -0.212 NA
ATOM     12  C   UNL A   1      34.774  22.986  24.564  1.00  0.00     0.081 A 
ATOM     13  C   UNL A   1      34.139  24.205  24.491  1.00  0.00     0.097 A 
BRANCH   9  14
ATOM     14  N   UNL A   1      32.228  20.747  23.432  1.00  0.00    -0.324 N 
ATOM     15  H   UNL A   1      31.437  20.844  22.853  1.00  0.00     0.170 HD
BRANCH  14  16
ATOM     16  C   UNL A   1      32.519  19.443  23.870  1.00  0.00     0.041 A 
ATOM     17  C   UNL A   1      33.048  16.789  24.705  1.00  0.00    -0.048 A 
ATOM     18  C   UNL A   1      32.696  17.771  25.634  1.00  0.00     0.006 A 
ATOM     19  C   UNL A   1      33.175  17.153  23.360  1.00  0.00     0.006 A 
ATOM     20  C   UNL A   1      32.443  19.078  25.220  1.00  0.00     0.026 A 
ATOM     21  C   UNL A   1      32.915  18.468  22.949  1.00  0.00     0.026 A 
BRANCH  17  22
ATOM     22  C   UNL A   1      33.288  15.371  25.161  1.00  0.00     0.032 C 
ATOM     23  C   UNL A   1      32.155  14.840  26.033  1.00  0.00     0.009 C 
ENDBRANCH  17  22
ENDBRANCH  14  16
ENDBRANCH   9  14
BRANCH  12  24
ATOM     24  C   UNL A   1      36.113  22.860  25.131  1.00  0.00     0.019 A 
ATOM     25  C   UNL A   1      36.767  23.950  25.719  1.00  0.00     0.013 A 
ATOM     26  C   UNL A   1      36.814  21.657  25.089  1.00  0.00     0.121 A 
ATOM     27  C   UNL A   1      38.064  23.810  26.206  1.00  0.00     0.021 A 
ATOM     28  N   UNL A   1      38.087  21.494  25.531  1.00  0.00    -0.264 NA
ATOM     29  C   UNL A   1      38.679  22.576  26.081  1.00  0.00     0.111 A 
ENDBRANCH  12  24
ENDBRANCH   7   8
ENDBRANCH   6   7
ENDBRANCH   3   6
ENDBRANCH   1   2
BRANCH   1  30
ATOM     30  C   UNL A   1      34.164  28.787  24.470  1.00  0.00     0.042 C 
BRANCH  30  31
ATOM     31  C   UNL A   1      33.825  28.839  25.958  1.00  0.00     0.118 C 
BRANCH  31  32
ATOM     32  N   UNL A   1      33.763  30.197  26.483  1.00  0.00    -0.352 N 
ATOM     33  C   UNL A   1      34.557  30.831  27.409  1.00  0.00     0.251 C 
ATOM     34  H   UNL A   1      33.035  30.749  26.117  1.00  0.00     0.163 HD
ATOM     35  O   UNL A   1      34.208  31.933  27.831  1.00  0.00    -0.269 OA
BRANCH  33  36
ATOM     36  C   UNL A   1      35.795  30.198  27.914  1.00  0.00     0.039 A 
ATOM     37  C   UNL A   1      36.968  30.321  27.165  1.00  0.00     0.014 A 
ATOM     38  C   UNL A   1      35.806  29.466  29.105  1.00  0.00     0.014 A 
ATOM     39  C   UNL A   1      38.161  29.776  27.646  1.00  0.00     0.010 A 
ATOM     40  C   UNL A   1      37.011  28.997  29.624  1.00  0.00     0.010 A 
ATOM     41  C   UNL A   1      38.204  29.145  28.900  1.00  0.00    -0.014 A 
BRANCH  41  42
ATOM     42  C   UNL A   1      39.487  28.645  29.466  1.00  0.00     0.031 A 
ATOM     43  C   UNL A   1      40.146  29.361  30.614  1.00  0.00     0.074 A 
ATOM     44  C   UNL A   1      40.083  27.569  28.911  1.00  0.00     0.049 A 
ATOM     45  N   UNL A   1      41.282  29.100  31.211  1.00  0.00    -0.248 NA
ATOM     46  C   UNL A   1      39.451  30.544  31.141  1.00  0.00     0.031 C 
ATOM     47  C   UNL A   1      39.567  26.817  27.766  1.00  0.00     0.029 A 
ATOM     48  N   UNL A   1      41.252  26.924  29.230  1.00  0.00    -0.354 N 
ATOM     49  C   UNL A   1      41.442  30.090  32.175  1.00  0.00     0.074 A 
ATOM     50  C   UNL A   1      40.320  30.993  32.033  1.00  0.00     0.031 C 
ATOM     51  C   UNL A   1      40.395  25.795  27.501  1.00  0.00     0.029 A 
ATOM     52  C   UNL A   1      41.529  25.847  28.419  1.00  0.00     0.049 A 
ATOM     53  H   UNL A   1      41.839  27.206  29.969  1.00  0.00     0.167 HD
ATOM     54  C   UNL A   1      42.421  30.220  33.106  1.00  0.00     0.034 A 
ATOM     55  C   UNL A   1      42.580  25.003  28.406  1.00  0.00     0.034 A 
ATOM     56  C   UNL A   1      43.531  29.306  33.234  1.00  0.00     0.049 A 
ATOM     57  C   UNL A   1      43.673  25.185  29.428  1.00  0.00     0.074 A 
ATOM     58  C   UNL A   1      44.545  29.311  34.176  1.00  0.00     0.029 A 
ATOM     59  N   UNL A   1      43.783  28.233  32.388  1.00  0.00    -0.354 N 
ATOM     60  N   UNL A   1      43.779  26.092  30.371  1.00  0.00    -0.248 NA
ATOM     61  C   UNL A   1      44.781  24.223  29.392  1.00  0.00     0.031 C 
ATOM     62  C   UNL A   1      45.453  28.297  33.850  1.00  0.00     0.029 A 
ATOM     63  C   UNL A   1      44.957  27.595  32.763  1.00  0.00     0.049 A 
ATOM     64  H   UNL A   1      43.212  27.964  31.633  1.00  0.00     0.167 HD
ATOM     65  C   UNL A   1      44.950  25.788  31.061  1.00  0.00     0.074 A 
ATOM     66  C   UNL A   1      45.504  24.605  30.434  1.00  0.00     0.031 C 
ATOM     67  C   UNL A   1      45.511  26.423  32.121  1.00  0.00     0.034 A 
BRANCH  54  68
ATOM     68  C   UNL A   1      42.345  31.410  34.035  1.00  0.00     0.023 A 
ATOM     69  C   UNL A   1      41.578  31.383  35.214  1.00  0.00     0.031 A 
ATOM     70  C   UNL A   1      43.025  32.602  33.725  1.00  0.00     0.131 A 
ATOM     71  C   UNL A   1      41.441  32.544  35.990  1.00  0.00     0.055 A 
ATOM     72  C   UNL A   1      42.959  33.726  34.552  1.00  0.00     0.041 A 
ATOM     73  F   UNL A   1      43.756  32.700  32.604  1.00  0.00    -0.206 F 
ATOM     74  C   UNL A   1      42.149  33.706  35.683  1.00  0.00     0.022 A 
BRANCH  71  75
ATOM     75  S   UNL A   1      40.197  32.559  37.310  1.00  0.00     0.124 S 
ATOM     76  O   UNL A   1      39.680  33.922  37.211  1.00  0.00    -0.237 OA
ATOM     77  O   UNL A   1      39.285  31.499  36.898  1.00  0.00    -0.237 OA
ATOM     78  O   UNL A   1      40.975  32.283  38.517  1.00  0.00    -0.744 OA
ENDBRANCH  71  75
ENDBRANCH  54  68
BRANCH  55  79
ATOM     79  C   UNL A   1      42.660  23.916  27.387  1.00  0.00     0.023 A 
ATOM     80  C   UNL A   1      42.029  22.678  27.593  1.00  0.00     0.031 A 
ATOM     81  C   UNL A   1      43.401  24.088  26.203  1.00  0.00     0.131 A 
ATOM     82  C   UNL A   1      42.188  21.647  26.654  1.00  0.00     0.055 A 
ATOM     83  C   UNL A   1      43.505  23.078  25.244  1.00  0.00     0.041 A 
ATOM     84  F   UNL A   1      44.023  25.251  25.954  1.00  0.00    -0.206 F 
ATOM     85  C   UNL A   1      42.907  21.844  25.473  1.00  0.00     0.022 A 
BRANCH  82  86
ATOM     86  S   UNL A   1      41.510  20.008  27.040  1.00  0.00     0.124 S 
ATOM     87  O   UNL A   1      42.720  19.247  27.324  1.00  0.00    -0.237 OA
ATOM     88  O   UNL A   1      40.650  20.298  28.183  1.00  0.00    -0.237 OA
ATOM     89  O   UNL A   1      40.808  19.634  25.814  1.00  0.00    -0.744 OA
ENDBRANCH  82  86
ENDBRANCH  55  79
BRANCH  67  90
ATOM     90  C   UNL A   1      46.770  25.820  32.701  1.00  0.00     0.023 A 
ATOM     91  C   UNL A   1      46.731  24.854  33.722  1.00  0.00     0.031 A 
ATOM     92  C   UNL A   1      48.030  26.227  32.226  1.00  0.00     0.131 A 
ATOM     93  C   UNL A   1      47.927  24.372  34.275  1.00  0.00     0.055 A 
ATOM     94  C   UNL A   1      49.216  25.692  32.732  1.00  0.00     0.041 A 
ATOM     95  F   UNL A   1      48.129  27.150  31.256  1.00  0.00    -0.206 F 
ATOM     96  C   UNL A   1      49.170  24.770  33.772  1.00  0.00     0.022 A 
BRANCH  93  97
ATOM     97  S   UNL A   1      47.843  23.295  35.731  1.00  0.00     0.124 S 
ATOM     98  O   UNL A   1      47.678  21.978  35.124  1.00  0.00    -0.237 OA
ATOM     99  O   UNL A   1      49.128  23.542  36.378  1.00  0.00    -0.237 OA
ATOM    100  O   UNL A   1      46.678  23.792  36.460  1.00  0.00    -0.744 OA
ENDBRANCH  93  97
ENDBRANCH  67  90
ENDBRANCH  41  42
ENDBRANCH  33  36
ENDBRANCH  31  32
ENDBRANCH  30  31
ENDBRANCH   1  30
TORSDOF 19
ENDMDL
MODEL 2
REMARK VINA RESULT:     -11.7      1.916      2.615
REMARK SMILES CCc1ccc(Nc2nc(OCC(=O)NCCCNC(=O)c3ccc(-c4c5nc(c(-c6cc(S(=O)(=O)[O-])ccc6F)c6ccc([nH]6)c(-c6cc(S(=O)(=O)[O-])ccc6F)c6nc(c(-c7cc(S(=O)(=O)[O-])ccc7F)c7ccc4[nH]7)C=C6)C=C5)cc3)cc(-c3cccnc3)n2)cc1
REMARK SMILES IDX 16 1 15 2 13 3 14 4 12 6 11 7 10 8 8 9 9 10 93 11 86 12
REMARK SMILES IDX 85 13 7 14 6 16 3 17 4 18 95 19 5 20 94 21 2 22 1 23 87 24
REMARK SMILES IDX 88 25 92 26 89 27 91 28 90 29 17 30 18 31 19 32 20 33 21 35
REMARK SMILES IDX 22 36 23 37 84 38 24 39 83 40 25 41 26 42 27 43 77 44 28 45
REMARK SMILES IDX 82 46 76 47 78 48 29 49 81 50 75 51 74 52 30 54 62 55 42 56
REMARK SMILES IDX 61 57 43 58 46 59 60 60 79 61 44 62 45 63 59 65 80 66 47 67
REMARK SMILES IDX 31 68 32 69 40 70 33 71 39 72 41 73 38 74 34 75 35 76 36 77
REMARK SMILES IDX 37 78 63 79 64 80 72 81 65 82 71 83 73 84 70 85 66 86 67 87
REMARK SMILES IDX 68 88 69 89 48 90 49 91 57 92 50 93 56 94 58 95 55 96 51 97
REMARK SMILES IDX 52 98 53 99 54 100
REMARK H PARENT 15 5 7 15 19 34 78 53 46 64
REMARK Flexibility Score: inf
ROOT
ATOM      1  C   UNL A   1      32.363  28.532  22.926  1.00  0.00     0.117 C 
ENDROOT
BRANCH   1   2
ATOM      2  N   UNL A   1      32.975  27.624  21.974  1.00  0.00    -0.353 N 
ATOM      3  C   UNL A   1      32.656  26.326  21.715  1.00  0.00     0.258 C 
ATOM      4  O   UNL A   1      33.295  25.717  20.854  1.00  0.00    -0.271 OA
ATOM      5  H   UNL A   1      33.719  27.996  21.446  1.00  0.00     0.163 HD
BRANCH   3   6
ATOM      6  C   UNL A   1      31.508  25.650  22.478  1.00  0.00     0.331 C 
BRANCH   6   7
ATOM      7  O   UNL A   1      31.801  25.123  23.760  1.00  0.00    -0.467 OA
BRANCH   7   8
ATOM      8  C   UNL A   1      32.671  24.073  23.838  1.00  0.00     0.219 A 
ATOM      9  C   UNL A   1      32.849  21.804  23.555  1.00  0.00     0.231 A 
ATOM     10  N   UNL A   1      32.131  22.924  23.401  1.00  0.00    -0.177 NA
ATOM     11  N   UNL A   1      34.100  21.790  24.039  1.00  0.00    -0.212 NA
ATOM     12  C   UNL A   1      34.631  22.953  24.437  1.00  0.00     0.081 A 
ATOM     13  C   UNL A   1      33.945  24.143  24.343  1.00  0.00     0.097 A 
BRANCH   9  14
ATOM     14  N   UNL A   1      32.213  20.600  23.256  1.00  0.00    -0.324 N 
ATOM     15  H   UNL A   1      31.443  20.658  22.645  1.00  0.00     0.170 HD
BRANCH  14  16
ATOM     16  C   UNL A   1      32.539  19.315  23.722  1.00  0.00     0.041 A 
ATOM     17  C   UNL A   1      33.257  16.756  24.703  1.00  0.00    -0.048 A 
ATOM     18  C   UNL A   1      33.243  17.015  23.331  1.00  0.00     0.006 A 
ATOM     19  C   UNL A   1      32.869  17.775  25.581  1.00  0.00     0.006 A 
ATOM     20  C   UNL A   1      32.882  18.273  22.852  1.00  0.00     0.026 A 
ATOM     21  C   UNL A   1      32.512  19.040  25.094  1.00  0.00     0.026 A 
BRANCH  17  22
ATOM     22  C   UNL A   1      33.679  15.401  25.211  1.00  0.00     0.032 C 
ATOM     23  C   UNL A   1      32.495  14.547  25.651  1.00  0.00     0.009 C 
ENDBRANCH  17  22
ENDBRANCH  14  16
ENDBRANCH   9  14
BRANCH  12  24
ATOM     24  C   UNL A   1      35.961  22.888  25.035  1.00  0.00     0.019 A 
ATOM     25  C   UNL A   1      36.558  24.012  25.621  1.00  0.00     0.013 A 
ATOM     26  C   UNL A   1      36.709  21.713  25.028  1.00  0.00     0.121 A 
ATOM     27  C   UNL A   1      37.848  23.930  26.139  1.00  0.00     0.021 A 
ATOM     28  N   UNL A   1      37.977  21.608  25.501  1.00  0.00    -0.264 NA
ATOM     29  C   UNL A   1      38.514  22.719  26.048  1.00  0.00     0.111 A 
ENDBRANCH  12  24
ENDBRANCH   7   8
ENDBRANCH   6   7
ENDBRANCH   3   6
ENDBRANCH   1   2
BRANCH   1  30
ATOM     30  C   UNL A   1      33.385  29.197  23.839  1.00  0.00     0.042 C 
BRANCH  30  31
ATOM     31  C   UNL A   1      33.051  29.128  25.327  1.00  0.00     0.118 C 
BRANCH  31  32
ATOM     32  N   UNL A   1      32.639  30.411  25.882  1.00  0.00    -0.352 N 
ATOM     33  C   UNL A   1      33.182  31.158  26.900  1.00  0.00     0.251 C 
ATOM     34  H   UNL A   1      31.843  30.807  25.459  1.00  0.00     0.163 HD
ATOM     35  O   UNL A   1      32.558  32.134  27.315  1.00  0.00    -0.269 OA
BRANCH  33  36
ATOM     36  C   UNL A   1      34.478  30.788  27.510  1.00  0.00     0.039 A 
ATOM     37  C   UNL A   1      35.454  31.776  27.669  1.00  0.00     0.014 A 
ATOM     38  C   UNL A   1      34.750  29.475  27.905  1.00  0.00     0.014 A 
ATOM     39  C   UNL A   1      36.667  31.464  28.288  1.00  0.00     0.010 A 
ATOM     40  C   UNL A   1      35.924  29.185  28.598  1.00  0.00     0.010 A 
ATOM     41  C   UNL A   1      36.897  30.175  28.797  1.00  0.00    -0.014 A 
BRANCH  41  42
ATOM     42  C   UNL A   1      38.145  29.855  29.543  1.00  0.00     0.031 A 
ATOM     43  C   UNL A   1      38.377  30.417  30.920  1.00  0.00     0.074 A 
ATOM     44  C   UNL A   1      39.093  29.095  28.957  1.00  0.00     0.049 A 
ATOM     45  N   UNL A   1      39.417  30.285  31.704  1.00  0.00    -0.248 NA
ATOM     46  C   UNL A   1      37.312  31.264  31.476  1.00  0.00     0.031 C 
ATOM     47  C   UNL A   1      39.006  28.530  27.609  1.00  0.00     0.029 A 
ATOM     48  N   UNL A   1      40.316  28.669  29.414  1.00  0.00    -0.354 N 
ATOM     49  C   UNL A   1      39.136  31.037  32.840  1.00  0.00     0.074 A 
ATOM     50  C   UNL A   1      37.859  31.678  32.608  1.00  0.00     0.031 C 
ATOM     51  C   UNL A   1      40.108  27.805  27.363  1.00  0.00     0.029 A 
ATOM     52  C   UNL A   1      41.006  27.895  28.510  1.00  0.00     0.049 A 
ATOM     53  H   UNL A   1      40.666  28.897  30.306  1.00  0.00     0.167 HD
ATOM     54  C   UNL A   1      39.865  31.164  33.978  1.00  0.00     0.034 A 
ATOM     55  C   UNL A   1      42.228  27.331  28.588  1.00  0.00     0.034 A 
ATOM     56  C   UNL A   1      41.137  30.514  34.192  1.00  0.00     0.049 A 
ATOM     57  C   UNL A   1      43.035  27.511  29.848  1.00  0.00     0.074 A 
ATOM     58  C   UNL A   1      41.930  30.528  35.326  1.00  0.00     0.029 A 
ATOM     59  N   UNL A   1      41.809  29.746  33.249  1.00  0.00    -0.354 N 
ATOM     60  N   UNL A   1      42.728  28.179  30.937  1.00  0.00    -0.248 NA
ATOM     61  C   UNL A   1      44.346  26.853  29.896  1.00  0.00     0.031 C 
ATOM     62  C   UNL A   1      43.115  29.842  35.041  1.00  0.00     0.029 A 
ATOM     63  C   UNL A   1      43.024  29.316  33.762  1.00  0.00     0.049 A 
ATOM     64  H   UNL A   1      41.472  29.538  32.348  1.00  0.00     0.167 HD
ATOM     65  C   UNL A   1      43.797  27.992  31.811  1.00  0.00     0.074 A 
ATOM     66  C   UNL A   1      44.745  27.137  31.126  1.00  0.00     0.031 C 
ATOM     67  C   UNL A   1      43.973  28.475  33.067  1.00  0.00     0.034 A 
BRANCH  54  68
ATOM     68  C   UNL A   1      39.313  32.063  35.061  1.00  0.00     0.023 A 
ATOM     69  C   UNL A   1      39.724  33.401  35.195  1.00  0.00     0.031 A 
ATOM     70  C   UNL A   1      38.382  31.569  35.993  1.00  0.00     0.131 A 
ATOM     71  C   UNL A   1      39.276  34.169  36.281  1.00  0.00     0.055 A 
ATOM     72  C   UNL A   1      37.869  32.368  37.018  1.00  0.00     0.041 A 
ATOM     73  F   UNL A   1      37.965  30.295  35.934  1.00  0.00    -0.206 F 
ATOM     74  C   UNL A   1      38.329  33.671  37.176  1.00  0.00     0.022 A 
BRANCH  71  75
ATOM     75  S   UNL A   1      40.074  35.767  36.597  1.00  0.00     0.124 S 
ATOM     76  O   UNL A   1      39.547  36.581  35.503  1.00  0.00    -0.237 OA
ATOM     77  O   UNL A   1      39.594  36.103  37.932  1.00  0.00    -0.237 OA
ATOM     78  O   UNL A   1      41.501  35.462  36.503  1.00  0.00    -0.744 OA
ENDBRANCH  71  75
ENDBRANCH  54  68
BRANCH  55  79
ATOM     79  C   UNL A   1      42.772  26.552  27.437  1.00  0.00     0.023 A 
ATOM     80  C   UNL A   1      42.612  25.159  27.362  1.00  0.00     0.031 A 
ATOM     81  C   UNL A   1      43.494  27.187  26.410  1.00  0.00     0.131 A 
ATOM     82  C   UNL A   1      43.202  24.442  26.309  1.00  0.00     0.055 A 
ATOM     83  C   UNL A   1      44.028  26.476  25.334  1.00  0.00     0.041 A 
ATOM     84  F   UNL A   1      43.677  28.517  26.431  1.00  0.00    -0.206 F 
ATOM     85  C   UNL A   1      43.894  25.093  25.286  1.00  0.00     0.022 A 
BRANCH  82  86
ATOM     86  S   UNL A   1      43.127  22.629  26.342  1.00  0.00     0.124 S 
ATOM     87  O   UNL A   1      42.430  22.339  25.096  1.00  0.00    -0.237 OA
ATOM     88  O   UNL A   1      44.540  22.269  26.388  1.00  0.00    -0.237 OA
ATOM     89  O   UNL A   1      42.374  22.343  27.562  1.00  0.00    -0.744 OA
ENDBRANCH  82  86
ENDBRANCH  55  79
BRANCH  67  90
ATOM     90  C   UNL A   1      45.222  28.050  33.802  1.00  0.00     0.023 A 
ATOM     91  C   UNL A   1      45.266  26.881  34.583  1.00  0.00     0.031 A 
ATOM     92  C   UNL A   1      46.388  28.834  33.724  1.00  0.00     0.131 A 
ATOM     93  C   UNL A   1      46.428  26.562  35.301  1.00  0.00     0.055 A 
ATOM     94  C   UNL A   1      47.564  28.473  34.385  1.00  0.00     0.041 A 
ATOM     95  F   UNL A   1      46.405  29.963  32.998  1.00  0.00    -0.206 F 
ATOM     96  C   UNL A   1      47.584  27.340  35.190  1.00  0.00     0.022 A 
BRANCH  93  97
ATOM     97  S   UNL A   1      46.381  25.172  36.464  1.00  0.00     0.124 S 
ATOM     98  O   UNL A   1      47.786  24.784  36.531  1.00  0.00    -0.237 OA
ATOM     99  O   UNL A   1      45.832  25.789  37.668  1.00  0.00    -0.237 OA
ATOM    100  O   UNL A   1      45.502  24.205  35.810  1.00  0.00    -0.744 OA
ENDBRANCH  93  97
ENDBRANCH  67  90
ENDBRANCH  41  42
ENDBRANCH  33  36
ENDBRANCH  31  32
ENDBRANCH  30  31
ENDBRANCH   1  30
TORSDOF 19
ENDMDL
MODEL 3
REMARK VINA RESULT:     -11.7      2.652      7.714
REMARK SMILES CCc1ccc(Nc2nc(OCC(=O)NCCCNC(=O)c3ccc(-c4c5nc(c(-c6cc(S(=O)(=O)[O-])ccc6F)c6ccc([nH]6)c(-c6cc(S(=O)(=O)[O-])ccc6F)c6nc(c(-c7cc(S(=O)(=O)[O-])ccc7F)c7ccc4[nH]7)C=C6)C=C5)cc3)cc(-c3cccnc3)n2)cc1
REMARK SMILES IDX 16 1 15 2 13 3 14 4 12 6 11 7 10 8 8 9 9 10 93 11 86 12
REMARK SMILES IDX 85 13 7 14 6 16 3 17 4 18 95 19 5 20 94 21 2 22 1 23 87 24
REMARK SMILES IDX 88 25 92 26 89 27 91 28 90 29 17 30 18 31 19 32 20 33 21 35
REMARK SMILES IDX 22 36 23 37 84 38 24 39 83 40 25 41 26 42 27 43 77 44 28 45
REMARK SMILES IDX 82 46 76 47 78 48 29 49 81 50 75 51 74 52 30 54 62 55 42 56
REMARK SMILES IDX 61 57 43 58 46 59 60 60 79 61 44 62 45 63 59 65 80 66 47 67
REMARK SMILES IDX 31 68 32 69 40 70 33 71 39 72 41 73 38 74 34 75 35 76 36 77
REMARK SMILES IDX 37 78 63 79 64 80 72 81 65 82 71 83 73 84 70 85 66 86 67 87
REMARK SMILES IDX 68 88 69 89 48 90 49 91 57 92 50 93 56 94 58 95 55 96 51 97
REMARK SMILES IDX 52 98 53 99 54 100
REMARK H PARENT 15 5 7 15 19 34 78 53 46 64
REMARK Flexibility Score: inf
ROOT
ATOM      1  C   UNL A   1      32.750  28.846  23.075  1.00  0.00     0.117 C 
ENDROOT
BRANCH   1   2
ATOM      2  N   UNL A   1      33.183  27.935  22.032  1.00  0.00    -0.353 N 
ATOM      3  C   UNL A   1      32.858  26.624  21.862  1.00  0.00     0.258 C 
ATOM      4  O   UNL A   1      33.326  26.015  20.898  1.00  0.00    -0.271 OA
ATOM      5  H   UNL A   1      33.792  28.316  21.357  1.00  0.00     0.163 HD
BRANCH   3   6
ATOM      6  C   UNL A   1      31.910  25.934  22.854  1.00  0.00     0.331 C 
BRANCH   6   7
ATOM      7  O   UNL A   1      32.460  25.503  24.087  1.00  0.00    -0.467 OA
BRANCH   7   8
ATOM      8  C   UNL A   1      33.207  24.359  24.090  1.00  0.00     0.219 A 
ATOM      9  C   UNL A   1      33.106  22.093  23.756  1.00  0.00     0.231 A 
ATOM     10  N   UNL A   1      32.513  23.290  23.668  1.00  0.00    -0.177 NA
ATOM     11  N   UNL A   1      34.375  21.925  24.159  1.00  0.00    -0.212 NA
ATOM     12  C   UNL A   1      35.060  23.011  24.542  1.00  0.00     0.081 A 
ATOM     13  C   UNL A   1      34.510  24.272  24.514  1.00  0.00     0.097 A 
BRANCH   9  14
ATOM     14  N   UNL A   1      32.320  20.976  23.477  1.00  0.00    -0.324 N 
ATOM     15  H   UNL A   1      31.504  21.142  22.951  1.00  0.00     0.170 HD
BRANCH  14  16
ATOM     16  C   UNL A   1      32.551  19.643  23.857  1.00  0.00     0.041 A 
ATOM     17  C   UNL A   1      33.081  16.979  24.664  1.00  0.00    -0.048 A 
ATOM     18  C   UNL A   1      33.051  17.321  23.310  1.00  0.00     0.006 A 
ATOM     19  C   UNL A   1      32.804  17.972  25.612  1.00  0.00     0.006 A 
ATOM     20  C   UNL A   1      32.783  18.632  22.917  1.00  0.00     0.026 A 
ATOM     21  C   UNL A   1      32.539  19.289  25.211  1.00  0.00     0.026 A 
BRANCH  17  22
ATOM     22  C   UNL A   1      33.404  15.566  25.079  1.00  0.00     0.032 C 
ATOM     23  C   UNL A   1      32.236  14.883  25.781  1.00  0.00     0.009 C 
ENDBRANCH  17  22
ENDBRANCH  14  16
ENDBRANCH   9  14
BRANCH  12  24
ATOM     24  C   UNL A   1      36.408  22.781  25.053  1.00  0.00     0.019 A 
ATOM     25  C   UNL A   1      37.061  21.555  24.874  1.00  0.00     0.013 A 
ATOM     26  C   UNL A   1      37.096  23.759  25.765  1.00  0.00     0.121 A 
ATOM     27  C   UNL A   1      38.327  21.350  25.416  1.00  0.00     0.021 A 
ATOM     28  N   UNL A   1      38.319  23.582  26.328  1.00  0.00    -0.264 NA
ATOM     29  C   UNL A   1      38.905  22.381  26.136  1.00  0.00     0.111 A 
ENDBRANCH  12  24
ENDBRANCH   7   8
ENDBRANCH   6   7
ENDBRANCH   3   6
ENDBRANCH   1   2
BRANCH   1  30
ATOM     30  C   UNL A   1      33.717  28.887  24.252  1.00  0.00     0.042 C 
BRANCH  30  31
ATOM     31  C   UNL A   1      33.051  28.848  25.626  1.00  0.00     0.118 C 
BRANCH  31  32
ATOM     32  N   UNL A   1      32.562  30.149  26.062  1.00  0.00    -0.352 N 
ATOM     33  C   UNL A   1      33.079  31.036  26.975  1.00  0.00     0.251 C 
ATOM     34  H   UNL A   1      31.724  30.440  25.634  1.00  0.00     0.163 HD
ATOM     35  O   UNL A   1      32.398  32.003  27.314  1.00  0.00    -0.269 OA
BRANCH  33  36
ATOM     36  C   UNL A   1      34.419  30.827  27.566  1.00  0.00     0.039 A 
ATOM     37  C   UNL A   1      35.276  31.923  27.698  1.00  0.00     0.014 A 
ATOM     38  C   UNL A   1      34.848  29.559  27.970  1.00  0.00     0.014 A 
ATOM     39  C   UNL A   1      36.526  31.762  28.300  1.00  0.00     0.010 A 
ATOM     40  C   UNL A   1      36.059  29.416  28.646  1.00  0.00     0.010 A 
ATOM     41  C   UNL A   1      36.913  30.515  28.818  1.00  0.00    -0.014 A 
BRANCH  41  42
ATOM     42  C   UNL A   1      38.202  30.351  29.545  1.00  0.00     0.031 A 
ATOM     43  C   UNL A   1      39.312  29.523  28.956  1.00  0.00     0.074 A 
ATOM     44  C   UNL A   1      38.354  30.912  30.763  1.00  0.00     0.049 A 
ATOM     45  N   UNL A   1      40.485  29.231  29.459  1.00  0.00    -0.248 NA
ATOM     46  C   UNL A   1      39.057  28.917  27.641  1.00  0.00     0.031 C 
ATOM     47  C   UNL A   1      37.335  31.700  31.461  1.00  0.00     0.029 A 
ATOM     48  N   UNL A   1      39.417  30.904  31.632  1.00  0.00    -0.354 N 
ATOM     49  C   UNL A   1      41.103  28.403  28.528  1.00  0.00     0.074 A 
ATOM     50  C   UNL A   1      40.145  28.184  27.466  1.00  0.00     0.031 C 
ATOM     51  C   UNL A   1      37.834  32.127  32.631  1.00  0.00     0.029 A 
ATOM     52  C   UNL A   1      39.187  31.603  32.795  1.00  0.00     0.049 A 
ATOM     53  H   UNL A   1      40.265  30.442  31.441  1.00  0.00     0.167 HD
ATOM     54  C   UNL A   1      42.360  27.891  28.548  1.00  0.00     0.034 A 
ATOM     55  C   UNL A   1      39.968  31.790  33.878  1.00  0.00     0.034 A 
ATOM     56  C   UNL A   1      43.304  28.124  29.616  1.00  0.00     0.049 A 
ATOM     57  C   UNL A   1      41.349  31.186  33.893  1.00  0.00     0.074 A 
ATOM     58  C   UNL A   1      44.618  27.702  29.710  1.00  0.00     0.029 A 
ATOM     59  N   UNL A   1      43.031  28.827  30.783  1.00  0.00    -0.354 N 
ATOM     60  N   UNL A   1      41.940  30.452  32.977  1.00  0.00    -0.248 NA
ATOM     61  C   UNL A   1      42.172  31.443  35.080  1.00  0.00     0.031 C 
ATOM     62  C   UNL A   1      45.112  28.076  30.964  1.00  0.00     0.029 A 
ATOM     63  C   UNL A   1      44.139  28.816  31.617  1.00  0.00     0.049 A 
ATOM     64  H   UNL A   1      42.175  29.269  30.987  1.00  0.00     0.167 HD
ATOM     65  C   UNL A   1      43.217  30.191  33.467  1.00  0.00     0.074 A 
ATOM     66  C   UNL A   1      43.313  30.857  34.749  1.00  0.00     0.031 C 
ATOM     67  C   UNL A   1      44.221  29.471  32.904  1.00  0.00     0.034 A 
BRANCH  54  68
ATOM     68  C   UNL A   1      42.770  27.007  27.392  1.00  0.00     0.023 A 
ATOM     69  C   UNL A   1      42.620  25.609  27.438  1.00  0.00     0.031 A 
ATOM     70  C   UNL A   1      43.345  27.565  26.236  1.00  0.00     0.131 A 
ATOM     71  C   UNL A   1      43.116  24.814  26.394  1.00  0.00     0.055 A 
ATOM     72  C   UNL A   1      43.753  26.773  25.159  1.00  0.00     0.041 A 
ATOM     73  F   UNL A   1      43.536  28.889  26.137  1.00  0.00    -0.206 F 
ATOM     74  C   UNL A   1      43.655  25.388  25.242  1.00  0.00     0.022 A 
BRANCH  71  75
ATOM     75  S   UNL A   1      43.196  23.018  26.638  1.00  0.00     0.124 S 
ATOM     76  O   UNL A   1      44.627  22.764  26.486  1.00  0.00    -0.237 OA
ATOM     77  O   UNL A   1      42.657  22.857  27.983  1.00  0.00    -0.237 OA
ATOM     78  O   UNL A   1      42.360  22.489  25.561  1.00  0.00    -0.744 OA
ENDBRANCH  71  75
ENDBRANCH  54  68
BRANCH  55  79
ATOM     79  C   UNL A   1      39.464  32.574  35.043  1.00  0.00     0.023 A 
ATOM     80  C   UNL A   1      38.845  31.940  36.133  1.00  0.00     0.031 A 
ATOM     81  C   UNL A   1      39.563  33.977  35.068  1.00  0.00     0.131 A 
ATOM     82  C   UNL A   1      38.310  32.709  37.178  1.00  0.00     0.055 A 
ATOM     83  C   UNL A   1      39.082  34.732  36.138  1.00  0.00     0.041 A 
ATOM     84  F   UNL A   1      40.146  34.634  34.053  1.00  0.00    -0.206 F 
ATOM     85  C   UNL A   1      38.439  34.100  37.196  1.00  0.00     0.022 A 
BRANCH  82  86
ATOM     86  S   UNL A   1      37.361  31.870  38.477  1.00  0.00     0.124 S 
ATOM     87  O   UNL A   1      38.266  31.965  39.615  1.00  0.00    -0.237 OA
ATOM     88  O   UNL A   1      36.154  32.686  38.546  1.00  0.00    -0.237 OA
ATOM     89  O   UNL A   1      37.169  30.523  37.941  1.00  0.00    -0.744 OA
ENDBRANCH  82  86
ENDBRANCH  55  79
BRANCH  67  90
ATOM     90  C   UNL A   1      45.531  29.409  33.654  1.00  0.00     0.023 A 
ATOM     91  C   UNL A   1      46.547  30.361  33.459  1.00  0.00     0.031 A 
ATOM     92  C   UNL A   1      45.767  28.372  34.575  1.00  0.00     0.131 A 
ATOM     93  C   UNL A   1      47.772  30.225  34.129  1.00  0.00     0.055 A 
ATOM     94  C   UNL A   1      46.963  28.281  35.291  1.00  0.00     0.041 A 
ATOM     95  F   UNL A   1      44.836  27.432  34.799  1.00  0.00    -0.206 F 
ATOM     96  C   UNL A   1      47.979  29.202  35.060  1.00  0.00     0.022 A 
BRANCH  93  97
ATOM     97  S   UNL A   1      49.134  31.341  33.695  1.00  0.00     0.124 S 
ATOM     98  O   UNL A   1      50.300  30.484  33.883  1.00  0.00    -0.237 OA
ATOM     99  O   UNL A   1      48.820  31.695  32.314  1.00  0.00    -0.237 OA
ATOM    100  O   UNL A   1      49.005  32.432  34.658  1.00  0.00    -0.744 OA
ENDBRANCH  93  97
ENDBRANCH  67  90
ENDBRANCH  41  42
ENDBRANCH  33  36
ENDBRANCH  31  32
ENDBRANCH  30  31
ENDBRANCH   1  30
TORSDOF 19
ENDMDL
