MODEL 1
REMARK VINA RESULT:     -10.9      0.000      0.000
REMARK SMILES C[C@H]1[C@H](C(=O)NCCCNC(=O)c2ccc(-c3c4nc(c(-c5cc(S(=O)(=O)[O-])ccc5F)c5ccc([nH]5)c(-c5cc(S(=O)(=O)[O-])ccc5F)c5nc(c(-c6cc(S(=O)(=O)[O-])ccc6F)c6ccc3[nH]6)C=C5)C=C4)cc2)CCN1C(=O)[C@](C)([NH3+])C1CC1
REMARK SMILES IDX 8 1 7 2 6 3 4 4 5 5 3 7 1 8 2 9 78 10 76 11 77 12 79 13
REMARK SMILES IDX 80 14 81 15 82 16 83 17 84 21 85 22 86 23 9 24 10 25 11 26
REMARK SMILES IDX 12 28 13 29 14 30 75 31 15 32 74 33 16 34 17 35 18 36 68 37
REMARK SMILES IDX 19 38 73 39 67 40 69 41 20 42 72 43 66 44 65 45 21 47 53 48
REMARK SMILES IDX 33 49 52 50 34 51 37 52 51 53 70 54 35 55 36 56 50 58 71 59
REMARK SMILES IDX 38 60 22 61 23 62 31 63 24 64 30 65 32 66 29 67 25 68 26 69
REMARK SMILES IDX 27 70 28 71 54 72 55 73 63 74 56 75 62 76 64 77 61 78 57 79
REMARK SMILES IDX 58 80 59 81 60 82 39 83 40 84 48 85 41 86 47 87 49 88 46 89
REMARK SMILES IDX 42 90 43 91 44 92 45 93
REMARK H PARENT 6 6 83 18 83 19 83 20 10 27 69 46 37 57
REMARK Flexibility Score: inf
ROOT
ATOM      1  C   UNL A   1      32.299  28.665  27.180  1.00  0.00     0.042 C 
ENDROOT
BRANCH   1   2
ATOM      2  C   UNL A   1      31.593  27.673  26.270  1.00  0.00     0.117 C 
BRANCH   2   3
ATOM      3  N   UNL A   1      31.498  26.351  26.863  1.00  0.00    -0.356 N 
ATOM      4  C   UNL A   1      31.591  25.108  26.327  1.00  0.00     0.225 C 
ATOM      5  O   UNL A   1      31.475  24.153  27.100  1.00  0.00    -0.275 OA
ATOM      6  H   UNL A   1      31.335  26.357  27.833  1.00  0.00     0.163 HD
BRANCH   4   7
ATOM      7  C   UNL A   1      31.806  24.847  24.844  1.00  0.00     0.102 C 
ATOM      8  C   UNL A   1      33.305  26.015  23.210  1.00  0.00     0.032 C 
ATOM      9  C   UNL A   1      33.266  25.054  24.402  1.00  0.00     0.094 C 
ATOM     10  N   UNL A   1      33.727  23.732  24.000  1.00  0.00    -0.334 N 
ATOM     11  C   UNL A   1      31.387  23.459  24.361  1.00  0.00     0.037 C 
ATOM     12  C   UNL A   1      32.587  22.918  23.601  1.00  0.00     0.121 C 
BRANCH  10  13
ATOM     13  C   UNL A   1      34.991  23.191  23.945  1.00  0.00     0.284 C 
ATOM     14  O   UNL A   1      35.535  23.120  22.825  1.00  0.00    -0.268 OA
BRANCH  13  15
ATOM     15  C   UNL A   1      35.852  22.701  25.178  1.00  0.00     0.174 C 
ATOM     16  C   UNL A   1      36.555  23.934  25.763  1.00  0.00     0.090 C 
BRANCH  15  17
ATOM     17  N   UNL A   1      36.949  21.871  24.578  1.00  0.00    -0.345 N 
ATOM     18  H   UNL A   1      37.344  22.359  23.775  1.00  0.00     0.345 HD
ATOM     19  H   UNL A   1      36.572  20.972  24.278  1.00  0.00     0.345 HD
ATOM     20  H   UNL A   1      37.680  21.718  25.274  1.00  0.00     0.345 HD
ENDBRANCH  15  17
BRANCH  15  21
ATOM     21  C   UNL A   1      35.290  21.741  26.220  1.00  0.00     0.060 C 
ATOM     22  C   UNL A   1      34.250  22.220  27.231  1.00  0.00     0.011 C 
ATOM     23  C   UNL A   1      33.906  21.122  26.281  1.00  0.00     0.011 C 
ENDBRANCH  15  21
ENDBRANCH  13  15
ENDBRANCH  10  13
ENDBRANCH   4   7
ENDBRANCH   2   3
ENDBRANCH   1   2
BRANCH   1  24
ATOM     24  C   UNL A   1      33.459  29.411  26.534  1.00  0.00     0.118 C 
BRANCH  24  25
ATOM     25  N   UNL A   1      33.519  30.806  26.936  1.00  0.00    -0.352 N 
ATOM     26  C   UNL A   1      34.377  31.455  27.789  1.00  0.00     0.251 C 
ATOM     27  H   UNL A   1      32.832  31.380  26.528  1.00  0.00     0.163 HD
ATOM     28  O   UNL A   1      34.104  32.600  28.137  1.00  0.00    -0.269 OA
BRANCH  26  29
ATOM     29  C   UNL A   1      35.597  30.791  28.302  1.00  0.00     0.039 A 
ATOM     30  C   UNL A   1      36.821  31.072  27.686  1.00  0.00     0.014 A 
ATOM     31  C   UNL A   1      35.545  29.864  29.346  1.00  0.00     0.014 A 
ATOM     32  C   UNL A   1      37.992  30.474  28.156  1.00  0.00     0.010 A 
ATOM     33  C   UNL A   1      36.723  29.332  29.868  1.00  0.00     0.010 A 
ATOM     34  C   UNL A   1      37.959  29.625  29.275  1.00  0.00    -0.014 A 
BRANCH  34  35
ATOM     35  C   UNL A   1      39.209  29.038  29.828  1.00  0.00     0.031 A 
ATOM     36  C   UNL A   1      39.853  29.632  31.051  1.00  0.00     0.074 A 
ATOM     37  C   UNL A   1      39.788  27.998  29.195  1.00  0.00     0.049 A 
ATOM     38  N   UNL A   1      40.969  29.296  31.646  1.00  0.00    -0.248 NA
ATOM     39  C   UNL A   1      39.166  30.778  31.666  1.00  0.00     0.031 C 
ATOM     40  C   UNL A   1      39.286  27.368  27.972  1.00  0.00     0.029 A 
ATOM     41  N   UNL A   1      40.929  27.293  29.485  1.00  0.00    -0.354 N 
ATOM     42  C   UNL A   1      41.123  30.190  32.702  1.00  0.00     0.074 A 
ATOM     43  C   UNL A   1      40.021  31.125  32.617  1.00  0.00     0.031 C 
ATOM     44  C   UNL A   1      40.100  26.357  27.632  1.00  0.00     0.029 A 
ATOM     45  C   UNL A   1      41.205  26.292  28.584  1.00  0.00     0.049 A 
ATOM     46  H   UNL A   1      41.498  27.486  30.266  1.00  0.00     0.167 HD
ATOM     47  C   UNL A   1      42.078  30.214  33.665  1.00  0.00     0.034 A 
ATOM     48  C   UNL A   1      42.236  25.426  28.522  1.00  0.00     0.034 A 
ATOM     49  C   UNL A   1      43.169  29.270  33.736  1.00  0.00     0.049 A 
ATOM     50  C   UNL A   1      43.292  25.477  29.595  1.00  0.00     0.074 A 
ATOM     51  C   UNL A   1      44.167  29.173  34.690  1.00  0.00     0.029 A 
ATOM     52  N   UNL A   1      43.411  28.261  32.809  1.00  0.00    -0.354 N 
ATOM     53  N   UNL A   1      43.395  26.298  30.615  1.00  0.00    -0.248 NA
ATOM     54  C   UNL A   1      44.362  24.475  29.516  1.00  0.00     0.031 C 
ATOM     55  C   UNL A   1      45.046  28.153  34.308  1.00  0.00     0.029 A 
ATOM     56  C   UNL A   1      44.556  27.559  33.155  1.00  0.00     0.049 A 
ATOM     57  H   UNL A   1      42.851  28.074  32.021  1.00  0.00     0.167 HD
ATOM     58  C   UNL A   1      44.531  25.894  31.312  1.00  0.00     0.074 A 
ATOM     59  C   UNL A   1      45.060  24.743  30.609  1.00  0.00     0.031 C 
ATOM     60  C   UNL A   1      45.086  26.425  32.432  1.00  0.00     0.034 A 
BRANCH  47  61
ATOM     61  C   UNL A   1      41.990  31.310  34.701  1.00  0.00     0.023 A 
ATOM     62  C   UNL A   1      40.952  31.346  35.651  1.00  0.00     0.031 A 
ATOM     63  C   UNL A   1      42.931  32.355  34.722  1.00  0.00     0.131 A 
ATOM     64  C   UNL A   1      40.832  32.440  36.521  1.00  0.00     0.055 A 
ATOM     65  C   UNL A   1      42.855  33.397  35.649  1.00  0.00     0.041 A 
ATOM     66  F   UNL A   1      43.933  32.390  33.830  1.00  0.00    -0.206 F 
ATOM     67  C   UNL A   1      41.792  33.454  36.545  1.00  0.00     0.022 A 
BRANCH  64  68
ATOM     68  S   UNL A   1      39.320  32.596  37.511  1.00  0.00     0.124 S 
ATOM     69  O   UNL A   1      39.865  32.845  38.844  1.00  0.00    -0.237 OA
ATOM     70  O   UNL A   1      38.643  33.722  36.878  1.00  0.00    -0.237 OA
ATOM     71  O   UNL A   1      38.666  31.301  37.346  1.00  0.00    -0.744 OA
ENDBRANCH  64  68
ENDBRANCH  47  61
BRANCH  48  72
ATOM     72  C   UNL A   1      42.327  24.444  27.404  1.00  0.00     0.023 A 
ATOM     73  C   UNL A   1      41.567  23.264  27.408  1.00  0.00     0.031 A 
ATOM     74  C   UNL A   1      43.205  24.659  26.326  1.00  0.00     0.131 A 
ATOM     75  C   UNL A   1      41.730  22.323  26.380  1.00  0.00     0.055 A 
ATOM     76  C   UNL A   1      43.324  23.745  25.279  1.00  0.00     0.041 A 
ATOM     77  F   UNL A   1      43.952  25.774  26.271  1.00  0.00    -0.206 F 
ATOM     78  C   UNL A   1      42.593  22.562  25.309  1.00  0.00     0.022 A 
BRANCH  75  79
ATOM     79  S   UNL A   1      40.853  20.740  26.504  1.00  0.00     0.124 S 
ATOM     80  O   UNL A   1      40.887  20.493  27.942  1.00  0.00    -0.237 OA
ATOM     81  O   UNL A   1      39.548  21.071  25.941  1.00  0.00    -0.237 OA
ATOM     82  O   UNL A   1      41.667  19.836  25.695  1.00  0.00    -0.744 OA
ENDBRANCH  75  79
ENDBRANCH  48  72
BRANCH  60  83
ATOM     83  C   UNL A   1      46.314  25.735  32.977  1.00  0.00     0.023 A 
ATOM     84  C   UNL A   1      46.218  24.663  33.884  1.00  0.00     0.031 A 
ATOM     85  C   UNL A   1      47.597  26.175  32.610  1.00  0.00     0.131 A 
ATOM     86  C   UNL A   1      47.381  24.116  34.444  1.00  0.00     0.055 A 
ATOM     87  C   UNL A   1      48.753  25.582  33.120  1.00  0.00     0.041 A 
ATOM     88  F   UNL A   1      47.749  27.196  31.750  1.00  0.00    -0.206 F 
ATOM     89  C   UNL A   1      48.649  24.557  34.055  1.00  0.00     0.022 A 
BRANCH  86  90
ATOM     90  S   UNL A   1      47.215  22.891  35.773  1.00  0.00     0.124 S 
ATOM     91  O   UNL A   1      48.189  23.370  36.749  1.00  0.00    -0.237 OA
ATOM     92  O   UNL A   1      45.812  23.031  36.150  1.00  0.00    -0.237 OA
ATOM     93  O   UNL A   1      47.558  21.629  35.121  1.00  0.00    -0.744 OA
ENDBRANCH  86  90
ENDBRANCH  60  83
ENDBRANCH  34  35
ENDBRANCH  26  29
ENDBRANCH  24  25
ENDBRANCH   1  24
TORSDOF 17
ENDMDL
MODEL 2
REMARK VINA RESULT:     -10.9      3.705      9.159
REMARK SMILES C[C@H]1[C@H](C(=O)NCCCNC(=O)c2ccc(-c3c4nc(c(-c5cc(S(=O)(=O)[O-])ccc5F)c5ccc([nH]5)c(-c5cc(S(=O)(=O)[O-])ccc5F)c5nc(c(-c6cc(S(=O)(=O)[O-])ccc6F)c6ccc3[nH]6)C=C5)C=C4)cc2)CCN1C(=O)[C@](C)([NH3+])C1CC1
REMARK SMILES IDX 8 1 7 2 6 3 4 4 5 5 3 7 1 8 2 9 78 10 76 11 77 12 79 13
REMARK SMILES IDX 80 14 81 15 82 16 83 17 84 21 85 22 86 23 9 24 10 25 11 26
REMARK SMILES IDX 12 28 13 29 14 30 75 31 15 32 74 33 16 34 17 35 18 36 68 37
REMARK SMILES IDX 19 38 73 39 67 40 69 41 20 42 72 43 66 44 65 45 21 47 53 48
REMARK SMILES IDX 33 49 52 50 34 51 37 52 51 53 70 54 35 55 36 56 50 58 71 59
REMARK SMILES IDX 38 60 22 61 23 62 31 63 24 64 30 65 32 66 29 67 25 68 26 69
REMARK SMILES IDX 27 70 28 71 54 72 55 73 63 74 56 75 62 76 64 77 61 78 57 79
REMARK SMILES IDX 58 80 59 81 60 82 39 83 40 84 48 85 41 86 47 87 49 88 46 89
REMARK SMILES IDX 42 90 43 91 44 92 45 93
REMARK H PARENT 6 6 83 18 83 19 83 20 10 27 69 46 37 57
REMARK Flexibility Score: inf
ROOT
ATOM      1  C   UNL A   1      31.546  31.784  26.639  1.00  0.00     0.042 C 
ENDROOT
BRANCH   1   2
ATOM      2  C   UNL A   1      31.731  30.478  25.883  1.00  0.00     0.117 C 
BRANCH   2   3
ATOM      3  N   UNL A   1      31.553  29.317  26.738  1.00  0.00    -0.356 N 
ATOM      4  C   UNL A   1      31.530  27.988  26.468  1.00  0.00     0.225 C 
ATOM      5  O   UNL A   1      31.366  27.224  27.424  1.00  0.00    -0.275 OA
ATOM      6  H   UNL A   1      31.425  29.535  27.689  1.00  0.00     0.163 HD
BRANCH   4   7
ATOM      7  C   UNL A   1      31.672  27.412  25.068  1.00  0.00     0.102 C 
ATOM      8  C   UNL A   1      30.043  26.075  23.710  1.00  0.00     0.032 C 
ATOM      9  C   UNL A   1      30.363  27.469  24.258  1.00  0.00     0.094 C 
ATOM     10  N   UNL A   1      30.638  28.391  23.165  1.00  0.00    -0.334 N 
ATOM     11  C   UNL A   1      32.756  28.059  24.206  1.00  0.00     0.037 C 
ATOM     12  C   UNL A   1      32.070  28.420  22.898  1.00  0.00     0.121 C 
BRANCH  10  13
ATOM     13  C   UNL A   1      29.797  29.172  22.406  1.00  0.00     0.284 C 
ATOM     14  O   UNL A   1      30.228  29.579  21.309  1.00  0.00    -0.268 OA
BRANCH  13  15
ATOM     15  C   UNL A   1      28.305  29.559  22.763  1.00  0.00     0.174 C 
ATOM     16  C   UNL A   1      27.599  28.276  23.226  1.00  0.00     0.090 C 
BRANCH  15  17
ATOM     17  N   UNL A   1      27.670  29.904  21.448  1.00  0.00    -0.345 N 
ATOM     18  H   UNL A   1      28.379  29.901  20.716  1.00  0.00     0.345 HD
ATOM     19  H   UNL A   1      27.246  30.830  21.507  1.00  0.00     0.345 HD
ATOM     20  H   UNL A   1      26.950  29.215  21.227  1.00  0.00     0.345 HD
ENDBRANCH  15  17
BRANCH  15  21
ATOM     21  C   UNL A   1      27.972  30.796  23.589  1.00  0.00     0.060 C 
ATOM     22  C   UNL A   1      29.052  31.826  23.909  1.00  0.00     0.011 C 
ATOM     23  C   UNL A   1      27.852  32.235  23.124  1.00  0.00     0.011 C 
ENDBRANCH  15  21
ENDBRANCH  13  15
ENDBRANCH  10  13
ENDBRANCH   4   7
ENDBRANCH   2   3
ENDBRANCH   1   2
BRANCH   1  24
ATOM     24  C   UNL A   1      32.823  32.366  27.230  1.00  0.00     0.118 C 
BRANCH  24  25
ATOM     25  N   UNL A   1      32.679  33.762  27.608  1.00  0.00    -0.352 N 
ATOM     26  C   UNL A   1      33.298  34.491  28.592  1.00  0.00     0.251 C 
ATOM     27  H   UNL A   1      32.031  34.268  27.067  1.00  0.00     0.163 HD
ATOM     28  O   UNL A   1      32.862  35.607  28.860  1.00  0.00    -0.269 OA
BRANCH  26  29
ATOM     29  C   UNL A   1      34.456  33.945  29.336  1.00  0.00     0.039 A 
ATOM     30  C   UNL A   1      34.217  33.038  30.374  1.00  0.00     0.014 A 
ATOM     31  C   UNL A   1      35.765  34.348  29.057  1.00  0.00     0.014 A 
ATOM     32  C   UNL A   1      35.289  32.493  31.085  1.00  0.00     0.010 A 
ATOM     33  C   UNL A   1      36.837  33.741  29.710  1.00  0.00     0.010 A 
ATOM     34  C   UNL A   1      36.611  32.813  30.736  1.00  0.00    -0.014 A 
BRANCH  34  35
ATOM     35  C   UNL A   1      37.762  32.185  31.439  1.00  0.00     0.031 A 
ATOM     36  C   UNL A   1      38.537  31.071  30.788  1.00  0.00     0.074 A 
ATOM     37  C   UNL A   1      38.076  32.587  32.687  1.00  0.00     0.049 A 
ATOM     38  N   UNL A   1      39.531  30.365  31.262  1.00  0.00    -0.248 NA
ATOM     39  C   UNL A   1      38.115  30.679  29.435  1.00  0.00     0.031 C 
ATOM     40  C   UNL A   1      37.366  33.622  33.443  1.00  0.00     0.029 A 
ATOM     41  N   UNL A   1      39.063  32.171  33.544  1.00  0.00    -0.354 N 
ATOM     42  C   UNL A   1      39.850  29.442  30.272  1.00  0.00     0.074 A 
ATOM     43  C   UNL A   1      38.896  29.635  29.201  1.00  0.00     0.031 C 
ATOM     44  C   UNL A   1      37.957  33.776  34.638  1.00  0.00     0.029 A 
ATOM     45  C   UNL A   1      39.057  32.824  34.754  1.00  0.00     0.049 A 
ATOM     46  H   UNL A   1      39.716  31.470  33.313  1.00  0.00     0.167 HD
ATOM     47  C   UNL A   1      40.861  28.536  30.246  1.00  0.00     0.034 A 
ATOM     48  C   UNL A   1      39.839  32.667  35.840  1.00  0.00     0.034 A 
ATOM     49  C   UNL A   1      41.807  28.360  31.322  1.00  0.00     0.049 A 
ATOM     50  C   UNL A   1      40.947  31.647  35.795  1.00  0.00     0.074 A 
ATOM     51  C   UNL A   1      42.894  27.505  31.386  1.00  0.00     0.029 A 
ATOM     52  N   UNL A   1      41.776  29.046  32.532  1.00  0.00    -0.354 N 
ATOM     53  N   UNL A   1      41.268  30.816  34.829  1.00  0.00    -0.248 NA
ATOM     54  C   UNL A   1      41.809  31.556  36.980  1.00  0.00     0.031 C 
ATOM     55  C   UNL A   1      43.478  27.627  32.652  1.00  0.00     0.029 A 
ATOM     56  C   UNL A   1      42.805  28.614  33.354  1.00  0.00     0.049 A 
ATOM     57  H   UNL A   1      41.117  29.739  32.769  1.00  0.00     0.167 HD
ATOM     58  C   UNL A   1      42.384  30.119  35.284  1.00  0.00     0.074 A 
ATOM     59  C   UNL A   1      42.693  30.646  36.598  1.00  0.00     0.031 C 
ATOM     60  C   UNL A   1      43.090  29.133  34.673  1.00  0.00     0.034 A 
BRANCH  47  61
ATOM     61  C   UNL A   1      40.972  27.657  29.021  1.00  0.00     0.023 A 
ATOM     62  C   UNL A   1      41.967  27.870  28.049  1.00  0.00     0.031 A 
ATOM     63  C   UNL A   1      40.053  26.616  28.800  1.00  0.00     0.131 A 
ATOM     64  C   UNL A   1      41.968  27.113  26.868  1.00  0.00     0.055 A 
ATOM     65  C   UNL A   1      40.115  25.809  27.662  1.00  0.00     0.041 A 
ATOM     66  F   UNL A   1      39.068  26.376  29.679  1.00  0.00    -0.206 F 
ATOM     67  C   UNL A   1      41.065  26.066  26.678  1.00  0.00     0.022 A 
BRANCH  64  68
ATOM     68  S   UNL A   1      43.069  27.620  25.517  1.00  0.00     0.124 S 
ATOM     69  O   UNL A   1      44.053  28.431  26.228  1.00  0.00    -0.237 OA
ATOM     70  O   UNL A   1      43.546  26.341  25.002  1.00  0.00    -0.237 OA
ATOM     71  O   UNL A   1      42.189  28.365  24.619  1.00  0.00    -0.744 OA
ENDBRANCH  64  68
ENDBRANCH  47  61
BRANCH  48  72
ATOM     72  C   UNL A   1      39.601  33.485  37.064  1.00  0.00     0.023 A 
ATOM     73  C   UNL A   1      38.930  32.951  38.175  1.00  0.00     0.031 A 
ATOM     74  C   UNL A   1      40.014  34.828  37.124  1.00  0.00     0.131 A 
ATOM     75  C   UNL A   1      38.653  33.766  39.282  1.00  0.00     0.055 A 
ATOM     76  C   UNL A   1      39.783  35.619  38.250  1.00  0.00     0.041 A 
ATOM     77  F   UNL A   1      40.664  35.386  36.091  1.00  0.00    -0.206 F 
ATOM     78  C   UNL A   1      39.086  35.093  39.333  1.00  0.00     0.022 A 
BRANCH  75  79
ATOM     79  S   UNL A   1      37.643  33.089  40.629  1.00  0.00     0.124 S 
ATOM     80  O   UNL A   1      38.345  31.846  40.930  1.00  0.00    -0.237 OA
ATOM     81  O   UNL A   1      37.738  34.139  41.637  1.00  0.00    -0.237 OA
ATOM     82  O   UNL A   1      36.325  32.931  40.019  1.00  0.00    -0.744 OA
ENDBRANCH  75  79
ENDBRANCH  48  72
BRANCH  60  83
ATOM     83  C   UNL A   1      44.287  28.591  35.416  1.00  0.00     0.023 A 
ATOM     84  C   UNL A   1      44.170  27.527  36.329  1.00  0.00     0.031 A 
ATOM     85  C   UNL A   1      45.556  29.168  35.234  1.00  0.00     0.131 A 
ATOM     86  C   UNL A   1      45.287  27.119  37.074  1.00  0.00     0.055 A 
ATOM     87  C   UNL A   1      46.678  28.713  35.930  1.00  0.00     0.041 A 
ATOM     88  F   UNL A   1      45.726  30.188  34.377  1.00  0.00    -0.206 F 
ATOM     89  C   UNL A   1      46.543  27.695  36.868  1.00  0.00     0.022 A 
BRANCH  86  90
ATOM     90  S   UNL A   1      45.053  25.901  38.398  1.00  0.00     0.124 S 
ATOM     91  O   UNL A   1      44.504  24.762  37.668  1.00  0.00    -0.237 OA
ATOM     92  O   UNL A   1      46.409  25.736  38.912  1.00  0.00    -0.237 OA
ATOM     93  O   UNL A   1      44.121  26.561  39.311  1.00  0.00    -0.744 OA
ENDBRANCH  86  90
ENDBRANCH  60  83
ENDBRANCH  34  35
ENDBRANCH  26  29
ENDBRANCH  24  25
ENDBRANCH   1  24
TORSDOF 17
ENDMDL
MODEL 3
REMARK VINA RESULT:     -10.8      3.289      8.737
REMARK SMILES C[C@H]1[C@H](C(=O)NCCCNC(=O)c2ccc(-c3c4nc(c(-c5cc(S(=O)(=O)[O-])ccc5F)c5ccc([nH]5)c(-c5cc(S(=O)(=O)[O-])ccc5F)c5nc(c(-c6cc(S(=O)(=O)[O-])ccc6F)c6ccc3[nH]6)C=C5)C=C4)cc2)CCN1C(=O)[C@](C)([NH3+])C1CC1
REMARK SMILES IDX 8 1 7 2 6 3 4 4 5 5 3 7 1 8 2 9 78 10 76 11 77 12 79 13
REMARK SMILES IDX 80 14 81 15 82 16 83 17 84 21 85 22 86 23 9 24 10 25 11 26
REMARK SMILES IDX 12 28 13 29 14 30 75 31 15 32 74 33 16 34 17 35 18 36 68 37
REMARK SMILES IDX 19 38 73 39 67 40 69 41 20 42 72 43 66 44 65 45 21 47 53 48
REMARK SMILES IDX 33 49 52 50 34 51 37 52 51 53 70 54 35 55 36 56 50 58 71 59
REMARK SMILES IDX 38 60 22 61 23 62 31 63 24 64 30 65 32 66 29 67 25 68 26 69
REMARK SMILES IDX 27 70 28 71 54 72 55 73 63 74 56 75 62 76 64 77 61 78 57 79
REMARK SMILES IDX 58 80 59 81 60 82 39 83 40 84 48 85 41 86 47 87 49 88 46 89
REMARK SMILES IDX 42 90 43 91 44 92 45 93
REMARK H PARENT 6 6 83 18 83 19 83 20 10 27 69 46 37 57
REMARK Flexibility Score: inf
ROOT
ATOM      1  C   UNL A   1      31.454  32.109  26.647  1.00  0.00     0.042 C 
ENDROOT
BRANCH   1   2
ATOM      2  C   UNL A   1      31.525  30.615  26.375  1.00  0.00     0.117 C 
BRANCH   2   3
ATOM      3  N   UNL A   1      31.418  30.306  24.960  1.00  0.00    -0.356 N 
ATOM      4  C   UNL A   1      31.481  29.133  24.281  1.00  0.00     0.225 C 
ATOM      5  O   UNL A   1      31.342  29.186  23.056  1.00  0.00    -0.275 OA
ATOM      6  H   UNL A   1      31.273  31.093  24.388  1.00  0.00     0.163 HD
BRANCH   4   7
ATOM      7  C   UNL A   1      31.732  27.789  24.948  1.00  0.00     0.102 C 
ATOM      8  C   UNL A   1      30.508  25.617  24.690  1.00  0.00     0.032 C 
ATOM      9  C   UNL A   1      31.472  26.595  24.011  1.00  0.00     0.094 C 
ATOM     10  N   UNL A   1      32.775  25.973  23.825  1.00  0.00    -0.334 N 
ATOM     11  C   UNL A   1      33.134  27.602  25.527  1.00  0.00     0.037 C 
ATOM     12  C   UNL A   1      33.630  26.280  24.964  1.00  0.00     0.121 C 
BRANCH  10  13
ATOM     13  C   UNL A   1      33.269  25.191  22.806  1.00  0.00     0.284 C 
ATOM     14  O   UNL A   1      33.767  25.777  21.824  1.00  0.00    -0.268 OA
BRANCH  13  15
ATOM     15  C   UNL A   1      33.320  23.610  22.783  1.00  0.00     0.174 C 
ATOM     16  C   UNL A   1      34.778  23.197  23.033  1.00  0.00     0.090 C 
BRANCH  15  17
ATOM     17  N   UNL A   1      33.045  23.235  21.356  1.00  0.00    -0.345 N 
ATOM     18  H   UNL A   1      32.761  24.064  20.835  1.00  0.00     0.345 HD
ATOM     19  H   UNL A   1      32.299  22.541  21.324  1.00  0.00     0.345 HD
ATOM     20  H   UNL A   1      33.890  22.845  20.938  1.00  0.00     0.345 HD
ENDBRANCH  15  17
BRANCH  15  21
ATOM     21  C   UNL A   1      32.290  22.762  23.518  1.00  0.00     0.060 C 
ATOM     22  C   UNL A   1      32.552  21.281  23.780  1.00  0.00     0.011 C 
ATOM     23  C   UNL A   1      32.357  22.211  24.930  1.00  0.00     0.011 C 
ENDBRANCH  15  21
ENDBRANCH  13  15
ENDBRANCH  10  13
ENDBRANCH   4   7
ENDBRANCH   2   3
ENDBRANCH   1   2
BRANCH   1  24
ATOM     24  C   UNL A   1      32.723  32.712  27.235  1.00  0.00     0.118 C 
BRANCH  24  25
ATOM     25  N   UNL A   1      32.539  34.086  27.671  1.00  0.00    -0.352 N 
ATOM     26  C   UNL A   1      33.129  34.786  28.694  1.00  0.00     0.251 C 
ATOM     27  H   UNL A   1      31.884  34.599  27.145  1.00  0.00     0.163 HD
ATOM     28  O   UNL A   1      32.661  35.878  29.005  1.00  0.00    -0.269 OA
BRANCH  26  29
ATOM     29  C   UNL A   1      34.291  34.238  29.428  1.00  0.00     0.039 A 
ATOM     30  C   UNL A   1      34.060  33.498  30.593  1.00  0.00     0.014 A 
ATOM     31  C   UNL A   1      35.604  34.479  29.011  1.00  0.00     0.014 A 
ATOM     32  C   UNL A   1      35.135  32.954  31.299  1.00  0.00     0.010 A 
ATOM     33  C   UNL A   1      36.670  33.866  29.669  1.00  0.00     0.010 A 
ATOM     34  C   UNL A   1      36.448  33.103  30.824  1.00  0.00    -0.014 A 
BRANCH  34  35
ATOM     35  C   UNL A   1      37.594  32.469  31.528  1.00  0.00     0.031 A 
ATOM     36  C   UNL A   1      38.328  31.313  30.903  1.00  0.00     0.074 A 
ATOM     37  C   UNL A   1      37.940  32.904  32.756  1.00  0.00     0.049 A 
ATOM     38  N   UNL A   1      39.311  30.597  31.384  1.00  0.00    -0.248 NA
ATOM     39  C   UNL A   1      37.872  30.888  29.571  1.00  0.00     0.031 C 
ATOM     40  C   UNL A   1      37.271  33.982  33.488  1.00  0.00     0.029 A 
ATOM     41  N   UNL A   1      38.931  32.490  33.610  1.00  0.00    -0.354 N 
ATOM     42  C   UNL A   1      39.589  29.633  30.421  1.00  0.00     0.074 A 
ATOM     43  C   UNL A   1      38.621  29.815  29.360  1.00  0.00     0.031 C 
ATOM     44  C   UNL A   1      37.887  34.161  34.668  1.00  0.00     0.029 A 
ATOM     45  C   UNL A   1      38.963  33.184  34.797  1.00  0.00     0.049 A 
ATOM     46  H   UNL A   1      39.561  31.765  33.393  1.00  0.00     0.167 HD
ATOM     47  C   UNL A   1      40.575  28.700  30.408  1.00  0.00     0.034 A 
ATOM     48  C   UNL A   1      39.761  33.043  35.875  1.00  0.00     0.034 A 
ATOM     49  C   UNL A   1      41.535  28.535  31.474  1.00  0.00     0.049 A 
ATOM     50  C   UNL A   1      40.840  31.992  35.846  1.00  0.00     0.074 A 
ATOM     51  C   UNL A   1      42.600  27.654  31.549  1.00  0.00     0.029 A 
ATOM     52  N   UNL A   1      41.543  29.262  32.660  1.00  0.00    -0.354 N 
ATOM     53  N   UNL A   1      41.122  31.121  34.904  1.00  0.00    -0.248 NA
ATOM     54  C   UNL A   1      41.720  31.918  37.019  1.00  0.00     0.031 C 
ATOM     55  C   UNL A   1      43.209  27.802  32.800  1.00  0.00     0.029 A 
ATOM     56  C   UNL A   1      42.575  28.830  33.479  1.00  0.00     0.049 A 
ATOM     57  H   UNL A   1      40.907  29.980  32.885  1.00  0.00     0.167 HD
ATOM     58  C   UNL A   1      42.227  30.410  35.364  1.00  0.00     0.074 A 
ATOM     59  C   UNL A   1      42.573  30.973  36.654  1.00  0.00     0.031 C 
ATOM     60  C   UNL A   1      42.897  29.386  34.775  1.00  0.00     0.034 A 
BRANCH  47  61
ATOM     61  C   UNL A   1      40.641  27.778  29.213  1.00  0.00     0.023 A 
ATOM     62  C   UNL A   1      41.565  27.986  28.172  1.00  0.00     0.031 A 
ATOM     63  C   UNL A   1      39.749  26.698  29.090  1.00  0.00     0.131 A 
ATOM     64  C   UNL A   1      41.521  27.183  27.022  1.00  0.00     0.055 A 
ATOM     65  C   UNL A   1      39.769  25.849  27.981  1.00  0.00     0.041 A 
ATOM     66  F   UNL A   1      38.830  26.459  30.038  1.00  0.00    -0.206 F 
ATOM     67  C   UNL A   1      40.646  26.099  26.930  1.00  0.00     0.022 A 
BRANCH  64  68
ATOM     68  S   UNL A   1      42.515  27.673  25.586  1.00  0.00     0.124 S 
ATOM     69  O   UNL A   1      43.851  27.767  26.171  1.00  0.00    -0.237 OA
ATOM     70  O   UNL A   1      42.300  26.567  24.660  1.00  0.00    -0.237 OA
ATOM     71  O   UNL A   1      41.929  28.949  25.182  1.00  0.00    -0.744 OA
ENDBRANCH  64  68
ENDBRANCH  47  61
BRANCH  48  72
ATOM     72  C   UNL A   1      39.565  33.907  37.074  1.00  0.00     0.023 A 
ATOM     73  C   UNL A   1      38.938  33.416  38.230  1.00  0.00     0.031 A 
ATOM     74  C   UNL A   1      39.976  35.253  37.066  1.00  0.00     0.131 A 
ATOM     75  C   UNL A   1      38.700  34.273  39.314  1.00  0.00     0.055 A 
ATOM     76  C   UNL A   1      39.784  36.087  38.168  1.00  0.00     0.041 A 
ATOM     77  F   UNL A   1      40.584  35.771  35.988  1.00  0.00    -0.206 F 
ATOM     78  C   UNL A   1      39.130  35.602  39.297  1.00  0.00     0.022 A 
BRANCH  75  79
ATOM     79  S   UNL A   1      37.744  33.647  40.723  1.00  0.00     0.124 S 
ATOM     80  O   UNL A   1      38.679  32.699  41.318  1.00  0.00    -0.237 OA
ATOM     81  O   UNL A   1      37.494  34.866  41.485  1.00  0.00    -0.237 OA
ATOM     82  O   UNL A   1      36.564  33.054  40.097  1.00  0.00    -0.744 OA
ENDBRANCH  75  79
ENDBRANCH  48  72
BRANCH  60  83
ATOM     83  C   UNL A   1      44.092  28.837  35.516  1.00  0.00     0.023 A 
ATOM     84  C   UNL A   1      43.980  27.741  36.390  1.00  0.00     0.031 A 
ATOM     85  C   UNL A   1      45.354  29.440  35.372  1.00  0.00     0.131 A 
ATOM     86  C   UNL A   1      45.092  27.325  37.137  1.00  0.00     0.055 A 
ATOM     87  C   UNL A   1      46.473  28.979  36.067  1.00  0.00     0.041 A 
ATOM     88  F   UNL A   1      45.519  30.491  34.553  1.00  0.00    -0.206 F 
ATOM     89  C   UNL A   1      46.342  27.927  36.968  1.00  0.00     0.022 A 
BRANCH  86  90
ATOM     90  S   UNL A   1      44.860  26.058  38.415  1.00  0.00     0.124 S 
ATOM     91  O   UNL A   1      43.890  26.696  39.300  1.00  0.00    -0.237 OA
ATOM     92  O   UNL A   1      44.368  24.923  37.641  1.00  0.00    -0.237 OA
ATOM     93  O   UNL A   1      46.198  25.890  38.978  1.00  0.00    -0.744 OA
ENDBRANCH  86  90
ENDBRANCH  60  83
ENDBRANCH  34  35
ENDBRANCH  26  29
ENDBRANCH  24  25
ENDBRANCH   1  24
TORSDOF 17
ENDMDL
