MODEL 1
REMARK VINA RESULT:     -13.0      0.000      0.000
REMARK SMILES Cc1ccc(S(=O)(=O)N[C@@H](Cc2cccc(F)c2)C(=O)NCCCNC(=O)c2ccc(-c3c4nc(c(-c5cc(S(=O)(=O)[O-])ccc5F)c5ccc([nH]5)c(-c5cc(S(=O)(=O)[O-])ccc5F)c5nc(c(-c6cc(S(=O)(=O)[O-])ccc6F)c6ccc3[nH]6)C=C5)C=C4)cc2)cc1
REMARK SMILES IDX 23 1 22 2 21 3 19 4 20 5 10 7 9 8 6 10 7 11 8 12 5 13 1 14
REMARK SMILES IDX 2 15 3 16 92 17 4 18 91 19 11 20 12 21 13 22 18 23 14 24
REMARK SMILES IDX 16 25 15 26 17 27 24 28 25 29 26 30 27 32 28 33 29 34 90 35
REMARK SMILES IDX 30 36 89 37 31 38 32 39 33 40 83 41 34 42 88 43 82 44 84 45
REMARK SMILES IDX 35 46 87 47 81 48 80 49 36 51 68 52 48 53 67 54 49 55 52 56
REMARK SMILES IDX 66 57 85 58 50 59 51 60 65 62 86 63 53 64 37 65 38 66 46 67
REMARK SMILES IDX 39 68 45 69 47 70 44 71 40 72 41 73 42 74 43 75 69 76 70 77
REMARK SMILES IDX 78 78 71 79 77 80 79 81 76 82 72 83 73 84 74 85 75 86 54 87
REMARK SMILES IDX 55 88 63 89 56 90 62 91 64 92 61 93 57 94 58 95 59 96 60 97
REMARK H PARENT 21 6 9 9 25 31 84 50 52 61
REMARK Flexibility Score: inf
ROOT
ATOM      1  C   UNL A   1      37.344  21.359  24.824  1.00  0.00     0.042 C 
ENDROOT
BRANCH   1   2
ATOM      2  C   UNL A   1      35.871  21.108  25.092  1.00  0.00     0.117 C 
BRANCH   2   3
ATOM      3  N   UNL A   1      35.496  21.471  26.451  1.00  0.00    -0.355 N 
ATOM      4  C   UNL A   1      34.565  22.374  26.875  1.00  0.00     0.238 C 
ATOM      5  O   UNL A   1      34.433  22.562  28.088  1.00  0.00    -0.273 OA
ATOM      6  H   UNL A   1      35.982  20.999  27.165  1.00  0.00     0.163 HD
BRANCH   4   7
ATOM      7  C   UNL A   1      33.785  23.253  25.873  1.00  0.00     0.163 C 
BRANCH   7   8
ATOM      8  N   UNL A   1      32.597  23.645  26.679  1.00  0.00    -0.198 NA
ATOM      9  H   UNL A   1      32.579  22.988  27.460  1.00  0.00     0.142 HD
BRANCH   8  10
ATOM     10  S   UNL A   1      31.032  23.729  26.155  1.00  0.00     0.241 S 
ATOM     11  O   UNL A   1      30.170  23.590  27.318  1.00  0.00    -0.207 OA
ATOM     12  O   UNL A   1      30.936  22.829  25.040  1.00  0.00    -0.207 OA
BRANCH  10  13
ATOM     13  C   UNL A   1      30.785  25.363  25.521  1.00  0.00     0.082 A 
ATOM     14  C   UNL A   1      30.651  29.343  23.921  1.00  0.00     0.044 C 
ATOM     15  C   UNL A   1      30.663  27.957  24.494  1.00  0.00    -0.051 A 
ATOM     16  C   UNL A   1      31.329  27.709  25.699  1.00  0.00     0.005 A 
ATOM     17  C   UNL A   1      30.003  26.905  23.843  1.00  0.00     0.005 A 
ATOM     18  C   UNL A   1      31.402  26.414  26.207  1.00  0.00     0.022 A 
ATOM     19  C   UNL A   1      30.049  25.609  24.364  1.00  0.00     0.022 A 
ENDBRANCH  10  13
ENDBRANCH   8  10
ENDBRANCH   7   8
BRANCH   7  20
ATOM     20  C   UNL A   1      34.533  24.417  25.192  1.00  0.00     0.065 C 
BRANCH  20  21
ATOM     21  C   UNL A   1      34.012  25.007  23.892  1.00  0.00    -0.043 A 
ATOM     22  C   UNL A   1      33.470  24.128  22.934  1.00  0.00     0.004 A 
ATOM     23  C   UNL A   1      34.011  26.376  23.594  1.00  0.00     0.043 A 
ATOM     24  C   UNL A   1      32.856  24.610  21.773  1.00  0.00     0.003 A 
ATOM     25  C   UNL A   1      33.372  26.850  22.448  1.00  0.00     0.123 A 
ATOM     26  C   UNL A   1      32.780  25.981  21.545  1.00  0.00     0.039 A 
ATOM     27  F   UNL A   1      33.330  28.170  22.229  1.00  0.00    -0.207 F 
ENDBRANCH  20  21
ENDBRANCH   7  20
ENDBRANCH   4   7
ENDBRANCH   2   3
ENDBRANCH   1   2
BRANCH   1  28
ATOM     28  C   UNL A   1      37.902  22.435  25.732  1.00  0.00     0.118 C 
BRANCH  28  29
ATOM     29  N   UNL A   1      39.246  22.176  26.234  1.00  0.00    -0.352 N 
ATOM     30  C   UNL A   1      40.233  23.072  26.606  1.00  0.00     0.251 C 
ATOM     31  H   UNL A   1      39.486  21.225  26.321  1.00  0.00     0.163 HD
ATOM     32  O   UNL A   1      41.379  22.675  26.800  1.00  0.00    -0.269 OA
BRANCH  30  33
ATOM     33  C   UNL A   1      39.878  24.483  26.907  1.00  0.00     0.039 A 
ATOM     34  C   UNL A   1      40.584  25.499  26.244  1.00  0.00     0.014 A 
ATOM     35  C   UNL A   1      39.075  24.799  27.992  1.00  0.00     0.014 A 
ATOM     36  C   UNL A   1      40.681  26.762  26.825  1.00  0.00     0.010 A 
ATOM     37  C   UNL A   1      39.316  25.969  28.660  1.00  0.00     0.010 A 
ATOM     38  C   UNL A   1      40.143  26.940  28.092  1.00  0.00    -0.014 A 
BRANCH  38  39
ATOM     39  C   UNL A   1      40.330  28.097  28.946  1.00  0.00     0.031 A 
ATOM     40  C   UNL A   1      39.433  29.253  28.760  1.00  0.00     0.074 A 
ATOM     41  C   UNL A   1      41.085  27.964  30.058  1.00  0.00     0.049 A 
ATOM     42  N   UNL A   1      39.549  30.373  29.379  1.00  0.00    -0.248 NA
ATOM     43  C   UNL A   1      38.322  29.241  27.812  1.00  0.00     0.031 C 
ATOM     44  C   UNL A   1      41.028  28.764  31.276  1.00  0.00     0.029 A 
ATOM     45  N   UNL A   1      42.234  27.188  30.206  1.00  0.00    -0.354 N 
ATOM     46  C   UNL A   1      38.407  31.105  29.148  1.00  0.00     0.074 A 
ATOM     47  C   UNL A   1      37.712  30.390  28.109  1.00  0.00     0.031 C 
ATOM     48  C   UNL A   1      42.196  28.644  31.928  1.00  0.00     0.029 A 
ATOM     49  C   UNL A   1      43.099  27.920  31.052  1.00  0.00     0.049 A 
ATOM     50  H   UNL A   1      42.409  26.307  29.802  1.00  0.00     0.167 HD
ATOM     51  C   UNL A   1      38.149  32.167  29.960  1.00  0.00     0.034 A 
ATOM     52  C   UNL A   1      44.272  28.421  30.557  1.00  0.00     0.034 A 
ATOM     53  C   UNL A   1      39.275  32.414  30.864  1.00  0.00     0.049 A 
ATOM     54  C   UNL A   1      44.354  29.940  30.556  1.00  0.00     0.074 A 
ATOM     55  C   UNL A   1      39.551  32.130  32.190  1.00  0.00     0.029 A 
ATOM     56  N   UNL A   1      40.474  32.807  30.303  1.00  0.00    -0.354 N 
ATOM     57  N   UNL A   1      43.373  30.738  30.880  1.00  0.00    -0.248 NA
ATOM     58  C   UNL A   1      45.535  30.678  30.107  1.00  0.00     0.031 C 
ATOM     59  C   UNL A   1      40.952  32.322  32.396  1.00  0.00     0.029 A 
ATOM     60  C   UNL A   1      41.511  32.754  31.206  1.00  0.00     0.049 A 
ATOM     61  H   UNL A   1      40.575  33.092  29.366  1.00  0.00     0.167 HD
ATOM     62  C   UNL A   1      43.724  32.036  30.609  1.00  0.00     0.074 A 
ATOM     63  C   UNL A   1      45.095  31.948  30.138  1.00  0.00     0.031 C 
ATOM     64  C   UNL A   1      42.849  33.079  30.736  1.00  0.00     0.034 A 
BRANCH  51  65
ATOM     65  C   UNL A   1      36.833  32.896  30.098  1.00  0.00     0.023 A 
ATOM     66  C   UNL A   1      36.302  33.039  31.397  1.00  0.00     0.031 A 
ATOM     67  C   UNL A   1      36.033  33.422  29.066  1.00  0.00     0.131 A 
ATOM     68  C   UNL A   1      35.031  33.595  31.621  1.00  0.00     0.055 A 
ATOM     69  C   UNL A   1      34.755  33.955  29.284  1.00  0.00     0.041 A 
ATOM     70  F   UNL A   1      36.444  33.493  27.799  1.00  0.00    -0.206 F 
ATOM     71  C   UNL A   1      34.241  34.035  30.567  1.00  0.00     0.022 A 
BRANCH  68  72
ATOM     72  S   UNL A   1      34.424  33.707  33.323  1.00  0.00     0.124 S 
ATOM     73  O   UNL A   1      33.126  33.047  33.229  1.00  0.00    -0.237 OA
ATOM     74  O   UNL A   1      35.459  32.999  34.067  1.00  0.00    -0.237 OA
ATOM     75  O   UNL A   1      34.365  35.148  33.565  1.00  0.00    -0.744 OA
ENDBRANCH  68  72
ENDBRANCH  51  65
BRANCH  52  76
ATOM     76  C   UNL A   1      44.852  27.527  29.506  1.00  0.00     0.023 A 
ATOM     77  C   UNL A   1      44.775  27.963  28.163  1.00  0.00     0.031 A 
ATOM     78  C   UNL A   1      45.833  26.578  29.834  1.00  0.00     0.131 A 
ATOM     79  C   UNL A   1      45.766  27.586  27.243  1.00  0.00     0.055 A 
ATOM     80  C   UNL A   1      46.782  26.161  28.894  1.00  0.00     0.041 A 
ATOM     81  F   UNL A   1      45.977  26.153  31.097  1.00  0.00    -0.206 F 
ATOM     82  C   UNL A   1      46.784  26.704  27.610  1.00  0.00     0.022 A 
BRANCH  79  83
ATOM     83  S   UNL A   1      45.849  28.461  25.652  1.00  0.00     0.124 S 
ATOM     84  O   UNL A   1      47.179  28.099  25.172  1.00  0.00    -0.237 OA
ATOM     85  O   UNL A   1      44.729  27.886  24.912  1.00  0.00    -0.237 OA
ATOM     86  O   UNL A   1      45.678  29.865  26.017  1.00  0.00    -0.744 OA
ENDBRANCH  79  83
ENDBRANCH  52  76
BRANCH  64  87
ATOM     87  C   UNL A   1      43.188  34.506  30.378  1.00  0.00     0.023 A 
ATOM     88  C   UNL A   1      43.138  34.968  29.057  1.00  0.00     0.031 A 
ATOM     89  C   UNL A   1      43.644  35.434  31.346  1.00  0.00     0.131 A 
ATOM     90  C   UNL A   1      43.464  36.302  28.752  1.00  0.00     0.055 A 
ATOM     91  C   UNL A   1      44.066  36.724  31.024  1.00  0.00     0.041 A 
ATOM     92  F   UNL A   1      43.648  35.150  32.657  1.00  0.00    -0.206 F 
ATOM     93  C   UNL A   1      43.964  37.172  29.719  1.00  0.00     0.022 A 
BRANCH  90  94
ATOM     94  S   UNL A   1      43.124  36.911  27.083  1.00  0.00     0.124 S 
ATOM     95  O   UNL A   1      41.897  37.678  27.266  1.00  0.00    -0.237 OA
ATOM     96  O   UNL A   1      44.326  37.693  26.806  1.00  0.00    -0.237 OA
ATOM     97  O   UNL A   1      42.985  35.691  26.290  1.00  0.00    -0.744 OA
ENDBRANCH  90  94
ENDBRANCH  64  87
ENDBRANCH  38  39
ENDBRANCH  30  33
ENDBRANCH  28  29
ENDBRANCH   1  28
TORSDOF 18
ENDMDL
MODEL 2
REMARK VINA RESULT:     -12.9      4.023      9.657
REMARK SMILES Cc1ccc(S(=O)(=O)N[C@@H](Cc2cccc(F)c2)C(=O)NCCCNC(=O)c2ccc(-c3c4nc(c(-c5cc(S(=O)(=O)[O-])ccc5F)c5ccc([nH]5)c(-c5cc(S(=O)(=O)[O-])ccc5F)c5nc(c(-c6cc(S(=O)(=O)[O-])ccc6F)c6ccc3[nH]6)C=C5)C=C4)cc2)cc1
REMARK SMILES IDX 23 1 22 2 21 3 19 4 20 5 10 7 9 8 6 10 7 11 8 12 5 13 1 14
REMARK SMILES IDX 2 15 3 16 92 17 4 18 91 19 11 20 12 21 13 22 18 23 14 24
REMARK SMILES IDX 16 25 15 26 17 27 24 28 25 29 26 30 27 32 28 33 29 34 90 35
REMARK SMILES IDX 30 36 89 37 31 38 32 39 33 40 83 41 34 42 88 43 82 44 84 45
REMARK SMILES IDX 35 46 87 47 81 48 80 49 36 51 68 52 48 53 67 54 49 55 52 56
REMARK SMILES IDX 66 57 85 58 50 59 51 60 65 62 86 63 53 64 37 65 38 66 46 67
REMARK SMILES IDX 39 68 45 69 47 70 44 71 40 72 41 73 42 74 43 75 69 76 70 77
REMARK SMILES IDX 78 78 71 79 77 80 79 81 76 82 72 83 73 84 74 85 75 86 54 87
REMARK SMILES IDX 55 88 63 89 56 90 62 91 64 92 61 93 57 94 58 95 59 96 60 97
REMARK H PARENT 21 6 9 9 25 31 84 50 52 61
REMARK Flexibility Score: inf
ROOT
ATOM      1  C   UNL A   1      32.455  30.311  26.593  1.00  0.00     0.042 C 
ENDROOT
BRANCH   1   2
ATOM      2  C   UNL A   1      32.183  29.397  25.411  1.00  0.00     0.117 C 
BRANCH   2   3
ATOM      3  N   UNL A   1      31.426  28.216  25.800  1.00  0.00    -0.355 N 
ATOM      4  C   UNL A   1      31.255  27.043  25.125  1.00  0.00     0.238 C 
ATOM      5  O   UNL A   1      30.530  26.176  25.621  1.00  0.00    -0.273 OA
ATOM      6  H   UNL A   1      30.972  28.272  26.672  1.00  0.00     0.163 HD
BRANCH   4   7
ATOM      7  C   UNL A   1      31.833  26.841  23.708  1.00  0.00     0.163 C 
BRANCH   7   8
ATOM      8  N   UNL A   1      32.219  25.404  23.743  1.00  0.00    -0.198 NA
ATOM      9  H   UNL A   1      32.578  25.250  24.685  1.00  0.00     0.142 HD
BRANCH   8  10
ATOM     10  S   UNL A   1      33.296  24.646  22.745  1.00  0.00     0.241 S 
ATOM     11  O   UNL A   1      33.849  25.649  21.849  1.00  0.00    -0.207 OA
ATOM     12  O   UNL A   1      32.621  23.483  22.241  1.00  0.00    -0.207 OA
BRANCH  10  13
ATOM     13  C   UNL A   1      34.625  24.069  23.760  1.00  0.00     0.082 A 
ATOM     14  C   UNL A   1      38.138  22.894  25.928  1.00  0.00     0.044 C 
ATOM     15  C   UNL A   1      36.890  23.278  25.190  1.00  0.00    -0.051 A 
ATOM     16  C   UNL A   1      36.695  22.831  23.878  1.00  0.00     0.005 A 
ATOM     17  C   UNL A   1      35.908  24.070  25.800  1.00  0.00     0.005 A 
ATOM     18  C   UNL A   1      35.573  23.234  23.159  1.00  0.00     0.022 A 
ATOM     19  C   UNL A   1      34.766  24.454  25.092  1.00  0.00     0.022 A 
ENDBRANCH  10  13
ENDBRANCH   8  10
ENDBRANCH   7   8
BRANCH   7  20
ATOM     20  C   UNL A   1      30.967  27.262  22.503  1.00  0.00     0.065 C 
BRANCH  20  21
ATOM     21  C   UNL A   1      29.817  28.239  22.690  1.00  0.00    -0.043 A 
ATOM     22  C   UNL A   1      30.039  29.593  22.373  1.00  0.00     0.004 A 
ATOM     23  C   UNL A   1      28.539  27.874  23.132  1.00  0.00     0.043 A 
ATOM     24  C   UNL A   1      28.995  30.524  22.398  1.00  0.00     0.003 A 
ATOM     25  C   UNL A   1      27.497  28.802  23.126  1.00  0.00     0.123 A 
ATOM     26  C   UNL A   1      27.710  30.118  22.746  1.00  0.00     0.039 A 
ATOM     27  F   UNL A   1      26.272  28.402  23.489  1.00  0.00    -0.207 F 
ENDBRANCH  20  21
ENDBRANCH   7  20
ENDBRANCH   4   7
ENDBRANCH   2   3
ENDBRANCH   1   2
BRANCH   1  28
ATOM     28  C   UNL A   1      33.823  30.060  27.192  1.00  0.00     0.118 C 
BRANCH  28  29
ATOM     29  N   UNL A   1      34.618  31.259  27.425  1.00  0.00    -0.352 N 
ATOM     30  C   UNL A   1      35.847  31.390  28.048  1.00  0.00     0.251 C 
ATOM     31  H   UNL A   1      34.224  32.096  27.090  1.00  0.00     0.163 HD
ATOM     32  O   UNL A   1      36.266  32.506  28.345  1.00  0.00    -0.269 OA
BRANCH  30  33
ATOM     33  C   UNL A   1      36.719  30.200  28.228  1.00  0.00     0.039 A 
ATOM     34  C   UNL A   1      36.718  29.564  29.479  1.00  0.00     0.014 A 
ATOM     35  C   UNL A   1      37.696  29.886  27.296  1.00  0.00     0.014 A 
ATOM     36  C   UNL A   1      37.829  28.821  29.873  1.00  0.00     0.010 A 
ATOM     37  C   UNL A   1      38.860  29.322  27.741  1.00  0.00     0.010 A 
ATOM     38  C   UNL A   1      38.940  28.815  29.040  1.00  0.00    -0.014 A 
BRANCH  38  39
ATOM     39  C   UNL A   1      40.253  28.294  29.367  1.00  0.00     0.031 A 
ATOM     40  C   UNL A   1      40.594  26.932  28.915  1.00  0.00     0.074 A 
ATOM     41  C   UNL A   1      41.204  29.156  29.786  1.00  0.00     0.049 A 
ATOM     42  N   UNL A   1      41.680  26.315  29.216  1.00  0.00    -0.248 NA
ATOM     43  C   UNL A   1      39.697  26.131  28.086  1.00  0.00     0.031 C 
ATOM     44  C   UNL A   1      42.651  28.997  29.702  1.00  0.00     0.029 A 
ATOM     45  N   UNL A   1      41.024  30.278  30.594  1.00  0.00    -0.354 N 
ATOM     46  C   UNL A   1      41.766  25.196  28.421  1.00  0.00     0.074 A 
ATOM     47  C   UNL A   1      40.474  25.087  27.792  1.00  0.00     0.031 C 
ATOM     48  C   UNL A   1      43.229  29.801  30.609  1.00  0.00     0.029 A 
ATOM     49  C   UNL A   1      42.164  30.351  31.428  1.00  0.00     0.049 A 
ATOM     50  H   UNL A   1      40.258  30.896  30.585  1.00  0.00     0.167 HD
ATOM     51  C   UNL A   1      42.971  24.572  28.316  1.00  0.00     0.034 A 
ATOM     52  C   UNL A   1      42.035  30.150  32.775  1.00  0.00     0.034 A 
ATOM     53  C   UNL A   1      43.943  25.166  29.238  1.00  0.00     0.049 A 
ATOM     54  C   UNL A   1      42.767  28.924  33.300  1.00  0.00     0.074 A 
ATOM     55  C   UNL A   1      44.984  26.070  29.119  1.00  0.00     0.029 A 
ATOM     56  N   UNL A   1      43.706  25.036  30.591  1.00  0.00    -0.354 N 
ATOM     57  N   UNL A   1      43.379  28.048  32.551  1.00  0.00    -0.248 NA
ATOM     58  C   UNL A   1      42.792  28.550  34.714  1.00  0.00     0.031 C 
ATOM     59  C   UNL A   1      45.334  26.509  30.433  1.00  0.00     0.029 A 
ATOM     60  C   UNL A   1      44.529  25.844  31.342  1.00  0.00     0.049 A 
ATOM     61  H   UNL A   1      43.028  24.434  30.975  1.00  0.00     0.167 HD
ATOM     62  C   UNL A   1      43.784  26.985  33.319  1.00  0.00     0.074 A 
ATOM     63  C   UNL A   1      43.404  27.354  34.672  1.00  0.00     0.031 C 
ATOM     64  C   UNL A   1      44.346  25.860  32.786  1.00  0.00     0.034 A 
BRANCH  51  65
ATOM     65  C   UNL A   1      43.370  23.551  27.276  1.00  0.00     0.023 A 
ATOM     66  C   UNL A   1      42.609  22.364  27.206  1.00  0.00     0.031 A 
ATOM     67  C   UNL A   1      44.454  23.617  26.382  1.00  0.00     0.131 A 
ATOM     68  C   UNL A   1      42.968  21.303  26.358  1.00  0.00     0.055 A 
ATOM     69  C   UNL A   1      44.829  22.551  25.552  1.00  0.00     0.041 A 
ATOM     70  F   UNL A   1      45.191  24.718  26.221  1.00  0.00    -0.206 F 
ATOM     71  C   UNL A   1      44.090  21.380  25.543  1.00  0.00     0.022 A 
BRANCH  68  72
ATOM     72  S   UNL A   1      41.946  19.809  26.361  1.00  0.00     0.124 S 
ATOM     73  O   UNL A   1      42.430  19.105  25.177  1.00  0.00    -0.237 OA
ATOM     74  O   UNL A   1      42.278  19.213  27.650  1.00  0.00    -0.237 OA
ATOM     75  O   UNL A   1      40.585  20.331  26.253  1.00  0.00    -0.744 OA
ENDBRANCH  68  72
ENDBRANCH  51  65
BRANCH  52  76
ATOM     76  C   UNL A   1      40.718  30.649  33.282  1.00  0.00     0.023 A 
ATOM     77  C   UNL A   1      40.511  32.048  33.295  1.00  0.00     0.031 A 
ATOM     78  C   UNL A   1      39.588  29.818  33.283  1.00  0.00     0.131 A 
ATOM     79  C   UNL A   1      39.218  32.569  33.131  1.00  0.00     0.055 A 
ATOM     80  C   UNL A   1      38.297  30.347  33.179  1.00  0.00     0.041 A 
ATOM     81  F   UNL A   1      39.721  28.484  33.236  1.00  0.00    -0.206 F 
ATOM     82  C   UNL A   1      38.111  31.723  33.049  1.00  0.00     0.022 A 
BRANCH  79  83
ATOM     83  S   UNL A   1      39.037  34.341  32.770  1.00  0.00     0.124 S 
ATOM     84  O   UNL A   1      38.803  34.903  34.096  1.00  0.00    -0.237 OA
ATOM     85  O   UNL A   1      40.320  34.675  32.157  1.00  0.00    -0.237 OA
ATOM     86  O   UNL A   1      37.897  34.397  31.858  1.00  0.00    -0.744 OA
ENDBRANCH  79  83
ENDBRANCH  52  76
BRANCH  64  87
ATOM     87  C   UNL A   1      44.735  24.650  33.599  1.00  0.00     0.023 A 
ATOM     88  C   UNL A   1      46.071  24.254  33.743  1.00  0.00     0.031 A 
ATOM     89  C   UNL A   1      43.768  23.808  34.201  1.00  0.00     0.131 A 
ATOM     90  C   UNL A   1      46.404  23.119  34.503  1.00  0.00     0.055 A 
ATOM     91  C   UNL A   1      44.096  22.626  34.866  1.00  0.00     0.041 A 
ATOM     92  F   UNL A   1      42.465  24.123  34.221  1.00  0.00    -0.206 F 
ATOM     93  C   UNL A   1      45.425  22.280  35.034  1.00  0.00     0.022 A 
BRANCH  90  94
ATOM     94  S   UNL A   1      48.148  22.812  34.875  1.00  0.00     0.124 S 
ATOM     95  O   UNL A   1      48.318  21.418  34.483  1.00  0.00    -0.237 OA
ATOM     96  O   UNL A   1      48.807  23.797  34.022  1.00  0.00    -0.237 OA
ATOM     97  O   UNL A   1      48.247  23.073  36.310  1.00  0.00    -0.744 OA
ENDBRANCH  90  94
ENDBRANCH  64  87
ENDBRANCH  38  39
ENDBRANCH  30  33
ENDBRANCH  28  29
ENDBRANCH   1  28
TORSDOF 18
ENDMDL
MODEL 3
REMARK VINA RESULT:     -12.5      3.671      9.358
REMARK SMILES Cc1ccc(S(=O)(=O)N[C@@H](Cc2cccc(F)c2)C(=O)NCCCNC(=O)c2ccc(-c3c4nc(c(-c5cc(S(=O)(=O)[O-])ccc5F)c5ccc([nH]5)c(-c5cc(S(=O)(=O)[O-])ccc5F)c5nc(c(-c6cc(S(=O)(=O)[O-])ccc6F)c6ccc3[nH]6)C=C5)C=C4)cc2)cc1
REMARK SMILES IDX 23 1 22 2 21 3 19 4 20 5 10 7 9 8 6 10 7 11 8 12 5 13 1 14
REMARK SMILES IDX 2 15 3 16 92 17 4 18 91 19 11 20 12 21 13 22 18 23 14 24
REMARK SMILES IDX 16 25 15 26 17 27 24 28 25 29 26 30 27 32 28 33 29 34 90 35
REMARK SMILES IDX 30 36 89 37 31 38 32 39 33 40 83 41 34 42 88 43 82 44 84 45
REMARK SMILES IDX 35 46 87 47 81 48 80 49 36 51 68 52 48 53 67 54 49 55 52 56
REMARK SMILES IDX 66 57 85 58 50 59 51 60 65 62 86 63 53 64 37 65 38 66 46 67
REMARK SMILES IDX 39 68 45 69 47 70 44 71 40 72 41 73 42 74 43 75 69 76 70 77
REMARK SMILES IDX 78 78 71 79 77 80 79 81 76 82 72 83 73 84 74 85 75 86 54 87
REMARK SMILES IDX 55 88 63 89 56 90 62 91 64 92 61 93 57 94 58 95 59 96 60 97
REMARK H PARENT 21 6 9 9 25 31 84 50 52 61
REMARK Flexibility Score: inf
ROOT
ATOM      1  C   UNL A   1      33.167  29.873  25.924  1.00  0.00     0.042 C 
ENDROOT
BRANCH   1   2
ATOM      2  C   UNL A   1      31.659  29.891  25.750  1.00  0.00     0.117 C 
BRANCH   2   3
ATOM      3  N   UNL A   1      31.270  29.732  24.356  1.00  0.00    -0.355 N 
ATOM      4  C   UNL A   1      31.325  28.618  23.570  1.00  0.00     0.238 C 
ATOM      5  O   UNL A   1      30.980  28.712  22.387  1.00  0.00    -0.273 OA
ATOM      6  H   UNL A   1      30.919  30.541  23.919  1.00  0.00     0.163 HD
BRANCH   4   7
ATOM      7  C   UNL A   1      31.932  27.297  24.089  1.00  0.00     0.163 C 
BRANCH   7   8
ATOM      8  N   UNL A   1      30.711  26.519  24.432  1.00  0.00    -0.198 NA
ATOM      9  H   UNL A   1      29.933  27.156  24.253  1.00  0.00     0.142 HD
BRANCH   8  10
ATOM     10  S   UNL A   1      30.363  25.818  25.887  1.00  0.00     0.241 S 
ATOM     11  O   UNL A   1      28.925  25.610  25.944  1.00  0.00    -0.207 OA
ATOM     12  O   UNL A   1      31.046  26.600  26.879  1.00  0.00    -0.207 OA
BRANCH  10  13
ATOM     13  C   UNL A   1      31.117  24.218  25.885  1.00  0.00     0.082 A 
ATOM     14  C   UNL A   1      33.226  20.496  25.538  1.00  0.00     0.044 C 
ATOM     15  C   UNL A   1      32.462  21.778  25.679  1.00  0.00    -0.051 A 
ATOM     16  C   UNL A   1      31.703  22.255  24.604  1.00  0.00     0.005 A 
ATOM     17  C   UNL A   1      32.487  22.502  26.879  1.00  0.00     0.005 A 
ATOM     18  C   UNL A   1      31.042  23.478  24.700  1.00  0.00     0.022 A 
ATOM     19  C   UNL A   1      31.801  23.715  26.990  1.00  0.00     0.022 A 
ENDBRANCH  10  13
ENDBRANCH   8  10
ENDBRANCH   7   8
BRANCH   7  20
ATOM     20  C   UNL A   1      32.950  26.565  23.191  1.00  0.00     0.065 C 
BRANCH  20  21
ATOM     21  C   UNL A   1      33.908  25.547  23.790  1.00  0.00    -0.043 A 
ATOM     22  C   UNL A   1      34.348  25.748  25.113  1.00  0.00     0.004 A 
ATOM     23  C   UNL A   1      34.362  24.405  23.119  1.00  0.00     0.043 A 
ATOM     24  C   UNL A   1      35.125  24.790  25.772  1.00  0.00     0.003 A 
ATOM     25  C   UNL A   1      35.113  23.441  23.793  1.00  0.00     0.123 A 
ATOM     26  C   UNL A   1      35.483  23.616  25.118  1.00  0.00     0.039 A 
ATOM     27  F   UNL A   1      35.473  22.328  23.141  1.00  0.00    -0.207 F 
ENDBRANCH  20  21
ENDBRANCH   7  20
ENDBRANCH   4   7
ENDBRANCH   2   3
ENDBRANCH   1   2
BRANCH   1  28
ATOM     28  C   UNL A   1      33.567  30.119  27.364  1.00  0.00     0.118 C 
BRANCH  28  29
ATOM     29  N   UNL A   1      34.362  31.321  27.581  1.00  0.00    -0.352 N 
ATOM     30  C   UNL A   1      35.621  31.452  28.142  1.00  0.00     0.251 C 
ATOM     31  H   UNL A   1      33.944  32.161  27.285  1.00  0.00     0.163 HD
ATOM     32  O   UNL A   1      36.045  32.565  28.441  1.00  0.00    -0.269 OA
BRANCH  30  33
ATOM     33  C   UNL A   1      36.511  30.267  28.252  1.00  0.00     0.039 A 
ATOM     34  C   UNL A   1      36.756  29.740  29.529  1.00  0.00     0.014 A 
ATOM     35  C   UNL A   1      37.286  29.858  27.177  1.00  0.00     0.014 A 
ATOM     36  C   UNL A   1      37.923  29.015  29.762  1.00  0.00     0.010 A 
ATOM     37  C   UNL A   1      38.516  29.315  27.434  1.00  0.00     0.010 A 
ATOM     38  C   UNL A   1      38.849  28.920  28.731  1.00  0.00    -0.014 A 
BRANCH  38  39
ATOM     39  C   UNL A   1      40.201  28.406  28.839  1.00  0.00     0.031 A 
ATOM     40  C   UNL A   1      40.405  26.950  28.722  1.00  0.00     0.074 A 
ATOM     41  C   UNL A   1      41.231  29.273  28.731  1.00  0.00     0.049 A 
ATOM     42  N   UNL A   1      41.531  26.356  28.893  1.00  0.00    -0.248 NA
ATOM     43  C   UNL A   1      39.314  26.026  28.420  1.00  0.00     0.031 C 
ATOM     44  C   UNL A   1      42.600  28.983  28.320  1.00  0.00     0.029 A 
ATOM     45  N   UNL A   1      41.280  30.584  29.202  1.00  0.00    -0.354 N 
ATOM     46  C   UNL A   1      41.396  25.058  28.457  1.00  0.00     0.074 A 
ATOM     47  C   UNL A   1      39.981  24.883  28.245  1.00  0.00     0.031 C 
ATOM     48  C   UNL A   1      43.405  29.957  28.777  1.00  0.00     0.029 A 
ATOM     49  C   UNL A   1      42.603  30.793  29.653  1.00  0.00     0.049 A 
ATOM     50  H   UNL A   1      40.541  31.234  29.217  1.00  0.00     0.167 HD
ATOM     51  C   UNL A   1      42.526  24.337  28.223  1.00  0.00     0.034 A 
ATOM     52  C   UNL A   1      42.846  30.981  30.986  1.00  0.00     0.034 A 
ATOM     53  C   UNL A   1      43.713  25.082  28.650  1.00  0.00     0.049 A 
ATOM     54  C   UNL A   1      43.692  29.892  31.629  1.00  0.00     0.074 A 
ATOM     55  C   UNL A   1      44.683  25.834  28.011  1.00  0.00     0.029 A 
ATOM     56  N   UNL A   1      43.854  25.348  29.997  1.00  0.00    -0.354 N 
ATOM     57  N   UNL A   1      44.076  28.798  31.030  1.00  0.00    -0.248 NA
ATOM     58  C   UNL A   1      44.102  29.920  33.034  1.00  0.00     0.031 C 
ATOM     59  C   UNL A   1      45.378  26.588  29.006  1.00  0.00     0.029 A 
ATOM     60  C   UNL A   1      44.850  26.264  30.244  1.00  0.00     0.049 A 
ATOM     61  H   UNL A   1      43.305  24.930  30.700  1.00  0.00     0.167 HD
ATOM     62  C   UNL A   1      44.674  27.959  31.936  1.00  0.00     0.074 A 
ATOM     63  C   UNL A   1      44.678  28.714  33.177  1.00  0.00     0.031 C 
ATOM     64  C   UNL A   1      45.069  26.690  31.618  1.00  0.00     0.034 A 
BRANCH  51  65
ATOM     65  C   UNL A   1      42.625  23.041  27.453  1.00  0.00     0.023 A 
ATOM     66  C   UNL A   1      43.649  22.935  26.487  1.00  0.00     0.031 A 
ATOM     67  C   UNL A   1      41.779  21.920  27.550  1.00  0.00     0.131 A 
ATOM     68  C   UNL A   1      43.752  21.821  25.637  1.00  0.00     0.055 A 
ATOM     69  C   UNL A   1      41.865  20.819  26.687  1.00  0.00     0.041 A 
ATOM     70  F   UNL A   1      40.848  21.798  28.499  1.00  0.00    -0.206 F 
ATOM     71  C   UNL A   1      42.851  20.768  25.716  1.00  0.00     0.022 A 
BRANCH  68  72
ATOM     72  S   UNL A   1      45.082  21.791  24.409  1.00  0.00     0.124 S 
ATOM     73  O   UNL A   1      44.808  22.997  23.633  1.00  0.00    -0.237 OA
ATOM     74  O   UNL A   1      46.275  21.816  25.247  1.00  0.00    -0.237 OA
ATOM     75  O   UNL A   1      44.853  20.536  23.696  1.00  0.00    -0.744 OA
ENDBRANCH  68  72
ENDBRANCH  51  65
BRANCH  52  76
ATOM     76  C   UNL A   1      41.718  31.702  31.655  1.00  0.00     0.023 A 
ATOM     77  C   UNL A   1      40.605  30.932  32.067  1.00  0.00     0.031 A 
ATOM     78  C   UNL A   1      41.929  32.940  32.280  1.00  0.00     0.131 A 
ATOM     79  C   UNL A   1      39.854  31.325  33.186  1.00  0.00     0.055 A 
ATOM     80  C   UNL A   1      41.138  33.353  33.358  1.00  0.00     0.041 A 
ATOM     81  F   UNL A   1      42.986  33.698  31.956  1.00  0.00    -0.206 F 
ATOM     82  C   UNL A   1      40.131  32.522  33.849  1.00  0.00     0.022 A 
BRANCH  79  83
ATOM     83  S   UNL A   1      38.690  30.132  33.911  1.00  0.00     0.124 S 
ATOM     84  O   UNL A   1      37.398  30.708  33.553  1.00  0.00    -0.237 OA
ATOM     85  O   UNL A   1      39.041  28.889  33.229  1.00  0.00    -0.237 OA
ATOM     86  O   UNL A   1      39.010  30.154  35.336  1.00  0.00    -0.744 OA
ENDBRANCH  79  83
ENDBRANCH  52  76
BRANCH  64  87
ATOM     87  C   UNL A   1      45.664  25.723  32.613  1.00  0.00     0.023 A 
ATOM     88  C   UNL A   1      44.863  24.965  33.477  1.00  0.00     0.031 A 
ATOM     89  C   UNL A   1      47.064  25.583  32.778  1.00  0.00     0.131 A 
ATOM     90  C   UNL A   1      45.445  24.076  34.397  1.00  0.00     0.055 A 
ATOM     91  C   UNL A   1      47.637  24.779  33.763  1.00  0.00     0.041 A 
ATOM     92  F   UNL A   1      47.940  26.178  31.955  1.00  0.00    -0.206 F 
ATOM     93  C   UNL A   1      46.826  24.005  34.573  1.00  0.00     0.022 A 
BRANCH  90  94
ATOM     94  S   UNL A   1      44.365  22.933  35.293  1.00  0.00     0.124 S 
ATOM     95  O   UNL A   1      44.685  21.647  34.684  1.00  0.00    -0.237 OA
ATOM     96  O   UNL A   1      44.821  23.116  36.668  1.00  0.00    -0.237 OA
ATOM     97  O   UNL A   1      43.021  23.438  35.014  1.00  0.00    -0.744 OA
ENDBRANCH  90  94
ENDBRANCH  64  87
ENDBRANCH  38  39
ENDBRANCH  30  33
ENDBRANCH  28  29
ENDBRANCH   1  28
TORSDOF 18
ENDMDL
