MODEL 1
REMARK VINA RESULT:     -12.0      0.000      0.000
REMARK SMILES O=C(NCCCNC(=O)c1conc1-c1ccc(Cl)cc1)c1ccc(-c2c3nc(c(-c4cc(S(=O)(=O)[O-])ccc4F)c4ccc([nH]4)c(-c4cc(S(=O)(=O)[O-])ccc4F)c4nc(c(-c5cc(S(=O)(=O)[O-])ccc5F)c5ccc2[nH]5)C=C4)C=C3)cc1
REMARK SMILES IDX 4 1 3 2 1 3 2 4 22 6 23 7 84 8 24 9 83 10 25 11 26 12 27 13
REMARK SMILES IDX 77 14 28 15 82 16 76 17 78 18 29 19 81 20 75 21 74 22 30 24
REMARK SMILES IDX 62 25 42 26 61 27 43 28 46 29 60 30 79 31 44 32 45 33 59 35
REMARK SMILES IDX 80 36 47 37 31 38 32 39 40 40 33 41 39 42 41 43 38 44 34 45
REMARK SMILES IDX 35 46 36 47 37 48 63 49 64 50 72 51 65 52 71 53 73 54 70 55
REMARK SMILES IDX 66 56 67 57 68 58 69 59 48 60 49 61 57 62 50 63 56 64 58 65
REMARK SMILES IDX 55 66 51 67 52 68 53 69 54 70 5 71 6 72 7 73 8 74 9 76 10 77
REMARK SMILES IDX 11 78 14 79 12 80 13 81 15 82 16 83 21 84 17 85 20 86 18 87
REMARK SMILES IDX 19 88
REMARK H PARENT 3 5 78 23 46 34 7 75
REMARK Flexibility Score: inf
ROOT
ATOM      1  C   UNL A   1      32.660  32.503  26.948  1.00  0.00     0.118 C 
ENDROOT
BRANCH   1   2
ATOM      2  N   UNL A   1      32.482  33.856  27.449  1.00  0.00    -0.352 N 
ATOM      3  O   UNL A   1      32.693  35.629  28.798  1.00  0.00    -0.269 OA
ATOM      4  C   UNL A   1      33.124  34.529  28.458  1.00  0.00     0.251 C 
ATOM      5  H   UNL A   1      31.786  34.376  26.987  1.00  0.00     0.163 HD
BRANCH   4   6
ATOM      6  C   UNL A   1      34.296  33.953  29.153  1.00  0.00     0.039 A 
ATOM      7  C   UNL A   1      35.608  34.288  28.797  1.00  0.00     0.014 A 
ATOM      8  C   UNL A   1      34.067  33.113  30.249  1.00  0.00     0.014 A 
ATOM      9  C   UNL A   1      36.684  33.719  29.482  1.00  0.00     0.010 A 
ATOM     10  C   UNL A   1      35.143  32.566  30.951  1.00  0.00     0.010 A 
ATOM     11  C   UNL A   1      36.458  32.847  30.557  1.00  0.00    -0.014 A 
BRANCH  11  12
ATOM     12  C   UNL A   1      37.601  32.237  31.279  1.00  0.00     0.031 A 
ATOM     13  C   UNL A   1      38.372  31.108  30.660  1.00  0.00     0.074 A 
ATOM     14  C   UNL A   1      37.925  32.680  32.507  1.00  0.00     0.049 A 
ATOM     15  N   UNL A   1      39.406  30.459  31.132  1.00  0.00    -0.248 NA
ATOM     16  C   UNL A   1      37.913  30.641  29.344  1.00  0.00     0.031 C 
ATOM     17  C   UNL A   1      37.225  33.737  33.238  1.00  0.00     0.029 A 
ATOM     18  N   UNL A   1      38.919  32.280  33.362  1.00  0.00    -0.354 N 
ATOM     19  C   UNL A   1      39.718  29.500  30.177  1.00  0.00     0.074 A 
ATOM     20  C   UNL A   1      38.751  29.641  29.108  1.00  0.00     0.031 C 
ATOM     21  C   UNL A   1      37.808  33.898  34.438  1.00  0.00     0.029 A 
ATOM     22  C   UNL A   1      38.917  32.954  34.557  1.00  0.00     0.049 A 
ATOM     23  H   UNL A   1      39.572  31.578  33.139  1.00  0.00     0.167 HD
ATOM     24  C   UNL A   1      40.724  28.592  30.184  1.00  0.00     0.034 A 
ATOM     25  C   UNL A   1      39.710  32.817  35.635  1.00  0.00     0.034 A 
ATOM     26  C   UNL A   1      41.700  28.463  31.235  1.00  0.00     0.049 A 
ATOM     27  C   UNL A   1      40.809  31.795  35.628  1.00  0.00     0.074 A 
ATOM     28  C   UNL A   1      42.827  27.660  31.278  1.00  0.00     0.029 A 
ATOM     29  N   UNL A   1      41.649  29.142  32.443  1.00  0.00    -0.354 N 
ATOM     30  N   UNL A   1      41.130  30.940  34.688  1.00  0.00    -0.248 NA
ATOM     31  C   UNL A   1      41.653  31.727  36.828  1.00  0.00     0.031 C 
ATOM     32  C   UNL A   1      43.439  27.828  32.529  1.00  0.00     0.029 A 
ATOM     33  C   UNL A   1      42.704  28.754  33.253  1.00  0.00     0.049 A 
ATOM     34  H   UNL A   1      40.963  29.804  32.689  1.00  0.00     0.167 HD
ATOM     35  C   UNL A   1      42.218  30.230  35.183  1.00  0.00     0.074 A 
ATOM     36  C   UNL A   1      42.491  30.749  36.509  1.00  0.00     0.031 C 
ATOM     37  C   UNL A   1      42.938  29.250  34.583  1.00  0.00     0.034 A 
BRANCH  24  38
ATOM     38  C   UNL A   1      40.792  27.651  29.015  1.00  0.00     0.023 A 
ATOM     39  C   UNL A   1      41.708  27.849  27.970  1.00  0.00     0.031 A 
ATOM     40  C   UNL A   1      39.896  26.573  28.926  1.00  0.00     0.131 A 
ATOM     41  C   UNL A   1      41.680  27.007  26.851  1.00  0.00     0.055 A 
ATOM     42  C   UNL A   1      39.899  25.711  27.828  1.00  0.00     0.041 A 
ATOM     43  F   UNL A   1      38.986  26.361  29.889  1.00  0.00    -0.206 F 
ATOM     44  C   UNL A   1      40.786  25.933  26.778  1.00  0.00     0.022 A 
BRANCH  41  45
ATOM     45  S   UNL A   1      42.736  27.405  25.432  1.00  0.00     0.124 S 
ATOM     46  O   UNL A   1      42.656  26.182  24.637  1.00  0.00    -0.237 OA
ATOM     47  O   UNL A   1      42.073  28.577  24.871  1.00  0.00    -0.237 OA
ATOM     48  O   UNL A   1      44.042  27.654  26.038  1.00  0.00    -0.744 OA
ENDBRANCH  41  45
ENDBRANCH  24  38
BRANCH  25  49
ATOM     49  C   UNL A   1      39.456  33.642  36.838  1.00  0.00     0.023 A 
ATOM     50  C   UNL A   1      38.794  33.113  37.953  1.00  0.00     0.031 A 
ATOM     51  C   UNL A   1      39.904  34.971  36.884  1.00  0.00     0.131 A 
ATOM     52  C   UNL A   1      38.588  33.921  39.080  1.00  0.00     0.055 A 
ATOM     53  C   UNL A   1      39.699  35.771  38.007  1.00  0.00     0.041 A 
ATOM     54  F   UNL A   1      40.552  35.503  35.836  1.00  0.00    -0.206 F 
ATOM     55  C   UNL A   1      39.039  35.246  39.115  1.00  0.00     0.022 A 
BRANCH  52  56
ATOM     56  S   UNL A   1      37.773  33.211  40.537  1.00  0.00     0.124 S 
ATOM     57  O   UNL A   1      36.434  32.939  40.025  1.00  0.00    -0.237 OA
ATOM     58  O   UNL A   1      38.601  32.043  40.823  1.00  0.00    -0.237 OA
ATOM     59  O   UNL A   1      37.861  34.284  41.526  1.00  0.00    -0.744 OA
ENDBRANCH  52  56
ENDBRANCH  25  49
BRANCH  37  60
ATOM     60  C   UNL A   1      44.092  28.694  35.365  1.00  0.00     0.023 A 
ATOM     61  C   UNL A   1      43.915  27.617  36.247  1.00  0.00     0.031 A 
ATOM     62  C   UNL A   1      45.369  29.262  35.239  1.00  0.00     0.131 A 
ATOM     63  C   UNL A   1      45.006  27.153  36.997  1.00  0.00     0.055 A 
ATOM     64  C   UNL A   1      46.454  28.783  35.973  1.00  0.00     0.041 A 
ATOM     65  F   UNL A   1      45.576  30.299  34.411  1.00  0.00    -0.206 F 
ATOM     66  C   UNL A   1      46.274  27.724  36.860  1.00  0.00     0.022 A 
BRANCH  63  67
ATOM     67  S   UNL A   1      44.752  25.792  38.170  1.00  0.00     0.124 S 
ATOM     68  O   UNL A   1      44.189  26.489  39.322  1.00  0.00    -0.237 OA
ATOM     69  O   UNL A   1      43.841  24.911  37.448  1.00  0.00    -0.237 OA
ATOM     70  O   UNL A   1      46.099  25.257  38.367  1.00  0.00    -0.744 OA
ENDBRANCH  63  67
ENDBRANCH  37  60
ENDBRANCH  11  12
ENDBRANCH   4   6
ENDBRANCH   1   2
BRANCH   1  71
ATOM     71  C   UNL A   1      31.351  31.856  26.494  1.00  0.00     0.042 C 
BRANCH  71  72
ATOM     72  C   UNL A   1      31.425  30.361  26.177  1.00  0.00     0.118 C 
BRANCH  72  73
ATOM     73  N   UNL A   1      32.310  30.062  25.064  1.00  0.00    -0.352 N 
ATOM     74  C   UNL A   1      32.331  29.020  24.174  1.00  0.00     0.256 C 
ATOM     75  H   UNL A   1      33.020  30.729  24.922  1.00  0.00     0.163 HD
ATOM     76  O   UNL A   1      33.309  28.924  23.433  1.00  0.00    -0.269 OA
BRANCH  74  77
ATOM     77  C   UNL A   1      31.240  28.080  24.109  1.00  0.00     0.107 A 
ATOM     78  C   UNL A   1      31.185  26.830  24.678  1.00  0.00     0.245 A 
ATOM     79  C   UNL A   1      29.921  28.273  23.592  1.00  0.00     0.126 A 
ATOM     80  O   UNL A   1      29.963  26.287  24.489  1.00  0.00    -0.363 OA
ATOM     81  N   UNL A   1      29.163  27.186  23.818  1.00  0.00    -0.079 NA
BRANCH  79  82
ATOM     82  C   UNL A   1      29.356  29.439  22.913  1.00  0.00     0.005 A 
ATOM     83  C   UNL A   1      29.813  29.835  21.648  1.00  0.00     0.012 A 
ATOM     84  C   UNL A   1      28.331  30.177  23.526  1.00  0.00     0.012 A 
ATOM     85  C   UNL A   1      29.268  30.958  21.016  1.00  0.00     0.021 A 
ATOM     86  C   UNL A   1      27.788  31.301  22.897  1.00  0.00     0.021 A 
ATOM     87  C   UNL A   1      28.262  31.688  21.645  1.00  0.00     0.041 A 
ATOM     88  Cl  UNL A   1      27.596  33.074  20.872  1.00  0.00    -0.084 Cl
ENDBRANCH  79  82
ENDBRANCH  74  77
ENDBRANCH  72  73
ENDBRANCH  71  72
ENDBRANCH   1  71
TORSDOF 14
ENDMDL
MODEL 2
REMARK VINA RESULT:     -12.0      7.038     12.585
REMARK SMILES O=C(NCCCNC(=O)c1conc1-c1ccc(Cl)cc1)c1ccc(-c2c3nc(c(-c4cc(S(=O)(=O)[O-])ccc4F)c4ccc([nH]4)c(-c4cc(S(=O)(=O)[O-])ccc4F)c4nc(c(-c5cc(S(=O)(=O)[O-])ccc5F)c5ccc2[nH]5)C=C4)C=C3)cc1
REMARK SMILES IDX 4 1 3 2 1 3 2 4 22 6 23 7 84 8 24 9 83 10 25 11 26 12 27 13
REMARK SMILES IDX 77 14 28 15 82 16 76 17 78 18 29 19 81 20 75 21 74 22 30 24
REMARK SMILES IDX 62 25 42 26 61 27 43 28 46 29 60 30 79 31 44 32 45 33 59 35
REMARK SMILES IDX 80 36 47 37 31 38 32 39 40 40 33 41 39 42 41 43 38 44 34 45
REMARK SMILES IDX 35 46 36 47 37 48 63 49 64 50 72 51 65 52 71 53 73 54 70 55
REMARK SMILES IDX 66 56 67 57 68 58 69 59 48 60 49 61 57 62 50 63 56 64 58 65
REMARK SMILES IDX 55 66 51 67 52 68 53 69 54 70 5 71 6 72 7 73 8 74 9 76 10 77
REMARK SMILES IDX 11 78 14 79 12 80 13 81 15 82 16 83 21 84 17 85 20 86 18 87
REMARK SMILES IDX 19 88
REMARK H PARENT 3 5 78 23 46 34 7 75
REMARK Flexibility Score: inf
ROOT
ATOM      1  C   UNL A   1      38.941  20.393  25.807  1.00  0.00     0.118 C 
ENDROOT
BRANCH   1   2
ATOM      2  N   UNL A   1      40.052  19.462  25.923  1.00  0.00    -0.352 N 
ATOM      3  O   UNL A   1      42.165  18.737  26.047  1.00  0.00    -0.269 OA
ATOM      4  C   UNL A   1      41.389  19.687  26.134  1.00  0.00     0.251 C 
ATOM      5  H   UNL A   1      39.803  18.514  25.837  1.00  0.00     0.163 HD
BRANCH   4   6
ATOM      6  C   UNL A   1      41.912  21.037  26.438  1.00  0.00     0.039 A 
ATOM      7  C   UNL A   1      42.260  21.422  27.738  1.00  0.00     0.014 A 
ATOM      8  C   UNL A   1      42.135  21.913  25.370  1.00  0.00     0.014 A 
ATOM      9  C   UNL A   1      42.751  22.708  27.976  1.00  0.00     0.010 A 
ATOM     10  C   UNL A   1      42.652  23.189  25.605  1.00  0.00     0.010 A 
ATOM     11  C   UNL A   1      42.941  23.603  26.913  1.00  0.00    -0.014 A 
BRANCH  11  12
ATOM     12  C   UNL A   1      43.453  24.970  27.168  1.00  0.00     0.031 A 
ATOM     13  C   UNL A   1      42.539  26.036  27.698  1.00  0.00     0.074 A 
ATOM     14  C   UNL A   1      44.738  25.261  26.892  1.00  0.00     0.049 A 
ATOM     15  N   UNL A   1      42.808  27.282  27.994  1.00  0.00    -0.248 NA
ATOM     16  C   UNL A   1      41.137  25.653  27.911  1.00  0.00     0.031 C 
ATOM     17  C   UNL A   1      45.716  24.329  26.330  1.00  0.00     0.029 A 
ATOM     18  N   UNL A   1      45.433  26.434  27.035  1.00  0.00    -0.354 N 
ATOM     19  C   UNL A   1      41.609  27.837  28.421  1.00  0.00     0.074 A 
ATOM     20  C   UNL A   1      40.607  26.795  28.326  1.00  0.00     0.031 C 
ATOM     21  C   UNL A   1      46.886  24.969  26.168  1.00  0.00     0.029 A 
ATOM     22  C   UNL A   1      46.736  26.352  26.612  1.00  0.00     0.049 A 
ATOM     23  H   UNL A   1      45.036  27.254  27.407  1.00  0.00     0.167 HD
ATOM     24  C   UNL A   1      41.366  29.096  28.862  1.00  0.00     0.034 A 
ATOM     25  C   UNL A   1      47.698  27.292  26.571  1.00  0.00     0.034 A 
ATOM     26  C   UNL A   1      42.364  30.127  28.978  1.00  0.00     0.049 A 
ATOM     27  C   UNL A   1      47.404  28.683  27.050  1.00  0.00     0.074 A 
ATOM     28  C   UNL A   1      42.244  31.392  29.527  1.00  0.00     0.029 A 
ATOM     29  N   UNL A   1      43.666  30.017  28.512  1.00  0.00    -0.354 N 
ATOM     30  N   UNL A   1      46.279  29.173  27.512  1.00  0.00    -0.248 NA
ATOM     31  C   UNL A   1      48.513  29.644  27.005  1.00  0.00     0.031 C 
ATOM     32  C   UNL A   1      43.466  32.061  29.360  1.00  0.00     0.029 A 
ATOM     33  C   UNL A   1      44.351  31.202  28.730  1.00  0.00     0.049 A 
ATOM     34  H   UNL A   1      44.047  29.215  28.088  1.00  0.00     0.167 HD
ATOM     35  C   UNL A   1      46.546  30.503  27.815  1.00  0.00     0.074 A 
ATOM     36  C   UNL A   1      47.934  30.742  27.473  1.00  0.00     0.031 C 
ATOM     37  C   UNL A   1      45.719  31.436  28.348  1.00  0.00     0.034 A 
BRANCH  24  38
ATOM     38  C   UNL A   1      39.946  29.420  29.227  1.00  0.00     0.023 A 
ATOM     39  C   UNL A   1      39.528  29.462  30.567  1.00  0.00     0.031 A 
ATOM     40  C   UNL A   1      38.992  29.641  28.220  1.00  0.00     0.131 A 
ATOM     41  C   UNL A   1      38.176  29.675  30.867  1.00  0.00     0.055 A 
ATOM     42  C   UNL A   1      37.654  29.893  28.525  1.00  0.00     0.041 A 
ATOM     43  F   UNL A   1      39.342  29.583  26.926  1.00  0.00    -0.206 F 
ATOM     44  C   UNL A   1      37.238  29.899  29.854  1.00  0.00     0.022 A 
BRANCH  41  45
ATOM     45  S   UNL A   1      37.631  29.526  32.591  1.00  0.00     0.124 S 
ATOM     46  O   UNL A   1      37.698  28.083  32.809  1.00  0.00    -0.237 OA
ATOM     47  O   UNL A   1      38.622  30.328  33.299  1.00  0.00    -0.237 OA
ATOM     48  O   UNL A   1      36.278  30.078  32.569  1.00  0.00    -0.744 OA
ENDBRANCH  41  45
ENDBRANCH  24  38
BRANCH  25  49
ATOM     49  C   UNL A   1      49.024  26.955  26.005  1.00  0.00     0.023 A 
ATOM     50  C   UNL A   1      49.359  27.298  24.689  1.00  0.00     0.031 A 
ATOM     51  C   UNL A   1      49.980  26.303  26.799  1.00  0.00     0.131 A 
ATOM     52  C   UNL A   1      50.631  26.976  24.195  1.00  0.00     0.055 A 
ATOM     53  C   UNL A   1      51.245  25.987  26.306  1.00  0.00     0.041 A 
ATOM     54  F   UNL A   1      49.693  25.973  28.068  1.00  0.00    -0.206 F 
ATOM     55  C   UNL A   1      51.577  26.326  24.996  1.00  0.00     0.022 A 
BRANCH  52  56
ATOM     56  S   UNL A   1      51.071  27.468  22.506  1.00  0.00     0.124 S 
ATOM     57  O   UNL A   1      52.364  26.813  22.333  1.00  0.00    -0.237 OA
ATOM     58  O   UNL A   1      49.967  26.924  21.721  1.00  0.00    -0.237 OA
ATOM     59  O   UNL A   1      51.112  28.926  22.582  1.00  0.00    -0.744 OA
ENDBRANCH  52  56
ENDBRANCH  25  49
BRANCH  37  60
ATOM     60  C   UNL A   1      46.312  32.791  28.597  1.00  0.00     0.023 A 
ATOM     61  C   UNL A   1      46.240  33.802  27.626  1.00  0.00     0.031 A 
ATOM     62  C   UNL A   1      46.970  33.062  29.807  1.00  0.00     0.131 A 
ATOM     63  C   UNL A   1      46.847  35.042  27.873  1.00  0.00     0.055 A 
ATOM     64  C   UNL A   1      47.555  34.304  30.055  1.00  0.00     0.041 A 
ATOM     65  F   UNL A   1      47.066  32.119  30.757  1.00  0.00    -0.206 F 
ATOM     66  C   UNL A   1      47.496  35.301  29.084  1.00  0.00     0.022 A 
BRANCH  63  67
ATOM     67  S   UNL A   1      46.789  36.322  26.589  1.00  0.00     0.124 S 
ATOM     68  O   UNL A   1      48.125  36.903  26.683  1.00  0.00    -0.237 OA
ATOM     69  O   UNL A   1      46.511  35.553  25.381  1.00  0.00    -0.237 OA
ATOM     70  O   UNL A   1      45.701  37.196  27.028  1.00  0.00    -0.744 OA
ENDBRANCH  63  67
ENDBRANCH  37  60
ENDBRANCH  11  12
ENDBRANCH   4   6
ENDBRANCH   1   2
BRANCH   1  71
ATOM     71  C   UNL A   1      37.777  19.836  24.986  1.00  0.00     0.042 C 
BRANCH  71  72
ATOM     72  C   UNL A   1      36.636  20.815  24.704  1.00  0.00     0.118 C 
BRANCH  72  73
ATOM     73  N   UNL A   1      35.760  21.007  25.848  1.00  0.00    -0.352 N 
ATOM     74  C   UNL A   1      34.437  21.353  25.932  1.00  0.00     0.256 C 
ATOM     75  H   UNL A   1      36.194  20.859  26.719  1.00  0.00     0.163 HD
ATOM     76  O   UNL A   1      33.987  21.620  27.046  1.00  0.00    -0.269 OA
BRANCH  74  77
ATOM     77  C   UNL A   1      33.606  21.393  24.754  1.00  0.00     0.107 A 
ATOM     78  C   UNL A   1      33.346  22.482  23.957  1.00  0.00     0.245 A 
ATOM     79  C   UNL A   1      32.998  20.307  24.049  1.00  0.00     0.126 A 
ATOM     80  O   UNL A   1      32.609  22.110  22.887  1.00  0.00    -0.363 OA
ATOM     81  N   UNL A   1      32.394  20.750  22.933  1.00  0.00    -0.079 NA
BRANCH  79  82
ATOM     82  C   UNL A   1      32.980  18.883  24.383  1.00  0.00     0.005 A 
ATOM     83  C   UNL A   1      32.531  18.436  25.633  1.00  0.00     0.012 A 
ATOM     84  C   UNL A   1      33.411  17.938  23.439  1.00  0.00     0.012 A 
ATOM     85  C   UNL A   1      32.528  17.071  25.941  1.00  0.00     0.021 A 
ATOM     86  C   UNL A   1      33.412  16.574  23.746  1.00  0.00     0.021 A 
ATOM     87  C   UNL A   1      32.973  16.147  24.997  1.00  0.00     0.041 A 
ATOM     88  Cl  UNL A   1      32.978  14.468  25.376  1.00  0.00    -0.084 Cl
ENDBRANCH  79  82
ENDBRANCH  74  77
ENDBRANCH  72  73
ENDBRANCH  71  72
ENDBRANCH   1  71
TORSDOF 14
ENDMDL
MODEL 3
REMARK VINA RESULT:     -11.9      4.343     10.111
REMARK SMILES O=C(NCCCNC(=O)c1conc1-c1ccc(Cl)cc1)c1ccc(-c2c3nc(c(-c4cc(S(=O)(=O)[O-])ccc4F)c4ccc([nH]4)c(-c4cc(S(=O)(=O)[O-])ccc4F)c4nc(c(-c5cc(S(=O)(=O)[O-])ccc5F)c5ccc2[nH]5)C=C4)C=C3)cc1
REMARK SMILES IDX 4 1 3 2 1 3 2 4 22 6 23 7 84 8 24 9 83 10 25 11 26 12 27 13
REMARK SMILES IDX 77 14 28 15 82 16 76 17 78 18 29 19 81 20 75 21 74 22 30 24
REMARK SMILES IDX 62 25 42 26 61 27 43 28 46 29 60 30 79 31 44 32 45 33 59 35
REMARK SMILES IDX 80 36 47 37 31 38 32 39 40 40 33 41 39 42 41 43 38 44 34 45
REMARK SMILES IDX 35 46 36 47 37 48 63 49 64 50 72 51 65 52 71 53 73 54 70 55
REMARK SMILES IDX 66 56 67 57 68 58 69 59 48 60 49 61 57 62 50 63 56 64 58 65
REMARK SMILES IDX 55 66 51 67 52 68 53 69 54 70 5 71 6 72 7 73 8 74 9 76 10 77
REMARK SMILES IDX 11 78 14 79 12 80 13 81 15 82 16 83 21 84 17 85 20 86 18 87
REMARK SMILES IDX 19 88
REMARK H PARENT 3 5 78 23 46 34 7 75
REMARK Flexibility Score: inf
ROOT
ATOM      1  C   UNL A   1      34.943  33.641  28.004  1.00  0.00     0.118 C 
ENDROOT
BRANCH   1   2
ATOM      2  N   UNL A   1      34.080  32.499  27.744  1.00  0.00    -0.352 N 
ATOM      3  O   UNL A   1      33.482  30.376  27.367  1.00  0.00    -0.269 OA
ATOM      4  C   UNL A   1      34.345  31.153  27.771  1.00  0.00     0.251 C 
ATOM      5  H   UNL A   1      33.153  32.730  27.509  1.00  0.00     0.163 HD
BRANCH   4   6
ATOM      6  C   UNL A   1      35.641  30.625  28.251  1.00  0.00     0.039 A 
ATOM      7  C   UNL A   1      36.834  30.838  27.551  1.00  0.00     0.014 A 
ATOM      8  C   UNL A   1      35.667  29.964  29.485  1.00  0.00     0.014 A 
ATOM      9  C   UNL A   1      38.034  30.320  28.045  1.00  0.00     0.010 A 
ATOM     10  C   UNL A   1      36.872  29.471  29.991  1.00  0.00     0.010 A 
ATOM     11  C   UNL A   1      38.060  29.625  29.262  1.00  0.00    -0.014 A 
BRANCH  11  12
ATOM     12  C   UNL A   1      39.332  29.069  29.781  1.00  0.00     0.031 A 
ATOM     13  C   UNL A   1      40.019  29.709  30.951  1.00  0.00     0.074 A 
ATOM     14  C   UNL A   1      39.886  28.001  29.176  1.00  0.00     0.049 A 
ATOM     15  N   UNL A   1      41.127  29.358  31.551  1.00  0.00    -0.248 NA
ATOM     16  C   UNL A   1      39.381  30.909  31.512  1.00  0.00     0.031 C 
ATOM     17  C   UNL A   1      39.344  27.316  28.003  1.00  0.00     0.029 A 
ATOM     18  N   UNL A   1      41.040  27.319  29.462  1.00  0.00    -0.354 N 
ATOM     19  C   UNL A   1      41.328  30.296  32.555  1.00  0.00     0.074 A 
ATOM     20  C   UNL A   1      40.235  31.243  32.470  1.00  0.00     0.031 C 
ATOM     21  C   UNL A   1      40.170  26.313  27.662  1.00  0.00     0.029 A 
ATOM     22  C   UNL A   1      41.296  26.290  28.592  1.00  0.00     0.049 A 
ATOM     23  H   UNL A   1      41.626  27.545  30.220  1.00  0.00     0.167 HD
ATOM     24  C   UNL A   1      42.325  30.358  33.471  1.00  0.00     0.034 A 
ATOM     25  C   UNL A   1      42.331  25.433  28.539  1.00  0.00     0.034 A 
ATOM     26  C   UNL A   1      43.401  29.407  33.573  1.00  0.00     0.049 A 
ATOM     27  C   UNL A   1      43.432  25.528  29.554  1.00  0.00     0.074 A 
ATOM     28  C   UNL A   1      44.388  29.313  34.539  1.00  0.00     0.029 A 
ATOM     29  N   UNL A   1      43.645  28.395  32.656  1.00  0.00    -0.354 N 
ATOM     30  N   UNL A   1      43.572  26.383  30.538  1.00  0.00    -0.248 NA
ATOM     31  C   UNL A   1      44.512  24.537  29.451  1.00  0.00     0.031 C 
ATOM     32  C   UNL A   1      45.250  28.265  34.187  1.00  0.00     0.029 A 
ATOM     33  C   UNL A   1      44.784  27.693  33.014  1.00  0.00     0.049 A 
ATOM     34  H   UNL A   1      43.090  28.205  31.866  1.00  0.00     0.167 HD
ATOM     35  C   UNL A   1      44.757  26.032  31.174  1.00  0.00     0.074 A 
ATOM     36  C   UNL A   1      45.299  24.895  30.457  1.00  0.00     0.031 C 
ATOM     37  C   UNL A   1      45.332  26.590  32.268  1.00  0.00     0.034 A 
BRANCH  24  38
ATOM     38  C   UNL A   1      42.296  31.522  34.421  1.00  0.00     0.023 A 
ATOM     39  C   UNL A   1      41.410  31.553  35.510  1.00  0.00     0.031 A 
ATOM     40  C   UNL A   1      43.132  32.629  34.204  1.00  0.00     0.131 A 
ATOM     41  C   UNL A   1      41.345  32.695  36.321  1.00  0.00     0.055 A 
ATOM     42  C   UNL A   1      43.092  33.747  35.038  1.00  0.00     0.041 A 
ATOM     43  F   UNL A   1      43.975  32.653  33.161  1.00  0.00    -0.206 F 
ATOM     44  C   UNL A   1      42.187  33.789  36.096  1.00  0.00     0.022 A 
BRANCH  41  45
ATOM     45  S   UNL A   1      40.056  32.788  37.593  1.00  0.00     0.124 S 
ATOM     46  O   UNL A   1      39.117  31.759  37.154  1.00  0.00    -0.237 OA
ATOM     47  O   UNL A   1      40.802  32.495  38.812  1.00  0.00    -0.237 OA
ATOM     48  O   UNL A   1      39.561  34.158  37.476  1.00  0.00    -0.744 OA
ENDBRANCH  41  45
ENDBRANCH  24  38
BRANCH  25  49
ATOM     49  C   UNL A   1      42.399  24.435  27.446  1.00  0.00     0.023 A 
ATOM     50  C   UNL A   1      41.709  23.220  27.530  1.00  0.00     0.031 A 
ATOM     51  C   UNL A   1      43.143  24.713  26.289  1.00  0.00     0.131 A 
ATOM     52  C   UNL A   1      41.785  22.309  26.466  1.00  0.00     0.055 A 
ATOM     53  C   UNL A   1      43.214  23.808  25.232  1.00  0.00     0.041 A 
ATOM     54  F   UNL A   1      43.805  25.876  26.174  1.00  0.00    -0.206 F 
ATOM     55  C   UNL A   1      42.530  22.597  25.317  1.00  0.00     0.022 A 
BRANCH  52  56
ATOM     56  S   UNL A   1      40.849  20.759  26.565  1.00  0.00     0.124 S 
ATOM     57  O   UNL A   1      40.843  20.506  28.002  1.00  0.00    -0.237 OA
ATOM     58  O   UNL A   1      39.566  21.127  25.973  1.00  0.00    -0.237 OA
ATOM     59  O   UNL A   1      41.650  19.833  25.769  1.00  0.00    -0.744 OA
ENDBRANCH  52  56
ENDBRANCH  25  49
BRANCH  37  60
ATOM     60  C   UNL A   1      46.606  25.962  32.748  1.00  0.00     0.023 A 
ATOM     61  C   UNL A   1      46.590  24.917  33.686  1.00  0.00     0.031 A 
ATOM     62  C   UNL A   1      47.844  26.427  32.277  1.00  0.00     0.131 A 
ATOM     63  C   UNL A   1      47.803  24.385  34.148  1.00  0.00     0.055 A 
ATOM     64  C   UNL A   1      49.046  25.880  32.725  1.00  0.00     0.041 A 
ATOM     65  F   UNL A   1      47.901  27.430  31.385  1.00  0.00    -0.206 F 
ATOM     66  C   UNL A   1      49.029  24.855  33.668  1.00  0.00     0.022 A 
BRANCH  63  67
ATOM     67  S   UNL A   1      47.768  23.070  35.397  1.00  0.00     0.124 S 
ATOM     68  O   UNL A   1      48.093  21.890  34.601  1.00  0.00    -0.237 OA
ATOM     69  O   UNL A   1      48.788  23.501  36.347  1.00  0.00    -0.237 OA
ATOM     70  O   UNL A   1      46.396  23.117  35.903  1.00  0.00    -0.744 OA
ENDBRANCH  63  67
ENDBRANCH  37  60
ENDBRANCH  11  12
ENDBRANCH   4   6
ENDBRANCH   1   2
BRANCH   1  71
ATOM     71  C   UNL A   1      34.187  34.844  28.570  1.00  0.00     0.042 C 
BRANCH  71  72
ATOM     72  C   UNL A   1      33.643  34.678  29.989  1.00  0.00     0.118 C 
BRANCH  72  73
ATOM     73  N   UNL A   1      34.117  35.707  30.901  1.00  0.00    -0.352 N 
ATOM     74  C   UNL A   1      34.676  35.629  32.149  1.00  0.00     0.256 C 
ATOM     75  H   UNL A   1      34.021  36.625  30.558  1.00  0.00     0.163 HD
ATOM     76  O   UNL A   1      34.824  36.678  32.774  1.00  0.00    -0.269 OA
BRANCH  74  77
ATOM     77  C   UNL A   1      35.081  34.359  32.700  1.00  0.00     0.107 A 
ATOM     78  C   UNL A   1      34.340  33.528  33.506  1.00  0.00     0.245 A 
ATOM     79  C   UNL A   1      36.257  33.595  32.419  1.00  0.00     0.126 A 
ATOM     80  O   UNL A   1      35.015  32.381  33.736  1.00  0.00    -0.363 OA
ATOM     81  N   UNL A   1      36.212  32.411  33.054  1.00  0.00    -0.079 NA
BRANCH  79  82
ATOM     82  C   UNL A   1      37.400  33.935  31.573  1.00  0.00     0.005 A 
ATOM     83  C   UNL A   1      37.364  33.732  30.186  1.00  0.00     0.012 A 
ATOM     84  C   UNL A   1      38.558  34.483  32.148  1.00  0.00     0.012 A 
ATOM     85  C   UNL A   1      38.470  34.054  29.392  1.00  0.00     0.021 A 
ATOM     86  C   UNL A   1      39.665  34.803  31.356  1.00  0.00     0.021 A 
ATOM     87  C   UNL A   1      39.616  34.583  29.981  1.00  0.00     0.041 A 
ATOM     88  Cl  UNL A   1      40.980  34.972  29.007  1.00  0.00    -0.084 Cl
ENDBRANCH  79  82
ENDBRANCH  74  77
ENDBRANCH  72  73
ENDBRANCH  71  72
ENDBRANCH   1  71
TORSDOF 14
ENDMDL
