MODEL 1
REMARK VINA RESULT:     -12.4      0.000      0.000
REMARK SMILES COc1ccc(C(=O)c2ccccc2)cc1[C@@H](C)C(=O)NCCCNC(=O)c1ccc(-c2c3nc(c(-c4cc(S(=O)(=O)[O-])ccc4F)c4ccc([nH]4)c(-c4cc(S(=O)(=O)[O-])ccc4F)c4nc(c(-c5cc(S(=O)(=O)[O-])ccc5F)c5ccc2[nH]5)C=C4)C=C3)cc1
REMARK SMILES IDX 23 1 22 2 21 3 19 4 20 5 17 7 18 8 16 9 3 10 4 11 5 12 15 13
REMARK SMILES IDX 6 14 2 15 1 16 7 17 8 18 9 19 10 20 14 21 11 22 13 23 12 24
REMARK SMILES IDX 24 25 25 26 26 27 27 29 28 30 29 31 90 32 30 33 89 34 31 35
REMARK SMILES IDX 32 36 33 37 83 38 34 39 88 40 82 41 84 42 35 43 87 44 81 45
REMARK SMILES IDX 80 46 36 48 68 49 48 50 67 51 49 52 52 53 66 54 85 55 50 56
REMARK SMILES IDX 51 57 65 59 86 60 53 61 37 62 38 63 46 64 39 65 45 66 47 67
REMARK SMILES IDX 44 68 40 69 41 70 42 71 43 72 69 73 70 74 78 75 71 76 77 77
REMARK SMILES IDX 79 78 76 79 72 80 73 81 74 82 75 83 54 84 55 85 63 86 56 87
REMARK SMILES IDX 62 88 64 89 61 90 57 91 58 92 59 93 60 94
REMARK H PARENT 21 6 25 28 84 47 52 58
REMARK Flexibility Score: inf
ROOT
ATOM      1  C   UNL A   1      31.314  32.078  26.331  1.00  0.00     0.042 C 
ENDROOT
BRANCH   1   2
ATOM      2  C   UNL A   1      31.361  30.692  25.698  1.00  0.00     0.117 C 
BRANCH   2   3
ATOM      3  N   UNL A   1      32.495  29.916  26.164  1.00  0.00    -0.356 N 
ATOM      4  C   UNL A   1      33.181  28.867  25.639  1.00  0.00     0.227 C 
ATOM      5  O   UNL A   1      34.074  28.403  26.360  1.00  0.00    -0.274 OA
ATOM      6  H   UNL A   1      32.837  30.209  27.041  1.00  0.00     0.163 HD
BRANCH   4   7
ATOM      7  C   UNL A   1      32.916  28.243  24.256  1.00  0.00     0.109 C 
ATOM      8  C   UNL A   1      33.393  29.054  23.052  1.00  0.00     0.023 C 
BRANCH   7   9
ATOM      9  C   UNL A   1      31.518  27.655  24.111  1.00  0.00     0.007 A 
ATOM     10  C   UNL A   1      31.246  26.313  24.423  1.00  0.00     0.122 A 
ATOM     11  C   UNL A   1      29.957  25.788  24.299  1.00  0.00     0.047 A 
ATOM     12  C   UNL A   1      28.907  26.600  23.871  1.00  0.00     0.016 A 
ATOM     13  C   UNL A   1      30.444  28.445  23.657  1.00  0.00     0.020 A 
ATOM     14  C   UNL A   1      29.142  27.936  23.532  1.00  0.00     0.023 A 
BRANCH  10  15
ATOM     15  O   UNL A   1      32.252  25.433  24.721  1.00  0.00    -0.496 OA
ATOM     16  C   UNL A   1      31.749  24.134  25.032  1.00  0.00     0.278 C 
ENDBRANCH  10  15
BRANCH  14  17
ATOM     17  C   UNL A   1      27.975  28.758  23.086  1.00  0.00     0.193 C 
ATOM     18  O   UNL A   1      26.841  28.288  23.145  1.00  0.00    -0.289 OA
BRANCH  17  19
ATOM     19  C   UNL A   1      28.115  30.159  22.630  1.00  0.00     0.022 A 
ATOM     20  C   UNL A   1      28.068  30.407  21.256  1.00  0.00     0.012 A 
ATOM     21  C   UNL A   1      28.311  31.215  23.528  1.00  0.00     0.012 A 
ATOM     22  C   UNL A   1      28.160  31.715  20.787  1.00  0.00     0.001 A 
ATOM     23  C   UNL A   1      28.383  32.526  23.051  1.00  0.00     0.001 A 
ATOM     24  C   UNL A   1      28.297  32.777  21.681  1.00  0.00     0.000 A 
ENDBRANCH  17  19
ENDBRANCH  14  17
ENDBRANCH   7   9
ENDBRANCH   4   7
ENDBRANCH   2   3
ENDBRANCH   1   2
BRANCH   1  25
ATOM     25  C   UNL A   1      32.496  32.429  27.224  1.00  0.00     0.118 C 
BRANCH  25  26
ATOM     26  N   UNL A   1      32.498  33.829  27.622  1.00  0.00    -0.352 N 
ATOM     27  C   UNL A   1      33.214  34.523  28.571  1.00  0.00     0.251 C 
ATOM     28  H   UNL A   1      31.866  34.387  27.114  1.00  0.00     0.163 HD
ATOM     29  O   UNL A   1      32.852  35.668  28.831  1.00  0.00    -0.269 OA
BRANCH  27  30
ATOM     30  C   UNL A   1      34.372  33.938  29.302  1.00  0.00     0.039 A 
ATOM     31  C   UNL A   1      35.664  34.364  28.952  1.00  0.00     0.014 A 
ATOM     32  C   UNL A   1      34.233  32.945  30.273  1.00  0.00     0.014 A 
ATOM     33  C   UNL A   1      36.789  33.862  29.621  1.00  0.00     0.010 A 
ATOM     34  C   UNL A   1      35.345  32.496  30.990  1.00  0.00     0.010 A 
ATOM     35  C   UNL A   1      36.636  32.942  30.666  1.00  0.00    -0.014 A 
BRANCH  35  36
ATOM     36  C   UNL A   1      37.807  32.363  31.379  1.00  0.00     0.031 A 
ATOM     37  C   UNL A   1      38.561  31.223  30.747  1.00  0.00     0.074 A 
ATOM     38  C   UNL A   1      38.146  32.797  32.608  1.00  0.00     0.049 A 
ATOM     39  N   UNL A   1      39.536  30.499  31.234  1.00  0.00    -0.248 NA
ATOM     40  C   UNL A   1      38.138  30.829  29.394  1.00  0.00     0.031 C 
ATOM     41  C   UNL A   1      37.479  33.874  33.340  1.00  0.00     0.029 A 
ATOM     42  N   UNL A   1      39.123  32.367  33.475  1.00  0.00    -0.354 N 
ATOM     43  C   UNL A   1      39.829  29.552  30.259  1.00  0.00     0.074 A 
ATOM     44  C   UNL A   1      38.893  29.763  29.175  1.00  0.00     0.031 C 
ATOM     45  C   UNL A   1      38.057  34.013  34.546  1.00  0.00     0.029 A 
ATOM     46  C   UNL A   1      39.116  33.018  34.688  1.00  0.00     0.049 A 
ATOM     47  H   UNL A   1      39.770  31.660  33.248  1.00  0.00     0.167 HD
ATOM     48  C   UNL A   1      40.799  28.605  30.258  1.00  0.00     0.034 A 
ATOM     49  C   UNL A   1      39.862  32.820  35.794  1.00  0.00     0.034 A 
ATOM     50  C   UNL A   1      41.737  28.418  31.338  1.00  0.00     0.049 A 
ATOM     51  C   UNL A   1      40.925  31.747  35.778  1.00  0.00     0.074 A 
ATOM     52  C   UNL A   1      42.803  27.538  31.409  1.00  0.00     0.029 A 
ATOM     53  N   UNL A   1      41.714  29.111  32.540  1.00  0.00    -0.354 N 
ATOM     54  N   UNL A   1      41.236  30.906  34.818  1.00  0.00    -0.248 NA
ATOM     55  C   UNL A   1      41.746  31.605  36.988  1.00  0.00     0.031 C 
ATOM     56  C   UNL A   1      43.381  27.652  32.677  1.00  0.00     0.029 A 
ATOM     57  C   UNL A   1      42.726  28.656  33.371  1.00  0.00     0.049 A 
ATOM     58  H   UNL A   1      41.074  29.824  32.769  1.00  0.00     0.167 HD
ATOM     59  C   UNL A   1      42.314  30.165  35.297  1.00  0.00     0.074 A 
ATOM     60  C   UNL A   1      42.604  30.664  36.624  1.00  0.00     0.031 C 
ATOM     61  C   UNL A   1      43.005  29.165  34.693  1.00  0.00     0.034 A 
BRANCH  48  62
ATOM     62  C   UNL A   1      40.870  27.683  29.065  1.00  0.00     0.023 A 
ATOM     63  C   UNL A   1      41.799  27.883  28.030  1.00  0.00     0.031 A 
ATOM     64  C   UNL A   1      39.974  26.605  28.949  1.00  0.00     0.131 A 
ATOM     65  C   UNL A   1      41.764  27.065  26.891  1.00  0.00     0.055 A 
ATOM     66  C   UNL A   1      39.998  25.745  27.849  1.00  0.00     0.041 A 
ATOM     67  F   UNL A   1      39.051  26.378  29.896  1.00  0.00    -0.206 F 
ATOM     68  C   UNL A   1      40.887  25.982  26.805  1.00  0.00     0.022 A 
BRANCH  65  69
ATOM     69  S   UNL A   1      42.786  27.523  25.465  1.00  0.00     0.124 S 
ATOM     70  O   UNL A   1      42.697  26.321  24.639  1.00  0.00    -0.237 OA
ATOM     71  O   UNL A   1      42.100  28.703  24.950  1.00  0.00    -0.237 OA
ATOM     72  O   UNL A   1      44.101  27.772  26.052  1.00  0.00    -0.744 OA
ENDBRANCH  65  69
ENDBRANCH  48  62
BRANCH  49  73
ATOM     73  C   UNL A   1      39.630  33.630  37.026  1.00  0.00     0.023 A 
ATOM     74  C   UNL A   1      40.415  34.760  37.311  1.00  0.00     0.031 A 
ATOM     75  C   UNL A   1      38.667  33.243  37.975  1.00  0.00     0.131 A 
ATOM     76  C   UNL A   1      40.267  35.425  38.538  1.00  0.00     0.055 A 
ATOM     77  C   UNL A   1      38.484  33.943  39.169  1.00  0.00     0.041 A 
ATOM     78  F   UNL A   1      37.890  32.171  37.754  1.00  0.00    -0.206 F 
ATOM     79  C   UNL A   1      39.299  35.033  39.464  1.00  0.00     0.022 A 
BRANCH  76  80
ATOM     80  S   UNL A   1      41.433  36.752  38.951  1.00  0.00     0.124 S 
ATOM     81  O   UNL A   1      42.180  36.159  40.054  1.00  0.00    -0.237 OA
ATOM     82  O   UNL A   1      42.164  36.916  37.698  1.00  0.00    -0.237 OA
ATOM     83  O   UNL A   1      40.564  37.870  39.314  1.00  0.00    -0.744 OA
ENDBRANCH  76  80
ENDBRANCH  49  73
BRANCH  61  84
ATOM     84  C   UNL A   1      44.181  28.588  35.443  1.00  0.00     0.023 A 
ATOM     85  C   UNL A   1      44.031  27.542  36.370  1.00  0.00     0.031 A 
ATOM     86  C   UNL A   1      45.473  29.097  35.223  1.00  0.00     0.131 A 
ATOM     87  C   UNL A   1      45.148  27.073  37.079  1.00  0.00     0.055 A 
ATOM     88  C   UNL A   1      46.589  28.587  35.887  1.00  0.00     0.041 A 
ATOM     89  F   UNL A   1      45.675  30.097  34.349  1.00  0.00    -0.206 F 
ATOM     90  C   UNL A   1      46.428  27.576  36.831  1.00  0.00     0.022 A 
BRANCH  87  91
ATOM     91  S   UNL A   1      44.896  25.847  38.392  1.00  0.00     0.124 S 
ATOM     92  O   UNL A   1      46.250  25.672  38.908  1.00  0.00    -0.237 OA
ATOM     93  O   UNL A   1      43.959  26.527  39.280  1.00  0.00    -0.237 OA
ATOM     94  O   UNL A   1      44.348  24.692  37.684  1.00  0.00    -0.744 OA
ENDBRANCH  87  91
ENDBRANCH  61  84
ENDBRANCH  35  36
ENDBRANCH  27  30
ENDBRANCH  25  26
ENDBRANCH   1  25
TORSDOF 17
ENDMDL
MODEL 2
REMARK VINA RESULT:     -12.4      1.381      1.651
REMARK SMILES COc1ccc(C(=O)c2ccccc2)cc1[C@@H](C)C(=O)NCCCNC(=O)c1ccc(-c2c3nc(c(-c4cc(S(=O)(=O)[O-])ccc4F)c4ccc([nH]4)c(-c4cc(S(=O)(=O)[O-])ccc4F)c4nc(c(-c5cc(S(=O)(=O)[O-])ccc5F)c5ccc2[nH]5)C=C4)C=C3)cc1
REMARK SMILES IDX 23 1 22 2 21 3 19 4 20 5 17 7 18 8 16 9 3 10 4 11 5 12 15 13
REMARK SMILES IDX 6 14 2 15 1 16 7 17 8 18 9 19 10 20 14 21 11 22 13 23 12 24
REMARK SMILES IDX 24 25 25 26 26 27 27 29 28 30 29 31 90 32 30 33 89 34 31 35
REMARK SMILES IDX 32 36 33 37 83 38 34 39 88 40 82 41 84 42 35 43 87 44 81 45
REMARK SMILES IDX 80 46 36 48 68 49 48 50 67 51 49 52 52 53 66 54 85 55 50 56
REMARK SMILES IDX 51 57 65 59 86 60 53 61 37 62 38 63 46 64 39 65 45 66 47 67
REMARK SMILES IDX 44 68 40 69 41 70 42 71 43 72 69 73 70 74 78 75 71 76 77 77
REMARK SMILES IDX 79 78 76 79 72 80 73 81 74 82 75 83 54 84 55 85 63 86 56 87
REMARK SMILES IDX 62 88 64 89 61 90 57 91 58 92 59 93 60 94
REMARK H PARENT 21 6 25 28 84 47 52 58
REMARK Flexibility Score: inf
ROOT
ATOM      1  C   UNL A   1      31.373  31.767  26.526  1.00  0.00     0.042 C 
ENDROOT
BRANCH   1   2
ATOM      2  C   UNL A   1      31.446  30.547  25.615  1.00  0.00     0.117 C 
BRANCH   2   3
ATOM      3  N   UNL A   1      32.553  29.675  25.955  1.00  0.00    -0.356 N 
ATOM      4  C   UNL A   1      33.119  28.608  25.333  1.00  0.00     0.227 C 
ATOM      5  O   UNL A   1      34.030  28.050  25.959  1.00  0.00    -0.274 OA
ATOM      6  H   UNL A   1      32.982  29.902  26.812  1.00  0.00     0.163 HD
BRANCH   4   7
ATOM      7  C   UNL A   1      32.704  28.069  23.951  1.00  0.00     0.109 C 
ATOM      8  C   UNL A   1      33.102  28.926  22.750  1.00  0.00     0.023 C 
BRANCH   7   9
ATOM      9  C   UNL A   1      31.275  27.542  23.907  1.00  0.00     0.007 A 
ATOM     10  C   UNL A   1      30.969  26.212  24.241  1.00  0.00     0.122 A 
ATOM     11  C   UNL A   1      29.653  25.743  24.210  1.00  0.00     0.047 A 
ATOM     12  C   UNL A   1      28.611  26.600  23.856  1.00  0.00     0.016 A 
ATOM     13  C   UNL A   1      30.206  28.378  23.529  1.00  0.00     0.020 A 
ATOM     14  C   UNL A   1      28.878  27.925  23.498  1.00  0.00     0.023 A 
BRANCH  10  15
ATOM     15  O   UNL A   1      31.955  25.290  24.469  1.00  0.00    -0.496 OA
ATOM     16  C   UNL A   1      31.614  24.398  25.530  1.00  0.00     0.278 C 
ENDBRANCH  10  15
BRANCH  14  17
ATOM     17  C   UNL A   1      27.718  28.797  23.134  1.00  0.00     0.193 C 
ATOM     18  O   UNL A   1      26.572  28.400  23.332  1.00  0.00    -0.289 OA
BRANCH  17  19
ATOM     19  C   UNL A   1      27.888  30.165  22.598  1.00  0.00     0.022 A 
ATOM     20  C   UNL A   1      27.895  31.227  23.507  1.00  0.00     0.012 A 
ATOM     21  C   UNL A   1      28.017  30.414  21.227  1.00  0.00     0.012 A 
ATOM     22  C   UNL A   1      28.088  32.528  23.047  1.00  0.00     0.001 A 
ATOM     23  C   UNL A   1      28.230  31.720  20.776  1.00  0.00     0.001 A 
ATOM     24  C   UNL A   1      28.276  32.775  21.687  1.00  0.00     0.000 A 
ENDBRANCH  17  19
ENDBRANCH  14  17
ENDBRANCH   7   9
ENDBRANCH   4   7
ENDBRANCH   2   3
ENDBRANCH   1   2
BRANCH   1  25
ATOM     25  C   UNL A   1      32.713  32.285  27.031  1.00  0.00     0.118 C 
BRANCH  25  26
ATOM     26  N   UNL A   1      32.634  33.656  27.515  1.00  0.00    -0.352 N 
ATOM     27  C   UNL A   1      33.291  34.322  28.525  1.00  0.00     0.251 C 
ATOM     28  H   UNL A   1      31.986  34.213  27.027  1.00  0.00     0.163 HD
ATOM     29  O   UNL A   1      32.864  35.429  28.847  1.00  0.00    -0.269 OA
BRANCH  27  30
ATOM     30  C   UNL A   1      34.460  33.750  29.248  1.00  0.00     0.039 A 
ATOM     31  C   UNL A   1      35.740  34.233  28.931  1.00  0.00     0.014 A 
ATOM     32  C   UNL A   1      34.345  32.717  30.180  1.00  0.00     0.014 A 
ATOM     33  C   UNL A   1      36.875  33.745  29.595  1.00  0.00     0.010 A 
ATOM     34  C   UNL A   1      35.463  32.280  30.894  1.00  0.00     0.010 A 
ATOM     35  C   UNL A   1      36.741  32.781  30.603  1.00  0.00    -0.014 A 
BRANCH  35  36
ATOM     36  C   UNL A   1      37.923  32.216  31.309  1.00  0.00     0.031 A 
ATOM     37  C   UNL A   1      38.700  31.099  30.663  1.00  0.00     0.074 A 
ATOM     38  C   UNL A   1      38.254  32.640  32.544  1.00  0.00     0.049 A 
ATOM     39  N   UNL A   1      39.688  30.388  31.141  1.00  0.00    -0.248 NA
ATOM     40  C   UNL A   1      38.284  30.714  29.305  1.00  0.00     0.031 C 
ATOM     41  C   UNL A   1      37.566  33.695  33.289  1.00  0.00     0.029 A 
ATOM     42  N   UNL A   1      39.239  32.219  33.405  1.00  0.00    -0.354 N 
ATOM     43  C   UNL A   1      40.000  29.460  30.154  1.00  0.00     0.074 A 
ATOM     44  C   UNL A   1      39.060  29.666  29.072  1.00  0.00     0.031 C 
ATOM     45  C   UNL A   1      38.141  33.830  34.497  1.00  0.00     0.029 A 
ATOM     46  C   UNL A   1      39.219  32.854  34.627  1.00  0.00     0.049 A 
ATOM     47  H   UNL A   1      39.899  31.527  33.170  1.00  0.00     0.167 HD
ATOM     48  C   UNL A   1      40.989  28.532  30.142  1.00  0.00     0.034 A 
ATOM     49  C   UNL A   1      39.968  32.656  35.731  1.00  0.00     0.034 A 
ATOM     50  C   UNL A   1      41.929  28.349  31.219  1.00  0.00     0.049 A 
ATOM     51  C   UNL A   1      41.052  31.604  35.701  1.00  0.00     0.074 A 
ATOM     52  C   UNL A   1      43.013  27.490  31.279  1.00  0.00     0.029 A 
ATOM     53  N   UNL A   1      41.893  29.027  32.430  1.00  0.00    -0.354 N 
ATOM     54  N   UNL A   1      41.380  30.782  34.730  1.00  0.00    -0.248 NA
ATOM     55  C   UNL A   1      41.875  31.463  36.910  1.00  0.00     0.031 C 
ATOM     56  C   UNL A   1      43.589  27.598  32.549  1.00  0.00     0.029 A 
ATOM     57  C   UNL A   1      42.913  28.581  33.256  1.00  0.00     0.049 A 
ATOM     58  H   UNL A   1      41.239  29.723  32.668  1.00  0.00     0.167 HD
ATOM     59  C   UNL A   1      42.472  30.056  35.201  1.00  0.00     0.074 A 
ATOM     60  C   UNL A   1      42.752  30.544  36.534  1.00  0.00     0.031 C 
ATOM     61  C   UNL A   1      43.182  29.078  34.584  1.00  0.00     0.034 A 
BRANCH  48  62
ATOM     62  C   UNL A   1      41.077  27.627  28.937  1.00  0.00     0.023 A 
ATOM     63  C   UNL A   1      42.063  27.802  27.951  1.00  0.00     0.031 A 
ATOM     64  C   UNL A   1      40.143  26.591  28.759  1.00  0.00     0.131 A 
ATOM     65  C   UNL A   1      42.048  27.005  26.797  1.00  0.00     0.055 A 
ATOM     66  C   UNL A   1      40.184  25.748  27.646  1.00  0.00     0.041 A 
ATOM     67  F   UNL A   1      39.166  26.389  29.657  1.00  0.00    -0.206 F 
ATOM     68  C   UNL A   1      41.131  25.962  26.649  1.00  0.00     0.022 A 
BRANCH  65  69
ATOM     69  S   UNL A   1      43.156  27.441  25.429  1.00  0.00     0.124 S 
ATOM     70  O   UNL A   1      42.265  28.206  24.560  1.00  0.00    -0.237 OA
ATOM     71  O   UNL A   1      44.202  28.204  26.100  1.00  0.00    -0.237 OA
ATOM     72  O   UNL A   1      43.572  26.145  24.898  1.00  0.00    -0.744 OA
ENDBRANCH  65  69
ENDBRANCH  48  62
BRANCH  49  73
ATOM     73  C   UNL A   1      39.721  33.446  36.973  1.00  0.00     0.023 A 
ATOM     74  C   UNL A   1      38.978  32.911  38.039  1.00  0.00     0.031 A 
ATOM     75  C   UNL A   1      40.162  34.777  37.083  1.00  0.00     0.131 A 
ATOM     76  C   UNL A   1      38.646  33.719  39.137  1.00  0.00     0.055 A 
ATOM     77  C   UNL A   1      39.878  35.559  38.204  1.00  0.00     0.041 A 
ATOM     78  F   UNL A   1      40.875  35.339  36.094  1.00  0.00    -0.206 F 
ATOM     79  C   UNL A   1      39.101  35.035  39.234  1.00  0.00     0.022 A 
BRANCH  76  80
ATOM     80  S   UNL A   1      37.519  33.053  40.394  1.00  0.00     0.124 S 
ATOM     81  O   UNL A   1      38.257  31.887  40.866  1.00  0.00    -0.237 OA
ATOM     82  O   UNL A   1      37.416  34.168  41.330  1.00  0.00    -0.237 OA
ATOM     83  O   UNL A   1      36.302  32.759  39.641  1.00  0.00    -0.744 OA
ENDBRANCH  76  80
ENDBRANCH  49  73
BRANCH  61  84
ATOM     84  C   UNL A   1      44.369  28.514  35.327  1.00  0.00     0.023 A 
ATOM     85  C   UNL A   1      44.271  27.356  36.116  1.00  0.00     0.031 A 
ATOM     86  C   UNL A   1      45.620  29.152  35.241  1.00  0.00     0.131 A 
ATOM     87  C   UNL A   1      45.391  26.898  36.828  1.00  0.00     0.055 A 
ATOM     88  C   UNL A   1      46.744  28.659  35.903  1.00  0.00     0.041 A 
ATOM     89  F   UNL A   1      45.771  30.264  34.502  1.00  0.00    -0.206 F 
ATOM     90  C   UNL A   1      46.631  27.532  36.712  1.00  0.00     0.022 A 
BRANCH  87  91
ATOM     91  S   UNL A   1      45.189  25.506  37.973  1.00  0.00     0.124 S 
ATOM     92  O   UNL A   1      46.344  24.675  37.647  1.00  0.00    -0.237 OA
ATOM     93  O   UNL A   1      45.225  26.164  39.275  1.00  0.00    -0.237 OA
ATOM     94  O   UNL A   1      43.894  24.940  37.602  1.00  0.00    -0.744 OA
ENDBRANCH  87  91
ENDBRANCH  61  84
ENDBRANCH  35  36
ENDBRANCH  27  30
ENDBRANCH  25  26
ENDBRANCH   1  25
TORSDOF 17
ENDMDL
MODEL 3
REMARK VINA RESULT:     -12.1      1.960      4.112
REMARK SMILES COc1ccc(C(=O)c2ccccc2)cc1[C@@H](C)C(=O)NCCCNC(=O)c1ccc(-c2c3nc(c(-c4cc(S(=O)(=O)[O-])ccc4F)c4ccc([nH]4)c(-c4cc(S(=O)(=O)[O-])ccc4F)c4nc(c(-c5cc(S(=O)(=O)[O-])ccc5F)c5ccc2[nH]5)C=C4)C=C3)cc1
REMARK SMILES IDX 23 1 22 2 21 3 19 4 20 5 17 7 18 8 16 9 3 10 4 11 5 12 15 13
REMARK SMILES IDX 6 14 2 15 1 16 7 17 8 18 9 19 10 20 14 21 11 22 13 23 12 24
REMARK SMILES IDX 24 25 25 26 26 27 27 29 28 30 29 31 90 32 30 33 89 34 31 35
REMARK SMILES IDX 32 36 33 37 83 38 34 39 88 40 82 41 84 42 35 43 87 44 81 45
REMARK SMILES IDX 80 46 36 48 68 49 48 50 67 51 49 52 52 53 66 54 85 55 50 56
REMARK SMILES IDX 51 57 65 59 86 60 53 61 37 62 38 63 46 64 39 65 45 66 47 67
REMARK SMILES IDX 44 68 40 69 41 70 42 71 43 72 69 73 70 74 78 75 71 76 77 77
REMARK SMILES IDX 79 78 76 79 72 80 73 81 74 82 75 83 54 84 55 85 63 86 56 87
REMARK SMILES IDX 62 88 64 89 61 90 57 91 58 92 59 93 60 94
REMARK H PARENT 21 6 25 28 84 47 52 58
REMARK Flexibility Score: inf
ROOT
ATOM      1  C   UNL A   1      31.212  31.849  26.613  1.00  0.00     0.042 C 
ENDROOT
BRANCH   1   2
ATOM      2  C   UNL A   1      31.188  30.903  25.417  1.00  0.00     0.117 C 
BRANCH   2   3
ATOM      3  N   UNL A   1      32.411  30.133  25.304  1.00  0.00    -0.356 N 
ATOM      4  C   UNL A   1      32.744  28.864  25.660  1.00  0.00     0.227 C 
ATOM      5  O   UNL A   1      33.927  28.553  25.468  1.00  0.00    -0.274 OA
ATOM      6  H   UNL A   1      33.151  30.630  24.886  1.00  0.00     0.163 HD
BRANCH   4   7
ATOM      7  C   UNL A   1      31.775  27.834  26.270  1.00  0.00     0.109 C 
ATOM      8  C   UNL A   1      31.594  27.899  27.786  1.00  0.00     0.023 C 
BRANCH   7   9
ATOM      9  C   UNL A   1      31.952  26.427  25.712  1.00  0.00     0.007 A 
ATOM     10  C   UNL A   1      31.339  26.026  24.515  1.00  0.00     0.122 A 
ATOM     11  C   UNL A   1      31.519  24.737  24.006  1.00  0.00     0.047 A 
ATOM     12  C   UNL A   1      32.330  23.824  24.680  1.00  0.00     0.016 A 
ATOM     13  C   UNL A   1      32.745  25.476  26.386  1.00  0.00     0.020 A 
ATOM     14  C   UNL A   1      32.941  24.180  25.887  1.00  0.00     0.023 A 
BRANCH  10  15
ATOM     15  O   UNL A   1      30.431  26.827  23.876  1.00  0.00    -0.496 OA
ATOM     16  C   UNL A   1      30.939  27.324  22.638  1.00  0.00     0.278 C 
ENDBRANCH  10  15
BRANCH  14  17
ATOM     17  C   UNL A   1      33.803  23.159  26.560  1.00  0.00     0.193 C 
ATOM     18  O   UNL A   1      33.357  22.514  27.507  1.00  0.00    -0.289 OA
BRANCH  17  19
ATOM     19  C   UNL A   1      35.168  22.835  26.091  1.00  0.00     0.022 A 
ATOM     20  C   UNL A   1      35.469  21.496  25.830  1.00  0.00     0.012 A 
ATOM     21  C   UNL A   1      36.149  23.820  25.928  1.00  0.00     0.012 A 
ATOM     22  C   UNL A   1      36.731  21.152  25.353  1.00  0.00     0.001 A 
ATOM     23  C   UNL A   1      37.407  23.469  25.430  1.00  0.00     0.001 A 
ATOM     24  C   UNL A   1      37.694  22.137  25.132  1.00  0.00     0.000 A 
ENDBRANCH  17  19
ENDBRANCH  14  17
ENDBRANCH   7   9
ENDBRANCH   4   7
ENDBRANCH   2   3
ENDBRANCH   1   2
BRANCH   1  25
ATOM     25  C   UNL A   1      32.583  32.397  26.984  1.00  0.00     0.118 C 
BRANCH  25  26
ATOM     26  N   UNL A   1      32.522  33.770  27.465  1.00  0.00    -0.352 N 
ATOM     27  C   UNL A   1      33.191  34.430  28.472  1.00  0.00     0.251 C 
ATOM     28  H   UNL A   1      31.880  34.334  26.977  1.00  0.00     0.163 HD
ATOM     29  O   UNL A   1      32.779  35.544  28.791  1.00  0.00    -0.269 OA
BRANCH  27  30
ATOM     30  C   UNL A   1      34.354  33.845  29.193  1.00  0.00     0.039 A 
ATOM     31  C   UNL A   1      35.638  34.323  28.883  1.00  0.00     0.014 A 
ATOM     32  C   UNL A   1      34.230  32.806  30.116  1.00  0.00     0.014 A 
ATOM     33  C   UNL A   1      36.768  33.822  29.546  1.00  0.00     0.010 A 
ATOM     34  C   UNL A   1      35.344  32.356  30.829  1.00  0.00     0.010 A 
ATOM     35  C   UNL A   1      36.626  32.852  30.546  1.00  0.00    -0.014 A 
BRANCH  35  36
ATOM     36  C   UNL A   1      37.803  32.274  31.250  1.00  0.00     0.031 A 
ATOM     37  C   UNL A   1      38.547  31.128  30.617  1.00  0.00     0.074 A 
ATOM     38  C   UNL A   1      38.155  32.714  32.474  1.00  0.00     0.049 A 
ATOM     39  N   UNL A   1      39.525  30.404  31.099  1.00  0.00    -0.248 NA
ATOM     40  C   UNL A   1      38.109  30.727  29.271  1.00  0.00     0.031 C 
ATOM     41  C   UNL A   1      37.499  33.797  33.206  1.00  0.00     0.029 A 
ATOM     42  N   UNL A   1      39.140  32.287  33.332  1.00  0.00    -0.354 N 
ATOM     43  C   UNL A   1      39.805  29.451  30.127  1.00  0.00     0.074 A 
ATOM     44  C   UNL A   1      38.859  29.658  29.050  1.00  0.00     0.031 C 
ATOM     45  C   UNL A   1      38.089  33.942  34.405  1.00  0.00     0.029 A 
ATOM     46  C   UNL A   1      39.147  32.944  34.542  1.00  0.00     0.049 A 
ATOM     47  H   UNL A   1      39.783  31.576  33.103  1.00  0.00     0.167 HD
ATOM     48  C   UNL A   1      40.774  28.502  30.121  1.00  0.00     0.034 A 
ATOM     49  C   UNL A   1      39.904  32.751  35.642  1.00  0.00     0.034 A 
ATOM     50  C   UNL A   1      41.721  28.318  31.192  1.00  0.00     0.049 A 
ATOM     51  C   UNL A   1      40.964  31.675  35.621  1.00  0.00     0.074 A 
ATOM     52  C   UNL A   1      42.786  27.436  31.258  1.00  0.00     0.029 A 
ATOM     53  N   UNL A   1      41.713  29.019  32.391  1.00  0.00    -0.354 N 
ATOM     54  N   UNL A   1      41.263  30.828  34.662  1.00  0.00    -0.248 NA
ATOM     55  C   UNL A   1      41.797  31.538  36.823  1.00  0.00     0.031 C 
ATOM     56  C   UNL A   1      43.378  27.556  32.519  1.00  0.00     0.029 A 
ATOM     57  C   UNL A   1      42.732  28.566  33.214  1.00  0.00     0.049 A 
ATOM     58  H   UNL A   1      41.077  29.734  32.622  1.00  0.00     0.167 HD
ATOM     59  C   UNL A   1      42.344  30.086  35.135  1.00  0.00     0.074 A 
ATOM     60  C   UNL A   1      42.649  30.593  36.456  1.00  0.00     0.031 C 
ATOM     61  C   UNL A   1      43.026  29.081  34.530  1.00  0.00     0.034 A 
BRANCH  48  62
ATOM     62  C   UNL A   1      40.829  27.572  28.933  1.00  0.00     0.023 A 
ATOM     63  C   UNL A   1      41.814  27.702  27.938  1.00  0.00     0.031 A 
ATOM     64  C   UNL A   1      39.866  26.560  28.779  1.00  0.00     0.131 A 
ATOM     65  C   UNL A   1      41.769  26.884  26.799  1.00  0.00     0.055 A 
ATOM     66  C   UNL A   1      39.875  25.696  27.682  1.00  0.00     0.041 A 
ATOM     67  F   UNL A   1      38.888  26.402  29.686  1.00  0.00    -0.206 F 
ATOM     68  C   UNL A   1      40.822  25.865  26.677  1.00  0.00     0.022 A 
BRANCH  65  69
ATOM     69  S   UNL A   1      42.881  27.263  25.418  1.00  0.00     0.124 S 
ATOM     70  O   UNL A   1      42.152  28.331  24.737  1.00  0.00    -0.237 OA
ATOM     71  O   UNL A   1      44.107  27.662  26.099  1.00  0.00    -0.237 OA
ATOM     72  O   UNL A   1      42.957  26.002  24.683  1.00  0.00    -0.744 OA
ENDBRANCH  65  69
ENDBRANCH  48  62
BRANCH  49  73
ATOM     73  C   UNL A   1      39.687  33.569  36.871  1.00  0.00     0.023 A 
ATOM     74  C   UNL A   1      39.035  33.034  37.994  1.00  0.00     0.031 A 
ATOM     75  C   UNL A   1      40.064  34.924  36.913  1.00  0.00     0.131 A 
ATOM     76  C   UNL A   1      38.725  33.861  39.085  1.00  0.00     0.055 A 
ATOM     77  C   UNL A   1      39.805  35.728  38.024  1.00  0.00     0.041 A 
ATOM     78  F   UNL A   1      40.690  35.486  35.867  1.00  0.00    -0.206 F 
ATOM     79  C   UNL A   1      39.116  35.202  39.114  1.00  0.00     0.022 A 
BRANCH  76  80
ATOM     80  S   UNL A   1      37.708  33.184  40.426  1.00  0.00     0.124 S 
ATOM     81  O   UNL A   1      38.503  32.036  40.850  1.00  0.00    -0.237 OA
ATOM     82  O   UNL A   1      37.651  34.304  41.360  1.00  0.00    -0.237 OA
ATOM     83  O   UNL A   1      36.445  32.859  39.766  1.00  0.00    -0.744 OA
ENDBRANCH  76  80
ENDBRANCH  49  73
BRANCH  61  84
ATOM     84  C   UNL A   1      44.208  28.506  35.271  1.00  0.00     0.023 A 
ATOM     85  C   UNL A   1      44.063  27.481  36.222  1.00  0.00     0.031 A 
ATOM     86  C   UNL A   1      45.502  28.994  35.019  1.00  0.00     0.131 A 
ATOM     87  C   UNL A   1      45.186  27.012  36.921  1.00  0.00     0.055 A 
ATOM     88  C   UNL A   1      46.623  28.485  35.674  1.00  0.00     0.041 A 
ATOM     89  F   UNL A   1      45.700  29.975  34.121  1.00  0.00    -0.206 F 
ATOM     90  C   UNL A   1      46.467  27.495  36.640  1.00  0.00     0.022 A 
BRANCH  87  91
ATOM     91  S   UNL A   1      44.943  25.816  38.263  1.00  0.00     0.124 S 
ATOM     92  O   UNL A   1      44.002  24.874  37.664  1.00  0.00    -0.237 OA
ATOM     93  O   UNL A   1      46.296  25.312  38.481  1.00  0.00    -0.237 OA
ATOM     94  O   UNL A   1      44.401  26.626  39.352  1.00  0.00    -0.744 OA
ENDBRANCH  87  91
ENDBRANCH  61  84
ENDBRANCH  35  36
ENDBRANCH  27  30
ENDBRANCH  25  26
ENDBRANCH   1  25
TORSDOF 17
ENDMDL
