MODEL 1
REMARK VINA RESULT:     -11.8      0.000      0.000
REMARK SMILES Cc1cccc(C[N@@H+](C)C[C@]2(C(=O)NCCCNC(=O)c3ccc(-c4c5nc(c(-c6cc(S(=O)(=O)[O-])ccc6F)c6ccc([nH]6)c(-c6cc(S(=O)(=O)[O-])ccc6F)c6nc(c(-c7cc(S(=O)(=O)[O-])ccc7F)c7ccc4[nH]7)C=C6)C=C5)cc3)CCC[C@H](C)C2)n1
REMARK SMILES IDX 15 1 14 2 12 3 13 4 11 6 84 7 89 8 85 9 87 10 86 11 88 12
REMARK SMILES IDX 10 13 8 14 9 15 7 17 6 18 1 19 2 20 3 21 90 22 4 23 5 24
REMARK SMILES IDX 16 25 17 26 18 27 19 28 20 30 21 31 22 32 83 33 23 34 82 35
REMARK SMILES IDX 24 36 25 37 26 38 76 39 27 40 81 41 75 42 77 43 28 44 80 45
REMARK SMILES IDX 74 46 73 47 29 49 61 50 41 51 60 52 42 53 45 54 59 55 78 56
REMARK SMILES IDX 43 57 44 58 58 60 79 61 46 62 30 63 31 64 39 65 32 66 38 67
REMARK SMILES IDX 40 68 37 69 33 70 34 71 35 72 36 73 62 74 63 75 71 76 64 77
REMARK SMILES IDX 70 78 72 79 69 80 65 81 66 82 67 83 68 84 47 85 48 86 56 87
REMARK SMILES IDX 49 88 55 89 57 90 54 91 50 92 51 93 52 94 53 95
REMARK H PARENT 14 5 8 16 18 29 77 48 45 59
REMARK Flexibility Score: inf
ROOT
ATOM      1  C   UNL A   1      35.840  23.562  23.887  1.00  0.00     0.117 C 
ENDROOT
BRANCH   1   2
ATOM      2  N   UNL A   1      34.521  23.410  23.310  1.00  0.00    -0.355 N 
ATOM      3  C   UNL A   1      33.362  24.071  23.577  1.00  0.00     0.231 C 
ATOM      4  O   UNL A   1      32.475  23.953  22.722  1.00  0.00    -0.274 OA
ATOM      5  H   UNL A   1      34.453  22.718  22.612  1.00  0.00     0.163 HD
BRANCH   3   6
ATOM      6  C   UNL A   1      33.129  24.898  24.874  1.00  0.00     0.098 C 
ATOM      7  C   UNL A   1      31.581  24.940  25.141  1.00  0.00     0.023 C 
ATOM      8  C   UNL A   1      33.767  24.250  26.130  1.00  0.00     0.026 C 
ATOM      9  C   UNL A   1      30.965  23.594  25.539  1.00  0.00     0.002 C 
ATOM     10  C   UNL A   1      33.188  22.862  26.468  1.00  0.00    -0.013 C 
ATOM     11  C   UNL A   1      31.684  22.959  26.720  1.00  0.00     0.003 C 
ATOM     12  C   UNL A   1      33.897  22.264  27.684  1.00  0.00     0.007 C 
BRANCH   6  13
ATOM     13  C   UNL A   1      33.549  26.403  24.635  1.00  0.00     0.279 C 
BRANCH  13  14
ATOM     14  N   UNL A   1      32.738  27.194  23.702  1.00  0.00    -0.331 N 
ATOM     15  C   UNL A   1      33.404  27.472  22.429  1.00  0.00     0.333 C 
ATOM     16  H   UNL A   1      31.963  26.549  23.547  1.00  0.00     0.348 HD
BRANCH  14  17
ATOM     17  C   UNL A   1      32.118  28.429  24.223  1.00  0.00     0.319 C 
BRANCH  17  18
ATOM     18  C   UNL A   1      30.678  28.720  23.819  1.00  0.00     0.095 A 
ATOM     19  C   UNL A   1      28.525  31.680  23.376  1.00  0.00     0.067 C 
ATOM     20  C   UNL A   1      28.969  30.247  23.414  1.00  0.00     0.038 A 
ATOM     21  C   UNL A   1      28.098  29.231  23.035  1.00  0.00     0.023 A 
ATOM     22  N   UNL A   1      30.242  30.007  23.816  1.00  0.00    -0.252 NA
ATOM     23  C   UNL A   1      28.547  27.917  23.067  1.00  0.00     0.004 A 
ATOM     24  C   UNL A   1      29.851  27.656  23.461  1.00  0.00     0.030 A 
ENDBRANCH  17  18
ENDBRANCH  14  17
ENDBRANCH  13  14
ENDBRANCH   6  13
ENDBRANCH   3   6
ENDBRANCH   1   2
BRANCH   1  25
ATOM     25  C   UNL A   1      36.497  22.253  24.261  1.00  0.00     0.042 C 
BRANCH  25  26
ATOM     26  C   UNL A   1      36.983  22.228  25.694  1.00  0.00     0.118 C 
BRANCH  26  27
ATOM     27  N   UNL A   1      38.093  21.300  25.895  1.00  0.00    -0.352 N 
ATOM     28  C   UNL A   1      39.392  21.527  26.283  1.00  0.00     0.251 C 
ATOM     29  H   UNL A   1      37.876  20.355  25.723  1.00  0.00     0.163 HD
ATOM     30  O   UNL A   1      40.222  20.626  26.187  1.00  0.00    -0.269 OA
BRANCH  28  31
ATOM     31  C   UNL A   1      39.798  22.860  26.781  1.00  0.00     0.039 A 
ATOM     32  C   UNL A   1      40.733  22.955  27.814  1.00  0.00     0.014 A 
ATOM     33  C   UNL A   1      39.262  24.020  26.224  1.00  0.00     0.014 A 
ATOM     34  C   UNL A   1      41.190  24.211  28.221  1.00  0.00     0.010 A 
ATOM     35  C   UNL A   1      39.816  25.254  26.528  1.00  0.00     0.010 A 
ATOM     36  C   UNL A   1      40.770  25.370  27.547  1.00  0.00    -0.014 A 
BRANCH  36  37
ATOM     37  C   UNL A   1      41.269  26.721  27.914  1.00  0.00     0.031 A 
ATOM     38  C   UNL A   1      42.707  27.080  27.639  1.00  0.00     0.074 A 
ATOM     39  C   UNL A   1      40.461  27.587  28.558  1.00  0.00     0.049 A 
ATOM     40  N   UNL A   1      43.376  28.149  27.986  1.00  0.00    -0.248 NA
ATOM     41  C   UNL A   1      43.512  26.080  26.918  1.00  0.00     0.031 C 
ATOM     42  C   UNL A   1      39.065  27.332  28.924  1.00  0.00     0.029 A 
ATOM     43  N   UNL A   1      40.699  28.852  29.029  1.00  0.00    -0.354 N 
ATOM     44  C   UNL A   1      44.681  27.936  27.551  1.00  0.00     0.074 A 
ATOM     45  C   UNL A   1      44.725  26.604  26.991  1.00  0.00     0.031 C 
ATOM     46  C   UNL A   1      38.563  28.420  29.527  1.00  0.00     0.029 A 
ATOM     47  C   UNL A   1      39.610  29.430  29.643  1.00  0.00     0.049 A 
ATOM     48  H   UNL A   1      41.567  29.307  28.937  1.00  0.00     0.167 HD
ATOM     49  C   UNL A   1      45.738  28.784  27.584  1.00  0.00     0.034 A 
ATOM     50  C   UNL A   1      39.477  30.630  30.241  1.00  0.00     0.034 A 
ATOM     51  C   UNL A   1      45.665  30.121  28.118  1.00  0.00     0.049 A 
ATOM     52  C   UNL A   1      40.668  31.555  30.276  1.00  0.00     0.074 A 
ATOM     53  C   UNL A   1      46.649  31.092  28.152  1.00  0.00     0.029 A 
ATOM     54  N   UNL A   1      44.540  30.675  28.718  1.00  0.00    -0.354 N 
ATOM     55  N   UNL A   1      41.882  31.358  29.815  1.00  0.00    -0.248 NA
ATOM     56  C   UNL A   1      40.467  32.868  30.901  1.00  0.00     0.031 C 
ATOM     57  C   UNL A   1      46.143  32.205  28.830  1.00  0.00     0.029 A 
ATOM     58  C   UNL A   1      44.817  31.963  29.149  1.00  0.00     0.049 A 
ATOM     59  H   UNL A   1      43.673  30.219  28.822  1.00  0.00     0.167 HD
ATOM     60  C   UNL A   1      42.578  32.538  30.064  1.00  0.00     0.074 A 
ATOM     61  C   UNL A   1      41.644  33.442  30.702  1.00  0.00     0.031 C 
ATOM     62  C   UNL A   1      43.871  32.848  29.789  1.00  0.00     0.034 A 
BRANCH  49  63
ATOM     63  C   UNL A   1      47.054  28.279  27.040  1.00  0.00     0.023 A 
ATOM     64  C   UNL A   1      47.286  28.157  25.658  1.00  0.00     0.031 A 
ATOM     65  C   UNL A   1      48.078  27.876  27.914  1.00  0.00     0.131 A 
ATOM     66  C   UNL A   1      48.471  27.568  25.194  1.00  0.00     0.055 A 
ATOM     67  C   UNL A   1      49.294  27.374  27.443  1.00  0.00     0.041 A 
ATOM     68  F   UNL A   1      47.910  27.945  29.244  1.00  0.00    -0.206 F 
ATOM     69  C   UNL A   1      49.489  27.200  26.076  1.00  0.00     0.022 A 
BRANCH  66  70
ATOM     70  S   UNL A   1      48.595  27.143  23.435  1.00  0.00     0.124 S 
ATOM     71  O   UNL A   1      47.876  28.253  22.813  1.00  0.00    -0.237 OA
ATOM     72  O   UNL A   1      50.036  27.115  23.218  1.00  0.00    -0.237 OA
ATOM     73  O   UNL A   1      47.924  25.847  23.347  1.00  0.00    -0.744 OA
ENDBRANCH  66  70
ENDBRANCH  49  63
BRANCH  50  74
ATOM     74  C   UNL A   1      38.179  31.032  30.858  1.00  0.00     0.023 A 
ATOM     75  C   UNL A   1      37.196  31.694  30.105  1.00  0.00     0.031 A 
ATOM     76  C   UNL A   1      37.917  30.799  32.220  1.00  0.00     0.131 A 
ATOM     77  C   UNL A   1      36.022  32.147  30.729  1.00  0.00     0.055 A 
ATOM     78  C   UNL A   1      36.723  31.200  32.822  1.00  0.00     0.041 A 
ATOM     79  F   UNL A   1      38.820  30.165  32.986  1.00  0.00    -0.206 F 
ATOM     80  C   UNL A   1      35.773  31.892  32.078  1.00  0.00     0.022 A 
BRANCH  77  81
ATOM     81  S   UNL A   1      34.864  33.159  29.766  1.00  0.00     0.124 S 
ATOM     82  O   UNL A   1      34.197  32.152  28.950  1.00  0.00    -0.237 OA
ATOM     83  O   UNL A   1      34.057  33.775  30.814  1.00  0.00    -0.237 OA
ATOM     84  O   UNL A   1      35.739  34.075  29.036  1.00  0.00    -0.744 OA
ENDBRANCH  77  81
ENDBRANCH  50  74
BRANCH  62  85
ATOM     85  C   UNL A   1      44.329  34.244  30.130  1.00  0.00     0.023 A 
ATOM     86  C   UNL A   1      44.129  35.327  29.256  1.00  0.00     0.031 A 
ATOM     87  C   UNL A   1      44.982  34.494  31.352  1.00  0.00     0.131 A 
ATOM     88  C   UNL A   1      44.628  36.594  29.588  1.00  0.00     0.055 A 
ATOM     89  C   UNL A   1      45.416  35.770  31.707  1.00  0.00     0.041 A 
ATOM     90  F   UNL A   1      45.202  33.497  32.224  1.00  0.00    -0.206 F 
ATOM     91  C   UNL A   1      45.252  36.828  30.816  1.00  0.00     0.022 A 
BRANCH  88  92
ATOM     92  S   UNL A   1      44.534  37.918  28.352  1.00  0.00     0.124 S 
ATOM     93  O   UNL A   1      43.573  37.372  27.398  1.00  0.00    -0.237 OA
ATOM     94  O   UNL A   1      44.072  39.053  29.143  1.00  0.00    -0.237 OA
ATOM     95  O   UNL A   1      45.906  38.024  27.859  1.00  0.00    -0.744 OA
ENDBRANCH  88  92
ENDBRANCH  62  85
ENDBRANCH  36  37
ENDBRANCH  28  31
ENDBRANCH  26  27
ENDBRANCH  25  26
ENDBRANCH   1  25
TORSDOF 17
ENDMDL
MODEL 2
REMARK VINA RESULT:     -11.8      4.282      9.539
REMARK SMILES Cc1cccc(C[N@@H+](C)C[C@]2(C(=O)NCCCNC(=O)c3ccc(-c4c5nc(c(-c6cc(S(=O)(=O)[O-])ccc6F)c6ccc([nH]6)c(-c6cc(S(=O)(=O)[O-])ccc6F)c6nc(c(-c7cc(S(=O)(=O)[O-])ccc7F)c7ccc4[nH]7)C=C6)C=C5)cc3)CCC[C@H](C)C2)n1
REMARK SMILES IDX 15 1 14 2 12 3 13 4 11 6 84 7 89 8 85 9 87 10 86 11 88 12
REMARK SMILES IDX 10 13 8 14 9 15 7 17 6 18 1 19 2 20 3 21 90 22 4 23 5 24
REMARK SMILES IDX 16 25 17 26 18 27 19 28 20 30 21 31 22 32 83 33 23 34 82 35
REMARK SMILES IDX 24 36 25 37 26 38 76 39 27 40 81 41 75 42 77 43 28 44 80 45
REMARK SMILES IDX 74 46 73 47 29 49 61 50 41 51 60 52 42 53 45 54 59 55 78 56
REMARK SMILES IDX 43 57 44 58 58 60 79 61 46 62 30 63 31 64 39 65 32 66 38 67
REMARK SMILES IDX 40 68 37 69 33 70 34 71 35 72 36 73 62 74 63 75 71 76 64 77
REMARK SMILES IDX 70 78 72 79 69 80 65 81 66 82 67 83 68 84 47 85 48 86 56 87
REMARK SMILES IDX 49 88 55 89 57 90 54 91 50 92 51 93 52 94 53 95
REMARK H PARENT 14 5 8 16 18 29 77 48 45 59
REMARK Flexibility Score: inf
ROOT
ATOM      1  C   UNL A   1      32.162  27.742  27.199  1.00  0.00     0.117 C 
ENDROOT
BRANCH   1   2
ATOM      2  N   UNL A   1      33.190  27.193  26.340  1.00  0.00    -0.355 N 
ATOM      3  C   UNL A   1      33.084  26.492  25.178  1.00  0.00     0.231 C 
ATOM      4  O   UNL A   1      34.120  26.424  24.504  1.00  0.00    -0.274 OA
ATOM      5  H   UNL A   1      34.113  27.354  26.644  1.00  0.00     0.163 HD
BRANCH   3   6
ATOM      6  C   UNL A   1      31.774  25.789  24.721  1.00  0.00     0.098 C 
ATOM      7  C   UNL A   1      30.618  26.852  24.773  1.00  0.00     0.023 C 
ATOM      8  C   UNL A   1      31.834  25.288  23.254  1.00  0.00     0.026 C 
ATOM      9  C   UNL A   1      30.730  27.969  23.729  1.00  0.00     0.002 C 
ATOM     10  C   UNL A   1      32.025  26.419  22.225  1.00  0.00    -0.013 C 
ATOM     11  C   UNL A   1      30.876  27.423  22.316  1.00  0.00     0.003 C 
ATOM     12  C   UNL A   1      32.125  25.848  20.810  1.00  0.00     0.007 C 
BRANCH   6  13
ATOM     13  C   UNL A   1      31.364  24.680  25.770  1.00  0.00     0.279 C 
BRANCH  13  14
ATOM     14  N   UNL A   1      31.950  23.345  25.611  1.00  0.00    -0.331 N 
ATOM     15  C   UNL A   1      30.999  22.253  25.820  1.00  0.00     0.333 C 
ATOM     16  H   UNL A   1      32.216  23.381  24.627  1.00  0.00     0.348 HD
BRANCH  14  17
ATOM     17  C   UNL A   1      33.202  23.063  26.341  1.00  0.00     0.319 C 
BRANCH  17  18
ATOM     18  C   UNL A   1      34.508  23.140  25.559  1.00  0.00     0.095 A 
ATOM     19  C   UNL A   1      38.043  23.931  26.241  1.00  0.00     0.067 C 
ATOM     20  C   UNL A   1      36.799  23.546  25.497  1.00  0.00     0.038 A 
ATOM     21  C   UNL A   1      36.861  23.217  24.147  1.00  0.00     0.023 A 
ATOM     22  N   UNL A   1      35.640  23.525  26.203  1.00  0.00    -0.252 NA
ATOM     23  C   UNL A   1      35.692  22.849  23.493  1.00  0.00     0.004 A 
ATOM     24  C   UNL A   1      34.501  22.807  24.204  1.00  0.00     0.030 A 
ENDBRANCH  17  18
ENDBRANCH  14  17
ENDBRANCH  13  14
ENDBRANCH   6  13
ENDBRANCH   3   6
ENDBRANCH   1   2
BRANCH   1  25
ATOM     25  C   UNL A   1      32.148  29.252  27.245  1.00  0.00     0.042 C 
BRANCH  25  26
ATOM     26  C   UNL A   1      33.526  29.858  27.084  1.00  0.00     0.118 C 
BRANCH  26  27
ATOM     27  N   UNL A   1      33.618  31.204  27.644  1.00  0.00    -0.352 N 
ATOM     28  C   UNL A   1      34.539  31.758  28.501  1.00  0.00     0.251 C 
ATOM     29  H   UNL A   1      32.900  31.817  27.363  1.00  0.00     0.163 HD
ATOM     30  O   UNL A   1      34.312  32.851  29.015  1.00  0.00    -0.269 OA
BRANCH  28  31
ATOM     31  C   UNL A   1      35.782  31.026  28.831  1.00  0.00     0.039 A 
ATOM     32  C   UNL A   1      37.001  31.468  28.311  1.00  0.00     0.014 A 
ATOM     33  C   UNL A   1      35.749  29.906  29.662  1.00  0.00     0.014 A 
ATOM     34  C   UNL A   1      38.187  30.838  28.697  1.00  0.00     0.010 A 
ATOM     35  C   UNL A   1      36.931  29.374  30.152  1.00  0.00     0.010 A 
ATOM     36  C   UNL A   1      38.165  29.816  29.660  1.00  0.00    -0.014 A 
BRANCH  36  37
ATOM     37  C   UNL A   1      39.407  29.153  30.136  1.00  0.00     0.031 A 
ATOM     38  C   UNL A   1      40.114  29.691  31.353  1.00  0.00     0.074 A 
ATOM     39  C   UNL A   1      39.937  28.129  29.436  1.00  0.00     0.049 A 
ATOM     40  N   UNL A   1      41.268  29.344  31.864  1.00  0.00    -0.248 NA
ATOM     41  C   UNL A   1      39.456  30.800  32.064  1.00  0.00     0.031 C 
ATOM     42  C   UNL A   1      39.370  27.555  28.213  1.00  0.00     0.029 A 
ATOM     43  N   UNL A   1      41.076  27.396  29.647  1.00  0.00    -0.354 N 
ATOM     44  C   UNL A   1      41.482  30.210  32.933  1.00  0.00     0.074 A 
ATOM     45  C   UNL A   1      40.381  31.146  32.944  1.00  0.00     0.031 C 
ATOM     46  C   UNL A   1      40.144  26.537  27.805  1.00  0.00     0.029 A 
ATOM     47  C   UNL A   1      41.290  26.418  28.701  1.00  0.00     0.049 A 
ATOM     48  H   UNL A   1      41.686  27.553  30.404  1.00  0.00     0.167 HD
ATOM     49  C   UNL A   1      42.487  30.203  33.844  1.00  0.00     0.034 A 
ATOM     50  C   UNL A   1      42.300  25.537  28.566  1.00  0.00     0.034 A 
ATOM     51  C   UNL A   1      43.559  29.240  33.834  1.00  0.00     0.049 A 
ATOM     52  C   UNL A   1      43.413  25.553  29.584  1.00  0.00     0.074 A 
ATOM     53  C   UNL A   1      44.598  29.096  34.736  1.00  0.00     0.029 A 
ATOM     54  N   UNL A   1      43.733  28.255  32.868  1.00  0.00    -0.354 N 
ATOM     55  N   UNL A   1      43.576  26.345  30.619  1.00  0.00    -0.248 NA
ATOM     56  C   UNL A   1      44.472  24.549  29.422  1.00  0.00     0.031 C 
ATOM     57  C   UNL A   1      45.434  28.072  34.281  1.00  0.00     0.029 A 
ATOM     58  C   UNL A   1      44.876  27.520  33.139  1.00  0.00     0.049 A 
ATOM     59  H   UNL A   1      43.132  28.103  32.103  1.00  0.00     0.167 HD
ATOM     60  C   UNL A   1      44.738  25.910  31.250  1.00  0.00     0.074 A 
ATOM     61  C   UNL A   1      45.224  24.779  30.487  1.00  0.00     0.031 C 
ATOM     62  C   UNL A   1      45.347  26.398  32.361  1.00  0.00     0.034 A 
BRANCH  49  63
ATOM     63  C   UNL A   1      42.471  31.277  34.906  1.00  0.00     0.023 A 
ATOM     64  C   UNL A   1      42.975  32.567  34.663  1.00  0.00     0.031 A 
ATOM     65  C   UNL A   1      41.979  30.999  36.193  1.00  0.00     0.131 A 
ATOM     66  C   UNL A   1      43.057  33.499  35.708  1.00  0.00     0.055 A 
ATOM     67  C   UNL A   1      41.979  31.961  37.207  1.00  0.00     0.041 A 
ATOM     68  F   UNL A   1      41.505  29.780  36.496  1.00  0.00    -0.206 F 
ATOM     69  C   UNL A   1      42.538  33.214  36.972  1.00  0.00     0.022 A 
BRANCH  66  70
ATOM     70  S   UNL A   1      43.997  35.026  35.434  1.00  0.00     0.124 S 
ATOM     71  O   UNL A   1      43.124  36.023  36.050  1.00  0.00    -0.237 OA
ATOM     72  O   UNL A   1      45.249  34.756  36.129  1.00  0.00    -0.237 OA
ATOM     73  O   UNL A   1      44.096  35.110  33.978  1.00  0.00    -0.744 OA
ENDBRANCH  66  70
ENDBRANCH  49  63
BRANCH  50  74
ATOM     74  C   UNL A   1      42.317  24.568  27.431  1.00  0.00     0.023 A 
ATOM     75  C   UNL A   1      41.591  23.368  27.495  1.00  0.00     0.031 A 
ATOM     76  C   UNL A   1      43.091  24.806  26.282  1.00  0.00     0.131 A 
ATOM     77  C   UNL A   1      41.696  22.428  26.457  1.00  0.00     0.055 A 
ATOM     78  C   UNL A   1      43.147  23.895  25.226  1.00  0.00     0.041 A 
ATOM     79  F   UNL A   1      43.801  25.941  26.164  1.00  0.00    -0.206 F 
ATOM     80  C   UNL A   1      42.458  22.689  25.317  1.00  0.00     0.022 A 
BRANCH  77  81
ATOM     81  S   UNL A   1      40.893  20.814  26.663  1.00  0.00     0.124 S 
ATOM     82  O   UNL A   1      41.840  19.925  26.000  1.00  0.00    -0.237 OA
ATOM     83  O   UNL A   1      40.813  20.698  28.115  1.00  0.00    -0.237 OA
ATOM     84  O   UNL A   1      39.612  20.983  25.981  1.00  0.00    -0.744 OA
ENDBRANCH  77  81
ENDBRANCH  50  74
BRANCH  62  85
ATOM     85  C   UNL A   1      46.578  25.671  32.844  1.00  0.00     0.023 A 
ATOM     86  C   UNL A   1      47.833  25.852  32.236  1.00  0.00     0.031 A 
ATOM     87  C   UNL A   1      46.491  24.777  33.927  1.00  0.00     0.131 A 
ATOM     88  C   UNL A   1      48.936  25.106  32.678  1.00  0.00     0.055 A 
ATOM     89  C   UNL A   1      47.606  24.090  34.405  1.00  0.00     0.041 A 
ATOM     90  F   UNL A   1      45.317  24.565  34.543  1.00  0.00    -0.206 F 
ATOM     91  C   UNL A   1      48.835  24.242  33.771  1.00  0.00     0.022 A 
BRANCH  88  92
ATOM     92  S   UNL A   1      50.487  25.210  31.744  1.00  0.00     0.124 S 
ATOM     93  O   UNL A   1      50.924  23.818  31.728  1.00  0.00    -0.237 OA
ATOM     94  O   UNL A   1      50.045  25.754  30.464  1.00  0.00    -0.237 OA
ATOM     95  O   UNL A   1      51.311  26.110  32.548  1.00  0.00    -0.744 OA
ENDBRANCH  88  92
ENDBRANCH  62  85
ENDBRANCH  36  37
ENDBRANCH  28  31
ENDBRANCH  26  27
ENDBRANCH  25  26
ENDBRANCH   1  25
TORSDOF 17
ENDMDL
MODEL 3
REMARK VINA RESULT:     -11.7      5.004     10.202
REMARK SMILES Cc1cccc(C[N@@H+](C)C[C@]2(C(=O)NCCCNC(=O)c3ccc(-c4c5nc(c(-c6cc(S(=O)(=O)[O-])ccc6F)c6ccc([nH]6)c(-c6cc(S(=O)(=O)[O-])ccc6F)c6nc(c(-c7cc(S(=O)(=O)[O-])ccc7F)c7ccc4[nH]7)C=C6)C=C5)cc3)CCC[C@H](C)C2)n1
REMARK SMILES IDX 15 1 14 2 12 3 13 4 11 6 84 7 89 8 85 9 87 10 86 11 88 12
REMARK SMILES IDX 10 13 8 14 9 15 7 17 6 18 1 19 2 20 3 21 90 22 4 23 5 24
REMARK SMILES IDX 16 25 17 26 18 27 19 28 20 30 21 31 22 32 83 33 23 34 82 35
REMARK SMILES IDX 24 36 25 37 26 38 76 39 27 40 81 41 75 42 77 43 28 44 80 45
REMARK SMILES IDX 74 46 73 47 29 49 61 50 41 51 60 52 42 53 45 54 59 55 78 56
REMARK SMILES IDX 43 57 44 58 58 60 79 61 46 62 30 63 31 64 39 65 32 66 38 67
REMARK SMILES IDX 40 68 37 69 33 70 34 71 35 72 36 73 62 74 63 75 71 76 64 77
REMARK SMILES IDX 70 78 72 79 69 80 65 81 66 82 67 83 68 84 47 85 48 86 56 87
REMARK SMILES IDX 49 88 55 89 57 90 54 91 50 92 51 93 52 94 53 95
REMARK H PARENT 14 5 8 16 18 29 77 48 45 59
REMARK Flexibility Score: inf
ROOT
ATOM      1  C   UNL A   1      32.594  27.363  26.764  1.00  0.00     0.117 C 
ENDROOT
BRANCH   1   2
ATOM      2  N   UNL A   1      31.656  26.267  26.887  1.00  0.00    -0.355 N 
ATOM      3  C   UNL A   1      31.709  25.003  26.387  1.00  0.00     0.231 C 
ATOM      4  O   UNL A   1      30.930  24.194  26.907  1.00  0.00    -0.274 OA
ATOM      5  H   UNL A   1      30.851  26.469  27.418  1.00  0.00     0.163 HD
BRANCH   3   6
ATOM      6  C   UNL A   1      32.651  24.583  25.223  1.00  0.00     0.098 C 
ATOM      7  C   UNL A   1      31.863  23.573  24.312  1.00  0.00     0.023 C 
ATOM      8  C   UNL A   1      33.051  25.769  24.307  1.00  0.00     0.026 C 
ATOM      9  C   UNL A   1      30.696  24.192  23.535  1.00  0.00     0.002 C 
ATOM     10  C   UNL A   1      31.853  26.428  23.595  1.00  0.00    -0.013 C 
ATOM     11  C   UNL A   1      31.124  25.406  22.723  1.00  0.00     0.003 C 
ATOM     12  C   UNL A   1      32.315  27.617  22.752  1.00  0.00     0.007 C 
BRANCH   6  13
ATOM     13  C   UNL A   1      33.875  23.759  25.791  1.00  0.00     0.279 C 
BRANCH  13  14
ATOM     14  N   UNL A   1      33.673  22.328  26.039  1.00  0.00    -0.331 N 
ATOM     15  C   UNL A   1      33.615  21.976  27.458  1.00  0.00     0.333 C 
ATOM     16  H   UNL A   1      32.752  22.200  25.619  1.00  0.00     0.348 HD
BRANCH  14  17
ATOM     17  C   UNL A   1      34.558  21.385  25.327  1.00  0.00     0.319 C 
BRANCH  17  18
ATOM     18  C   UNL A   1      33.908  20.201  24.621  1.00  0.00     0.095 A 
ATOM     19  C   UNL A   1      34.433  16.561  24.371  1.00  0.00     0.067 C 
ATOM     20  C   UNL A   1      33.836  17.921  24.161  1.00  0.00     0.038 A 
ATOM     21  C   UNL A   1      32.690  18.073  23.388  1.00  0.00     0.023 A 
ATOM     22  N   UNL A   1      34.455  18.966  24.764  1.00  0.00    -0.252 NA
ATOM     23  C   UNL A   1      32.153  19.345  23.227  1.00  0.00     0.004 A 
ATOM     24  C   UNL A   1      32.766  20.422  23.851  1.00  0.00     0.030 A 
ENDBRANCH  17  18
ENDBRANCH  14  17
ENDBRANCH  13  14
ENDBRANCH   6  13
ENDBRANCH   3   6
ENDBRANCH   1   2
BRANCH   1  25
ATOM     25  C   UNL A   1      31.944  28.689  26.447  1.00  0.00     0.042 C 
BRANCH  25  26
ATOM     26  C   UNL A   1      32.903  29.678  25.818  1.00  0.00     0.118 C 
BRANCH  26  27
ATOM     27  N   UNL A   1      32.681  31.047  26.278  1.00  0.00    -0.352 N 
ATOM     28  C   UNL A   1      33.321  31.781  27.249  1.00  0.00     0.251 C 
ATOM     29  H   UNL A   1      31.952  31.522  25.818  1.00  0.00     0.163 HD
ATOM     30  O   UNL A   1      32.838  32.848  27.622  1.00  0.00    -0.269 OA
BRANCH  28  31
ATOM     31  C   UNL A   1      34.567  31.274  27.865  1.00  0.00     0.039 A 
ATOM     32  C   UNL A   1      35.694  32.098  27.919  1.00  0.00     0.014 A 
ATOM     33  C   UNL A   1      34.623  29.988  28.399  1.00  0.00     0.014 A 
ATOM     34  C   UNL A   1      36.841  31.658  28.585  1.00  0.00     0.010 A 
ATOM     35  C   UNL A   1      35.706  29.609  29.178  1.00  0.00     0.010 A 
ATOM     36  C   UNL A   1      36.839  30.428  29.262  1.00  0.00    -0.014 A 
BRANCH  36  37
ATOM     37  C   UNL A   1      38.019  29.945  30.025  1.00  0.00     0.031 A 
ATOM     38  C   UNL A   1      38.264  30.463  31.419  1.00  0.00     0.074 A 
ATOM     39  C   UNL A   1      38.904  29.111  29.442  1.00  0.00     0.049 A 
ATOM     40  N   UNL A   1      39.290  30.269  32.208  1.00  0.00    -0.248 NA
ATOM     41  C   UNL A   1      37.239  31.356  31.982  1.00  0.00     0.031 C 
ATOM     42  C   UNL A   1      38.801  28.583  28.079  1.00  0.00     0.029 A 
ATOM     43  N   UNL A   1      40.071  28.569  29.917  1.00  0.00    -0.354 N 
ATOM     44  C   UNL A   1      39.043  31.038  33.342  1.00  0.00     0.074 A 
ATOM     45  C   UNL A   1      37.815  31.761  33.101  1.00  0.00     0.031 C 
ATOM     46  C   UNL A   1      39.839  27.765  27.844  1.00  0.00     0.029 A 
ATOM     47  C   UNL A   1      40.712  27.752  29.013  1.00  0.00     0.049 A 
ATOM     48  H   UNL A   1      40.419  28.747  30.821  1.00  0.00     0.167 HD
ATOM     49  C   UNL A   1      39.756  31.108  34.493  1.00  0.00     0.034 A 
ATOM     50  C   UNL A   1      41.876  27.080  29.113  1.00  0.00     0.034 A 
ATOM     51  C   UNL A   1      40.962  30.353  34.726  1.00  0.00     0.049 A 
ATOM     52  C   UNL A   1      42.659  27.180  30.398  1.00  0.00     0.074 A 
ATOM     53  C   UNL A   1      41.737  30.296  35.870  1.00  0.00     0.029 A 
ATOM     54  N   UNL A   1      41.573  29.525  33.791  1.00  0.00    -0.354 N 
ATOM     55  N   UNL A   1      42.387  27.871  31.481  1.00  0.00    -0.248 NA
ATOM     56  C   UNL A   1      43.900  26.400  30.479  1.00  0.00     0.031 C 
ATOM     57  C   UNL A   1      42.848  29.489  35.606  1.00  0.00     0.029 A 
ATOM     58  C   UNL A   1      42.727  28.975  34.325  1.00  0.00     0.049 A 
ATOM     59  H   UNL A   1      41.234  29.353  32.882  1.00  0.00     0.167 HD
ATOM     60  C   UNL A   1      43.406  27.579  32.383  1.00  0.00     0.074 A 
ATOM     61  C   UNL A   1      44.288  26.640  31.721  1.00  0.00     0.031 C 
ATOM     62  C   UNL A   1      43.597  28.043  33.646  1.00  0.00     0.034 A 
BRANCH  49  63
ATOM     63  C   UNL A   1      39.252  32.042  35.569  1.00  0.00     0.023 A 
ATOM     64  C   UNL A   1      39.634  33.394  35.615  1.00  0.00     0.031 A 
ATOM     65  C   UNL A   1      38.407  31.565  36.586  1.00  0.00     0.131 A 
ATOM     66  C   UNL A   1      39.246  34.198  36.696  1.00  0.00     0.055 A 
ATOM     67  C   UNL A   1      37.949  32.396  37.613  1.00  0.00     0.041 A 
ATOM     68  F   UNL A   1      38.025  30.279  36.613  1.00  0.00    -0.206 F 
ATOM     69  C   UNL A   1      38.384  33.716  37.682  1.00  0.00     0.022 A 
BRANCH  66  70
ATOM     70  S   UNL A   1      40.014  35.831  36.879  1.00  0.00     0.124 S 
ATOM     71  O   UNL A   1      39.762  36.424  35.568  1.00  0.00    -0.237 OA
ATOM     72  O   UNL A   1      39.271  36.406  37.994  1.00  0.00    -0.237 OA
ATOM     73  O   UNL A   1      41.416  35.522  37.157  1.00  0.00    -0.744 OA
ENDBRANCH  66  70
ENDBRANCH  49  63
BRANCH  50  74
ATOM     74  C   UNL A   1      42.379  26.258  27.974  1.00  0.00     0.023 A 
ATOM     75  C   UNL A   1      41.906  24.953  27.761  1.00  0.00     0.031 A 
ATOM     76  C   UNL A   1      43.370  26.747  27.105  1.00  0.00     0.131 A 
ATOM     77  C   UNL A   1      42.461  24.163  26.741  1.00  0.00     0.055 A 
ATOM     78  C   UNL A   1      43.878  25.978  26.055  1.00  0.00     0.041 A 
ATOM     79  F   UNL A   1      43.855  27.990  27.258  1.00  0.00    -0.206 F 
ATOM     80  C   UNL A   1      43.433  24.672  25.878  1.00  0.00     0.022 A 
BRANCH  77  81
ATOM     81  S   UNL A   1      41.957  22.425  26.618  1.00  0.00     0.124 S 
ATOM     82  O   UNL A   1      42.483  21.874  27.861  1.00  0.00    -0.237 OA
ATOM     83  O   UNL A   1      40.505  22.536  26.528  1.00  0.00    -0.237 OA
ATOM     84  O   UNL A   1      42.621  21.964  25.400  1.00  0.00    -0.744 OA
ENDBRANCH  77  81
ENDBRANCH  50  74
BRANCH  62  85
ATOM     85  C   UNL A   1      44.778  27.494  34.407  1.00  0.00     0.023 A 
ATOM     86  C   UNL A   1      44.688  26.314  35.167  1.00  0.00     0.031 A 
ATOM     87  C   UNL A   1      46.013  28.167  34.375  1.00  0.00     0.131 A 
ATOM     88  C   UNL A   1      45.795  25.877  35.909  1.00  0.00     0.055 A 
ATOM     89  C   UNL A   1      47.129  27.690  35.061  1.00  0.00     0.041 A 
ATOM     90  F   UNL A   1      46.155  29.300  33.667  1.00  0.00    -0.206 F 
ATOM     91  C   UNL A   1      47.020  26.545  35.845  1.00  0.00     0.022 A 
BRANCH  88  92
ATOM     92  S   UNL A   1      45.585  24.472  37.036  1.00  0.00     0.124 S 
ATOM     93  O   UNL A   1      44.845  25.077  38.139  1.00  0.00    -0.237 OA
ATOM     94  O   UNL A   1      44.842  23.521  36.216  1.00  0.00    -0.237 OA
ATOM     95  O   UNL A   1      46.957  24.078  37.352  1.00  0.00    -0.744 OA
ENDBRANCH  88  92
ENDBRANCH  62  85
ENDBRANCH  36  37
ENDBRANCH  28  31
ENDBRANCH  26  27
ENDBRANCH  25  26
ENDBRANCH   1  25
TORSDOF 17
ENDMDL
