MODEL 1
REMARK VINA RESULT:     -13.1      0.000      0.000
REMARK SMILES O=C(NCCCNC(=O)c1cc(S(=O)(=O)Nc2ccc(F)c(F)c2)cc(Cl)c1Cl)c1ccc(-c2c3nc(c(-c4cc(S(=O)(=O)[O-])ccc4F)c4ccc([nH]4)c(-c4cc(S(=O)(=O)[O-])ccc4F)c4nc(c(-c5cc(S(=O)(=O)[O-])ccc5F)c5ccc2[nH]5)C=C4)C=C3)cc1
REMARK SMILES IDX 5 1 4 2 3 3 1 4 2 5 30 7 31 8 92 9 32 10 91 11 33 12 34 13
REMARK SMILES IDX 35 14 85 15 36 16 90 17 84 18 86 19 37 20 89 21 83 22 82 23
REMARK SMILES IDX 38 25 70 26 50 27 69 28 51 29 54 30 68 31 87 32 52 33 53 34
REMARK SMILES IDX 67 36 88 37 55 38 39 39 40 40 48 41 41 42 47 43 49 44 46 45
REMARK SMILES IDX 42 46 43 47 44 48 45 49 71 50 72 51 80 52 73 53 79 54 81 55
REMARK SMILES IDX 78 56 74 57 75 58 76 59 77 60 56 61 57 62 65 63 58 64 64 65
REMARK SMILES IDX 66 66 63 67 59 68 60 69 61 70 62 71 6 72 7 73 8 74 9 76
REMARK SMILES IDX 10 77 11 78 28 79 12 80 26 81 29 82 25 83 27 84 13 85 14 86
REMARK SMILES IDX 15 87 16 88 17 90 18 91 24 92 19 93 22 94 20 95 23 96 21 97
REMARK H PARENT 3 6 86 24 54 35 7 75 16 89
REMARK Flexibility Score: inf
ROOT
ATOM      1  C   UNL A   1      31.628  31.795  26.705  1.00  0.00     0.042 C 
ENDROOT
BRANCH   1   2
ATOM      2  C   UNL A   1      32.888  32.509  27.173  1.00  0.00     0.118 C 
BRANCH   2   3
ATOM      3  N   UNL A   1      32.643  33.871  27.628  1.00  0.00    -0.352 N 
ATOM      4  O   UNL A   1      32.747  35.687  28.943  1.00  0.00    -0.269 OA
ATOM      5  C   UNL A   1      33.220  34.593  28.644  1.00  0.00     0.251 C 
ATOM      6  H   UNL A   1      31.948  34.353  27.124  1.00  0.00     0.163 HD
BRANCH   5   7
ATOM      7  C   UNL A   1      34.380  34.060  29.393  1.00  0.00     0.039 A 
ATOM      8  C   UNL A   1      35.690  34.405  29.052  1.00  0.00     0.014 A 
ATOM      9  C   UNL A   1      34.146  33.219  30.487  1.00  0.00     0.014 A 
ATOM     10  C   UNL A   1      36.762  33.793  29.698  1.00  0.00     0.010 A 
ATOM     11  C   UNL A   1      35.223  32.671  31.189  1.00  0.00     0.010 A 
ATOM     12  C   UNL A   1      36.539  32.924  30.776  1.00  0.00    -0.014 A 
BRANCH  12  13
ATOM     13  C   UNL A   1      37.693  32.307  31.478  1.00  0.00     0.031 A 
ATOM     14  C   UNL A   1      38.487  31.206  30.830  1.00  0.00     0.074 A 
ATOM     15  C   UNL A   1      38.027  32.747  32.708  1.00  0.00     0.049 A 
ATOM     16  N   UNL A   1      39.491  30.516  31.308  1.00  0.00    -0.248 NA
ATOM     17  C   UNL A   1      38.089  30.824  29.468  1.00  0.00     0.031 C 
ATOM     18  C   UNL A   1      37.330  33.807  33.440  1.00  0.00     0.029 A 
ATOM     19  N   UNL A   1      39.033  32.363  33.555  1.00  0.00    -0.354 N 
ATOM     20  C   UNL A   1      39.833  29.602  30.317  1.00  0.00     0.074 A 
ATOM     21  C   UNL A   1      38.904  29.807  29.224  1.00  0.00     0.031 C 
ATOM     22  C   UNL A   1      37.942  34.004  34.617  1.00  0.00     0.029 A 
ATOM     23  C   UNL A   1      39.036  33.048  34.747  1.00  0.00     0.049 A 
ATOM     24  H   UNL A   1      39.690  31.665  33.333  1.00  0.00     0.167 HD
ATOM     25  C   UNL A   1      40.832  28.683  30.318  1.00  0.00     0.034 A 
ATOM     26  C   UNL A   1      39.814  32.906  35.838  1.00  0.00     0.034 A 
ATOM     27  C   UNL A   1      41.753  28.497  31.415  1.00  0.00     0.049 A 
ATOM     28  C   UNL A   1      40.896  31.864  35.829  1.00  0.00     0.074 A 
ATOM     29  C   UNL A   1      42.817  27.616  31.510  1.00  0.00     0.029 A 
ATOM     30  N   UNL A   1      41.712  29.198  32.614  1.00  0.00    -0.354 N 
ATOM     31  N   UNL A   1      41.207  31.008  34.884  1.00  0.00    -0.248 NA
ATOM     32  C   UNL A   1      41.731  31.770  37.032  1.00  0.00     0.031 C 
ATOM     33  C   UNL A   1      43.385  27.747  32.784  1.00  0.00     0.029 A 
ATOM     34  C   UNL A   1      42.715  28.753  33.463  1.00  0.00     0.049 A 
ATOM     35  H   UNL A   1      41.065  29.907  32.830  1.00  0.00     0.167 HD
ATOM     36  C   UNL A   1      42.287  30.281  35.374  1.00  0.00     0.074 A 
ATOM     37  C   UNL A   1      42.578  30.808  36.693  1.00  0.00     0.031 C 
ATOM     38  C   UNL A   1      42.978  29.274  34.784  1.00  0.00     0.034 A 
BRANCH  25  39
ATOM     39  C   UNL A   1      40.941  27.784  29.109  1.00  0.00     0.023 A 
ATOM     40  C   UNL A   1      41.914  27.991  28.117  1.00  0.00     0.031 A 
ATOM     41  C   UNL A   1      40.025  26.732  28.925  1.00  0.00     0.131 A 
ATOM     42  C   UNL A   1      41.901  27.211  26.949  1.00  0.00     0.055 A 
ATOM     43  C   UNL A   1      40.067  25.910  27.796  1.00  0.00     0.041 A 
ATOM     44  F   UNL A   1      39.062  26.498  29.829  1.00  0.00    -0.206 F 
ATOM     45  C   UNL A   1      40.997  26.158  26.792  1.00  0.00     0.022 A 
BRANCH  42  46
ATOM     46  S   UNL A   1      42.980  27.694  25.572  1.00  0.00     0.124 S 
ATOM     47  O   UNL A   1      42.064  28.458  24.728  1.00  0.00    -0.237 OA
ATOM     48  O   UNL A   1      44.021  28.464  26.243  1.00  0.00    -0.237 OA
ATOM     49  O   UNL A   1      43.411  26.417  25.009  1.00  0.00    -0.744 OA
ENDBRANCH  42  46
ENDBRANCH  25  39
BRANCH  26  50
ATOM     50  C   UNL A   1      39.562  33.749  37.036  1.00  0.00     0.023 A 
ATOM     51  C   UNL A   1      38.876  33.244  38.149  1.00  0.00     0.031 A 
ATOM     52  C   UNL A   1      40.024  35.076  37.084  1.00  0.00     0.131 A 
ATOM     53  C   UNL A   1      38.652  34.071  39.260  1.00  0.00     0.055 A 
ATOM     54  C   UNL A   1      39.833  35.882  38.206  1.00  0.00     0.041 A 
ATOM     55  F   UNL A   1      40.698  35.598  36.046  1.00  0.00    -0.206 F 
ATOM     56  C   UNL A   1      39.135  35.382  39.301  1.00  0.00     0.022 A 
BRANCH  53  57
ATOM     57  S   UNL A   1      37.686  33.418  40.650  1.00  0.00     0.124 S 
ATOM     58  O   UNL A   1      36.472  32.964  39.981  1.00  0.00    -0.237 OA
ATOM     59  O   UNL A   1      38.563  32.372  41.165  1.00  0.00    -0.237 OA
ATOM     60  O   UNL A   1      37.521  34.576  41.525  1.00  0.00    -0.744 OA
ENDBRANCH  53  57
ENDBRANCH  26  50
BRANCH  38  61
ATOM     61  C   UNL A   1      44.140  28.708  35.557  1.00  0.00     0.023 A 
ATOM     62  C   UNL A   1      43.973  27.656  36.473  1.00  0.00     0.031 A 
ATOM     63  C   UNL A   1      45.428  29.246  35.385  1.00  0.00     0.131 A 
ATOM     64  C   UNL A   1      45.071  27.202  37.218  1.00  0.00     0.055 A 
ATOM     65  C   UNL A   1      46.525  28.759  36.097  1.00  0.00     0.041 A 
ATOM     66  F   UNL A   1      45.637  30.253  34.524  1.00  0.00    -0.206 F 
ATOM     67  C   UNL A   1      46.348  27.739  37.027  1.00  0.00     0.022 A 
BRANCH  64  68
ATOM     68  S   UNL A   1      44.800  25.941  38.495  1.00  0.00     0.124 S 
ATOM     69  O   UNL A   1      46.161  25.670  38.947  1.00  0.00    -0.237 OA
ATOM     70  O   UNL A   1      43.938  26.639  39.444  1.00  0.00    -0.237 OA
ATOM     71  O   UNL A   1      44.159  24.848  37.766  1.00  0.00    -0.744 OA
ENDBRANCH  64  68
ENDBRANCH  38  61
ENDBRANCH  12  13
ENDBRANCH   5   7
ENDBRANCH   2   3
ENDBRANCH   1   2
BRANCH   1  72
ATOM     72  C   UNL A   1      31.798  30.312  26.413  1.00  0.00     0.118 C 
BRANCH  72  73
ATOM     73  N   UNL A   1      32.640  30.044  25.254  1.00  0.00    -0.352 N 
ATOM     74  C   UNL A   1      32.722  28.958  24.422  1.00  0.00     0.252 C 
ATOM     75  H   UNL A   1      33.260  30.774  25.028  1.00  0.00     0.163 HD
ATOM     76  O   UNL A   1      33.510  28.978  23.481  1.00  0.00    -0.269 OA
BRANCH  74  77
ATOM     77  C   UNL A   1      31.833  27.793  24.598  1.00  0.00     0.061 A 
ATOM     78  C   UNL A   1      32.299  26.709  25.357  1.00  0.00     0.037 A 
ATOM     79  C   UNL A   1      30.522  27.789  24.093  1.00  0.00     0.072 A 
ATOM     80  C   UNL A   1      31.491  25.590  25.559  1.00  0.00     0.090 A 
ATOM     81  C   UNL A   1      29.688  26.704  24.399  1.00  0.00     0.061 A 
ATOM     82  Cl  UNL A   1      29.948  29.060  23.062  1.00  0.00    -0.082 Cl
ATOM     83  C   UNL A   1      30.164  25.619  25.144  1.00  0.00     0.044 A 
ATOM     84  Cl  UNL A   1      28.046  26.603  23.854  1.00  0.00    -0.083 Cl
BRANCH  80  85
ATOM     85  S   UNL A   1      32.298  24.142  26.207  1.00  0.00     0.261 S 
ATOM     86  O   UNL A   1      33.675  24.514  26.430  1.00  0.00    -0.201 OA
ATOM     87  O   UNL A   1      31.459  23.674  27.291  1.00  0.00    -0.201 OA
BRANCH  85  88
ATOM     88  N   UNL A   1      32.230  22.942  25.052  1.00  0.00    -0.280 N 
ATOM     89  H   UNL A   1      31.625  23.092  24.289  1.00  0.00     0.180 HD
BRANCH  88  90
ATOM     90  C   UNL A   1      32.961  21.725  25.062  1.00  0.00     0.052 A 
ATOM     91  C   UNL A   1      34.358  21.647  25.009  1.00  0.00     0.030 A 
ATOM     92  C   UNL A   1      32.202  20.551  25.031  1.00  0.00     0.069 A 
ATOM     93  C   UNL A   1      34.983  20.408  24.822  1.00  0.00     0.044 A 
ATOM     94  C   UNL A   1      32.833  19.325  24.851  1.00  0.00     0.160 A 
ATOM     95  C   UNL A   1      34.213  19.254  24.728  1.00  0.00     0.158 A 
ATOM     96  F   UNL A   1      32.085  18.217  24.759  1.00  0.00    -0.204 F 
ATOM     97  F   UNL A   1      34.809  18.076  24.503  1.00  0.00    -0.204 F 
ENDBRANCH  88  90
ENDBRANCH  85  88
ENDBRANCH  80  85
ENDBRANCH  74  77
ENDBRANCH  72  73
ENDBRANCH   1  72
TORSDOF 16
ENDMDL
MODEL 2
REMARK VINA RESULT:     -12.7      0.563      7.646
REMARK SMILES O=C(NCCCNC(=O)c1cc(S(=O)(=O)Nc2ccc(F)c(F)c2)cc(Cl)c1Cl)c1ccc(-c2c3nc(c(-c4cc(S(=O)(=O)[O-])ccc4F)c4ccc([nH]4)c(-c4cc(S(=O)(=O)[O-])ccc4F)c4nc(c(-c5cc(S(=O)(=O)[O-])ccc5F)c5ccc2[nH]5)C=C4)C=C3)cc1
REMARK SMILES IDX 5 1 4 2 3 3 1 4 2 5 30 7 31 8 92 9 32 10 91 11 33 12 34 13
REMARK SMILES IDX 35 14 85 15 36 16 90 17 84 18 86 19 37 20 89 21 83 22 82 23
REMARK SMILES IDX 38 25 70 26 50 27 69 28 51 29 54 30 68 31 87 32 52 33 53 34
REMARK SMILES IDX 67 36 88 37 55 38 39 39 40 40 48 41 41 42 47 43 49 44 46 45
REMARK SMILES IDX 42 46 43 47 44 48 45 49 71 50 72 51 80 52 73 53 79 54 81 55
REMARK SMILES IDX 78 56 74 57 75 58 76 59 77 60 56 61 57 62 65 63 58 64 64 65
REMARK SMILES IDX 66 66 63 67 59 68 60 69 61 70 62 71 6 72 7 73 8 74 9 76
REMARK SMILES IDX 10 77 11 78 28 79 12 80 26 81 29 82 25 83 27 84 13 85 14 86
REMARK SMILES IDX 15 87 16 88 17 90 18 91 24 92 19 93 22 94 20 95 23 96 21 97
REMARK H PARENT 3 6 86 24 54 35 7 75 16 89
REMARK Flexibility Score: inf
ROOT
ATOM      1  C   UNL A   1      31.640  31.815  26.751  1.00  0.00     0.042 C 
ENDROOT
BRANCH   1   2
ATOM      2  C   UNL A   1      32.913  32.541  27.161  1.00  0.00     0.118 C 
BRANCH   2   3
ATOM      3  N   UNL A   1      32.667  33.851  27.749  1.00  0.00    -0.352 N 
ATOM      4  O   UNL A   1      32.772  35.529  29.236  1.00  0.00    -0.269 OA
ATOM      5  C   UNL A   1      33.247  34.471  28.828  1.00  0.00     0.251 C 
ATOM      6  H   UNL A   1      31.967  34.378  27.298  1.00  0.00     0.163 HD
BRANCH   5   7
ATOM      7  C   UNL A   1      34.413  33.872  29.514  1.00  0.00     0.039 A 
ATOM      8  C   UNL A   1      35.720  34.251  29.200  1.00  0.00     0.014 A 
ATOM      9  C   UNL A   1      34.188  32.928  30.523  1.00  0.00     0.014 A 
ATOM     10  C   UNL A   1      36.797  33.583  29.777  1.00  0.00     0.010 A 
ATOM     11  C   UNL A   1      35.271  32.318  31.162  1.00  0.00     0.010 A 
ATOM     12  C   UNL A   1      36.584  32.614  30.767  1.00  0.00    -0.014 A 
BRANCH  12  13
ATOM     13  C   UNL A   1      37.744  31.935  31.399  1.00  0.00     0.031 A 
ATOM     14  C   UNL A   1      38.217  32.339  32.769  1.00  0.00     0.074 A 
ATOM     15  C   UNL A   1      38.370  30.945  30.733  1.00  0.00     0.049 A 
ATOM     16  N   UNL A   1      39.239  31.896  33.457  1.00  0.00    -0.248 NA
ATOM     17  C   UNL A   1      37.445  33.390  33.447  1.00  0.00     0.031 C 
ATOM     18  C   UNL A   1      38.004  30.467  29.397  1.00  0.00     0.029 A 
ATOM     19  N   UNL A   1      39.440  30.164  31.084  1.00  0.00    -0.354 N 
ATOM     20  C   UNL A   1      39.249  32.627  34.639  1.00  0.00     0.074 A 
ATOM     21  C   UNL A   1      38.148  33.566  34.557  1.00  0.00     0.031 C 
ATOM     22  C   UNL A   1      38.820  29.461  29.052  1.00  0.00     0.029 A 
ATOM     23  C   UNL A   1      39.801  29.261  30.113  1.00  0.00     0.049 A 
ATOM     24  H   UNL A   1      39.905  30.241  31.949  1.00  0.00     0.167 HD
ATOM     25  C   UNL A   1      40.094  32.521  35.697  1.00  0.00     0.034 A 
ATOM     26  C   UNL A   1      40.825  28.387  30.065  1.00  0.00     0.034 A 
ATOM     27  C   UNL A   1      41.183  31.576  35.763  1.00  0.00     0.049 A 
ATOM     28  C   UNL A   1      41.766  28.305  31.234  1.00  0.00     0.074 A 
ATOM     29  C   UNL A   1      42.082  31.363  36.795  1.00  0.00     0.029 A 
ATOM     30  N   UNL A   1      41.529  30.690  34.750  1.00  0.00    -0.354 N 
ATOM     31  N   UNL A   1      41.761  29.002  32.346  1.00  0.00    -0.248 NA
ATOM     32  C   UNL A   1      42.847  27.317  31.142  1.00  0.00     0.031 C 
ATOM     33  C   UNL A   1      43.001  30.389  36.386  1.00  0.00     0.029 A 
ATOM     34  C   UNL A   1      42.641  29.947  35.123  1.00  0.00     0.049 A 
ATOM     35  H   UNL A   1      41.054  30.601  33.893  1.00  0.00     0.167 HD
ATOM     36  C   UNL A   1      42.832  28.526  33.094  1.00  0.00     0.074 A 
ATOM     37  C   UNL A   1      43.452  27.476  32.310  1.00  0.00     0.031 C 
ATOM     38  C   UNL A   1      43.260  28.919  34.320  1.00  0.00     0.034 A 
BRANCH  25  39
ATOM     39  C   UNL A   1      39.892  33.488  36.839  1.00  0.00     0.023 A 
ATOM     40  C   UNL A   1      39.291  33.093  38.047  1.00  0.00     0.031 A 
ATOM     41  C   UNL A   1      40.263  34.837  36.699  1.00  0.00     0.131 A 
ATOM     42  C   UNL A   1      39.007  34.050  39.035  1.00  0.00     0.055 A 
ATOM     43  C   UNL A   1      40.049  35.770  37.718  1.00  0.00     0.041 A 
ATOM     44  F   UNL A   1      40.824  35.278  35.562  1.00  0.00    -0.206 F 
ATOM     45  C   UNL A   1      39.402  35.382  38.887  1.00  0.00     0.022 A 
BRANCH  42  46
ATOM     46  S   UNL A   1      37.977  33.560  40.445  1.00  0.00     0.124 S 
ATOM     47  O   UNL A   1      37.810  34.829  41.150  1.00  0.00    -0.237 OA
ATOM     48  O   UNL A   1      36.784  33.031  39.795  1.00  0.00    -0.237 OA
ATOM     49  O   UNL A   1      38.797  32.574  41.144  1.00  0.00    -0.744 OA
ENDBRANCH  42  46
ENDBRANCH  25  39
BRANCH  26  50
ATOM     50  C   UNL A   1      41.028  27.556  28.850  1.00  0.00     0.023 A 
ATOM     51  C   UNL A   1      42.014  27.876  27.906  1.00  0.00     0.031 A 
ATOM     52  C   UNL A   1      40.239  26.414  28.627  1.00  0.00     0.131 A 
ATOM     53  C   UNL A   1      42.172  27.072  26.767  1.00  0.00     0.055 A 
ATOM     54  C   UNL A   1      40.425  25.595  27.513  1.00  0.00     0.041 A 
ATOM     55  F   UNL A   1      39.290  26.062  29.510  1.00  0.00    -0.206 F 
ATOM     56  C   UNL A   1      41.394  25.928  26.571  1.00  0.00     0.022 A 
BRANCH  53  57
ATOM     57  S   UNL A   1      43.397  27.559  25.522  1.00  0.00     0.124 S 
ATOM     58  O   UNL A   1      44.050  28.690  26.172  1.00  0.00    -0.237 OA
ATOM     59  O   UNL A   1      44.197  26.346  25.391  1.00  0.00    -0.237 OA
ATOM     60  O   UNL A   1      42.583  27.894  24.356  1.00  0.00    -0.744 OA
ENDBRANCH  53  57
ENDBRANCH  26  50
BRANCH  38  61
ATOM     61  C   UNL A   1      44.436  28.175  34.895  1.00  0.00     0.023 A 
ATOM     62  C   UNL A   1      44.266  27.011  35.665  1.00  0.00     0.031 A 
ATOM     63  C   UNL A   1      45.742  28.650  34.684  1.00  0.00     0.131 A 
ATOM     64  C   UNL A   1      45.385  26.385  36.235  1.00  0.00     0.055 A 
ATOM     65  C   UNL A   1      46.854  27.998  35.216  1.00  0.00     0.041 A 
ATOM     66  F   UNL A   1      45.954  29.759  33.958  1.00  0.00    -0.206 F 
ATOM     67  C   UNL A   1      46.678  26.864  36.005  1.00  0.00     0.022 A 
BRANCH  64  68
ATOM     68  S   UNL A   1      45.126  24.970  37.340  1.00  0.00     0.124 S 
ATOM     69  O   UNL A   1      43.705  25.085  37.651  1.00  0.00    -0.237 OA
ATOM     70  O   UNL A   1      45.505  23.841  36.495  1.00  0.00    -0.237 OA
ATOM     71  O   UNL A   1      46.030  25.237  38.457  1.00  0.00    -0.744 OA
ENDBRANCH  64  68
ENDBRANCH  38  61
ENDBRANCH  12  13
ENDBRANCH   5   7
ENDBRANCH   2   3
ENDBRANCH   1   2
BRANCH   1  72
ATOM     72  C   UNL A   1      31.812  30.337  26.440  1.00  0.00     0.118 C 
BRANCH  72  73
ATOM     73  N   UNL A   1      32.644  30.085  25.271  1.00  0.00    -0.352 N 
ATOM     74  C   UNL A   1      32.722  29.009  24.425  1.00  0.00     0.252 C 
ATOM     75  H   UNL A   1      33.261  30.819  25.049  1.00  0.00     0.163 HD
ATOM     76  O   UNL A   1      33.502  29.042  23.478  1.00  0.00    -0.269 OA
BRANCH  74  77
ATOM     77  C   UNL A   1      31.836  27.841  24.594  1.00  0.00     0.061 A 
ATOM     78  C   UNL A   1      32.309  26.749  25.338  1.00  0.00     0.037 A 
ATOM     79  C   UNL A   1      30.522  27.840  24.097  1.00  0.00     0.072 A 
ATOM     80  C   UNL A   1      31.504  25.627  25.533  1.00  0.00     0.090 A 
ATOM     81  C   UNL A   1      29.692  26.750  24.396  1.00  0.00     0.061 A 
ATOM     82  Cl  UNL A   1      29.939  29.120  23.083  1.00  0.00    -0.082 Cl
ATOM     83  C   UNL A   1      30.175  25.657  25.126  1.00  0.00     0.044 A 
ATOM     84  Cl  UNL A   1      28.046  26.651  23.860  1.00  0.00    -0.083 Cl
BRANCH  80  85
ATOM     85  S   UNL A   1      32.318  24.173  26.160  1.00  0.00     0.261 S 
ATOM     86  O   UNL A   1      33.675  24.568  26.459  1.00  0.00    -0.201 OA
ATOM     87  O   UNL A   1      31.444  23.642  27.186  1.00  0.00    -0.201 OA
BRANCH  85  88
ATOM     88  N   UNL A   1      32.332  23.019  24.956  1.00  0.00    -0.280 N 
ATOM     89  H   UNL A   1      31.822  23.222  24.140  1.00  0.00     0.180 HD
BRANCH  88  90
ATOM     90  C   UNL A   1      33.010  21.772  24.998  1.00  0.00     0.052 A 
ATOM     91  C   UNL A   1      34.403  21.636  25.029  1.00  0.00     0.030 A 
ATOM     92  C   UNL A   1      32.206  20.632  24.907  1.00  0.00     0.069 A 
ATOM     93  C   UNL A   1      34.986  20.373  24.866  1.00  0.00     0.044 A 
ATOM     94  C   UNL A   1      32.795  19.382  24.752  1.00  0.00     0.160 A 
ATOM     95  C   UNL A   1      34.176  19.253  24.712  1.00  0.00     0.158 A 
ATOM     96  F   UNL A   1      32.009  18.307  24.602  1.00  0.00    -0.204 F 
ATOM     97  F   UNL A   1      34.735  18.053  24.511  1.00  0.00    -0.204 F 
ENDBRANCH  88  90
ENDBRANCH  85  88
ENDBRANCH  80  85
ENDBRANCH  74  77
ENDBRANCH  72  73
ENDBRANCH   1  72
TORSDOF 16
ENDMDL
MODEL 3
REMARK VINA RESULT:     -12.6      2.457      7.765
REMARK SMILES O=C(NCCCNC(=O)c1cc(S(=O)(=O)Nc2ccc(F)c(F)c2)cc(Cl)c1Cl)c1ccc(-c2c3nc(c(-c4cc(S(=O)(=O)[O-])ccc4F)c4ccc([nH]4)c(-c4cc(S(=O)(=O)[O-])ccc4F)c4nc(c(-c5cc(S(=O)(=O)[O-])ccc5F)c5ccc2[nH]5)C=C4)C=C3)cc1
REMARK SMILES IDX 5 1 4 2 3 3 1 4 2 5 30 7 31 8 92 9 32 10 91 11 33 12 34 13
REMARK SMILES IDX 35 14 85 15 36 16 90 17 84 18 86 19 37 20 89 21 83 22 82 23
REMARK SMILES IDX 38 25 70 26 50 27 69 28 51 29 54 30 68 31 87 32 52 33 53 34
REMARK SMILES IDX 67 36 88 37 55 38 39 39 40 40 48 41 41 42 47 43 49 44 46 45
REMARK SMILES IDX 42 46 43 47 44 48 45 49 71 50 72 51 80 52 73 53 79 54 81 55
REMARK SMILES IDX 78 56 74 57 75 58 76 59 77 60 56 61 57 62 65 63 58 64 64 65
REMARK SMILES IDX 66 66 63 67 59 68 60 69 61 70 62 71 6 72 7 73 8 74 9 76
REMARK SMILES IDX 10 77 11 78 28 79 12 80 26 81 29 82 25 83 27 84 13 85 14 86
REMARK SMILES IDX 15 87 16 88 17 90 18 91 24 92 19 93 22 94 20 95 23 96 21 97
REMARK H PARENT 3 6 86 24 54 35 7 75 16 89
REMARK Flexibility Score: inf
ROOT
ATOM      1  C   UNL A   1      32.840  29.341  24.698  1.00  0.00     0.042 C 
ENDROOT
BRANCH   1   2
ATOM      2  C   UNL A   1      32.447  29.664  26.132  1.00  0.00     0.118 C 
BRANCH   2   3
ATOM      3  N   UNL A   1      32.325  31.092  26.389  1.00  0.00    -0.352 N 
ATOM      4  O   UNL A   1      32.705  33.084  27.352  1.00  0.00    -0.269 OA
ATOM      5  C   UNL A   1      33.086  31.931  27.167  1.00  0.00     0.251 C 
ATOM      6  H   UNL A   1      31.572  31.529  25.929  1.00  0.00     0.163 HD
BRANCH   5   7
ATOM      7  C   UNL A   1      34.337  31.456  27.799  1.00  0.00     0.039 A 
ATOM      8  C   UNL A   1      34.514  30.116  28.152  1.00  0.00     0.014 A 
ATOM      9  C   UNL A   1      35.372  32.373  28.013  1.00  0.00     0.014 A 
ATOM     10  C   UNL A   1      35.652  29.725  28.853  1.00  0.00     0.010 A 
ATOM     11  C   UNL A   1      36.551  31.960  28.642  1.00  0.00     0.010 A 
ATOM     12  C   UNL A   1      36.684  30.642  29.101  1.00  0.00    -0.014 A 
BRANCH  12  13
ATOM     13  C   UNL A   1      37.907  30.201  29.819  1.00  0.00     0.031 A 
ATOM     14  C   UNL A   1      38.191  30.680  31.216  1.00  0.00     0.074 A 
ATOM     15  C   UNL A   1      38.764  29.362  29.204  1.00  0.00     0.049 A 
ATOM     16  N   UNL A   1      39.228  30.443  31.979  1.00  0.00    -0.248 NA
ATOM     17  C   UNL A   1      37.179  31.550  31.831  1.00  0.00     0.031 C 
ATOM     18  C   UNL A   1      38.598  28.833  27.849  1.00  0.00     0.029 A 
ATOM     19  N   UNL A   1      39.940  28.806  29.637  1.00  0.00    -0.354 N 
ATOM     20  C   UNL A   1      39.008  31.151  33.155  1.00  0.00     0.074 A 
ATOM     21  C   UNL A   1      37.751  31.852  32.988  1.00  0.00     0.031 C 
ATOM     22  C   UNL A   1      39.620  28.012  27.569  1.00  0.00     0.029 A 
ATOM     23  C   UNL A   1      40.543  28.001  28.699  1.00  0.00     0.049 A 
ATOM     24  H   UNL A   1      40.317  28.966  30.532  1.00  0.00     0.167 HD
ATOM     25  C   UNL A   1      39.779  31.205  34.271  1.00  0.00     0.034 A 
ATOM     26  C   UNL A   1      41.720  27.349  28.731  1.00  0.00     0.034 A 
ATOM     27  C   UNL A   1      41.027  30.495  34.422  1.00  0.00     0.049 A 
ATOM     28  C   UNL A   1      42.572  27.445  29.964  1.00  0.00     0.074 A 
ATOM     29  C   UNL A   1      41.874  30.456  35.516  1.00  0.00     0.029 A 
ATOM     30  N   UNL A   1      41.614  29.704  33.441  1.00  0.00    -0.354 N 
ATOM     31  N   UNL A   1      42.349  28.118  31.069  1.00  0.00    -0.248 NA
ATOM     32  C   UNL A   1      43.832  26.693  29.956  1.00  0.00     0.031 C 
ATOM     33  C   UNL A   1      42.996  29.688  35.180  1.00  0.00     0.029 A 
ATOM     34  C   UNL A   1      42.822  29.195  33.897  1.00  0.00     0.049 A 
ATOM     35  H   UNL A   1      41.229  29.531  32.552  1.00  0.00     0.167 HD
ATOM     36  C   UNL A   1      43.437  27.858  31.895  1.00  0.00     0.074 A 
ATOM     37  C   UNL A   1      44.308  26.959  31.164  1.00  0.00     0.031 C 
ATOM     38  C   UNL A   1      43.689  28.317  33.146  1.00  0.00     0.034 A 
BRANCH  25  39
ATOM     39  C   UNL A   1      39.307  32.103  35.391  1.00  0.00     0.023 A 
ATOM     40  C   UNL A   1      39.729  33.439  35.497  1.00  0.00     0.031 A 
ATOM     41  C   UNL A   1      38.459  31.599  36.393  1.00  0.00     0.131 A 
ATOM     42  C   UNL A   1      39.368  34.202  36.620  1.00  0.00     0.055 A 
ATOM     43  C   UNL A   1      38.041  32.387  37.468  1.00  0.00     0.041 A 
ATOM     44  F   UNL A   1      38.038  30.325  36.356  1.00  0.00    -0.206 F 
ATOM     45  C   UNL A   1      38.510  33.691  37.596  1.00  0.00     0.022 A 
BRANCH  42  46
ATOM     46  S   UNL A   1      40.165  35.813  36.865  1.00  0.00     0.124 S 
ATOM     47  O   UNL A   1      39.628  36.585  35.746  1.00  0.00    -0.237 OA
ATOM     48  O   UNL A   1      39.694  36.199  38.189  1.00  0.00    -0.237 OA
ATOM     49  O   UNL A   1      41.591  35.510  36.771  1.00  0.00    -0.744 OA
ENDBRANCH  42  46
ENDBRANCH  25  39
BRANCH  26  50
ATOM     50  C   UNL A   1      42.171  26.586  27.537  1.00  0.00     0.023 A 
ATOM     51  C   UNL A   1      41.935  25.208  27.424  1.00  0.00     0.031 A 
ATOM     52  C   UNL A   1      42.836  27.237  26.483  1.00  0.00     0.131 A 
ATOM     53  C   UNL A   1      42.381  24.519  26.286  1.00  0.00     0.055 A 
ATOM     54  C   UNL A   1      43.243  26.555  25.336  1.00  0.00     0.041 A 
ATOM     55  F   UNL A   1      43.072  28.558  26.543  1.00  0.00    -0.206 F 
ATOM     56  C   UNL A   1      43.022  25.184  25.237  1.00  0.00     0.022 A 
BRANCH  53  57
ATOM     57  S   UNL A   1      42.138  22.723  26.206  1.00  0.00     0.124 S 
ATOM     58  O   UNL A   1      40.685  22.623  26.136  1.00  0.00    -0.237 OA
ATOM     59  O   UNL A   1      42.864  22.373  24.990  1.00  0.00    -0.237 OA
ATOM     60  O   UNL A   1      42.739  22.242  27.447  1.00  0.00    -0.744 OA
ENDBRANCH  53  57
ENDBRANCH  26  50
BRANCH  38  61
ATOM     61  C   UNL A   1      44.945  27.816  33.809  1.00  0.00     0.023 A 
ATOM     62  C   UNL A   1      44.956  26.634  34.570  1.00  0.00     0.031 A 
ATOM     63  C   UNL A   1      46.142  28.545  33.692  1.00  0.00     0.131 A 
ATOM     64  C   UNL A   1      46.133  26.238  35.222  1.00  0.00     0.055 A 
ATOM     65  C   UNL A   1      47.320  28.122  34.306  1.00  0.00     0.041 A 
ATOM     66  F   UNL A   1      46.180  29.681  32.978  1.00  0.00    -0.206 F 
ATOM     67  C   UNL A   1      47.317  26.968  35.085  1.00  0.00     0.022 A 
BRANCH  64  68
ATOM     68  S   UNL A   1      46.083  24.788  36.312  1.00  0.00     0.124 S 
ATOM     69  O   UNL A   1      47.465  24.707  36.771  1.00  0.00    -0.237 OA
ATOM     70  O   UNL A   1      45.098  25.185  37.314  1.00  0.00    -0.237 OA
ATOM     71  O   UNL A   1      45.659  23.707  35.425  1.00  0.00    -0.744 OA
ENDBRANCH  64  68
ENDBRANCH  38  61
ENDBRANCH  12  13
ENDBRANCH   5   7
ENDBRANCH   2   3
ENDBRANCH   1   2
BRANCH   1  72
ATOM     72  C   UNL A   1      33.959  28.321  24.549  1.00  0.00     0.118 C 
BRANCH  72  73
ATOM     73  N   UNL A   1      34.063  27.771  23.204  1.00  0.00    -0.352 N 
ATOM     74  C   UNL A   1      33.382  26.758  22.580  1.00  0.00     0.252 C 
ATOM     75  H   UNL A   1      34.745  28.205  22.642  1.00  0.00     0.163 HD
ATOM     76  O   UNL A   1      33.639  26.489  21.411  1.00  0.00    -0.269 OA
BRANCH  74  77
ATOM     77  C   UNL A   1      32.298  26.031  23.269  1.00  0.00     0.061 A 
ATOM     78  C   UNL A   1      32.628  24.880  24.000  1.00  0.00     0.037 A 
ATOM     79  C   UNL A   1      30.978  26.513  23.269  1.00  0.00     0.072 A 
ATOM     80  C   UNL A   1      31.638  24.166  24.676  1.00  0.00     0.090 A 
ATOM     81  C   UNL A   1      30.018  25.844  24.043  1.00  0.00     0.061 A 
ATOM     82  Cl  UNL A   1      30.510  27.867  22.292  1.00  0.00    -0.082 Cl
ATOM     83  C   UNL A   1      30.352  24.687  24.758  1.00  0.00     0.044 A 
ATOM     84  Cl  UNL A   1      28.367  26.360  24.141  1.00  0.00    -0.083 Cl
BRANCH  80  85
ATOM     85  S   UNL A   1      32.092  22.544  25.251  1.00  0.00     0.261 S 
ATOM     86  O   UNL A   1      33.188  22.735  26.173  1.00  0.00    -0.201 OA
ATOM     87  O   UNL A   1      30.857  21.913  25.669  1.00  0.00    -0.201 OA
BRANCH  85  88
ATOM     88  N   UNL A   1      32.619  21.652  23.945  1.00  0.00    -0.280 N 
ATOM     89  H   UNL A   1      32.788  22.144  23.109  1.00  0.00     0.180 HD
BRANCH  88  90
ATOM     90  C   UNL A   1      32.846  20.250  23.922  1.00  0.00     0.052 A 
ATOM     91  C   UNL A   1      33.744  19.587  24.765  1.00  0.00     0.030 A 
ATOM     92  C   UNL A   1      32.182  19.536  22.921  1.00  0.00     0.069 A 
ATOM     93  C   UNL A   1      34.050  18.239  24.540  1.00  0.00     0.044 A 
ATOM     94  C   UNL A   1      32.488  18.196  22.709  1.00  0.00     0.160 A 
ATOM     95  C   UNL A   1      33.431  17.555  23.500  1.00  0.00     0.158 A 
ATOM     96  F   UNL A   1      31.889  17.544  21.703  1.00  0.00    -0.204 F 
ATOM     97  F   UNL A   1      33.759  16.280  23.256  1.00  0.00    -0.204 F 
ENDBRANCH  88  90
ENDBRANCH  85  88
ENDBRANCH  80  85
ENDBRANCH  74  77
ENDBRANCH  72  73
ENDBRANCH   1  72
TORSDOF 16
ENDMDL
