MODEL 1
REMARK VINA RESULT:     -10.3      0.000      0.000
REMARK SMILES CC(C)CN(C)/C=C\C(=O)NCCCNC(=O)c1ccc(-c2c3nc(c(-c4cc(S(=O)(=O)[O-])ccc4F)c4ccc([nH]4)c(-c4cc(S(=O)(=O)[O-])ccc4F)c4nc(c(-c5cc(S(=O)(=O)[O-])ccc5F)c5ccc2[nH]5)C=C4)C=C3)cc1
REMARK SMILES IDX 13 1 12 2 11 3 9 4 10 5 8 7 7 8 5 9 6 10 4 11 2 12 1 13 3 14
REMARK SMILES IDX 14 15 15 16 16 17 17 19 18 20 19 21 80 22 20 23 79 24 21 25
REMARK SMILES IDX 22 26 23 27 73 28 24 29 78 30 72 31 74 32 25 33 77 34 71 35
REMARK SMILES IDX 70 36 26 38 58 39 38 40 57 41 39 42 42 43 56 44 75 45 40 46
REMARK SMILES IDX 41 47 55 49 76 50 43 51 27 52 28 53 36 54 29 55 35 56 37 57
REMARK SMILES IDX 34 58 30 59 31 60 32 61 33 62 59 63 60 64 68 65 61 66 67 67
REMARK SMILES IDX 69 68 66 69 62 70 63 71 64 72 65 73 44 74 45 75 53 76 46 77
REMARK SMILES IDX 52 78 54 79 51 80 47 81 48 82 49 83 50 84
REMARK H PARENT 11 6 15 18 74 37 42 48
REMARK Flexibility Score: inf
ROOT
ATOM      1  C   UNL A   1      31.292  30.055  25.193  1.00  0.00     0.042 C 
ENDROOT
BRANCH   1   2
ATOM      2  C   UNL A   1      31.544  28.651  24.620  1.00  0.00     0.118 C 
BRANCH   2   3
ATOM      3  N   UNL A   1      31.035  27.533  25.400  1.00  0.00    -0.352 N 
ATOM      4  C   UNL A   1      31.680  26.558  26.100  1.00  0.00     0.245 C 
ATOM      5  O   UNL A   1      31.042  25.849  26.877  1.00  0.00    -0.270 OA
ATOM      6  H   UNL A   1      30.053  27.471  25.428  1.00  0.00     0.163 HD
BRANCH   4   7
ATOM      7  C   UNL A   1      33.144  26.403  26.025  1.00  0.00     0.088 C 
ATOM      8  C   UNL A   1      33.871  25.660  25.182  1.00  0.00     0.086 C 
BRANCH   8   9
ATOM      9  N   UNL A   1      33.562  24.802  24.137  1.00  0.00    -0.380 N 
ATOM     10  C   UNL A   1      33.616  25.298  22.758  1.00  0.00     0.143 C 
BRANCH   9  11
ATOM     11  C   UNL A   1      33.040  23.439  24.309  1.00  0.00     0.118 C 
BRANCH  11  12
ATOM     12  C   UNL A   1      33.943  22.284  23.869  1.00  0.00     0.002 C 
ATOM     13  C   UNL A   1      35.374  22.367  24.391  1.00  0.00     0.009 C 
ATOM     14  C   UNL A   1      33.292  20.987  24.380  1.00  0.00     0.009 C 
ENDBRANCH  11  12
ENDBRANCH   9  11
ENDBRANCH   8   9
ENDBRANCH   4   7
ENDBRANCH   2   3
ENDBRANCH   1   2
BRANCH   1  15
ATOM     15  C   UNL A   1      32.076  30.462  26.447  1.00  0.00     0.118 C 
BRANCH  15  16
ATOM     16  N   UNL A   1      32.142  31.904  26.586  1.00  0.00    -0.352 N 
ATOM     17  C   UNL A   1      32.979  32.670  27.360  1.00  0.00     0.251 C 
ATOM     18  H   UNL A   1      31.492  32.408  26.046  1.00  0.00     0.163 HD
ATOM     19  O   UNL A   1      32.630  33.818  27.629  1.00  0.00    -0.269 OA
BRANCH  17  20
ATOM     20  C   UNL A   1      34.283  32.165  27.871  1.00  0.00     0.039 A 
ATOM     21  C   UNL A   1      34.354  30.833  28.293  1.00  0.00     0.014 A 
ATOM     22  C   UNL A   1      35.382  33.006  28.088  1.00  0.00     0.014 A 
ATOM     23  C   UNL A   1      35.504  30.346  28.928  1.00  0.00     0.010 A 
ATOM     24  C   UNL A   1      36.549  32.506  28.691  1.00  0.00     0.010 A 
ATOM     25  C   UNL A   1      36.617  31.176  29.139  1.00  0.00    -0.014 A 
BRANCH  25  26
ATOM     26  C   UNL A   1      37.820  30.652  29.858  1.00  0.00     0.031 A 
ATOM     27  C   UNL A   1      38.100  31.052  31.286  1.00  0.00     0.074 A 
ATOM     28  C   UNL A   1      38.658  29.797  29.237  1.00  0.00     0.049 A 
ATOM     29  N   UNL A   1      39.080  30.683  32.075  1.00  0.00    -0.248 NA
ATOM     30  C   UNL A   1      37.162  32.001  31.903  1.00  0.00     0.031 C 
ATOM     31  C   UNL A   1      38.510  29.330  27.858  1.00  0.00     0.029 A 
ATOM     32  N   UNL A   1      39.793  29.162  29.682  1.00  0.00    -0.354 N 
ATOM     33  C   UNL A   1      38.877  31.350  33.280  1.00  0.00     0.074 A 
ATOM     34  C   UNL A   1      37.711  32.190  33.094  1.00  0.00     0.031 C 
ATOM     35  C   UNL A   1      39.501  28.468  27.579  1.00  0.00     0.029 A 
ATOM     36  C   UNL A   1      40.380  28.348  28.740  1.00  0.00     0.049 A 
ATOM     37  H   UNL A   1      40.154  29.280  30.591  1.00  0.00     0.167 HD
ATOM     38  C   UNL A   1      39.583  31.260  34.438  1.00  0.00     0.034 A 
ATOM     39  C   UNL A   1      41.499  27.596  28.795  1.00  0.00     0.034 A 
ATOM     40  C   UNL A   1      40.747  30.421  34.617  1.00  0.00     0.049 A 
ATOM     41  C   UNL A   1      42.297  27.553  30.075  1.00  0.00     0.074 A 
ATOM     42  C   UNL A   1      41.506  30.233  35.761  1.00  0.00     0.029 A 
ATOM     43  N   UNL A   1      41.330  29.641  33.627  1.00  0.00    -0.354 N 
ATOM     44  N   UNL A   1      42.066  28.162  31.216  1.00  0.00    -0.248 NA
ATOM     45  C   UNL A   1      43.501  26.711  30.079  1.00  0.00     0.031 C 
ATOM     46  C   UNL A   1      42.585  29.400  35.444  1.00  0.00     0.029 A 
ATOM     47  C   UNL A   1      42.457  29.001  34.124  1.00  0.00     0.049 A 
ATOM     48  H   UNL A   1      40.993  29.555  32.706  1.00  0.00     0.167 HD
ATOM     49  C   UNL A   1      43.079  27.748  32.079  1.00  0.00     0.074 A 
ATOM     50  C   UNL A   1      43.911  26.829  31.332  1.00  0.00     0.031 C 
ATOM     51  C   UNL A   1      43.295  28.096  33.373  1.00  0.00     0.034 A 
BRANCH  38  52
ATOM     52  C   UNL A   1      39.131  32.120  35.598  1.00  0.00     0.023 A 
ATOM     53  C   UNL A   1      39.562  33.450  35.746  1.00  0.00     0.031 A 
ATOM     54  C   UNL A   1      38.263  31.601  36.577  1.00  0.00     0.131 A 
ATOM     55  C   UNL A   1      39.187  34.189  36.879  1.00  0.00     0.055 A 
ATOM     56  C   UNL A   1      37.828  32.367  37.659  1.00  0.00     0.041 A 
ATOM     57  F   UNL A   1      37.828  30.333  36.501  1.00  0.00    -0.206 F 
ATOM     58  C   UNL A   1      38.303  33.665  37.825  1.00  0.00     0.022 A 
BRANCH  55  59
ATOM     59  S   UNL A   1      39.985  35.790  37.176  1.00  0.00     0.124 S 
ATOM     60  O   UNL A   1      41.358  35.386  37.470  1.00  0.00    -0.237 OA
ATOM     61  O   UNL A   1      39.782  36.483  35.906  1.00  0.00    -0.237 OA
ATOM     62  O   UNL A   1      39.247  36.338  38.310  1.00  0.00    -0.744 OA
ENDBRANCH  55  59
ENDBRANCH  38  52
BRANCH  39  63
ATOM     63  C   UNL A   1      41.953  26.831  27.597  1.00  0.00     0.023 A 
ATOM     64  C   UNL A   1      41.704  25.454  27.475  1.00  0.00     0.031 A 
ATOM     65  C   UNL A   1      42.690  27.460  26.577  1.00  0.00     0.131 A 
ATOM     66  C   UNL A   1      42.226  24.743  26.383  1.00  0.00     0.055 A 
ATOM     67  C   UNL A   1      43.160  26.758  25.466  1.00  0.00     0.041 A 
ATOM     68  F   UNL A   1      42.958  28.774  26.643  1.00  0.00    -0.206 F 
ATOM     69  C   UNL A   1      42.940  25.388  25.370  1.00  0.00     0.022 A 
BRANCH  66  70
ATOM     70  S   UNL A   1      42.033  22.939  26.347  1.00  0.00     0.124 S 
ATOM     71  O   UNL A   1      42.792  22.536  27.525  1.00  0.00    -0.237 OA
ATOM     72  O   UNL A   1      40.585  22.788  26.432  1.00  0.00    -0.237 OA
ATOM     73  O   UNL A   1      42.623  22.561  25.064  1.00  0.00    -0.744 OA
ENDBRANCH  66  70
ENDBRANCH  39  63
BRANCH  51  74
ATOM     74  C   UNL A   1      44.460  27.439  34.078  1.00  0.00     0.023 A 
ATOM     75  C   UNL A   1      44.318  26.226  34.775  1.00  0.00     0.031 A 
ATOM     76  C   UNL A   1      45.729  28.047  34.065  1.00  0.00     0.131 A 
ATOM     77  C   UNL A   1      45.410  25.688  35.477  1.00  0.00     0.055 A 
ATOM     78  C   UNL A   1      46.826  27.475  34.712  1.00  0.00     0.041 A 
ATOM     79  F   UNL A   1      45.924  29.207  33.419  1.00  0.00    -0.206 F 
ATOM     80  C   UNL A   1      46.667  26.297  35.435  1.00  0.00     0.022 A 
BRANCH  77  81
ATOM     81  S   UNL A   1      45.142  24.231  36.523  1.00  0.00     0.124 S 
ATOM     82  O   UNL A   1      46.508  23.792  36.788  1.00  0.00    -0.237 OA
ATOM     83  O   UNL A   1      44.421  24.791  37.662  1.00  0.00    -0.237 OA
ATOM     84  O   UNL A   1      44.358  23.337  35.673  1.00  0.00    -0.744 OA
ENDBRANCH  77  81
ENDBRANCH  51  74
ENDBRANCH  25  26
ENDBRANCH  17  20
ENDBRANCH  15  16
ENDBRANCH   1  15
TORSDOF 16
ENDMDL
MODEL 2
REMARK VINA RESULT:     -10.2      2.576      8.468
REMARK SMILES CC(C)CN(C)/C=C\C(=O)NCCCNC(=O)c1ccc(-c2c3nc(c(-c4cc(S(=O)(=O)[O-])ccc4F)c4ccc([nH]4)c(-c4cc(S(=O)(=O)[O-])ccc4F)c4nc(c(-c5cc(S(=O)(=O)[O-])ccc5F)c5ccc2[nH]5)C=C4)C=C3)cc1
REMARK SMILES IDX 13 1 12 2 11 3 9 4 10 5 8 7 7 8 5 9 6 10 4 11 2 12 1 13 3 14
REMARK SMILES IDX 14 15 15 16 16 17 17 19 18 20 19 21 80 22 20 23 79 24 21 25
REMARK SMILES IDX 22 26 23 27 73 28 24 29 78 30 72 31 74 32 25 33 77 34 71 35
REMARK SMILES IDX 70 36 26 38 58 39 38 40 57 41 39 42 42 43 56 44 75 45 40 46
REMARK SMILES IDX 41 47 55 49 76 50 43 51 27 52 28 53 36 54 29 55 35 56 37 57
REMARK SMILES IDX 34 58 30 59 31 60 32 61 33 62 59 63 60 64 68 65 61 66 67 67
REMARK SMILES IDX 69 68 66 69 62 70 63 71 64 72 65 73 44 74 45 75 53 76 46 77
REMARK SMILES IDX 52 78 54 79 51 80 47 81 48 82 49 83 50 84
REMARK H PARENT 11 6 15 18 74 37 42 48
REMARK Flexibility Score: inf
ROOT
ATOM      1  C   UNL A   1      31.471  32.187  26.624  1.00  0.00     0.042 C 
ENDROOT
BRANCH   1   2
ATOM      2  C   UNL A   1      31.543  30.766  26.043  1.00  0.00     0.118 C 
BRANCH   2   3
ATOM      3  N   UNL A   1      32.706  29.974  26.415  1.00  0.00    -0.352 N 
ATOM      4  C   UNL A   1      32.823  28.666  26.782  1.00  0.00     0.245 C 
ATOM      5  O   UNL A   1      33.938  28.149  26.828  1.00  0.00    -0.270 OA
ATOM      6  H   UNL A   1      33.557  30.468  26.398  1.00  0.00     0.163 HD
BRANCH   4   7
ATOM      7  C   UNL A   1      31.633  27.829  27.023  1.00  0.00     0.088 C 
ATOM      8  C   UNL A   1      31.141  26.830  26.281  1.00  0.00     0.086 C 
BRANCH   8   9
ATOM      9  N   UNL A   1      31.517  26.241  25.082  1.00  0.00    -0.380 N 
ATOM     10  C   UNL A   1      32.641  25.300  25.063  1.00  0.00     0.143 C 
BRANCH   9  11
ATOM     11  C   UNL A   1      30.952  26.594  23.771  1.00  0.00     0.118 C 
BRANCH  11  12
ATOM     12  C   UNL A   1      30.240  27.944  23.657  1.00  0.00     0.002 C 
ATOM     13  C   UNL A   1      30.800  28.864  22.577  1.00  0.00     0.009 C 
ATOM     14  C   UNL A   1      28.761  27.645  23.353  1.00  0.00     0.009 C 
ENDBRANCH  11  12
ENDBRANCH   9  11
ENDBRANCH   8   9
ENDBRANCH   4   7
ENDBRANCH   2   3
ENDBRANCH   1   2
BRANCH   1  15
ATOM     15  C   UNL A   1      32.697  32.707  27.384  1.00  0.00     0.118 C 
BRANCH  15  16
ATOM     16  N   UNL A   1      32.603  34.133  27.629  1.00  0.00    -0.352 N 
ATOM     17  C   UNL A   1      33.093  34.875  28.676  1.00  0.00     0.251 C 
ATOM     18  H   UNL A   1      32.116  34.645  26.944  1.00  0.00     0.163 HD
ATOM     19  O   UNL A   1      32.588  35.975  28.893  1.00  0.00    -0.269 OA
BRANCH  17  20
ATOM     20  C   UNL A   1      34.208  34.400  29.542  1.00  0.00     0.039 A 
ATOM     21  C   UNL A   1      35.506  34.430  29.019  1.00  0.00     0.014 A 
ATOM     22  C   UNL A   1      33.988  33.787  30.781  1.00  0.00     0.014 A 
ATOM     23  C   UNL A   1      36.571  33.852  29.722  1.00  0.00     0.010 A 
ATOM     24  C   UNL A   1      35.064  33.241  31.503  1.00  0.00     0.010 A 
ATOM     25  C   UNL A   1      36.366  33.247  30.973  1.00  0.00    -0.014 A 
BRANCH  25  26
ATOM     26  C   UNL A   1      37.506  32.597  31.689  1.00  0.00     0.031 A 
ATOM     27  C   UNL A   1      38.255  31.445  31.062  1.00  0.00     0.074 A 
ATOM     28  C   UNL A   1      37.889  33.049  32.900  1.00  0.00     0.049 A 
ATOM     29  N   UNL A   1      39.280  30.772  31.524  1.00  0.00    -0.248 NA
ATOM     30  C   UNL A   1      37.779  30.984  29.750  1.00  0.00     0.031 C 
ATOM     31  C   UNL A   1      37.253  34.151  33.624  1.00  0.00     0.029 A 
ATOM     32  N   UNL A   1      38.907  32.650  33.733  1.00  0.00    -0.354 N 
ATOM     33  C   UNL A   1      39.575  29.810  30.562  1.00  0.00     0.074 A 
ATOM     34  C   UNL A   1      38.581  29.955  29.517  1.00  0.00     0.031 C 
ATOM     35  C   UNL A   1      37.907  34.353  34.779  1.00  0.00     0.029 A 
ATOM     36  C   UNL A   1      38.984  33.373  34.902  1.00  0.00     0.049 A 
ATOM     37  H   UNL A   1      39.523  31.913  33.514  1.00  0.00     0.167 HD
ATOM     38  C   UNL A   1      40.588  28.904  30.539  1.00  0.00     0.034 A 
ATOM     39  C   UNL A   1      39.818  33.260  35.957  1.00  0.00     0.034 A 
ATOM     40  C   UNL A   1      41.576  28.763  31.584  1.00  0.00     0.049 A 
ATOM     41  C   UNL A   1      40.902  32.212  35.934  1.00  0.00     0.074 A 
ATOM     42  C   UNL A   1      42.661  27.903  31.636  1.00  0.00     0.029 A 
ATOM     43  N   UNL A   1      41.597  29.490  32.768  1.00  0.00    -0.354 N 
ATOM     44  N   UNL A   1      41.187  31.337  34.996  1.00  0.00    -0.248 NA
ATOM     45  C   UNL A   1      41.784  32.142  37.107  1.00  0.00     0.031 C 
ATOM     46  C   UNL A   1      43.291  28.056  32.875  1.00  0.00     0.029 A 
ATOM     47  C   UNL A   1      42.651  29.071  33.569  1.00  0.00     0.049 A 
ATOM     48  H   UNL A   1      40.956  30.199  33.005  1.00  0.00     0.167 HD
ATOM     49  C   UNL A   1      42.302  30.638  35.455  1.00  0.00     0.074 A 
ATOM     50  C   UNL A   1      42.644  31.202  36.744  1.00  0.00     0.031 C 
ATOM     51  C   UNL A   1      42.982  29.625  34.860  1.00  0.00     0.034 A 
BRANCH  38  52
ATOM     52  C   UNL A   1      40.657  27.966  29.353  1.00  0.00     0.023 A 
ATOM     53  C   UNL A   1      41.582  28.158  28.311  1.00  0.00     0.031 A 
ATOM     54  C   UNL A   1      39.781  26.869  29.257  1.00  0.00     0.131 A 
ATOM     55  C   UNL A   1      41.560  27.315  27.189  1.00  0.00     0.055 A 
ATOM     56  C   UNL A   1      39.819  25.986  28.177  1.00  0.00     0.041 A 
ATOM     57  F   UNL A   1      38.866  26.641  30.212  1.00  0.00    -0.206 F 
ATOM     58  C   UNL A   1      40.702  26.215  27.125  1.00  0.00     0.022 A 
BRANCH  55  59
ATOM     59  S   UNL A   1      42.568  27.761  25.748  1.00  0.00     0.124 S 
ATOM     60  O   UNL A   1      42.008  29.061  25.387  1.00  0.00    -0.237 OA
ATOM     61  O   UNL A   1      43.919  27.780  26.302  1.00  0.00    -0.237 OA
ATOM     62  O   UNL A   1      42.300  26.688  24.795  1.00  0.00    -0.744 OA
ENDBRANCH  55  59
ENDBRANCH  38  52
BRANCH  39  63
ATOM     63  C   UNL A   1      39.658  34.153  37.143  1.00  0.00     0.023 A 
ATOM     64  C   UNL A   1      39.083  33.684  38.336  1.00  0.00     0.031 A 
ATOM     65  C   UNL A   1      40.032  35.508  37.080  1.00  0.00     0.131 A 
ATOM     66  C   UNL A   1      38.858  34.572  39.400  1.00  0.00     0.055 A 
ATOM     67  C   UNL A   1      39.856  36.373  38.161  1.00  0.00     0.041 A 
ATOM     68  F   UNL A   1      40.585  36.009  35.964  1.00  0.00    -0.206 F 
ATOM     69  C   UNL A   1      39.255  35.909  39.326  1.00  0.00     0.022 A 
BRANCH  66  70
ATOM     70  S   UNL A   1      37.959  33.972  40.857  1.00  0.00     0.124 S 
ATOM     71  O   UNL A   1      36.854  33.244  40.244  1.00  0.00    -0.237 OA
ATOM     72  O   UNL A   1      38.971  33.163  41.526  1.00  0.00    -0.237 OA
ATOM     73  O   UNL A   1      37.586  35.202  41.554  1.00  0.00    -0.744 OA
ENDBRANCH  66  70
ENDBRANCH  39  63
BRANCH  51  74
ATOM     74  C   UNL A   1      44.197  29.091  35.584  1.00  0.00     0.023 A 
ATOM     75  C   UNL A   1      44.100  28.064  36.541  1.00  0.00     0.031 A 
ATOM     76  C   UNL A   1      45.469  29.631  35.324  1.00  0.00     0.131 A 
ATOM     77  C   UNL A   1      45.245  27.649  37.242  1.00  0.00     0.055 A 
ATOM     78  C   UNL A   1      46.613  29.171  35.979  1.00  0.00     0.041 A 
ATOM     79  F   UNL A   1      45.623  30.616  34.424  1.00  0.00    -0.206 F 
ATOM     80  C   UNL A   1      46.503  28.184  36.954  1.00  0.00     0.022 A 
BRANCH  77  81
ATOM     81  S   UNL A   1      45.053  26.465  38.602  1.00  0.00     0.124 S 
ATOM     82  O   UNL A   1      43.608  26.464  38.803  1.00  0.00    -0.237 OA
ATOM     83  O   UNL A   1      45.619  25.244  38.037  1.00  0.00    -0.237 OA
ATOM     84  O   UNL A   1      45.828  27.062  39.689  1.00  0.00    -0.744 OA
ENDBRANCH  77  81
ENDBRANCH  51  74
ENDBRANCH  25  26
ENDBRANCH  17  20
ENDBRANCH  15  16
ENDBRANCH   1  15
TORSDOF 16
ENDMDL
MODEL 3
REMARK VINA RESULT:     -10.2      5.040     10.245
REMARK SMILES CC(C)CN(C)/C=C\C(=O)NCCCNC(=O)c1ccc(-c2c3nc(c(-c4cc(S(=O)(=O)[O-])ccc4F)c4ccc([nH]4)c(-c4cc(S(=O)(=O)[O-])ccc4F)c4nc(c(-c5cc(S(=O)(=O)[O-])ccc5F)c5ccc2[nH]5)C=C4)C=C3)cc1
REMARK SMILES IDX 13 1 12 2 11 3 9 4 10 5 8 7 7 8 5 9 6 10 4 11 2 12 1 13 3 14
REMARK SMILES IDX 14 15 15 16 16 17 17 19 18 20 19 21 80 22 20 23 79 24 21 25
REMARK SMILES IDX 22 26 23 27 73 28 24 29 78 30 72 31 74 32 25 33 77 34 71 35
REMARK SMILES IDX 70 36 26 38 58 39 38 40 57 41 39 42 42 43 56 44 75 45 40 46
REMARK SMILES IDX 41 47 55 49 76 50 43 51 27 52 28 53 36 54 29 55 35 56 37 57
REMARK SMILES IDX 34 58 30 59 31 60 32 61 33 62 59 63 60 64 68 65 61 66 67 67
REMARK SMILES IDX 69 68 66 69 62 70 63 71 64 72 65 73 44 74 45 75 53 76 46 77
REMARK SMILES IDX 52 78 54 79 51 80 47 81 48 82 49 83 50 84
REMARK H PARENT 11 6 15 18 74 37 42 48
REMARK Flexibility Score: inf
ROOT
ATOM      1  C   UNL A   1      35.807  21.861  25.775  1.00  0.00     0.042 C 
ENDROOT
BRANCH   1   2
ATOM      2  C   UNL A   1      34.734  22.861  25.316  1.00  0.00     0.118 C 
BRANCH   2   3
ATOM      3  N   UNL A   1      34.156  22.631  24.001  1.00  0.00    -0.352 N 
ATOM      4  C   UNL A   1      33.077  21.897  23.610  1.00  0.00     0.245 C 
ATOM      5  O   UNL A   1      32.633  22.033  22.471  1.00  0.00    -0.270 OA
ATOM      6  H   UNL A   1      34.625  23.086  23.265  1.00  0.00     0.163 HD
BRANCH   4   7
ATOM      7  C   UNL A   1      32.364  21.019  24.557  1.00  0.00     0.088 C 
ATOM      8  C   UNL A   1      32.403  19.686  24.663  1.00  0.00     0.086 C 
BRANCH   8   9
ATOM      9  N   UNL A   1      33.065  18.681  23.973  1.00  0.00    -0.380 N 
ATOM     10  C   UNL A   1      32.499  18.176  22.717  1.00  0.00     0.143 C 
BRANCH   9  11
ATOM     11  C   UNL A   1      34.247  17.967  24.478  1.00  0.00     0.118 C 
BRANCH  11  12
ATOM     12  C   UNL A   1      34.118  16.455  24.677  1.00  0.00     0.002 C 
ATOM     13  C   UNL A   1      35.359  15.787  25.261  1.00  0.00     0.009 C 
ATOM     14  C   UNL A   1      32.927  16.229  25.625  1.00  0.00     0.009 C 
ENDBRANCH  11  12
ENDBRANCH   9  11
ENDBRANCH   8   9
ENDBRANCH   4   7
ENDBRANCH   2   3
ENDBRANCH   1   2
BRANCH   1  15
ATOM     15  C   UNL A   1      36.956  21.556  24.806  1.00  0.00     0.118 C 
BRANCH  15  16
ATOM     16  N   UNL A   1      37.814  20.505  25.316  1.00  0.00    -0.352 N 
ATOM     17  C   UNL A   1      39.066  20.593  25.875  1.00  0.00     0.251 C 
ATOM     18  H   UNL A   1      37.447  19.595  25.252  1.00  0.00     0.163 HD
ATOM     19  O   UNL A   1      39.768  19.583  25.885  1.00  0.00    -0.269 OA
BRANCH  17  20
ATOM     20  C   UNL A   1      39.592  21.853  26.469  1.00  0.00     0.039 A 
ATOM     21  C   UNL A   1      39.130  23.069  25.951  1.00  0.00     0.014 A 
ATOM     22  C   UNL A   1      40.632  21.865  27.406  1.00  0.00     0.014 A 
ATOM     23  C   UNL A   1      39.702  24.281  26.358  1.00  0.00     0.010 A 
ATOM     24  C   UNL A   1      41.179  23.085  27.842  1.00  0.00     0.010 A 
ATOM     25  C   UNL A   1      40.736  24.307  27.308  1.00  0.00    -0.014 A 
BRANCH  25  26
ATOM     26  C   UNL A   1      41.365  25.606  27.698  1.00  0.00     0.031 A 
ATOM     27  C   UNL A   1      42.778  25.936  27.282  1.00  0.00     0.074 A 
ATOM     28  C   UNL A   1      40.662  26.508  28.413  1.00  0.00     0.049 A 
ATOM     29  N   UNL A   1      43.480  27.020  27.510  1.00  0.00    -0.248 NA
ATOM     30  C   UNL A   1      43.499  24.906  26.521  1.00  0.00     0.031 C 
ATOM     31  C   UNL A   1      39.290  26.320  28.885  1.00  0.00     0.029 A 
ATOM     32  N   UNL A   1      40.997  27.764  28.861  1.00  0.00    -0.354 N 
ATOM     33  C   UNL A   1      44.723  26.805  26.920  1.00  0.00     0.074 A 
ATOM     34  C   UNL A   1      44.693  25.463  26.374  1.00  0.00     0.031 C 
ATOM     35  C   UNL A   1      38.894  27.426  29.536  1.00  0.00     0.029 A 
ATOM     36  C   UNL A   1      39.992  28.389  29.565  1.00  0.00     0.049 A 
ATOM     37  H   UNL A   1      41.875  28.178  28.696  1.00  0.00     0.167 HD
ATOM     38  C   UNL A   1      45.783  27.650  26.825  1.00  0.00     0.034 A 
ATOM     39  C   UNL A   1      39.955  29.594  30.172  1.00  0.00     0.034 A 
ATOM     40  C   UNL A   1      45.807  28.988  27.374  1.00  0.00     0.049 A 
ATOM     41  C   UNL A   1      41.163  30.495  30.099  1.00  0.00     0.074 A 
ATOM     42  C   UNL A   1      46.817  29.933  27.297  1.00  0.00     0.029 A 
ATOM     43  N   UNL A   1      44.783  29.569  28.110  1.00  0.00    -0.354 N 
ATOM     44  N   UNL A   1      42.315  30.287  29.503  1.00  0.00    -0.248 NA
ATOM     45  C   UNL A   1      41.062  31.797  30.772  1.00  0.00     0.031 C 
ATOM     46  C   UNL A   1      46.436  31.052  28.046  1.00  0.00     0.029 A 
ATOM     47  C   UNL A   1      45.152  30.841  28.524  1.00  0.00     0.049 A 
ATOM     48  H   UNL A   1      43.920  29.140  28.311  1.00  0.00     0.167 HD
ATOM     49  C   UNL A   1      43.060  31.448  29.703  1.00  0.00     0.074 A 
ATOM     50  C   UNL A   1      42.222  32.354  30.460  1.00  0.00     0.031 C 
ATOM     51  C   UNL A   1      44.321  31.738  29.292  1.00  0.00     0.034 A 
BRANCH  38  52
ATOM     52  C   UNL A   1      47.023  27.137  26.126  1.00  0.00     0.023 A 
ATOM     53  C   UNL A   1      48.017  26.419  26.814  1.00  0.00     0.031 A 
ATOM     54  C   UNL A   1      47.219  27.377  24.754  1.00  0.00     0.131 A 
ATOM     55  C   UNL A   1      49.191  26.033  26.149  1.00  0.00     0.055 A 
ATOM     56  C   UNL A   1      48.352  26.918  24.078  1.00  0.00     0.041 A 
ATOM     57  F   UNL A   1      46.314  28.069  24.044  1.00  0.00    -0.206 F 
ATOM     58  C   UNL A   1      49.355  26.255  24.780  1.00  0.00     0.022 A 
BRANCH  55  59
ATOM     59  S   UNL A   1      50.564  25.364  27.127  1.00  0.00     0.124 S 
ATOM     60  O   UNL A   1      49.894  24.321  27.901  1.00  0.00    -0.237 OA
ATOM     61  O   UNL A   1      51.488  24.899  26.097  1.00  0.00    -0.237 OA
ATOM     62  O   UNL A   1      51.023  26.510  27.906  1.00  0.00    -0.744 OA
ENDBRANCH  55  59
ENDBRANCH  38  52
BRANCH  39  63
ATOM     63  C   UNL A   1      38.739  30.022  30.923  1.00  0.00     0.023 A 
ATOM     64  C   UNL A   1      37.729  30.778  30.305  1.00  0.00     0.031 A 
ATOM     65  C   UNL A   1      38.595  29.723  32.291  1.00  0.00     0.131 A 
ATOM     66  C   UNL A   1      36.644  31.247  31.062  1.00  0.00     0.055 A 
ATOM     67  C   UNL A   1      37.485  30.147  33.026  1.00  0.00     0.041 A 
ATOM     68  F   UNL A   1      39.530  29.005  32.932  1.00  0.00    -0.206 F 
ATOM     69  C   UNL A   1      36.508  30.924  32.414  1.00  0.00     0.022 A 
BRANCH  66  70
ATOM     70  S   UNL A   1      35.451  32.363  30.272  1.00  0.00     0.124 S 
ATOM     71  O   UNL A   1      34.424  32.475  31.302  1.00  0.00    -0.237 OA
ATOM     72  O   UNL A   1      36.259  33.554  30.038  1.00  0.00    -0.237 OA
ATOM     73  O   UNL A   1      35.053  31.636  29.068  1.00  0.00    -0.744 OA
ENDBRANCH  66  70
ENDBRANCH  39  63
BRANCH  51  74
ATOM     74  C   UNL A   1      44.854  33.114  29.618  1.00  0.00     0.023 A 
ATOM     75  C   UNL A   1      45.571  33.373  30.801  1.00  0.00     0.031 A 
ATOM     76  C   UNL A   1      44.626  34.188  28.738  1.00  0.00     0.131 A 
ATOM     77  C   UNL A   1      45.984  34.682  31.098  1.00  0.00     0.055 A 
ATOM     78  C   UNL A   1      45.094  35.475  29.010  1.00  0.00     0.041 A 
ATOM     79  F   UNL A   1      43.945  34.003  27.596  1.00  0.00    -0.206 F 
ATOM     80  C   UNL A   1      45.765  35.731  30.202  1.00  0.00     0.022 A 
BRANCH  77  81
ATOM     81  S   UNL A   1      46.731  35.014  32.718  1.00  0.00     0.124 S 
ATOM     82  O   UNL A   1      45.926  34.178  33.601  1.00  0.00    -0.237 OA
ATOM     83  O   UNL A   1      48.112  34.587  32.519  1.00  0.00    -0.237 OA
ATOM     84  O   UNL A   1      46.547  36.455  32.891  1.00  0.00    -0.744 OA
ENDBRANCH  77  81
ENDBRANCH  51  74
ENDBRANCH  25  26
ENDBRANCH  17  20
ENDBRANCH  15  16
ENDBRANCH   1  15
TORSDOF 16
ENDMDL
