MODEL 1
REMARK VINA RESULT:     -12.2      0.000      0.000
REMARK SMILES O=C(COc1cc(-c2ccccc2)nc(NCc2ccc(Cl)c(Cl)c2)n1)NCCCNC(=O)c1ccc(-c2c3nc(c(-c4cc(S(=O)(=O)[O-])ccc4F)c4ccc([nH]4)c(-c4cc(S(=O)(=O)[O-])ccc4F)c4nc(c(-c5cc(S(=O)(=O)[O-])ccc5F)c5ccc2[nH]5)C=C4)C=C3)cc1
REMARK SMILES IDX 28 1 27 2 1 3 2 4 3 6 4 7 5 8 6 9 26 10 7 11 15 12 14 13
REMARK SMILES IDX 8 14 9 15 13 16 10 17 12 18 11 19 16 20 17 22 18 23 19 24
REMARK SMILES IDX 25 25 20 26 23 27 21 28 24 29 22 30 29 31 30 32 31 33 32 34
REMARK SMILES IDX 33 36 34 37 35 38 96 39 36 40 95 41 37 42 38 43 39 44 89 45
REMARK SMILES IDX 40 46 94 47 88 48 90 49 41 50 93 51 87 52 86 53 42 55 74 56
REMARK SMILES IDX 54 57 73 58 55 59 58 60 72 61 91 62 56 63 57 64 71 66 92 67
REMARK SMILES IDX 59 68 43 69 44 70 52 71 45 72 51 73 53 74 50 75 46 76 47 77
REMARK SMILES IDX 48 78 49 79 75 80 76 81 84 82 77 83 83 84 85 85 82 86 78 87
REMARK SMILES IDX 79 88 80 89 81 90 60 91 61 92 69 93 62 94 68 95 70 96 67 97
REMARK SMILES IDX 63 98 64 99 65 100 66 101
REMARK H PARENT 27 5 16 21 31 35 90 54 58 65
REMARK Flexibility Score: inf
ROOT
ATOM      1  C   UNL A   1      31.850  27.726  25.392  1.00  0.00     0.117 C 
ENDROOT
BRANCH   1   2
ATOM      2  N   UNL A   1      31.913  26.417  24.773  1.00  0.00    -0.353 N 
ATOM      3  O   UNL A   1      30.859  25.270  26.467  1.00  0.00    -0.271 OA
ATOM      4  C   UNL A   1      31.304  25.307  25.325  1.00  0.00     0.258 C 
ATOM      5  H   UNL A   1      32.409  26.316  23.929  1.00  0.00     0.163 HD
BRANCH   4   6
ATOM      6  C   UNL A   1      31.162  24.134  24.350  1.00  0.00     0.331 C 
BRANCH   6   7
ATOM      7  O   UNL A   1      31.030  22.860  24.981  1.00  0.00    -0.467 OA
BRANCH   7   8
ATOM      8  C   UNL A   1      32.176  22.102  24.936  1.00  0.00     0.219 A 
ATOM      9  C   UNL A   1      32.141  20.736  25.013  1.00  0.00     0.097 A 
ATOM     10  N   UNL A   1      33.292  22.786  24.656  1.00  0.00    -0.177 NA
ATOM     11  C   UNL A   1      33.331  20.077  24.808  1.00  0.00     0.080 A 
ATOM     12  C   UNL A   1      34.413  22.073  24.486  1.00  0.00     0.226 A 
ATOM     13  N   UNL A   1      34.479  20.737  24.570  1.00  0.00    -0.213 NA
BRANCH  11  14
ATOM     14  C   UNL A   1      33.378  18.609  24.813  1.00  0.00     0.000 A 
ATOM     15  C   UNL A   1      32.681  17.862  25.775  1.00  0.00     0.010 A 
ATOM     16  C   UNL A   1      34.081  17.908  23.813  1.00  0.00     0.010 A 
ATOM     17  C   UNL A   1      32.659  16.466  25.718  1.00  0.00     0.001 A 
ATOM     18  C   UNL A   1      34.063  16.514  23.757  1.00  0.00     0.001 A 
ATOM     19  C   UNL A   1      33.345  15.794  24.707  1.00  0.00     0.000 A 
ENDBRANCH  11  14
BRANCH  12  20
ATOM     20  N   UNL A   1      35.591  22.696  24.201  1.00  0.00    -0.350 N 
ATOM     21  H   UNL A   1      36.082  22.421  23.393  1.00  0.00     0.164 HD
BRANCH  20  22
ATOM     22  C   UNL A   1      36.153  23.732  25.018  1.00  0.00     0.152 C 
BRANCH  22  23
ATOM     23  C   UNL A   1      37.408  23.197  25.670  1.00  0.00    -0.027 A 
ATOM     24  C   UNL A   1      38.215  24.017  26.469  1.00  0.00     0.007 A 
ATOM     25  C   UNL A   1      37.804  21.871  25.431  1.00  0.00     0.027 A 
ATOM     26  C   UNL A   1      39.391  23.514  27.030  1.00  0.00     0.022 A 
ATOM     27  C   UNL A   1      38.981  21.367  25.992  1.00  0.00     0.060 A 
ATOM     28  C   UNL A   1      39.776  22.191  26.795  1.00  0.00     0.059 A 
ATOM     29  Cl  UNL A   1      39.398  19.725  25.649  1.00  0.00    -0.083 Cl
ATOM     30  Cl  UNL A   1      41.247  21.641  27.519  1.00  0.00    -0.083 Cl
ENDBRANCH  22  23
ENDBRANCH  20  22
ENDBRANCH  12  20
ENDBRANCH   7   8
ENDBRANCH   6   7
ENDBRANCH   4   6
ENDBRANCH   1   2
BRANCH   1  31
ATOM     31  C   UNL A   1      32.719  28.763  24.701  1.00  0.00     0.042 C 
BRANCH  31  32
ATOM     32  C   UNL A   1      33.773  29.395  25.602  1.00  0.00     0.118 C 
BRANCH  32  33
ATOM     33  N   UNL A   1      33.363  30.676  26.164  1.00  0.00    -0.352 N 
ATOM     34  C   UNL A   1      33.883  31.382  27.224  1.00  0.00     0.251 C 
ATOM     35  H   UNL A   1      32.596  31.102  25.715  1.00  0.00     0.163 HD
ATOM     36  O   UNL A   1      33.300  32.388  27.617  1.00  0.00    -0.269 OA
BRANCH  34  37
ATOM     37  C   UNL A   1      35.111  30.914  27.908  1.00  0.00     0.039 A 
ATOM     38  C   UNL A   1      36.202  31.782  28.005  1.00  0.00     0.014 A 
ATOM     39  C   UNL A   1      35.191  29.633  28.460  1.00  0.00     0.014 A 
ATOM     40  C   UNL A   1      37.335  31.399  28.727  1.00  0.00     0.010 A 
ATOM     41  C   UNL A   1      36.287  29.283  29.247  1.00  0.00     0.010 A 
ATOM     42  C   UNL A   1      37.368  30.164  29.395  1.00  0.00    -0.014 A 
BRANCH  42  43
ATOM     43  C   UNL A   1      38.517  29.779  30.260  1.00  0.00     0.031 A 
ATOM     44  C   UNL A   1      38.657  30.365  31.638  1.00  0.00     0.074 A 
ATOM     45  C   UNL A   1      39.473  28.959  29.776  1.00  0.00     0.049 A 
ATOM     46  N   UNL A   1      39.632  30.232  32.501  1.00  0.00    -0.248 NA
ATOM     47  C   UNL A   1      37.569  31.243  32.094  1.00  0.00     0.031 C 
ATOM     48  C   UNL A   1      39.473  28.355  28.441  1.00  0.00     0.029 A 
ATOM     49  N   UNL A   1      40.637  28.501  30.344  1.00  0.00    -0.354 N 
ATOM     50  C   UNL A   1      39.284  31.019  33.594  1.00  0.00     0.074 A 
ATOM     51  C   UNL A   1      38.037  31.673  33.255  1.00  0.00     0.031 C 
ATOM     52  C   UNL A   1      40.567  27.591  28.304  1.00  0.00     0.029 A 
ATOM     53  C   UNL A   1      41.375  27.688  29.514  1.00  0.00     0.049 A 
ATOM     54  H   UNL A   1      40.915  28.732  31.259  1.00  0.00     0.167 HD
ATOM     55  C   UNL A   1      39.931  31.165  34.777  1.00  0.00     0.034 A 
ATOM     56  C   UNL A   1      42.575  27.101  29.700  1.00  0.00     0.034 A 
ATOM     57  C   UNL A   1      41.168  30.497  35.104  1.00  0.00     0.049 A 
ATOM     58  C   UNL A   1      43.291  27.301  31.012  1.00  0.00     0.074 A 
ATOM     59  C   UNL A   1      41.879  30.533  36.291  1.00  0.00     0.029 A 
ATOM     60  N   UNL A   1      41.884  29.678  34.239  1.00  0.00    -0.354 N 
ATOM     61  N   UNL A   1      42.924  28.012  32.053  1.00  0.00    -0.248 NA
ATOM     62  C   UNL A   1      44.577  26.610  31.178  1.00  0.00     0.031 C 
ATOM     63  C   UNL A   1      43.056  29.796  36.122  1.00  0.00     0.029 A 
ATOM     64  C   UNL A   1      43.042  29.230  34.857  1.00  0.00     0.049 A 
ATOM     65  H   UNL A   1      41.609  29.450  33.322  1.00  0.00     0.167 HD
ATOM     66  C   UNL A   1      43.917  27.822  33.011  1.00  0.00     0.074 A 
ATOM     67  C   UNL A   1      44.893  26.925  32.426  1.00  0.00     0.031 C 
ATOM     68  C   UNL A   1      44.010  28.337  34.263  1.00  0.00     0.034 A 
BRANCH  55  69
ATOM     69  C   UNL A   1      39.323  32.105  35.792  1.00  0.00     0.023 A 
ATOM     70  C   UNL A   1      39.722  33.450  35.885  1.00  0.00     0.031 A 
ATOM     71  C   UNL A   1      38.347  31.647  36.694  1.00  0.00     0.131 A 
ATOM     72  C   UNL A   1      39.209  34.266  36.905  1.00  0.00     0.055 A 
ATOM     73  C   UNL A   1      37.776  32.488  37.653  1.00  0.00     0.041 A 
ATOM     74  F   UNL A   1      37.939  30.369  36.669  1.00  0.00    -0.206 F 
ATOM     75  C   UNL A   1      38.219  33.802  37.773  1.00  0.00     0.022 A 
BRANCH  72  76
ATOM     76  S   UNL A   1      39.966  35.892  37.174  1.00  0.00     0.124 S 
ATOM     77  O   UNL A   1      41.361  35.530  37.418  1.00  0.00    -0.237 OA
ATOM     78  O   UNL A   1      39.693  36.579  35.919  1.00  0.00    -0.237 OA
ATOM     79  O   UNL A   1      39.253  36.413  38.340  1.00  0.00    -0.744 OA
ENDBRANCH  72  76
ENDBRANCH  55  69
BRANCH  56  80
ATOM     80  C   UNL A   1      43.188  26.277  28.617  1.00  0.00     0.023 A 
ATOM     81  C   UNL A   1      44.166  26.814  27.766  1.00  0.00     0.031 A 
ATOM     82  C   UNL A   1      42.773  24.951  28.391  1.00  0.00     0.131 A 
ATOM     83  C   UNL A   1      44.662  26.050  26.699  1.00  0.00     0.055 A 
ATOM     84  C   UNL A   1      43.311  24.176  27.363  1.00  0.00     0.041 A 
ATOM     85  F   UNL A   1      41.844  24.387  29.179  1.00  0.00    -0.206 F 
ATOM     86  C   UNL A   1      44.251  24.729  26.500  1.00  0.00     0.022 A 
BRANCH  83  87
ATOM     87  S   UNL A   1      45.790  26.837  25.517  1.00  0.00     0.124 S 
ATOM     88  O   UNL A   1      46.086  25.734  24.610  1.00  0.00    -0.237 OA
ATOM     89  O   UNL A   1      44.962  27.910  24.977  1.00  0.00    -0.237 OA
ATOM     90  O   UNL A   1      46.906  27.276  26.354  1.00  0.00    -0.744 OA
ENDBRANCH  83  87
ENDBRANCH  56  80
BRANCH  68  91
ATOM     91  C   UNL A   1      45.180  27.893  35.107  1.00  0.00     0.023 A 
ATOM     92  C   UNL A   1      45.096  26.788  35.974  1.00  0.00     0.031 A 
ATOM     93  C   UNL A   1      46.399  28.590  35.041  1.00  0.00     0.131 A 
ATOM     94  C   UNL A   1      46.196  26.445  36.775  1.00  0.00     0.055 A 
ATOM     95  C   UNL A   1      47.508  28.208  35.796  1.00  0.00     0.041 A 
ATOM     96  F   UNL A   1      46.534  29.654  34.233  1.00  0.00    -0.206 F 
ATOM     97  C   UNL A   1      47.407  27.136  36.679  1.00  0.00     0.022 A 
BRANCH  94  98
ATOM     98  S   UNL A   1      46.001  25.130  38.009  1.00  0.00     0.124 S 
ATOM     99  O   UNL A   1      44.817  24.430  37.522  1.00  0.00    -0.237 OA
ATOM    100  O   UNL A   1      47.262  24.405  37.896  1.00  0.00    -0.237 OA
ATOM    101  O   UNL A   1      45.817  25.860  39.262  1.00  0.00    -0.744 OA
ENDBRANCH  94  98
ENDBRANCH  68  91
ENDBRANCH  42  43
ENDBRANCH  34  37
ENDBRANCH  32  33
ENDBRANCH  31  32
ENDBRANCH   1  31
TORSDOF 19
ENDMDL
MODEL 2
REMARK VINA RESULT:     -12.1      2.018      2.422
REMARK SMILES O=C(COc1cc(-c2ccccc2)nc(NCc2ccc(Cl)c(Cl)c2)n1)NCCCNC(=O)c1ccc(-c2c3nc(c(-c4cc(S(=O)(=O)[O-])ccc4F)c4ccc([nH]4)c(-c4cc(S(=O)(=O)[O-])ccc4F)c4nc(c(-c5cc(S(=O)(=O)[O-])ccc5F)c5ccc2[nH]5)C=C4)C=C3)cc1
REMARK SMILES IDX 28 1 27 2 1 3 2 4 3 6 4 7 5 8 6 9 26 10 7 11 15 12 14 13
REMARK SMILES IDX 8 14 9 15 13 16 10 17 12 18 11 19 16 20 17 22 18 23 19 24
REMARK SMILES IDX 25 25 20 26 23 27 21 28 24 29 22 30 29 31 30 32 31 33 32 34
REMARK SMILES IDX 33 36 34 37 35 38 96 39 36 40 95 41 37 42 38 43 39 44 89 45
REMARK SMILES IDX 40 46 94 47 88 48 90 49 41 50 93 51 87 52 86 53 42 55 74 56
REMARK SMILES IDX 54 57 73 58 55 59 58 60 72 61 91 62 56 63 57 64 71 66 92 67
REMARK SMILES IDX 59 68 43 69 44 70 52 71 45 72 51 73 53 74 50 75 46 76 47 77
REMARK SMILES IDX 48 78 49 79 75 80 76 81 84 82 77 83 83 84 85 85 82 86 78 87
REMARK SMILES IDX 79 88 80 89 81 90 60 91 61 92 69 93 62 94 68 95 70 96 67 97
REMARK SMILES IDX 63 98 64 99 65 100 66 101
REMARK H PARENT 27 5 16 21 31 35 90 54 58 65
REMARK Flexibility Score: inf
ROOT
ATOM      1  C   UNL A   1      31.758  27.552  25.529  1.00  0.00     0.117 C 
ENDROOT
BRANCH   1   2
ATOM      2  N   UNL A   1      31.509  26.157  25.227  1.00  0.00    -0.353 N 
ATOM      3  O   UNL A   1      29.966  26.516  23.558  1.00  0.00    -0.271 OA
ATOM      4  C   UNL A   1      30.705  25.758  24.177  1.00  0.00     0.258 C 
ATOM      5  H   UNL A   1      31.927  25.468  25.793  1.00  0.00     0.163 HD
BRANCH   4   6
ATOM      6  C   UNL A   1      30.873  24.284  23.798  1.00  0.00     0.331 C 
BRANCH   6   7
ATOM      7  O   UNL A   1      30.753  23.377  24.894  1.00  0.00    -0.467 OA
BRANCH   7   8
ATOM      8  C   UNL A   1      31.884  22.629  25.117  1.00  0.00     0.219 A 
ATOM      9  C   UNL A   1      31.993  21.338  24.676  1.00  0.00     0.097 A 
ATOM     10  N   UNL A   1      32.911  23.305  25.646  1.00  0.00    -0.177 NA
ATOM     11  C   UNL A   1      33.222  20.739  24.823  1.00  0.00     0.080 A 
ATOM     12  C   UNL A   1      34.070  22.646  25.770  1.00  0.00     0.226 A 
ATOM     13  N   UNL A   1      34.261  21.374  25.393  1.00  0.00    -0.213 NA
BRANCH  11  14
ATOM     14  C   UNL A   1      33.448  19.374  24.326  1.00  0.00     0.000 A 
ATOM     15  C   UNL A   1      32.564  18.775  23.417  1.00  0.00     0.010 A 
ATOM     16  C   UNL A   1      34.596  18.652  24.707  1.00  0.00     0.010 A 
ATOM     17  C   UNL A   1      32.835  17.513  22.882  1.00  0.00     0.001 A 
ATOM     18  C   UNL A   1      34.866  17.389  24.176  1.00  0.00     0.001 A 
ATOM     19  C   UNL A   1      33.987  16.824  23.258  1.00  0.00     0.000 A 
ENDBRANCH  11  14
BRANCH  12  20
ATOM     20  N   UNL A   1      35.161  23.263  26.304  1.00  0.00    -0.350 N 
ATOM     21  H   UNL A   1      35.272  23.254  27.282  1.00  0.00     0.164 HD
BRANCH  20  22
ATOM     22  C   UNL A   1      36.158  23.926  25.515  1.00  0.00     0.152 C 
BRANCH  22  23
ATOM     23  C   UNL A   1      37.516  23.395  25.915  1.00  0.00    -0.027 A 
ATOM     24  C   UNL A   1      37.921  22.102  25.563  1.00  0.00     0.007 A 
ATOM     25  C   UNL A   1      38.368  24.188  26.702  1.00  0.00     0.027 A 
ATOM     26  C   UNL A   1      39.163  21.616  25.976  1.00  0.00     0.022 A 
ATOM     27  C   UNL A   1      39.611  23.703  27.117  1.00  0.00     0.060 A 
ATOM     28  C   UNL A   1      40.010  22.414  26.752  1.00  0.00     0.059 A 
ATOM     29  Cl  UNL A   1      40.599  24.742  28.082  1.00  0.00    -0.083 Cl
ATOM     30  Cl  UNL A   1      41.529  21.743  27.231  1.00  0.00    -0.083 Cl
ENDBRANCH  22  23
ENDBRANCH  20  22
ENDBRANCH  12  20
ENDBRANCH   7   8
ENDBRANCH   6   7
ENDBRANCH   4   6
ENDBRANCH   1   2
BRANCH   1  31
ATOM     31  C   UNL A   1      33.066  27.787  26.265  1.00  0.00     0.042 C 
BRANCH  31  32
ATOM     32  C   UNL A   1      33.852  28.995  25.772  1.00  0.00     0.118 C 
BRANCH  32  33
ATOM     33  N   UNL A   1      33.367  30.261  26.308  1.00  0.00    -0.352 N 
ATOM     34  C   UNL A   1      33.920  31.086  27.259  1.00  0.00     0.251 C 
ATOM     35  H   UNL A   1      32.512  30.573  25.931  1.00  0.00     0.163 HD
ATOM     36  O   UNL A   1      33.275  32.050  27.663  1.00  0.00    -0.269 OA
BRANCH  34  37
ATOM     37  C   UNL A   1      35.260  30.796  27.818  1.00  0.00     0.039 A 
ATOM     38  C   UNL A   1      36.211  31.821  27.858  1.00  0.00     0.014 A 
ATOM     39  C   UNL A   1      35.583  29.529  28.309  1.00  0.00     0.014 A 
ATOM     40  C   UNL A   1      37.449  31.598  28.466  1.00  0.00     0.010 A 
ATOM     41  C   UNL A   1      36.785  29.332  28.987  1.00  0.00     0.010 A 
ATOM     42  C   UNL A   1      37.729  30.366  29.078  1.00  0.00    -0.014 A 
BRANCH  42  43
ATOM     43  C   UNL A   1      38.996  30.141  29.827  1.00  0.00     0.031 A 
ATOM     44  C   UNL A   1      39.177  30.725  31.202  1.00  0.00     0.074 A 
ATOM     45  C   UNL A   1      40.011  29.474  29.240  1.00  0.00     0.049 A 
ATOM     46  N   UNL A   1      40.236  30.724  31.971  1.00  0.00    -0.248 NA
ATOM     47  C   UNL A   1      38.021  31.431  31.775  1.00  0.00     0.031 C 
ATOM     48  C   UNL A   1      39.974  28.892  27.896  1.00  0.00     0.029 A 
ATOM     49  N   UNL A   1      41.275  29.182  29.690  1.00  0.00    -0.354 N 
ATOM     50  C   UNL A   1      39.881  31.440  33.110  1.00  0.00     0.074 A 
ATOM     51  C   UNL A   1      38.528  31.910  32.900  1.00  0.00     0.031 C 
ATOM     52  C   UNL A   1      41.149  28.296  27.642  1.00  0.00     0.029 A 
ATOM     53  C   UNL A   1      42.043  28.494  28.778  1.00  0.00     0.049 A 
ATOM     54  H   UNL A   1      41.601  29.440  30.582  1.00  0.00     0.167 HD
ATOM     55  C   UNL A   1      40.607  31.664  34.233  1.00  0.00     0.034 A 
ATOM     56  C   UNL A   1      43.326  28.084  28.841  1.00  0.00     0.034 A 
ATOM     57  C   UNL A   1      41.952  31.178  34.431  1.00  0.00     0.049 A 
ATOM     58  C   UNL A   1      44.124  28.371  30.089  1.00  0.00     0.074 A 
ATOM     59  C   UNL A   1      42.757  31.302  35.551  1.00  0.00     0.029 A 
ATOM     60  N   UNL A   1      42.695  30.482  33.487  1.00  0.00    -0.354 N 
ATOM     61  N   UNL A   1      43.756  29.008  31.175  1.00  0.00    -0.248 NA
ATOM     62  C   UNL A   1      45.505  27.871  30.121  1.00  0.00     0.031 C 
ATOM     63  C   UNL A   1      44.006  30.745  35.259  1.00  0.00     0.029 A 
ATOM     64  C   UNL A   1      43.957  30.198  33.987  1.00  0.00     0.049 A 
ATOM     65  H   UNL A   1      42.372  30.226  32.592  1.00  0.00     0.167 HD
ATOM     66  C   UNL A   1      44.850  28.953  32.036  1.00  0.00     0.074 A 
ATOM     67  C   UNL A   1      45.886  28.213  31.343  1.00  0.00     0.031 C 
ATOM     68  C   UNL A   1      44.983  29.462  33.287  1.00  0.00     0.034 A 
BRANCH  55  69
ATOM     69  C   UNL A   1      39.966  32.494  35.321  1.00  0.00     0.023 A 
ATOM     70  C   UNL A   1      39.248  31.902  36.376  1.00  0.00     0.031 A 
ATOM     71  C   UNL A   1      40.053  33.897  35.293  1.00  0.00     0.131 A 
ATOM     72  C   UNL A   1      38.582  32.709  37.311  1.00  0.00     0.055 A 
ATOM     73  C   UNL A   1      39.459  34.693  36.277  1.00  0.00     0.041 A 
ATOM     74  F   UNL A   1      40.706  34.522  34.302  1.00  0.00    -0.206 F 
ATOM     75  C   UNL A   1      38.704  34.099  37.284  1.00  0.00     0.022 A 
BRANCH  72  76
ATOM     76  S   UNL A   1      37.430  31.918  38.468  1.00  0.00     0.124 S 
ATOM     77  O   UNL A   1      38.190  31.963  39.716  1.00  0.00    -0.237 OA
ATOM     78  O   UNL A   1      36.264  32.790  38.398  1.00  0.00    -0.237 OA
ATOM     79  O   UNL A   1      37.245  30.581  37.907  1.00  0.00    -0.744 OA
ENDBRANCH  72  76
ENDBRANCH  55  69
BRANCH  56  80
ATOM     80  C   UNL A   1      43.948  27.370  27.688  1.00  0.00     0.023 A 
ATOM     81  C   UNL A   1      44.100  25.975  27.698  1.00  0.00     0.031 A 
ATOM     82  C   UNL A   1      44.440  28.079  26.576  1.00  0.00     0.131 A 
ATOM     83  C   UNL A   1      44.770  25.335  26.644  1.00  0.00     0.055 A 
ATOM     84  C   UNL A   1      45.055  27.432  25.503  1.00  0.00     0.041 A 
ATOM     85  F   UNL A   1      44.316  29.414  26.512  1.00  0.00    -0.206 F 
ATOM     86  C   UNL A   1      45.236  26.053  25.540  1.00  0.00     0.022 A 
BRANCH  83  87
ATOM     87  S   UNL A   1      45.103  23.557  26.778  1.00  0.00     0.124 S 
ATOM     88  O   UNL A   1      44.538  23.248  28.087  1.00  0.00    -0.237 OA
ATOM     89  O   UNL A   1      44.383  23.027  25.625  1.00  0.00    -0.237 OA
ATOM     90  O   UNL A   1      46.560  23.477  26.691  1.00  0.00    -0.744 OA
ENDBRANCH  83  87
ENDBRANCH  56  80
BRANCH  68  91
ATOM     91  C   UNL A   1      46.277  29.181  34.011  1.00  0.00     0.023 A 
ATOM     92  C   UNL A   1      46.446  28.044  34.823  1.00  0.00     0.031 A 
ATOM     93  C   UNL A   1      47.360  30.070  33.886  1.00  0.00     0.131 A 
ATOM     94  C   UNL A   1      47.651  27.854  35.516  1.00  0.00     0.055 A 
ATOM     95  C   UNL A   1      48.577  29.844  34.530  1.00  0.00     0.041 A 
ATOM     96  F   UNL A   1      47.254  31.172  33.127  1.00  0.00    -0.206 F 
ATOM     97  C   UNL A   1      48.724  28.737  35.361  1.00  0.00     0.022 A 
BRANCH  94  98
ATOM     98  S   UNL A   1      47.774  26.478  36.691  1.00  0.00     0.124 S 
ATOM     99  O   UNL A   1      49.071  25.902  36.350  1.00  0.00    -0.237 OA
ATOM    100  O   UNL A   1      47.698  27.159  37.979  1.00  0.00    -0.237 OA
ATOM    101  O   UNL A   1      46.620  25.642  36.364  1.00  0.00    -0.744 OA
ENDBRANCH  94  98
ENDBRANCH  68  91
ENDBRANCH  42  43
ENDBRANCH  34  37
ENDBRANCH  32  33
ENDBRANCH  31  32
ENDBRANCH   1  31
TORSDOF 19
ENDMDL
MODEL 3
REMARK VINA RESULT:     -12.0      4.988      8.117
REMARK SMILES O=C(COc1cc(-c2ccccc2)nc(NCc2ccc(Cl)c(Cl)c2)n1)NCCCNC(=O)c1ccc(-c2c3nc(c(-c4cc(S(=O)(=O)[O-])ccc4F)c4ccc([nH]4)c(-c4cc(S(=O)(=O)[O-])ccc4F)c4nc(c(-c5cc(S(=O)(=O)[O-])ccc5F)c5ccc2[nH]5)C=C4)C=C3)cc1
REMARK SMILES IDX 28 1 27 2 1 3 2 4 3 6 4 7 5 8 6 9 26 10 7 11 15 12 14 13
REMARK SMILES IDX 8 14 9 15 13 16 10 17 12 18 11 19 16 20 17 22 18 23 19 24
REMARK SMILES IDX 25 25 20 26 23 27 21 28 24 29 22 30 29 31 30 32 31 33 32 34
REMARK SMILES IDX 33 36 34 37 35 38 96 39 36 40 95 41 37 42 38 43 39 44 89 45
REMARK SMILES IDX 40 46 94 47 88 48 90 49 41 50 93 51 87 52 86 53 42 55 74 56
REMARK SMILES IDX 54 57 73 58 55 59 58 60 72 61 91 62 56 63 57 64 71 66 92 67
REMARK SMILES IDX 59 68 43 69 44 70 52 71 45 72 51 73 53 74 50 75 46 76 47 77
REMARK SMILES IDX 48 78 49 79 75 80 76 81 84 82 77 83 83 84 85 85 82 86 78 87
REMARK SMILES IDX 79 88 80 89 81 90 60 91 61 92 69 93 62 94 68 95 70 96 67 97
REMARK SMILES IDX 63 98 64 99 65 100 66 101
REMARK H PARENT 27 5 16 21 31 35 90 54 58 65
REMARK Flexibility Score: inf
ROOT
ATOM      1  C   UNL A   1      34.309  23.745  24.750  1.00  0.00     0.117 C 
ENDROOT
BRANCH   1   2
ATOM      2  N   UNL A   1      33.821  24.751  23.828  1.00  0.00    -0.353 N 
ATOM      3  O   UNL A   1      33.747  23.396  21.969  1.00  0.00    -0.271 OA
ATOM      4  C   UNL A   1      33.473  24.455  22.524  1.00  0.00     0.258 C 
ATOM      5  H   UNL A   1      33.736  25.680  24.142  1.00  0.00     0.163 HD
BRANCH   4   6
ATOM      6  C   UNL A   1      32.638  25.546  21.846  1.00  0.00     0.331 C 
BRANCH   6   7
ATOM      7  O   UNL A   1      31.347  25.741  22.423  1.00  0.00    -0.467 OA
BRANCH   7   8
ATOM      8  C   UNL A   1      31.205  26.953  23.056  1.00  0.00     0.219 A 
ATOM      9  C   UNL A   1      30.513  27.987  22.486  1.00  0.00     0.097 A 
ATOM     10  N   UNL A   1      31.651  26.986  24.317  1.00  0.00    -0.177 NA
ATOM     11  C   UNL A   1      30.307  29.097  23.271  1.00  0.00     0.080 A 
ATOM     12  C   UNL A   1      31.425  28.109  25.011  1.00  0.00     0.226 A 
ATOM     13  N   UNL A   1      30.782  29.180  24.526  1.00  0.00    -0.213 NA
BRANCH  11  14
ATOM     14  C   UNL A   1      29.524  30.232  22.763  1.00  0.00     0.000 A 
ATOM     15  C   UNL A   1      29.056  30.259  21.441  1.00  0.00     0.010 A 
ATOM     16  C   UNL A   1      29.172  31.300  23.612  1.00  0.00     0.010 A 
ATOM     17  C   UNL A   1      28.237  31.300  20.993  1.00  0.00     0.001 A 
ATOM     18  C   UNL A   1      28.358  32.342  23.165  1.00  0.00     0.001 A 
ATOM     19  C   UNL A   1      27.885  32.337  21.857  1.00  0.00     0.000 A 
ENDBRANCH  11  14
BRANCH  12  20
ATOM     20  N   UNL A   1      31.852  28.222  26.300  1.00  0.00    -0.350 N 
ATOM     21  H   UNL A   1      32.175  27.412  26.758  1.00  0.00     0.164 HD
BRANCH  20  22
ATOM     22  C   UNL A   1      31.856  29.459  27.025  1.00  0.00     0.152 C 
BRANCH  22  23
ATOM     23  C   UNL A   1      33.292  29.855  27.285  1.00  0.00    -0.027 A 
ATOM     24  C   UNL A   1      34.303  28.891  27.385  1.00  0.00     0.007 A 
ATOM     25  C   UNL A   1      33.615  31.208  27.484  1.00  0.00     0.027 A 
ATOM     26  C   UNL A   1      35.617  29.275  27.664  1.00  0.00     0.022 A 
ATOM     27  C   UNL A   1      34.929  31.593  27.765  1.00  0.00     0.060 A 
ATOM     28  C   UNL A   1      35.933  30.624  27.854  1.00  0.00     0.059 A 
ATOM     29  Cl  UNL A   1      35.241  33.276  27.997  1.00  0.00    -0.083 Cl
ATOM     30  Cl  UNL A   1      37.578  31.022  28.202  1.00  0.00    -0.083 Cl
ENDBRANCH  22  23
ENDBRANCH  20  22
ENDBRANCH  12  20
ENDBRANCH   7   8
ENDBRANCH   6   7
ENDBRANCH   4   6
ENDBRANCH   1   2
BRANCH   1  31
ATOM     31  C   UNL A   1      35.824  23.694  24.842  1.00  0.00     0.042 C 
BRANCH  31  32
ATOM     32  C   UNL A   1      36.351  23.098  26.142  1.00  0.00     0.118 C 
BRANCH  32  33
ATOM     33  N   UNL A   1      37.273  21.989  25.939  1.00  0.00    -0.352 N 
ATOM     34  C   UNL A   1      38.640  21.938  26.090  1.00  0.00     0.251 C 
ATOM     35  H   UNL A   1      36.854  21.145  25.650  1.00  0.00     0.163 HD
ATOM     36  O   UNL A   1      39.244  20.929  25.737  1.00  0.00    -0.269 OA
BRANCH  34  37
ATOM     37  C   UNL A   1      39.379  23.100  26.635  1.00  0.00     0.039 A 
ATOM     38  C   UNL A   1      40.318  22.887  27.649  1.00  0.00     0.014 A 
ATOM     39  C   UNL A   1      39.160  24.392  26.151  1.00  0.00     0.014 A 
ATOM     40  C   UNL A   1      41.095  23.952  28.113  1.00  0.00     0.010 A 
ATOM     41  C   UNL A   1      39.990  25.436  26.556  1.00  0.00     0.010 A 
ATOM     42  C   UNL A   1      40.971  25.227  27.537  1.00  0.00    -0.014 A 
BRANCH  42  43
ATOM     43  C   UNL A   1      41.862  26.350  27.937  1.00  0.00     0.031 A 
ATOM     44  C   UNL A   1      41.365  27.414  28.877  1.00  0.00     0.074 A 
ATOM     45  C   UNL A   1      43.094  26.451  27.395  1.00  0.00     0.049 A 
ATOM     46  N   UNL A   1      41.951  28.518  29.265  1.00  0.00    -0.248 NA
ATOM     47  C   UNL A   1      40.015  27.226  29.428  1.00  0.00     0.031 C 
ATOM     48  C   UNL A   1      43.679  25.505  26.443  1.00  0.00     0.029 A 
ATOM     49  N   UNL A   1      44.072  27.402  27.558  1.00  0.00    -0.354 N 
ATOM     50  C   UNL A   1      41.039  29.163  30.093  1.00  0.00     0.074 A 
ATOM     51  C   UNL A   1      39.838  28.354  30.099  1.00  0.00     0.031 C 
ATOM     52  C   UNL A   1      44.919  25.910  26.125  1.00  0.00     0.029 A 
ATOM     53  C   UNL A   1      45.202  27.168  26.806  1.00  0.00     0.049 A 
ATOM     54  H   UNL A   1      43.975  28.176  28.157  1.00  0.00     0.167 HD
ATOM     55  C   UNL A   1      41.195  30.310  30.800  1.00  0.00     0.034 A 
ATOM     56  C   UNL A   1      46.330  27.893  26.667  1.00  0.00     0.034 A 
ATOM     57  C   UNL A   1      42.404  31.099  30.792  1.00  0.00     0.049 A 
ATOM     58  C   UNL A   1      46.471  29.181  27.439  1.00  0.00     0.074 A 
ATOM     59  C   UNL A   1      42.687  32.248  31.512  1.00  0.00     0.029 A 
ATOM     60  N   UNL A   1      43.528  30.830  30.021  1.00  0.00    -0.354 N 
ATOM     61  N   UNL A   1      45.615  29.752  28.255  1.00  0.00    -0.248 NA
ATOM     62  C   UNL A   1      47.734  29.915  27.281  1.00  0.00     0.031 C 
ATOM     63  C   UNL A   1      43.949  32.709  31.125  1.00  0.00     0.029 A 
ATOM     64  C   UNL A   1      44.492  31.805  30.226  1.00  0.00     0.049 A 
ATOM     65  H   UNL A   1      43.625  30.057  29.418  1.00  0.00     0.167 HD
ATOM     66  C   UNL A   1      46.253  30.893  28.736  1.00  0.00     0.074 A 
ATOM     67  C   UNL A   1      47.566  30.923  28.124  1.00  0.00     0.031 C 
ATOM     68  C   UNL A   1      45.797  31.827  29.608  1.00  0.00     0.034 A 
BRANCH  55  69
ATOM     69  C   UNL A   1      40.019  30.790  31.618  1.00  0.00     0.023 A 
ATOM     70  C   UNL A   1      39.149  31.789  31.146  1.00  0.00     0.031 A 
ATOM     71  C   UNL A   1      39.774  30.259  32.896  1.00  0.00     0.131 A 
ATOM     72  C   UNL A   1      38.129  32.281  31.974  1.00  0.00     0.055 A 
ATOM     73  C   UNL A   1      38.704  30.692  33.683  1.00  0.00     0.041 A 
ATOM     74  F   UNL A   1      40.580  29.317  33.411  1.00  0.00    -0.206 F 
ATOM     75  C   UNL A   1      37.883  31.721  33.228  1.00  0.00     0.022 A 
BRANCH  72  76
ATOM     76  S   UNL A   1      37.228  33.764  31.447  1.00  0.00     0.124 S 
ATOM     77  O   UNL A   1      37.576  34.711  32.504  1.00  0.00    -0.237 OA
ATOM     78  O   UNL A   1      37.800  34.032  30.134  1.00  0.00    -0.237 OA
ATOM     79  O   UNL A   1      35.831  33.332  31.443  1.00  0.00    -0.744 OA
ENDBRANCH  72  76
ENDBRANCH  55  69
BRANCH  56  80
ATOM     80  C   UNL A   1      47.415  27.433  25.752  1.00  0.00     0.023 A 
ATOM     81  C   UNL A   1      47.458  27.852  24.413  1.00  0.00     0.031 A 
ATOM     82  C   UNL A   1      48.402  26.533  26.193  1.00  0.00     0.131 A 
ATOM     83  C   UNL A   1      48.435  27.335  23.548  1.00  0.00     0.055 A 
ATOM     84  C   UNL A   1      49.406  26.065  25.344  1.00  0.00     0.041 A 
ATOM     85  F   UNL A   1      48.411  26.104  27.466  1.00  0.00    -0.206 F 
ATOM     86  C   UNL A   1      49.418  26.455  24.008  1.00  0.00     0.022 A 
BRANCH  83  87
ATOM     87  S   UNL A   1      48.350  27.762  21.788  1.00  0.00     0.124 S 
ATOM     88  O   UNL A   1      46.992  28.283  21.674  1.00  0.00    -0.237 OA
ATOM     89  O   UNL A   1      49.426  28.739  21.661  1.00  0.00    -0.237 OA
ATOM     90  O   UNL A   1      48.589  26.486  21.117  1.00  0.00    -0.744 OA
ENDBRANCH  83  87
ENDBRANCH  56  80
BRANCH  68  91
ATOM     91  C   UNL A   1      46.752  32.929  30.001  1.00  0.00     0.023 A 
ATOM     92  C   UNL A   1      46.822  34.141  29.292  1.00  0.00     0.031 A 
ATOM     93  C   UNL A   1      47.606  32.758  31.105  1.00  0.00     0.131 A 
ATOM     94  C   UNL A   1      47.762  35.114  29.665  1.00  0.00     0.055 A 
ATOM     95  C   UNL A   1      48.496  33.753  31.508  1.00  0.00     0.041 A 
ATOM     96  F   UNL A   1      47.582  31.620  31.816  1.00  0.00    -0.206 F 
ATOM     97  C   UNL A   1      48.587  34.936  30.780  1.00  0.00     0.022 A 
BRANCH  94  98
ATOM     98  S   UNL A   1      47.952  36.589  28.626  1.00  0.00     0.124 S 
ATOM     99  O   UNL A   1      46.565  36.959  28.367  1.00  0.00    -0.237 OA
ATOM    100  O   UNL A   1      48.701  37.490  29.495  1.00  0.00    -0.237 OA
ATOM    101  O   UNL A   1      48.689  36.096  27.463  1.00  0.00    -0.744 OA
ENDBRANCH  94  98
ENDBRANCH  68  91
ENDBRANCH  42  43
ENDBRANCH  34  37
ENDBRANCH  32  33
ENDBRANCH  31  32
ENDBRANCH   1  31
TORSDOF 19
ENDMDL
