MODEL 1
REMARK VINA RESULT:     -13.4      0.000      0.000
REMARK SMILES CCc1ccccc1NC(=O)c1cc(S(=O)(=O)N2CCC[C@H](C(=O)NCCCNC(=O)c3ccc(-c4c5nc(c(-c6cc(S(=O)(=O)[O-])ccc6F)c6ccc([nH]6)c(-c6cc(S(=O)(=O)[O-])ccc6F)c6nc(c(-c7cc(S(=O)(=O)[O-])ccc7F)c7ccc4[nH]7)C=C6)C=C5)cc3)C2)ccc1F
REMARK SMILES IDX 26 1 25 2 23 3 24 4 22 6 18 7 19 8 95 9 20 10 21 11 15 12
REMARK SMILES IDX 16 13 17 14 14 15 12 16 13 17 98 18 97 19 99 20 96 21 10 22
REMARK SMILES IDX 9 23 11 25 8 26 3 27 4 28 5 29 7 30 6 31 2 32 1 33 27 34
REMARK SMILES IDX 28 35 29 36 30 37 31 39 32 40 33 41 94 42 34 43 93 44 35 45
REMARK SMILES IDX 36 46 37 47 87 48 38 49 92 50 86 51 88 52 39 53 91 54 85 55
REMARK SMILES IDX 84 56 40 58 72 59 52 60 71 61 53 62 56 63 70 64 89 65 54 66
REMARK SMILES IDX 55 67 69 69 90 70 57 71 41 72 42 73 50 74 43 75 49 76 51 77
REMARK SMILES IDX 48 78 44 79 45 80 46 81 47 82 73 83 74 84 82 85 75 86 81 87
REMARK SMILES IDX 83 88 80 89 76 90 77 91 78 92 79 93 58 94 59 95 67 96 60 97
REMARK SMILES IDX 66 98 68 99 65 100 61 101 62 102 63 103 64 104
REMARK H PARENT 25 5 9 24 29 38 88 57 56 68
REMARK Flexibility Score: inf
ROOT
ATOM      1  C   UNL A   1      31.850  30.462  26.661  1.00  0.00     0.117 C 
ENDROOT
BRANCH   1   2
ATOM      2  N   UNL A   1      31.612  30.054  25.291  1.00  0.00    -0.356 N 
ATOM      3  C   UNL A   1      31.810  28.889  24.632  1.00  0.00     0.224 C 
ATOM      4  O   UNL A   1      31.481  28.874  23.439  1.00  0.00    -0.275 OA
ATOM      5  H   UNL A   1      31.229  30.766  24.727  1.00  0.00     0.163 HD
BRANCH   3   6
ATOM      6  C   UNL A   1      32.419  27.626  25.242  1.00  0.00     0.093 C 
ATOM      7  N   UNL A   1      32.315  25.497  23.879  1.00  0.00    -0.197 NA
ATOM      8  C   UNL A   1      31.374  24.864  24.823  1.00  0.00     0.102 C 
ATOM      9  C   UNL A   1      33.108  26.687  24.273  1.00  0.00     0.116 C 
ATOM     10  C   UNL A   1      30.663  25.850  25.732  1.00  0.00     0.018 C 
ATOM     11  C   UNL A   1      31.560  26.933  26.292  1.00  0.00     0.016 C 
BRANCH   7  12
ATOM     12  S   UNL A   1      33.016  24.488  22.702  1.00  0.00     0.243 S 
ATOM     13  O   UNL A   1      33.734  25.325  21.770  1.00  0.00    -0.207 OA
ATOM     14  O   UNL A   1      32.004  23.548  22.263  1.00  0.00    -0.207 OA
BRANCH  12  15
ATOM     15  C   UNL A   1      34.249  23.520  23.548  1.00  0.00     0.083 A 
ATOM     16  C   UNL A   1      34.694  21.764  25.132  1.00  0.00     0.077 A 
ATOM     17  C   UNL A   1      33.775  22.522  24.404  1.00  0.00     0.038 A 
ATOM     18  C   UNL A   1      36.065  21.919  24.929  1.00  0.00     0.136 A 
ATOM     19  C   UNL A   1      36.535  22.922  24.090  1.00  0.00     0.041 A 
ATOM     20  F   UNL A   1      36.954  21.158  25.581  1.00  0.00    -0.206 F 
ATOM     21  C   UNL A   1      35.627  23.741  23.419  1.00  0.00     0.025 A 
BRANCH  16  22
ATOM     22  C   UNL A   1      34.180  20.878  26.179  1.00  0.00     0.258 C 
ATOM     23  N   UNL A   1      33.587  19.672  25.870  1.00  0.00    -0.322 N 
ATOM     24  H   UNL A   1      33.202  19.204  26.645  1.00  0.00     0.170 HD
ATOM     25  O   UNL A   1      34.276  21.245  27.349  1.00  0.00    -0.269 OA
BRANCH  23  26
ATOM     26  C   UNL A   1      33.429  18.983  24.644  1.00  0.00     0.044 A 
ATOM     27  C   UNL A   1      34.292  17.910  24.344  1.00  0.00    -0.025 A 
ATOM     28  C   UNL A   1      34.045  17.125  23.200  1.00  0.00     0.006 A 
ATOM     29  C   UNL A   1      32.995  17.422  22.335  1.00  0.00     0.000 A 
ATOM     30  C   UNL A   1      32.449  19.327  23.703  1.00  0.00     0.026 A 
ATOM     31  C   UNL A   1      32.216  18.543  22.571  1.00  0.00     0.002 A 
BRANCH  27  32
ATOM     32  C   UNL A   1      35.527  17.584  25.155  1.00  0.00     0.034 C 
ATOM     33  C   UNL A   1      35.590  16.088  25.434  1.00  0.00     0.009 C 
ENDBRANCH  27  32
ENDBRANCH  23  26
ENDBRANCH  16  22
ENDBRANCH  12  15
ENDBRANCH   7  12
ENDBRANCH   3   6
ENDBRANCH   1   2
BRANCH   1  34
ATOM     34  C   UNL A   1      31.643  31.957  26.852  1.00  0.00     0.042 C 
BRANCH  34  35
ATOM     35  C   UNL A   1      32.903  32.683  27.277  1.00  0.00     0.118 C 
BRANCH  35  36
ATOM     36  N   UNL A   1      32.632  34.040  27.729  1.00  0.00    -0.352 N 
ATOM     37  C   UNL A   1      33.161  34.749  28.780  1.00  0.00     0.251 C 
ATOM     38  H   UNL A   1      31.961  34.526  27.199  1.00  0.00     0.163 HD
ATOM     39  O   UNL A   1      32.650  35.822  29.090  1.00  0.00    -0.269 OA
BRANCH  37  40
ATOM     40  C   UNL A   1      34.310  34.221  29.548  1.00  0.00     0.039 A 
ATOM     41  C   UNL A   1      34.058  33.468  30.698  1.00  0.00     0.014 A 
ATOM     42  C   UNL A   1      35.628  34.470  29.159  1.00  0.00     0.014 A 
ATOM     43  C   UNL A   1      35.124  32.921  31.417  1.00  0.00     0.010 A 
ATOM     44  C   UNL A   1      36.680  33.830  29.807  1.00  0.00     0.010 A 
ATOM     45  C   UNL A   1      36.442  33.064  30.955  1.00  0.00    -0.014 A 
BRANCH  45  46
ATOM     46  C   UNL A   1      37.582  32.445  31.679  1.00  0.00     0.031 A 
ATOM     47  C   UNL A   1      38.347  31.309  31.051  1.00  0.00     0.074 A 
ATOM     48  C   UNL A   1      37.894  32.876  32.917  1.00  0.00     0.049 A 
ATOM     49  N   UNL A   1      39.341  30.612  31.537  1.00  0.00    -0.248 NA
ATOM     50  C   UNL A   1      37.909  30.874  29.715  1.00  0.00     0.031 C 
ATOM     51  C   UNL A   1      37.183  33.929  33.649  1.00  0.00     0.029 A 
ATOM     52  N   UNL A   1      38.886  32.488  33.780  1.00  0.00    -0.354 N 
ATOM     53  C   UNL A   1      39.636  29.649  30.576  1.00  0.00     0.074 A 
ATOM     54  C   UNL A   1      38.663  29.805  29.516  1.00  0.00     0.031 C 
ATOM     55  C   UNL A   1      37.790  34.132  34.829  1.00  0.00     0.029 A 
ATOM     56  C   UNL A   1      38.901  33.196  34.961  1.00  0.00     0.049 A 
ATOM     57  H   UNL A   1      39.528  31.771  33.574  1.00  0.00     0.167 HD
ATOM     58  C   UNL A   1      40.642  28.741  30.563  1.00  0.00     0.034 A 
ATOM     59  C   UNL A   1      39.719  33.100  36.026  1.00  0.00     0.034 A 
ATOM     60  C   UNL A   1      41.615  28.619  31.622  1.00  0.00     0.049 A 
ATOM     61  C   UNL A   1      40.836  32.089  35.986  1.00  0.00     0.074 A 
ATOM     62  C   UNL A   1      42.712  27.778  31.694  1.00  0.00     0.029 A 
ATOM     63  N   UNL A   1      41.607  29.360  32.798  1.00  0.00    -0.354 N 
ATOM     64  N   UNL A   1      41.137  31.226  35.043  1.00  0.00    -0.248 NA
ATOM     65  C   UNL A   1      41.734  32.054  37.146  1.00  0.00     0.031 C 
ATOM     66  C   UNL A   1      43.325  27.963  32.938  1.00  0.00     0.029 A 
ATOM     67  C   UNL A   1      42.661  28.976  33.612  1.00  0.00     0.049 A 
ATOM     68  H   UNL A   1      40.948  30.057  33.020  1.00  0.00     0.167 HD
ATOM     69  C   UNL A   1      42.276  30.561  35.488  1.00  0.00     0.074 A 
ATOM     70  C   UNL A   1      42.621  31.146  36.768  1.00  0.00     0.031 C 
ATOM     71  C   UNL A   1      42.976  29.557  34.896  1.00  0.00     0.034 A 
BRANCH  58  72
ATOM     72  C   UNL A   1      40.721  27.806  29.378  1.00  0.00     0.023 A 
ATOM     73  C   UNL A   1      41.673  27.982  28.358  1.00  0.00     0.031 A 
ATOM     74  C   UNL A   1      39.809  26.743  29.245  1.00  0.00     0.131 A 
ATOM     75  C   UNL A   1      41.640  27.167  27.215  1.00  0.00     0.055 A 
ATOM     76  C   UNL A   1      39.837  25.880  28.147  1.00  0.00     0.041 A 
ATOM     77  F   UNL A   1      38.863  26.534  30.173  1.00  0.00    -0.206 F 
ATOM     78  C   UNL A   1      40.746  26.100  27.115  1.00  0.00     0.022 A 
BRANCH  75  79
ATOM     79  S   UNL A   1      42.677  27.619  25.797  1.00  0.00     0.124 S 
ATOM     80  O   UNL A   1      42.355  29.035  25.636  1.00  0.00    -0.237 OA
ATOM     81  O   UNL A   1      44.020  27.321  26.282  1.00  0.00    -0.237 OA
ATOM     82  O   UNL A   1      42.192  26.751  24.726  1.00  0.00    -0.744 OA
ENDBRANCH  75  79
ENDBRANCH  58  72
BRANCH  59  83
ATOM     83  C   UNL A   1      39.523  33.981  37.214  1.00  0.00     0.023 A 
ATOM     84  C   UNL A   1      38.924  33.492  38.386  1.00  0.00     0.031 A 
ATOM     85  C   UNL A   1      39.897  35.336  37.182  1.00  0.00     0.131 A 
ATOM     86  C   UNL A   1      38.673  34.361  39.459  1.00  0.00     0.055 A 
ATOM     87  C   UNL A   1      39.694  36.184  38.272  1.00  0.00     0.041 A 
ATOM     88  F   UNL A   1      40.480  35.854  36.090  1.00  0.00    -0.206 F 
ATOM     89  C   UNL A   1      39.065  35.700  39.415  1.00  0.00     0.022 A 
BRANCH  86  90
ATOM     90  S   UNL A   1      37.743  33.734  40.886  1.00  0.00     0.124 S 
ATOM     91  O   UNL A   1      36.584  33.127  40.242  1.00  0.00    -0.237 OA
ATOM     92  O   UNL A   1      38.699  32.813  41.490  1.00  0.00    -0.237 OA
ATOM     93  O   UNL A   1      37.464  34.940  41.665  1.00  0.00    -0.744 OA
ENDBRANCH  86  90
ENDBRANCH  59  83
BRANCH  71  94
ATOM     94  C   UNL A   1      44.200  29.063  35.627  1.00  0.00     0.023 A 
ATOM     95  C   UNL A   1      44.114  28.075  36.624  1.00  0.00     0.031 A 
ATOM     96  C   UNL A   1      45.463  29.615  35.351  1.00  0.00     0.131 A 
ATOM     97  C   UNL A   1      45.255  27.726  37.361  1.00  0.00     0.055 A 
ATOM     98  C   UNL A   1      46.608  29.210  36.037  1.00  0.00     0.041 A 
ATOM     99  F   UNL A   1      45.605  30.563  34.410  1.00  0.00    -0.206 F 
ATOM    100  C   UNL A   1      46.505  28.274  37.062  1.00  0.00     0.022 A 
BRANCH  97 101
ATOM    101  S   UNL A   1      45.058  26.637  38.798  1.00  0.00     0.124 S 
ATOM    102  O   UNL A   1      45.861  25.481  38.413  1.00  0.00    -0.237 OA
ATOM    103  O   UNL A   1      45.593  27.452  39.883  1.00  0.00    -0.237 OA
ATOM    104  O   UNL A   1      43.616  26.400  38.853  1.00  0.00    -0.744 OA
ENDBRANCH  97 101
ENDBRANCH  71  94
ENDBRANCH  45  46
ENDBRANCH  37  40
ENDBRANCH  35  36
ENDBRANCH  34  35
ENDBRANCH   1  34
TORSDOF 18
ENDMDL
MODEL 2
REMARK VINA RESULT:     -13.1      1.605      2.391
REMARK SMILES CCc1ccccc1NC(=O)c1cc(S(=O)(=O)N2CCC[C@H](C(=O)NCCCNC(=O)c3ccc(-c4c5nc(c(-c6cc(S(=O)(=O)[O-])ccc6F)c6ccc([nH]6)c(-c6cc(S(=O)(=O)[O-])ccc6F)c6nc(c(-c7cc(S(=O)(=O)[O-])ccc7F)c7ccc4[nH]7)C=C6)C=C5)cc3)C2)ccc1F
REMARK SMILES IDX 26 1 25 2 23 3 24 4 22 6 18 7 19 8 95 9 20 10 21 11 15 12
REMARK SMILES IDX 16 13 17 14 14 15 12 16 13 17 98 18 97 19 99 20 96 21 10 22
REMARK SMILES IDX 9 23 11 25 8 26 3 27 4 28 5 29 7 30 6 31 2 32 1 33 27 34
REMARK SMILES IDX 28 35 29 36 30 37 31 39 32 40 33 41 94 42 34 43 93 44 35 45
REMARK SMILES IDX 36 46 37 47 87 48 38 49 92 50 86 51 88 52 39 53 91 54 85 55
REMARK SMILES IDX 84 56 40 58 72 59 52 60 71 61 53 62 56 63 70 64 89 65 54 66
REMARK SMILES IDX 55 67 69 69 90 70 57 71 41 72 42 73 50 74 43 75 49 76 51 77
REMARK SMILES IDX 48 78 44 79 45 80 46 81 47 82 73 83 74 84 82 85 75 86 81 87
REMARK SMILES IDX 83 88 80 89 76 90 77 91 78 92 79 93 58 94 59 95 67 96 60 97
REMARK SMILES IDX 66 98 68 99 65 100 61 101 62 102 63 103 64 104
REMARK H PARENT 25 5 9 24 29 38 88 57 56 68
REMARK Flexibility Score: inf
ROOT
ATOM      1  C   UNL A   1      31.278  31.273  26.045  1.00  0.00     0.117 C 
ENDROOT
BRANCH   1   2
ATOM      2  N   UNL A   1      32.071  30.389  26.878  1.00  0.00    -0.356 N 
ATOM      3  C   UNL A   1      32.589  29.156  26.674  1.00  0.00     0.224 C 
ATOM      4  O   UNL A   1      33.241  28.677  27.611  1.00  0.00    -0.275 OA
ATOM      5  H   UNL A   1      32.273  30.761  27.767  1.00  0.00     0.163 HD
BRANCH   3   6
ATOM      6  C   UNL A   1      32.410  28.325  25.403  1.00  0.00     0.093 C 
ATOM      7  N   UNL A   1      31.942  25.854  25.674  1.00  0.00    -0.197 NA
ATOM      8  C   UNL A   1      33.250  25.480  25.102  1.00  0.00     0.102 C 
ATOM      9  C   UNL A   1      31.382  27.213  25.477  1.00  0.00     0.116 C 
ATOM     10  C   UNL A   1      34.264  26.608  25.105  1.00  0.00     0.018 C 
ATOM     11  C   UNL A   1      33.699  27.948  24.686  1.00  0.00     0.016 C 
BRANCH   7  12
ATOM     12  S   UNL A   1      30.808  24.602  25.879  1.00  0.00     0.243 S 
ATOM     13  O   UNL A   1      29.549  25.048  25.330  1.00  0.00    -0.207 OA
ATOM     14  O   UNL A   1      30.920  24.120  27.241  1.00  0.00    -0.207 OA
BRANCH  12  15
ATOM     15  C   UNL A   1      31.353  23.261  24.840  1.00  0.00     0.083 A 
ATOM     16  C   UNL A   1      32.304  21.053  24.734  1.00  0.00     0.077 A 
ATOM     17  C   UNL A   1      31.817  22.118  25.495  1.00  0.00     0.038 A 
ATOM     18  C   UNL A   1      32.227  21.081  23.341  1.00  0.00     0.136 A 
ATOM     19  C   UNL A   1      31.781  22.225  22.691  1.00  0.00     0.041 A 
ATOM     20  F   UNL A   1      32.640  20.042  22.603  1.00  0.00    -0.206 F 
ATOM     21  C   UNL A   1      31.368  23.327  23.441  1.00  0.00     0.025 A 
BRANCH  16  22
ATOM     22  C   UNL A   1      32.982  19.960  25.433  1.00  0.00     0.258 C 
ATOM     23  N   UNL A   1      34.302  20.063  25.816  1.00  0.00    -0.322 N 
ATOM     24  H   UNL A   1      34.675  19.237  26.198  1.00  0.00     0.170 HD
ATOM     25  O   UNL A   1      32.345  18.932  25.657  1.00  0.00    -0.269 OA
BRANCH  23  26
ATOM     26  C   UNL A   1      35.220  21.139  25.762  1.00  0.00     0.044 A 
ATOM     27  C   UNL A   1      36.451  20.958  25.100  1.00  0.00    -0.025 A 
ATOM     28  C   UNL A   1      37.301  22.066  24.910  1.00  0.00     0.006 A 
ATOM     29  C   UNL A   1      36.970  23.323  25.409  1.00  0.00     0.000 A 
ATOM     30  C   UNL A   1      34.960  22.385  26.347  1.00  0.00     0.026 A 
ATOM     31  C   UNL A   1      35.813  23.475  26.155  1.00  0.00     0.002 A 
BRANCH  27  32
ATOM     32  C   UNL A   1      36.952  19.610  24.630  1.00  0.00     0.034 C 
ATOM     33  C   UNL A   1      38.351  19.354  25.177  1.00  0.00     0.009 C 
ENDBRANCH  27  32
ENDBRANCH  23  26
ENDBRANCH  16  22
ENDBRANCH  12  15
ENDBRANCH   7  12
ENDBRANCH   3   6
ENDBRANCH   1   2
BRANCH   1  34
ATOM     34  C   UNL A   1      31.373  32.720  26.503  1.00  0.00     0.042 C 
BRANCH  34  35
ATOM     35  C   UNL A   1      32.598  32.997  27.351  1.00  0.00     0.118 C 
BRANCH  35  36
ATOM     36  N   UNL A   1      32.675  34.388  27.771  1.00  0.00    -0.352 N 
ATOM     37  C   UNL A   1      33.464  34.987  28.722  1.00  0.00     0.251 C 
ATOM     38  H   UNL A   1      32.063  34.997  27.299  1.00  0.00     0.163 HD
ATOM     39  O   UNL A   1      33.231  36.151  29.041  1.00  0.00    -0.269 OA
BRANCH  37  40
ATOM     40  C   UNL A   1      34.559  34.239  29.379  1.00  0.00     0.039 A 
ATOM     41  C   UNL A   1      35.876  34.497  28.988  1.00  0.00     0.014 A 
ATOM     42  C   UNL A   1      34.304  33.279  30.360  1.00  0.00     0.014 A 
ATOM     43  C   UNL A   1      36.930  33.836  29.623  1.00  0.00     0.010 A 
ATOM     44  C   UNL A   1      35.356  32.710  31.070  1.00  0.00     0.010 A 
ATOM     45  C   UNL A   1      36.681  32.966  30.696  1.00  0.00    -0.014 A 
BRANCH  45  46
ATOM     46  C   UNL A   1      37.794  32.295  31.416  1.00  0.00     0.031 A 
ATOM     47  C   UNL A   1      38.530  31.151  30.769  1.00  0.00     0.074 A 
ATOM     48  C   UNL A   1      38.107  32.687  32.667  1.00  0.00     0.049 A 
ATOM     49  N   UNL A   1      39.497  30.411  31.248  1.00  0.00    -0.248 NA
ATOM     50  C   UNL A   1      38.093  30.761  29.419  1.00  0.00     0.031 C 
ATOM     51  C   UNL A   1      37.421  33.744  33.417  1.00  0.00     0.029 A 
ATOM     52  N   UNL A   1      39.077  32.248  33.530  1.00  0.00    -0.354 N 
ATOM     53  C   UNL A   1      39.771  29.463  30.267  1.00  0.00     0.074 A 
ATOM     54  C   UNL A   1      38.815  29.673  29.202  1.00  0.00     0.031 C 
ATOM     55  C   UNL A   1      38.023  33.900  34.607  1.00  0.00     0.029 A 
ATOM     56  C   UNL A   1      39.102  32.927  34.727  1.00  0.00     0.049 A 
ATOM     57  H   UNL A   1      39.698  31.516  33.313  1.00  0.00     0.167 HD
ATOM     58  C   UNL A   1      40.749  28.524  30.242  1.00  0.00     0.034 A 
ATOM     59  C   UNL A   1      39.906  32.781  35.798  1.00  0.00     0.034 A 
ATOM     60  C   UNL A   1      41.707  28.346  31.307  1.00  0.00     0.049 A 
ATOM     61  C   UNL A   1      40.992  31.737  35.745  1.00  0.00     0.074 A 
ATOM     62  C   UNL A   1      42.776  27.470  31.370  1.00  0.00     0.029 A 
ATOM     63  N   UNL A   1      41.709  29.060  32.500  1.00  0.00    -0.354 N 
ATOM     64  N   UNL A   1      41.275  30.886  34.785  1.00  0.00    -0.248 NA
ATOM     65  C   UNL A   1      41.876  31.646  36.912  1.00  0.00     0.031 C 
ATOM     66  C   UNL A   1      43.382  27.606  32.624  1.00  0.00     0.029 A 
ATOM     67  C   UNL A   1      42.743  28.624  33.315  1.00  0.00     0.049 A 
ATOM     68  H   UNL A   1      41.070  29.772  32.732  1.00  0.00     0.167 HD
ATOM     69  C   UNL A   1      42.388  30.176  35.225  1.00  0.00     0.074 A 
ATOM     70  C   UNL A   1      42.738  30.720  36.521  1.00  0.00     0.031 C 
ATOM     71  C   UNL A   1      43.062  29.165  34.616  1.00  0.00     0.034 A 
BRANCH  58  72
ATOM     72  C   UNL A   1      40.811  27.614  29.036  1.00  0.00     0.023 A 
ATOM     73  C   UNL A   1      41.774  27.789  28.027  1.00  0.00     0.031 A 
ATOM     74  C   UNL A   1      39.872  26.580  28.873  1.00  0.00     0.131 A 
ATOM     75  C   UNL A   1      41.727  27.001  26.865  1.00  0.00     0.055 A 
ATOM     76  C   UNL A   1      39.884  25.742  27.755  1.00  0.00     0.041 A 
ATOM     77  F   UNL A   1      38.913  26.376  29.789  1.00  0.00    -0.206 F 
ATOM     78  C   UNL A   1      40.805  25.961  26.735  1.00  0.00     0.022 A 
BRANCH  75  79
ATOM     79  S   UNL A   1      42.786  27.458  25.465  1.00  0.00     0.124 S 
ATOM     80  O   UNL A   1      44.028  27.824  26.142  1.00  0.00    -0.237 OA
ATOM     81  O   UNL A   1      42.823  26.226  24.684  1.00  0.00    -0.237 OA
ATOM     82  O   UNL A   1      42.072  28.571  24.842  1.00  0.00    -0.744 OA
ENDBRANCH  75  79
ENDBRANCH  58  72
BRANCH  59  83
ATOM     83  C   UNL A   1      39.725  33.639  37.004  1.00  0.00     0.023 A 
ATOM     84  C   UNL A   1      39.048  33.162  38.138  1.00  0.00     0.031 A 
ATOM     85  C   UNL A   1      40.194  34.965  37.028  1.00  0.00     0.131 A 
ATOM     86  C   UNL A   1      38.816  34.015  39.227  1.00  0.00     0.055 A 
ATOM     87  C   UNL A   1      40.008  35.794  38.136  1.00  0.00     0.041 A 
ATOM     88  F   UNL A   1      40.854  35.471  35.975  1.00  0.00    -0.206 F 
ATOM     89  C   UNL A   1      39.302  35.324  39.239  1.00  0.00     0.022 A 
BRANCH  86  90
ATOM     90  S   UNL A   1      37.789  33.416  40.598  1.00  0.00     0.124 S 
ATOM     91  O   UNL A   1      38.578  32.295  41.093  1.00  0.00    -0.237 OA
ATOM     92  O   UNL A   1      37.725  34.589  41.463  1.00  0.00    -0.237 OA
ATOM     93  O   UNL A   1      36.531  33.055  39.946  1.00  0.00    -0.744 OA
ENDBRANCH  86  90
ENDBRANCH  59  83
BRANCH  71  94
ATOM     94  C   UNL A   1      44.263  28.616  35.347  1.00  0.00     0.023 A 
ATOM     95  C   UNL A   1      44.165  27.492  36.185  1.00  0.00     0.031 A 
ATOM     96  C   UNL A   1      45.514  29.248  35.233  1.00  0.00     0.131 A 
ATOM     97  C   UNL A   1      45.275  27.082  36.937  1.00  0.00     0.055 A 
ATOM     98  C   UNL A   1      46.634  28.791  35.927  1.00  0.00     0.041 A 
ATOM     99  F   UNL A   1      45.666  30.327  34.448  1.00  0.00    -0.206 F 
ATOM    100  C   UNL A   1      46.514  27.713  36.800  1.00  0.00     0.022 A 
BRANCH  97 101
ATOM    101  S   UNL A   1      45.044  25.790  38.189  1.00  0.00     0.124 S 
ATOM    102  O   UNL A   1      43.773  25.199  37.783  1.00  0.00    -0.237 OA
ATOM    103  O   UNL A   1      46.226  24.956  37.998  1.00  0.00    -0.237 OA
ATOM    104  O   UNL A   1      45.009  26.535  39.447  1.00  0.00    -0.744 OA
ENDBRANCH  97 101
ENDBRANCH  71  94
ENDBRANCH  45  46
ENDBRANCH  37  40
ENDBRANCH  35  36
ENDBRANCH  34  35
ENDBRANCH   1  34
TORSDOF 18
ENDMDL
MODEL 3
REMARK VINA RESULT:     -13.1      6.128     10.430
REMARK SMILES CCc1ccccc1NC(=O)c1cc(S(=O)(=O)N2CCC[C@H](C(=O)NCCCNC(=O)c3ccc(-c4c5nc(c(-c6cc(S(=O)(=O)[O-])ccc6F)c6ccc([nH]6)c(-c6cc(S(=O)(=O)[O-])ccc6F)c6nc(c(-c7cc(S(=O)(=O)[O-])ccc7F)c7ccc4[nH]7)C=C6)C=C5)cc3)C2)ccc1F
REMARK SMILES IDX 26 1 25 2 23 3 24 4 22 6 18 7 19 8 95 9 20 10 21 11 15 12
REMARK SMILES IDX 16 13 17 14 14 15 12 16 13 17 98 18 97 19 99 20 96 21 10 22
REMARK SMILES IDX 9 23 11 25 8 26 3 27 4 28 5 29 7 30 6 31 2 32 1 33 27 34
REMARK SMILES IDX 28 35 29 36 30 37 31 39 32 40 33 41 94 42 34 43 93 44 35 45
REMARK SMILES IDX 36 46 37 47 87 48 38 49 92 50 86 51 88 52 39 53 91 54 85 55
REMARK SMILES IDX 84 56 40 58 72 59 52 60 71 61 53 62 56 63 70 64 89 65 54 66
REMARK SMILES IDX 55 67 69 69 90 70 57 71 41 72 42 73 50 74 43 75 49 76 51 77
REMARK SMILES IDX 48 78 44 79 45 80 46 81 47 82 73 83 74 84 82 85 75 86 81 87
REMARK SMILES IDX 83 88 80 89 76 90 77 91 78 92 79 93 58 94 59 95 67 96 60 97
REMARK SMILES IDX 66 98 68 99 65 100 61 101 62 102 63 103 64 104
REMARK H PARENT 25 5 9 24 29 38 88 57 56 68
REMARK Flexibility Score: inf
ROOT
ATOM      1  C   UNL A   1      37.420  20.834  24.947  1.00  0.00     0.117 C 
ENDROOT
BRANCH   1   2
ATOM      2  N   UNL A   1      36.032  20.424  25.005  1.00  0.00    -0.356 N 
ATOM      3  C   UNL A   1      34.930  20.988  25.551  1.00  0.00     0.224 C 
ATOM      4  O   UNL A   1      33.870  20.364  25.409  1.00  0.00    -0.275 OA
ATOM      5  H   UNL A   1      35.855  19.564  24.558  1.00  0.00     0.163 HD
BRANCH   3   6
ATOM      6  C   UNL A   1      34.909  22.302  26.332  1.00  0.00     0.093 C 
ATOM      7  N   UNL A   1      33.100  23.976  25.764  1.00  0.00    -0.197 NA
ATOM      8  C   UNL A   1      34.074  24.934  25.206  1.00  0.00     0.102 C 
ATOM      9  C   UNL A   1      33.537  22.867  26.645  1.00  0.00     0.116 C 
ATOM     10  C   UNL A   1      35.411  24.311  24.853  1.00  0.00     0.018 C 
ATOM     11  C   UNL A   1      35.933  23.338  25.888  1.00  0.00     0.016 C 
BRANCH   7  12
ATOM     12  S   UNL A   1      31.518  24.550  26.017  1.00  0.00     0.243 S 
ATOM     13  O   UNL A   1      31.069  24.066  27.301  1.00  0.00    -0.207 OA
ATOM     14  O   UNL A   1      30.761  24.314  24.804  1.00  0.00    -0.207 OA
BRANCH  12  15
ATOM     15  C   UNL A   1      31.650  26.320  26.175  1.00  0.00     0.083 A 
ATOM     16  C   UNL A   1      31.860  28.433  25.043  1.00  0.00     0.077 A 
ATOM     17  C   UNL A   1      31.707  27.047  24.983  1.00  0.00     0.038 A 
ATOM     18  C   UNL A   1      31.845  29.098  26.269  1.00  0.00     0.136 A 
ATOM     19  C   UNL A   1      31.805  28.373  27.454  1.00  0.00     0.041 A 
ATOM     20  F   UNL A   1      31.936  30.433  26.336  1.00  0.00    -0.206 F 
ATOM     21  C   UNL A   1      31.734  26.980  27.407  1.00  0.00     0.025 A 
BRANCH  16  22
ATOM     22  C   UNL A   1      32.135  29.151  23.797  1.00  0.00     0.258 C 
ATOM     23  N   UNL A   1      31.112  29.586  22.980  1.00  0.00    -0.322 N 
ATOM     24  H   UNL A   1      31.416  29.977  22.130  1.00  0.00     0.170 HD
ATOM     25  O   UNL A   1      33.308  29.344  23.484  1.00  0.00    -0.269 OA
BRANCH  23  26
ATOM     26  C   UNL A   1      29.706  29.575  23.139  1.00  0.00     0.044 A 
ATOM     27  C   UNL A   1      29.046  30.768  23.494  1.00  0.00    -0.025 A 
ATOM     28  C   UNL A   1      27.637  30.799  23.504  1.00  0.00     0.006 A 
ATOM     29  C   UNL A   1      26.888  29.661  23.220  1.00  0.00     0.000 A 
ATOM     30  C   UNL A   1      28.934  28.418  22.964  1.00  0.00     0.026 A 
ATOM     31  C   UNL A   1      27.538  28.462  22.981  1.00  0.00     0.002 A 
BRANCH  27  32
ATOM     32  C   UNL A   1      29.771  32.020  23.935  1.00  0.00     0.034 C 
ATOM     33  C   UNL A   1      29.211  33.234  23.204  1.00  0.00     0.009 C 
ENDBRANCH  27  32
ENDBRANCH  23  26
ENDBRANCH  16  22
ENDBRANCH  12  15
ENDBRANCH   7  12
ENDBRANCH   3   6
ENDBRANCH   1   2
BRANCH   1  34
ATOM     34  C   UNL A   1      38.366  19.683  25.254  1.00  0.00     0.042 C 
BRANCH  34  35
ATOM     35  C   UNL A   1      39.470  20.061  26.221  1.00  0.00     0.118 C 
BRANCH  35  36
ATOM     36  N   UNL A   1      40.689  19.300  25.992  1.00  0.00    -0.352 N 
ATOM     37  C   UNL A   1      41.999  19.710  25.951  1.00  0.00     0.251 C 
ATOM     38  H   UNL A   1      40.552  18.337  25.841  1.00  0.00     0.163 HD
ATOM     39  O   UNL A   1      42.856  18.922  25.558  1.00  0.00    -0.269 OA
BRANCH  37  40
ATOM     40  C   UNL A   1      42.375  21.086  26.343  1.00  0.00     0.039 A 
ATOM     41  C   UNL A   1      42.462  22.066  25.351  1.00  0.00     0.014 A 
ATOM     42  C   UNL A   1      42.655  21.418  27.670  1.00  0.00     0.014 A 
ATOM     43  C   UNL A   1      42.773  23.382  25.701  1.00  0.00     0.010 A 
ATOM     44  C   UNL A   1      42.849  22.747  28.031  1.00  0.00     0.010 A 
ATOM     45  C   UNL A   1      42.929  23.742  27.049  1.00  0.00    -0.014 A 
BRANCH  45  46
ATOM     46  C   UNL A   1      43.207  25.148  27.442  1.00  0.00     0.031 A 
ATOM     47  C   UNL A   1      44.590  25.720  27.268  1.00  0.00     0.074 A 
ATOM     48  C   UNL A   1      42.228  25.887  27.999  1.00  0.00     0.049 A 
ATOM     49  N   UNL A   1      45.042  26.905  27.587  1.00  0.00    -0.248 NA
ATOM     50  C   UNL A   1      45.609  24.828  26.693  1.00  0.00     0.031 C 
ATOM     51  C   UNL A   1      40.866  25.417  28.273  1.00  0.00     0.029 A 
ATOM     52  N   UNL A   1      42.220  27.187  28.434  1.00  0.00    -0.354 N 
ATOM     53  C   UNL A   1      46.397  26.894  27.268  1.00  0.00     0.074 A 
ATOM     54  C   UNL A   1      46.706  25.559  26.804  1.00  0.00     0.031 C 
ATOM     55  C   UNL A   1      40.146  26.427  28.786  1.00  0.00     0.029 A 
ATOM     56  C   UNL A   1      41.001  27.600  28.923  1.00  0.00     0.049 A 
ATOM     57  H   UNL A   1      43.012  27.770  28.399  1.00  0.00     0.167 HD
ATOM     58  C   UNL A   1      47.292  27.910  27.327  1.00  0.00     0.034 A 
ATOM     59  C   UNL A   1      40.619  28.791  29.423  1.00  0.00     0.034 A 
ATOM     60  C   UNL A   1      46.956  29.241  27.772  1.00  0.00     0.049 A 
ATOM     61  C   UNL A   1      41.629  29.908  29.471  1.00  0.00     0.074 A 
ATOM     62  C   UNL A   1      47.761  30.365  27.821  1.00  0.00     0.029 A 
ATOM     63  N   UNL A   1      45.708  29.626  28.250  1.00  0.00    -0.354 N 
ATOM     64  N   UNL A   1      42.892  29.898  29.110  1.00  0.00    -0.248 NA
ATOM     65  C   UNL A   1      41.156  31.202  29.976  1.00  0.00     0.031 C 
ATOM     66  C   UNL A   1      47.023  31.410  28.389  1.00  0.00     0.029 A 
ATOM     67  C   UNL A   1      45.732  30.962  28.621  1.00  0.00     0.049 A 
ATOM     68  H   UNL A   1      44.923  29.037  28.315  1.00  0.00     0.167 HD
ATOM     69  C   UNL A   1      43.357  31.192  29.322  1.00  0.00     0.074 A 
ATOM     70  C   UNL A   1      42.231  31.959  29.814  1.00  0.00     0.031 C 
ATOM     71  C   UNL A   1      44.602  31.704  29.130  1.00  0.00     0.034 A 
BRANCH  58  72
ATOM     72  C   UNL A   1      48.716  27.608  26.916  1.00  0.00     0.023 A 
ATOM     73  C   UNL A   1      49.177  27.851  25.611  1.00  0.00     0.031 A 
ATOM     74  C   UNL A   1      49.617  27.036  27.833  1.00  0.00     0.131 A 
ATOM     75  C   UNL A   1      50.468  27.448  25.234  1.00  0.00     0.055 A 
ATOM     76  C   UNL A   1      50.929  26.718  27.476  1.00  0.00     0.041 A 
ATOM     77  F   UNL A   1      49.232  26.759  29.088  1.00  0.00    -0.206 F 
ATOM     78  C   UNL A   1      51.357  26.908  26.165  1.00  0.00     0.022 A 
BRANCH  75  79
ATOM     79  S   UNL A   1      50.913  27.498  23.476  1.00  0.00     0.124 S 
ATOM     80  O   UNL A   1      51.028  28.936  23.242  1.00  0.00    -0.237 OA
ATOM     81  O   UNL A   1      52.162  26.744  23.446  1.00  0.00    -0.237 OA
ATOM     82  O   UNL A   1      49.779  26.855  22.815  1.00  0.00    -0.744 OA
ENDBRANCH  75  79
ENDBRANCH  58  72
BRANCH  59  83
ATOM     83  C   UNL A   1      39.225  28.994  29.913  1.00  0.00     0.023 A 
ATOM     84  C   UNL A   1      38.236  29.536  29.076  1.00  0.00     0.031 A 
ATOM     85  C   UNL A   1      38.869  28.684  31.237  1.00  0.00     0.131 A 
ATOM     86  C   UNL A   1      36.954  29.797  29.584  1.00  0.00     0.055 A 
ATOM     87  C   UNL A   1      37.577  28.895  31.723  1.00  0.00     0.041 A 
ATOM     88  F   UNL A   1      39.772  28.157  32.078  1.00  0.00    -0.206 F 
ATOM     89  C   UNL A   1      36.614  29.468  30.898  1.00  0.00     0.022 A 
BRANCH  86  90
ATOM     90  S   UNL A   1      35.757  30.657  28.526  1.00  0.00     0.124 S 
ATOM     91  O   UNL A   1      36.634  31.381  27.613  1.00  0.00    -0.237 OA
ATOM     92  O   UNL A   1      35.009  29.544  27.950  1.00  0.00    -0.237 OA
ATOM     93  O   UNL A   1      35.009  31.489  29.466  1.00  0.00    -0.744 OA
ENDBRANCH  86  90
ENDBRANCH  59  83
BRANCH  71  94
ATOM     94  C   UNL A   1      44.782  33.172  29.428  1.00  0.00     0.023 A 
ATOM     95  C   UNL A   1      44.428  34.163  28.495  1.00  0.00     0.031 A 
ATOM     96  C   UNL A   1      45.350  33.586  30.647  1.00  0.00     0.131 A 
ATOM     97  C   UNL A   1      44.717  35.509  28.761  1.00  0.00     0.055 A 
ATOM     98  C   UNL A   1      45.568  34.933  30.936  1.00  0.00     0.041 A 
ATOM     99  F   UNL A   1      45.709  32.684  31.575  1.00  0.00    -0.206 F 
ATOM    100  C   UNL A   1      45.269  35.902  29.983  1.00  0.00     0.022 A 
BRANCH  97 101
ATOM    101  S   UNL A   1      44.477  36.724  27.437  1.00  0.00     0.124 S 
ATOM    102  O   UNL A   1      45.788  36.735  26.795  1.00  0.00    -0.237 OA
ATOM    103  O   UNL A   1      43.392  36.132  26.662  1.00  0.00    -0.237 OA
ATOM    104  O   UNL A   1      44.129  37.949  28.155  1.00  0.00    -0.744 OA
ENDBRANCH  97 101
ENDBRANCH  71  94
ENDBRANCH  45  46
ENDBRANCH  37  40
ENDBRANCH  35  36
ENDBRANCH  34  35
ENDBRANCH   1  34
TORSDOF 18
ENDMDL
