MODEL 1
REMARK VINA RESULT:     -11.7      0.000      0.000
REMARK SMILES CCN(Cc1cn(CC)nc1C)C(=O)c1ccn([C@@H](C)C(=O)NCCCNC(=O)c2ccc(-c3c4nc(c(-c5cc(S(=O)(=O)[O-])ccc5F)c5ccc([nH]5)c(-c5cc(S(=O)(=O)[O-])ccc5F)c5nc(c(-c6cc(S(=O)(=O)[O-])ccc6F)c6ccc3[nH]6)C=C5)C=C4)cc2)n1
REMARK SMILES IDX 21 1 22 2 23 3 19 5 20 6 18 7 15 8 16 9 93 10 17 11 13 12
REMARK SMILES IDX 14 13 3 14 2 15 1 16 4 17 5 18 6 19 11 20 7 21 10 22 12 23
REMARK SMILES IDX 8 24 9 25 24 26 25 27 26 28 27 29 28 30 29 32 30 33 31 34
REMARK SMILES IDX 92 35 32 36 91 37 33 38 34 39 35 40 85 41 36 42 90 43 84 44
REMARK SMILES IDX 86 45 37 46 89 47 83 48 82 49 38 51 70 52 50 53 69 54 51 55
REMARK SMILES IDX 54 56 68 57 87 58 52 59 53 60 67 62 88 63 55 64 39 65 40 66
REMARK SMILES IDX 48 67 41 68 47 69 49 70 46 71 42 72 43 73 44 74 45 75 71 76
REMARK SMILES IDX 72 77 80 78 73 79 79 80 81 81 78 82 74 83 75 84 76 85 77 86
REMARK SMILES IDX 56 87 57 88 65 89 58 90 64 91 66 92 63 93 59 94 60 95 61 96
REMARK SMILES IDX 62 97
REMARK H PARENT 23 4 27 31 86 50 54 61
REMARK Flexibility Score: inf
ROOT
ATOM      1  C   UNL A   1      32.108  28.353  27.240  1.00  0.00     0.244 C 
ATOM      2  O   UNL A   1      31.521  27.667  28.087  1.00  0.00    -0.273 OA
ATOM      3  N   UNL A   1      31.431  29.461  26.810  1.00  0.00    -0.354 N 
ATOM      4  H   UNL A   1      30.554  29.572  27.245  1.00  0.00     0.163 HD
ENDROOT
BRANCH   1   5
ATOM      5  C   UNL A   1      33.528  27.957  26.792  1.00  0.00     0.193 C 
ATOM      6  C   UNL A   1      34.446  29.168  26.656  1.00  0.00     0.044 C 
BRANCH   5   7
ATOM      7  N   UNL A   1      33.520  27.058  25.643  1.00  0.00    -0.260 N 
ATOM      8  C   UNL A   1      33.627  25.300  24.460  1.00  0.00     0.150 A 
ATOM      9  C   UNL A   1      32.644  26.127  23.895  1.00  0.00     0.056 A 
ATOM     10  N   UNL A   1      34.142  25.850  25.594  1.00  0.00    -0.167 NA
ATOM     11  C   UNL A   1      32.979  27.326  24.437  1.00  0.00     0.110 A 
BRANCH   8  12
ATOM     12  C   UNL A   1      34.070  24.061  23.826  1.00  0.00     0.274 C 
ATOM     13  O   UNL A   1      33.666  23.754  22.705  1.00  0.00    -0.267 OA
BRANCH  12  14
ATOM     14  N   UNL A   1      35.029  23.279  24.523  1.00  0.00    -0.333 N 
BRANCH  14  15
ATOM     15  C   UNL A   1      36.368  23.252  23.943  1.00  0.00     0.117 C 
ATOM     16  C   UNL A   1      37.302  22.292  24.677  1.00  0.00     0.027 C 
ENDBRANCH  14  15
BRANCH  14  17
ATOM     17  C   UNL A   1      34.750  22.352  25.642  1.00  0.00     0.159 C 
BRANCH  17  18
ATOM     18  C   UNL A   1      33.875  21.182  25.274  1.00  0.00     0.012 A 
ATOM     19  C   UNL A   1      34.231  19.913  24.844  1.00  0.00     0.114 A 
ATOM     20  C   UNL A   1      32.441  21.129  25.302  1.00  0.00     0.064 A 
ATOM     21  N   UNL A   1      33.078  19.176  24.777  1.00  0.00    -0.272 N 
ATOM     22  N   UNL A   1      31.975  19.909  25.009  1.00  0.00    -0.178 NA
ATOM     23  C   UNL A   1      31.465  22.193  25.669  1.00  0.00     0.069 C 
BRANCH  21  24
ATOM     24  C   UNL A   1      32.949  17.763  24.466  1.00  0.00     0.141 C 
ATOM     25  C   UNL A   1      33.683  17.344  23.199  1.00  0.00     0.029 C 
ENDBRANCH  21  24
ENDBRANCH  17  18
ENDBRANCH  14  17
ENDBRANCH  12  14
ENDBRANCH   8  12
ENDBRANCH   5   7
ENDBRANCH   1   5
BRANCH   3  26
ATOM     26  C   UNL A   1      31.729  30.514  25.846  1.00  0.00     0.117 C 
BRANCH  26  27
ATOM     27  C   UNL A   1      31.537  31.918  26.423  1.00  0.00     0.042 C 
BRANCH  27  28
ATOM     28  C   UNL A   1      32.659  32.320  27.309  1.00  0.00     0.118 C 
BRANCH  28  29
ATOM     29  N   UNL A   1      32.661  33.745  27.603  1.00  0.00    -0.352 N 
ATOM     30  C   UNL A   1      33.307  34.346  28.679  1.00  0.00     0.251 C 
ATOM     31  H   UNL A   1      32.164  34.333  26.988  1.00  0.00     0.163 HD
ATOM     32  O   UNL A   1      32.987  35.436  29.086  1.00  0.00    -0.269 OA
BRANCH  30  33
ATOM     33  C   UNL A   1      34.467  33.592  29.212  1.00  0.00     0.039 A 
ATOM     34  C   UNL A   1      34.483  32.600  30.182  1.00  0.00     0.014 A 
ATOM     35  C   UNL A   1      35.696  34.014  28.752  1.00  0.00     0.014 A 
ATOM     36  C   UNL A   1      35.766  32.171  30.621  1.00  0.00     0.010 A 
ATOM     37  C   UNL A   1      36.662  33.082  28.676  1.00  0.00     0.010 A 
ATOM     38  C   UNL A   1      36.927  32.619  29.925  1.00  0.00    -0.014 A 
BRANCH  38  39
ATOM     39  C   UNL A   1      38.321  32.119  29.983  1.00  0.00     0.031 A 
ATOM     40  C   UNL A   1      38.227  30.681  29.484  1.00  0.00     0.074 A 
ATOM     41  C   UNL A   1      39.444  32.910  30.212  1.00  0.00     0.049 A 
ATOM     42  N   UNL A   1      37.984  29.656  30.245  1.00  0.00    -0.248 NA
ATOM     43  C   UNL A   1      37.887  30.344  28.064  1.00  0.00     0.031 C 
ATOM     44  C   UNL A   1      39.595  34.361  30.520  1.00  0.00     0.029 A 
ATOM     45  N   UNL A   1      40.793  32.551  30.260  1.00  0.00    -0.354 N 
ATOM     46  C   UNL A   1      38.019  28.551  29.397  1.00  0.00     0.074 A 
ATOM     47  C   UNL A   1      37.585  29.042  28.134  1.00  0.00     0.031 C 
ATOM     48  C   UNL A   1      40.902  34.770  30.433  1.00  0.00     0.029 A 
ATOM     49  C   UNL A   1      41.770  33.622  30.214  1.00  0.00     0.049 A 
ATOM     50  H   UNL A   1      41.071  31.609  30.323  1.00  0.00     0.167 HD
ATOM     51  C   UNL A   1      38.879  27.534  29.690  1.00  0.00     0.034 A 
ATOM     52  C   UNL A   1      43.171  33.532  30.247  1.00  0.00     0.034 A 
ATOM     53  C   UNL A   1      39.289  27.682  31.077  1.00  0.00     0.049 A 
ATOM     54  C   UNL A   1      43.432  32.147  30.731  1.00  0.00     0.074 A 
ATOM     55  C   UNL A   1      38.662  27.670  32.304  1.00  0.00     0.029 A 
ATOM     56  N   UNL A   1      40.404  28.467  31.213  1.00  0.00    -0.354 N 
ATOM     57  N   UNL A   1      43.095  31.770  31.936  1.00  0.00    -0.248 NA
ATOM     58  C   UNL A   1      43.405  31.125  29.696  1.00  0.00     0.031 C 
ATOM     59  C   UNL A   1      39.269  28.730  33.052  1.00  0.00     0.029 A 
ATOM     60  C   UNL A   1      40.368  29.222  32.349  1.00  0.00     0.049 A 
ATOM     61  H   UNL A   1      41.145  28.487  30.565  1.00  0.00     0.167 HD
ATOM     62  C   UNL A   1      42.350  30.617  31.737  1.00  0.00     0.074 A 
ATOM     63  C   UNL A   1      42.586  30.269  30.319  1.00  0.00     0.031 C 
ATOM     64  C   UNL A   1      41.330  30.282  32.595  1.00  0.00     0.034 A 
BRANCH  51  65
ATOM     65  C   UNL A   1      39.809  26.858  28.677  1.00  0.00     0.023 A 
ATOM     66  C   UNL A   1      40.818  27.676  28.128  1.00  0.00     0.031 A 
ATOM     67  C   UNL A   1      39.598  25.631  28.000  1.00  0.00     0.131 A 
ATOM     68  C   UNL A   1      41.476  27.331  26.934  1.00  0.00     0.055 A 
ATOM     69  C   UNL A   1      40.301  25.263  26.842  1.00  0.00     0.041 A 
ATOM     70  F   UNL A   1      38.658  24.750  28.357  1.00  0.00    -0.206 F 
ATOM     71  C   UNL A   1      41.230  26.125  26.287  1.00  0.00     0.022 A 
BRANCH  68  72
ATOM     72  S   UNL A   1      42.526  28.582  26.151  1.00  0.00     0.124 S 
ATOM     73  O   UNL A   1      42.270  28.335  24.738  1.00  0.00    -0.237 OA
ATOM     74  O   UNL A   1      41.978  29.817  26.702  1.00  0.00    -0.237 OA
ATOM     75  O   UNL A   1      43.867  28.235  26.615  1.00  0.00    -0.744 OA
ENDBRANCH  68  72
ENDBRANCH  51  65
BRANCH  52  76
ATOM     76  C   UNL A   1      44.263  34.240  29.393  1.00  0.00     0.023 A 
ATOM     77  C   UNL A   1      44.847  33.844  28.120  1.00  0.00     0.031 A 
ATOM     78  C   UNL A   1      44.532  35.568  29.765  1.00  0.00     0.131 A 
ATOM     79  C   UNL A   1      45.646  34.767  27.342  1.00  0.00     0.055 A 
ATOM     80  C   UNL A   1      45.268  36.466  28.981  1.00  0.00     0.041 A 
ATOM     81  F   UNL A   1      44.011  36.074  30.890  1.00  0.00    -0.206 F 
ATOM     82  C   UNL A   1      45.818  36.080  27.772  1.00  0.00     0.022 A 
BRANCH  79  83
ATOM     83  S   UNL A   1      46.534  34.353  25.754  1.00  0.00     0.124 S 
ATOM     84  O   UNL A   1      47.388  35.518  25.548  1.00  0.00    -0.237 OA
ATOM     85  O   UNL A   1      47.210  33.098  26.060  1.00  0.00    -0.237 OA
ATOM     86  O   UNL A   1      45.453  34.227  24.771  1.00  0.00    -0.744 OA
ENDBRANCH  79  83
ENDBRANCH  52  76
BRANCH  64  87
ATOM     87  C   UNL A   1      41.202  31.031  33.916  1.00  0.00     0.023 A 
ATOM     88  C   UNL A   1      40.399  32.165  34.216  1.00  0.00     0.031 A 
ATOM     89  C   UNL A   1      41.914  30.448  34.977  1.00  0.00     0.131 A 
ATOM     90  C   UNL A   1      40.378  32.681  35.538  1.00  0.00     0.055 A 
ATOM     91  C   UNL A   1      41.846  30.927  36.280  1.00  0.00     0.041 A 
ATOM     92  F   UNL A   1      42.671  29.360  34.762  1.00  0.00    -0.206 F 
ATOM     93  C   UNL A   1      41.088  32.052  36.565  1.00  0.00     0.022 A 
BRANCH  90  94
ATOM     94  S   UNL A   1      39.507  34.241  35.951  1.00  0.00     0.124 S 
ATOM     95  O   UNL A   1      39.961  34.522  37.309  1.00  0.00    -0.237 OA
ATOM     96  O   UNL A   1      39.980  35.160  34.920  1.00  0.00    -0.237 OA
ATOM     97  O   UNL A   1      38.091  33.884  35.843  1.00  0.00    -0.744 OA
ENDBRANCH  90  94
ENDBRANCH  64  87
ENDBRANCH  38  39
ENDBRANCH  30  33
ENDBRANCH  28  29
ENDBRANCH  27  28
ENDBRANCH  26  27
ENDBRANCH   3  26
TORSDOF 20
ENDMDL
MODEL 2
REMARK VINA RESULT:     -10.9      1.790      2.178
REMARK SMILES CCN(Cc1cn(CC)nc1C)C(=O)c1ccn([C@@H](C)C(=O)NCCCNC(=O)c2ccc(-c3c4nc(c(-c5cc(S(=O)(=O)[O-])ccc5F)c5ccc([nH]5)c(-c5cc(S(=O)(=O)[O-])ccc5F)c5nc(c(-c6cc(S(=O)(=O)[O-])ccc6F)c6ccc3[nH]6)C=C5)C=C4)cc2)n1
REMARK SMILES IDX 21 1 22 2 23 3 19 5 20 6 18 7 15 8 16 9 93 10 17 11 13 12
REMARK SMILES IDX 14 13 3 14 2 15 1 16 4 17 5 18 6 19 11 20 7 21 10 22 12 23
REMARK SMILES IDX 8 24 9 25 24 26 25 27 26 28 27 29 28 30 29 32 30 33 31 34
REMARK SMILES IDX 92 35 32 36 91 37 33 38 34 39 35 40 85 41 36 42 90 43 84 44
REMARK SMILES IDX 86 45 37 46 89 47 83 48 82 49 38 51 70 52 50 53 69 54 51 55
REMARK SMILES IDX 54 56 68 57 87 58 52 59 53 60 67 62 88 63 55 64 39 65 40 66
REMARK SMILES IDX 48 67 41 68 47 69 49 70 46 71 42 72 43 73 44 74 45 75 71 76
REMARK SMILES IDX 72 77 80 78 73 79 79 80 81 81 78 82 74 83 75 84 76 85 77 86
REMARK SMILES IDX 56 87 57 88 65 89 58 90 64 91 66 92 63 93 59 94 60 95 61 96
REMARK SMILES IDX 62 97
REMARK H PARENT 23 4 27 31 86 50 54 61
REMARK Flexibility Score: inf
ROOT
ATOM      1  C   UNL A   1      32.430  29.520  25.295  1.00  0.00     0.244 C 
ATOM      2  O   UNL A   1      32.937  29.202  24.212  1.00  0.00    -0.273 OA
ATOM      3  N   UNL A   1      31.860  30.762  25.335  1.00  0.00    -0.354 N 
ATOM      4  H   UNL A   1      31.923  31.244  24.479  1.00  0.00     0.163 HD
ENDROOT
BRANCH   1   5
ATOM      5  C   UNL A   1      32.425  28.508  26.457  1.00  0.00     0.193 C 
ATOM      6  C   UNL A   1      33.785  28.416  27.144  1.00  0.00     0.044 C 
BRANCH   5   7
ATOM      7  N   UNL A   1      31.838  27.227  26.079  1.00  0.00    -0.260 N 
ATOM      8  C   UNL A   1      31.407  25.151  26.010  1.00  0.00     0.150 A 
ATOM      9  C   UNL A   1      30.204  25.837  25.783  1.00  0.00     0.056 A 
ATOM     10  N   UNL A   1      32.429  26.016  26.258  1.00  0.00    -0.167 NA
ATOM     11  C   UNL A   1      30.673  27.058  25.420  1.00  0.00     0.110 A 
BRANCH   8  12
ATOM     12  C   UNL A   1      31.516  23.699  25.898  1.00  0.00     0.274 C 
ATOM     13  O   UNL A   1      30.507  22.996  25.886  1.00  0.00    -0.267 OA
BRANCH  12  14
ATOM     14  N   UNL A   1      32.817  23.154  25.730  1.00  0.00    -0.333 N 
BRANCH  14  15
ATOM     15  C   UNL A   1      33.736  23.347  26.847  1.00  0.00     0.117 C 
ATOM     16  C   UNL A   1      33.394  22.462  28.044  1.00  0.00     0.027 C 
ENDBRANCH  14  15
BRANCH  14  17
ATOM     17  C   UNL A   1      33.373  22.599  24.476  1.00  0.00     0.159 C 
BRANCH  17  18
ATOM     18  C   UNL A   1      33.559  21.104  24.488  1.00  0.00     0.012 A 
ATOM     19  C   UNL A   1      32.651  20.098  24.198  1.00  0.00     0.114 A 
ATOM     20  C   UNL A   1      34.760  20.383  24.803  1.00  0.00     0.064 A 
ATOM     21  N   UNL A   1      33.344  18.917  24.217  1.00  0.00    -0.272 N 
ATOM     22  N   UNL A   1      34.616  19.064  24.625  1.00  0.00    -0.178 NA
ATOM     23  C   UNL A   1      36.093  20.903  25.211  1.00  0.00     0.069 C 
BRANCH  21  24
ATOM     24  C   UNL A   1      32.844  17.595  23.882  1.00  0.00     0.141 C 
ATOM     25  C   UNL A   1      32.685  16.676  25.087  1.00  0.00     0.029 C 
ENDBRANCH  21  24
ENDBRANCH  17  18
ENDBRANCH  14  17
ENDBRANCH  12  14
ENDBRANCH   8  12
ENDBRANCH   5   7
ENDBRANCH   1   5
BRANCH   3  26
ATOM     26  C   UNL A   1      31.178  31.526  26.374  1.00  0.00     0.117 C 
BRANCH  26  27
ATOM     27  C   UNL A   1      32.113  31.951  27.508  1.00  0.00     0.042 C 
BRANCH  27  28
ATOM     28  C   UNL A   1      33.001  33.075  27.115  1.00  0.00     0.118 C 
BRANCH  28  29
ATOM     29  N   UNL A   1      32.782  34.271  27.916  1.00  0.00    -0.352 N 
ATOM     30  C   UNL A   1      33.228  34.460  29.220  1.00  0.00     0.251 C 
ATOM     31  H   UNL A   1      32.278  35.007  27.499  1.00  0.00     0.163 HD
ATOM     32  O   UNL A   1      32.725  35.277  29.952  1.00  0.00    -0.269 OA
BRANCH  30  33
ATOM     33  C   UNL A   1      34.417  33.659  29.597  1.00  0.00     0.039 A 
ATOM     34  C   UNL A   1      34.497  32.596  30.486  1.00  0.00     0.014 A 
ATOM     35  C   UNL A   1      35.610  34.105  29.071  1.00  0.00     0.014 A 
ATOM     36  C   UNL A   1      35.806  32.125  30.784  1.00  0.00     0.010 A 
ATOM     37  C   UNL A   1      36.554  33.174  28.846  1.00  0.00     0.010 A 
ATOM     38  C   UNL A   1      36.913  32.616  30.031  1.00  0.00    -0.014 A 
BRANCH  38  39
ATOM     39  C   UNL A   1      38.300  32.103  29.937  1.00  0.00     0.031 A 
ATOM     40  C   UNL A   1      38.155  30.749  29.248  1.00  0.00     0.074 A 
ATOM     41  C   UNL A   1      39.447  32.844  30.208  1.00  0.00     0.049 A 
ATOM     42  N   UNL A   1      37.940  29.630  29.871  1.00  0.00    -0.248 NA
ATOM     43  C   UNL A   1      37.730  30.619  27.816  1.00  0.00     0.031 C 
ATOM     44  C   UNL A   1      39.638  34.237  30.706  1.00  0.00     0.029 A 
ATOM     45  N   UNL A   1      40.791  32.473  30.126  1.00  0.00    -0.354 N 
ATOM     46  C   UNL A   1      37.909  28.655  28.875  1.00  0.00     0.074 A 
ATOM     47  C   UNL A   1      37.411  29.322  27.721  1.00  0.00     0.031 C 
ATOM     48  C   UNL A   1      40.943  34.644  30.601  1.00  0.00     0.029 A 
ATOM     49  C   UNL A   1      41.780  33.532  30.173  1.00  0.00     0.049 A 
ATOM     50  H   UNL A   1      41.056  31.529  30.039  1.00  0.00     0.167 HD
ATOM     51  C   UNL A   1      38.769  27.600  28.972  1.00  0.00     0.034 A 
ATOM     52  C   UNL A   1      43.178  33.428  30.111  1.00  0.00     0.034 A 
ATOM     53  C   UNL A   1      39.259  27.548  30.339  1.00  0.00     0.049 A 
ATOM     54  C   UNL A   1      43.445  31.986  30.380  1.00  0.00     0.074 A 
ATOM     55  C   UNL A   1      38.703  27.369  31.587  1.00  0.00     0.029 A 
ATOM     56  N   UNL A   1      40.392  28.299  30.518  1.00  0.00    -0.354 N 
ATOM     57  N   UNL A   1      43.172  31.446  31.538  1.00  0.00    -0.248 NA
ATOM     58  C   UNL A   1      43.343  31.120  29.216  1.00  0.00     0.031 C 
ATOM     59  C   UNL A   1      39.369  28.308  32.439  1.00  0.00     0.029 A 
ATOM     60  C   UNL A   1      40.433  28.886  31.749  1.00  0.00     0.049 A 
ATOM     61  H   UNL A   1      41.096  28.403  29.837  1.00  0.00     0.167 HD
ATOM     62  C   UNL A   1      42.399  30.338  31.223  1.00  0.00     0.074 A 
ATOM     63  C   UNL A   1      42.547  30.192  29.760  1.00  0.00     0.031 C 
ATOM     64  C   UNL A   1      41.424  29.893  32.084  1.00  0.00     0.034 A 
BRANCH  51  65
ATOM     65  C   UNL A   1      39.628  27.066  27.822  1.00  0.00     0.023 A 
ATOM     66  C   UNL A   1      39.754  25.663  27.749  1.00  0.00     0.031 A 
ATOM     67  C   UNL A   1      40.550  27.791  27.026  1.00  0.00     0.131 A 
ATOM     68  C   UNL A   1      40.792  25.054  27.022  1.00  0.00     0.055 A 
ATOM     69  C   UNL A   1      41.547  27.176  26.253  1.00  0.00     0.041 A 
ATOM     70  F   UNL A   1      40.602  29.127  27.001  1.00  0.00    -0.206 F 
ATOM     71  C   UNL A   1      41.690  25.801  26.266  1.00  0.00     0.022 A 
BRANCH  68  72
ATOM     72  S   UNL A   1      41.050  23.274  27.239  1.00  0.00     0.124 S 
ATOM     73  O   UNL A   1      39.681  22.775  27.212  1.00  0.00    -0.237 OA
ATOM     74  O   UNL A   1      41.878  22.952  26.081  1.00  0.00    -0.237 OA
ATOM     75  O   UNL A   1      41.725  23.186  28.531  1.00  0.00    -0.744 OA
ENDBRANCH  68  72
ENDBRANCH  51  65
BRANCH  52  76
ATOM     76  C   UNL A   1      44.231  34.241  29.302  1.00  0.00     0.023 A 
ATOM     77  C   UNL A   1      44.902  33.907  28.055  1.00  0.00     0.031 A 
ATOM     78  C   UNL A   1      44.354  35.588  29.683  1.00  0.00     0.131 A 
ATOM     79  C   UNL A   1      45.640  34.905  27.310  1.00  0.00     0.055 A 
ATOM     80  C   UNL A   1      45.031  36.556  28.929  1.00  0.00     0.041 A 
ATOM     81  F   UNL A   1      43.740  36.038  30.785  1.00  0.00    -0.206 F 
ATOM     82  C   UNL A   1      45.666  36.228  27.744  1.00  0.00     0.022 A 
BRANCH  79  83
ATOM     83  S   UNL A   1      46.629  34.584  25.760  1.00  0.00     0.124 S 
ATOM     84  O   UNL A   1      47.472  35.770  25.663  1.00  0.00    -0.237 OA
ATOM     85  O   UNL A   1      47.307  33.326  26.046  1.00  0.00    -0.237 OA
ATOM     86  O   UNL A   1      45.611  34.490  24.709  1.00  0.00    -0.744 OA
ENDBRANCH  79  83
ENDBRANCH  52  76
BRANCH  64  87
ATOM     87  C   UNL A   1      41.384  30.450  33.503  1.00  0.00     0.023 A 
ATOM     88  C   UNL A   1      40.627  31.545  34.002  1.00  0.00     0.031 A 
ATOM     89  C   UNL A   1      42.132  29.709  34.431  1.00  0.00     0.131 A 
ATOM     90  C   UNL A   1      40.687  31.869  35.383  1.00  0.00     0.055 A 
ATOM     91  C   UNL A   1      42.143  29.999  35.790  1.00  0.00     0.041 A 
ATOM     92  F   UNL A   1      42.848  28.648  34.025  1.00  0.00    -0.206 F 
ATOM     93  C   UNL A   1      41.431  31.087  36.271  1.00  0.00     0.022 A 
BRANCH  90  94
ATOM     94  S   UNL A   1      39.881  33.372  36.057  1.00  0.00     0.124 S 
ATOM     95  O   UNL A   1      38.536  33.303  35.496  1.00  0.00    -0.237 OA
ATOM     96  O   UNL A   1      39.979  33.174  37.500  1.00  0.00    -0.237 OA
ATOM     97  O   UNL A   1      40.703  34.467  35.537  1.00  0.00    -0.744 OA
ENDBRANCH  90  94
ENDBRANCH  64  87
ENDBRANCH  38  39
ENDBRANCH  30  33
ENDBRANCH  28  29
ENDBRANCH  27  28
ENDBRANCH  26  27
ENDBRANCH   3  26
TORSDOF 20
ENDMDL
MODEL 3
REMARK VINA RESULT:     -10.8      2.150      2.713
REMARK SMILES CCN(Cc1cn(CC)nc1C)C(=O)c1ccn([C@@H](C)C(=O)NCCCNC(=O)c2ccc(-c3c4nc(c(-c5cc(S(=O)(=O)[O-])ccc5F)c5ccc([nH]5)c(-c5cc(S(=O)(=O)[O-])ccc5F)c5nc(c(-c6cc(S(=O)(=O)[O-])ccc6F)c6ccc3[nH]6)C=C5)C=C4)cc2)n1
REMARK SMILES IDX 21 1 22 2 23 3 19 5 20 6 18 7 15 8 16 9 93 10 17 11 13 12
REMARK SMILES IDX 14 13 3 14 2 15 1 16 4 17 5 18 6 19 11 20 7 21 10 22 12 23
REMARK SMILES IDX 8 24 9 25 24 26 25 27 26 28 27 29 28 30 29 32 30 33 31 34
REMARK SMILES IDX 92 35 32 36 91 37 33 38 34 39 35 40 85 41 36 42 90 43 84 44
REMARK SMILES IDX 86 45 37 46 89 47 83 48 82 49 38 51 70 52 50 53 69 54 51 55
REMARK SMILES IDX 54 56 68 57 87 58 52 59 53 60 67 62 88 63 55 64 39 65 40 66
REMARK SMILES IDX 48 67 41 68 47 69 49 70 46 71 42 72 43 73 44 74 45 75 71 76
REMARK SMILES IDX 72 77 80 78 73 79 79 80 81 81 78 82 74 83 75 84 76 85 77 86
REMARK SMILES IDX 56 87 57 88 65 89 58 90 64 91 66 92 63 93 59 94 60 95 61 96
REMARK SMILES IDX 62 97
REMARK H PARENT 23 4 27 31 86 50 54 61
REMARK Flexibility Score: inf
ROOT
ATOM      1  C   UNL A   1      32.109  29.241  26.914  1.00  0.00     0.244 C 
ATOM      2  O   UNL A   1      31.668  28.251  27.512  1.00  0.00    -0.273 OA
ATOM      3  N   UNL A   1      32.861  30.098  27.670  1.00  0.00    -0.354 N 
ATOM      4  H   UNL A   1      32.959  29.803  28.604  1.00  0.00     0.163 HD
ENDROOT
BRANCH   1   5
ATOM      5  C   UNL A   1      31.839  29.399  25.405  1.00  0.00     0.193 C 
ATOM      6  C   UNL A   1      30.934  30.591  25.105  1.00  0.00     0.044 C 
BRANCH   5   7
ATOM      7  N   UNL A   1      31.435  28.145  24.776  1.00  0.00    -0.260 N 
ATOM      8  C   UNL A   1      31.276  26.079  24.323  1.00  0.00     0.150 A 
ATOM      9  C   UNL A   1      30.004  26.647  24.147  1.00  0.00     0.056 A 
ATOM     10  N   UNL A   1      32.169  27.001  24.777  1.00  0.00    -0.167 NA
ATOM     11  C   UNL A   1      30.326  27.960  24.030  1.00  0.00     0.110 A 
BRANCH   8  12
ATOM     12  C   UNL A   1      31.574  24.695  23.966  1.00  0.00     0.274 C 
ATOM     13  O   UNL A   1      30.676  23.854  23.921  1.00  0.00    -0.267 OA
BRANCH  12  14
ATOM     14  N   UNL A   1      32.913  24.388  23.608  1.00  0.00    -0.333 N 
BRANCH  14  15
ATOM     15  C   UNL A   1      33.150  24.136  22.190  1.00  0.00     0.117 C 
ATOM     16  C   UNL A   1      32.765  25.327  21.314  1.00  0.00     0.027 C 
ENDBRANCH  14  15
BRANCH  14  17
ATOM     17  C   UNL A   1      34.023  24.108  24.546  1.00  0.00     0.159 C 
BRANCH  17  18
ATOM     18  C   UNL A   1      34.373  22.649  24.676  1.00  0.00     0.012 A 
ATOM     19  C   UNL A   1      33.540  21.547  24.791  1.00  0.00     0.114 A 
ATOM     20  C   UNL A   1      35.687  22.071  24.696  1.00  0.00     0.064 A 
ATOM     21  N   UNL A   1      34.338  20.435  24.737  1.00  0.00    -0.272 N 
ATOM     22  N   UNL A   1      35.648  20.733  24.723  1.00  0.00    -0.178 NA
ATOM     23  C   UNL A   1      37.013  22.742  24.620  1.00  0.00     0.069 C 
BRANCH  21  24
ATOM     24  C   UNL A   1      33.917  19.045  24.724  1.00  0.00     0.141 C 
ATOM     25  C   UNL A   1      32.506  18.837  24.189  1.00  0.00     0.029 C 
ENDBRANCH  21  24
ENDBRANCH  17  18
ENDBRANCH  14  17
ENDBRANCH  12  14
ENDBRANCH   8  12
ENDBRANCH   5   7
ENDBRANCH   1   5
BRANCH   3  26
ATOM     26  C   UNL A   1      33.547  31.353  27.389  1.00  0.00     0.117 C 
BRANCH  26  27
ATOM     27  C   UNL A   1      32.662  32.579  27.624  1.00  0.00     0.042 C 
BRANCH  27  28
ATOM     28  C   UNL A   1      33.418  33.851  27.496  1.00  0.00     0.118 C 
BRANCH  28  29
ATOM     29  N   UNL A   1      33.099  34.803  28.550  1.00  0.00    -0.352 N 
ATOM     30  C   UNL A   1      33.430  34.658  29.894  1.00  0.00     0.251 C 
ATOM     31  H   UNL A   1      32.609  35.616  28.290  1.00  0.00     0.163 HD
ATOM     32  O   UNL A   1      32.845  35.259  30.762  1.00  0.00    -0.269 OA
BRANCH  30  33
ATOM     33  C   UNL A   1      34.607  33.797  30.159  1.00  0.00     0.039 A 
ATOM     34  C   UNL A   1      34.684  32.653  30.942  1.00  0.00     0.014 A 
ATOM     35  C   UNL A   1      35.797  34.262  29.641  1.00  0.00     0.014 A 
ATOM     36  C   UNL A   1      35.987  32.125  31.155  1.00  0.00     0.010 A 
ATOM     37  C   UNL A   1      36.709  33.333  29.302  1.00  0.00     0.010 A 
ATOM     38  C   UNL A   1      37.085  32.657  30.418  1.00  0.00    -0.014 A 
BRANCH  38  39
ATOM     39  C   UNL A   1      38.455  32.122  30.235  1.00  0.00     0.031 A 
ATOM     40  C   UNL A   1      38.248  30.800  29.504  1.00  0.00     0.074 A 
ATOM     41  C   UNL A   1      39.629  32.831  30.477  1.00  0.00     0.049 A 
ATOM     42  N   UNL A   1      38.041  29.661  30.094  1.00  0.00    -0.248 NA
ATOM     43  C   UNL A   1      37.750  30.733  28.092  1.00  0.00     0.031 C 
ATOM     44  C   UNL A   1      39.874  34.199  31.017  1.00  0.00     0.029 A 
ATOM     45  N   UNL A   1      40.959  32.437  30.314  1.00  0.00    -0.354 N 
ATOM     46  C   UNL A   1      37.940  28.726  29.065  1.00  0.00     0.074 A 
ATOM     47  C   UNL A   1      37.400  29.447  27.963  1.00  0.00     0.031 C 
ATOM     48  C   UNL A   1      41.180  34.585  30.862  1.00  0.00     0.029 A 
ATOM     49  C   UNL A   1      41.971  33.475  30.351  1.00  0.00     0.049 A 
ATOM     50  H   UNL A   1      41.201  31.492  30.178  1.00  0.00     0.167 HD
ATOM     51  C   UNL A   1      38.781  27.653  29.079  1.00  0.00     0.034 A 
ATOM     52  C   UNL A   1      43.362  33.347  30.214  1.00  0.00     0.034 A 
ATOM     53  C   UNL A   1      39.338  27.538  30.416  1.00  0.00     0.049 A 
ATOM     54  C   UNL A   1      43.613  31.891  30.415  1.00  0.00     0.074 A 
ATOM     55  C   UNL A   1      38.841  27.321  31.683  1.00  0.00     0.029 A 
ATOM     56  N   UNL A   1      40.494  28.259  30.566  1.00  0.00    -0.354 N 
ATOM     57  N   UNL A   1      43.386  31.311  31.564  1.00  0.00    -0.248 NA
ATOM     58  C   UNL A   1      43.434  31.073  29.225  1.00  0.00     0.031 C 
ATOM     59  C   UNL A   1      39.567  28.213  32.535  1.00  0.00     0.029 A 
ATOM     60  C   UNL A   1      40.608  28.797  31.815  1.00  0.00     0.049 A 
ATOM     61  H   UNL A   1      41.164  28.377  29.856  1.00  0.00     0.167 HD
ATOM     62  C   UNL A   1      42.575  30.232  31.246  1.00  0.00     0.074 A 
ATOM     63  C   UNL A   1      42.648  30.140  29.773  1.00  0.00     0.031 C 
ATOM     64  C   UNL A   1      41.635  29.772  32.138  1.00  0.00     0.034 A 
BRANCH  51  65
ATOM     65  C   UNL A   1      39.572  27.147  27.867  1.00  0.00     0.023 A 
ATOM     66  C   UNL A   1      39.699  25.747  27.757  1.00  0.00     0.031 A 
ATOM     67  C   UNL A   1      40.439  27.894  27.032  1.00  0.00     0.131 A 
ATOM     68  C   UNL A   1      40.693  25.159  26.956  1.00  0.00     0.055 A 
ATOM     69  C   UNL A   1      41.390  27.301  26.187  1.00  0.00     0.041 A 
ATOM     70  F   UNL A   1      40.484  29.230  27.032  1.00  0.00    -0.206 F 
ATOM     71  C   UNL A   1      41.540  25.926  26.162  1.00  0.00     0.022 A 
BRANCH  68  72
ATOM     72  S   UNL A   1      40.973  23.377  27.119  1.00  0.00     0.124 S 
ATOM     73  O   UNL A   1      39.616  22.857  26.999  1.00  0.00    -0.237 OA
ATOM     74  O   UNL A   1      41.868  23.113  25.997  1.00  0.00    -0.237 OA
ATOM     75  O   UNL A   1      41.578  23.250  28.442  1.00  0.00    -0.744 OA
ENDBRANCH  68  72
ENDBRANCH  51  65
BRANCH  52  76
ATOM     76  C   UNL A   1      44.390  34.170  29.385  1.00  0.00     0.023 A 
ATOM     77  C   UNL A   1      44.971  33.887  28.081  1.00  0.00     0.031 A 
ATOM     78  C   UNL A   1      44.585  35.489  29.831  1.00  0.00     0.131 A 
ATOM     79  C   UNL A   1      45.695  34.902  27.345  1.00  0.00     0.055 A 
ATOM     80  C   UNL A   1      45.247  36.476  29.088  1.00  0.00     0.041 A 
ATOM     81  F   UNL A   1      44.058  35.895  30.993  1.00  0.00    -0.206 F 
ATOM     82  C   UNL A   1      45.794  36.196  27.849  1.00  0.00     0.022 A 
BRANCH  79  83
ATOM     83  S   UNL A   1      46.573  34.638  25.720  1.00  0.00     0.124 S 
ATOM     84  O   UNL A   1      45.470  34.462  24.782  1.00  0.00    -0.237 OA
ATOM     85  O   UNL A   1      47.372  35.846  25.566  1.00  0.00    -0.237 OA
ATOM     86  O   UNL A   1      47.363  33.422  25.943  1.00  0.00    -0.744 OA
ENDBRANCH  79  83
ENDBRANCH  52  76
BRANCH  64  87
ATOM     87  C   UNL A   1      41.676  30.273  33.577  1.00  0.00     0.023 A 
ATOM     88  C   UNL A   1      42.677  30.052  34.562  1.00  0.00     0.031 A 
ATOM     89  C   UNL A   1      40.620  31.134  33.915  1.00  0.00     0.131 A 
ATOM     90  C   UNL A   1      42.554  30.662  35.838  1.00  0.00     0.055 A 
ATOM     91  C   UNL A   1      40.535  31.771  35.147  1.00  0.00     0.041 A 
ATOM     92  F   UNL A   1      39.657  31.403  33.019  1.00  0.00    -0.206 F 
ATOM     93  C   UNL A   1      41.494  31.529  36.119  1.00  0.00     0.022 A 
BRANCH  90  94
ATOM     94  S   UNL A   1      43.711  30.277  37.207  1.00  0.00     0.124 S 
ATOM     95  O   UNL A   1      44.999  30.718  36.683  1.00  0.00    -0.237 OA
ATOM     96  O   UNL A   1      43.174  31.059  38.317  1.00  0.00    -0.237 OA
ATOM     97  O   UNL A   1      43.583  28.827  37.368  1.00  0.00    -0.744 OA
ENDBRANCH  90  94
ENDBRANCH  64  87
ENDBRANCH  38  39
ENDBRANCH  30  33
ENDBRANCH  28  29
ENDBRANCH  27  28
ENDBRANCH  26  27
ENDBRANCH   3  26
TORSDOF 20
ENDMDL
