MODEL 1
REMARK VINA RESULT:     -10.7      0.000      0.000
REMARK SMILES CCCC[C@H](CC)C(=O)N1[C@H](C(=O)NCCCNC(=O)c2ccc(-c3c4nc(c(-c5cc(S(=O)(=O)[O-])ccc5F)c5ccc([nH]5)c(-c5cc(S(=O)(=O)[O-])ccc5F)c5nc(c(-c6cc(S(=O)(=O)[O-])ccc6F)c6ccc3[nH]6)C=C5)C=C4)cc2)COC12CCCCC2
REMARK SMILES IDX 15 1 14 2 12 3 13 4 11 6 10 7 86 8 84 9 85 10 87 11 91 12
REMARK SMILES IDX 88 13 90 14 89 15 8 16 9 17 5 18 4 19 3 20 2 21 1 22 6 23
REMARK SMILES IDX 7 24 16 25 17 26 18 27 19 28 20 30 21 31 22 32 83 33 23 34
REMARK SMILES IDX 82 35 24 36 25 37 26 38 76 39 27 40 81 41 75 42 77 43 28 44
REMARK SMILES IDX 80 45 74 46 73 47 29 49 61 50 41 51 60 52 42 53 45 54 59 55
REMARK SMILES IDX 78 56 43 57 44 58 58 60 79 61 46 62 30 63 31 64 39 65 32 66
REMARK SMILES IDX 38 67 40 68 37 69 33 70 34 71 35 72 36 73 62 74 63 75 71 76
REMARK SMILES IDX 64 77 70 78 72 79 69 80 65 81 66 82 67 83 68 84 47 85 48 86
REMARK SMILES IDX 56 87 49 88 55 89 57 90 54 91 50 92 51 93 52 94 53 95
REMARK H PARENT 14 5 18 29 77 48 45 59
REMARK Flexibility Score: inf
ROOT
ATOM      1  C   UNL A   1      37.225  20.711  24.719  1.00  0.00     0.117 C 
ENDROOT
BRANCH   1   2
ATOM      2  N   UNL A   1      35.847  20.262  24.826  1.00  0.00    -0.354 N 
ATOM      3  C   UNL A   1      34.798  20.913  25.428  1.00  0.00     0.245 C 
ATOM      4  O   UNL A   1      33.856  20.249  25.860  1.00  0.00    -0.273 OA
ATOM      5  H   UNL A   1      35.640  19.390  24.420  1.00  0.00     0.163 HD
BRANCH   3   6
ATOM      6  C   UNL A   1      34.909  22.436  25.581  1.00  0.00     0.203 C 
ATOM      7  N   UNL A   1      34.145  23.301  24.684  1.00  0.00    -0.299 N 
ATOM      8  C   UNL A   1      33.577  24.403  25.476  1.00  0.00     0.144 C 
ATOM      9  C   UNL A   1      34.393  22.802  26.949  1.00  0.00     0.198 C 
ATOM     10  O   UNL A   1      34.026  24.169  26.841  1.00  0.00    -0.353 OA
ATOM     11  C   UNL A   1      34.183  25.772  25.165  1.00  0.00     0.059 C 
ATOM     12  C   UNL A   1      32.042  24.401  25.566  1.00  0.00     0.059 C 
ATOM     13  C   UNL A   1      33.605  26.893  26.027  1.00  0.00     0.005 C 
ATOM     14  C   UNL A   1      31.497  25.571  26.392  1.00  0.00     0.005 C 
ATOM     15  C   UNL A   1      32.084  26.908  25.949  1.00  0.00     0.000 C 
BRANCH   7  16
ATOM     16  C   UNL A   1      34.323  23.076  23.334  1.00  0.00     0.228 C 
ATOM     17  O   UNL A   1      35.480  23.055  22.877  1.00  0.00    -0.274 OA
BRANCH  16  18
ATOM     18  C   UNL A   1      33.221  23.044  22.261  1.00  0.00     0.078 C 
BRANCH  18  19
ATOM     19  C   UNL A   1      33.127  24.496  21.719  1.00  0.00     0.013 C 
BRANCH  19  20
ATOM     20  C   UNL A   1      31.809  25.261  21.862  1.00  0.00     0.001 C 
BRANCH  20  21
ATOM     21  C   UNL A   1      31.936  26.711  22.333  1.00  0.00    -0.003 C 
ATOM     22  C   UNL A   1      30.603  27.386  22.627  1.00  0.00     0.004 C 
ENDBRANCH  20  21
ENDBRANCH  19  20
ENDBRANCH  18  19
BRANCH  18  23
ATOM     23  C   UNL A   1      31.928  22.266  22.499  1.00  0.00     0.010 C 
ATOM     24  C   UNL A   1      32.166  20.786  22.788  1.00  0.00     0.005 C 
ENDBRANCH  18  23
ENDBRANCH  16  18
ENDBRANCH   7  16
ENDBRANCH   3   6
ENDBRANCH   1   2
BRANCH   1  25
ATOM     25  C   UNL A   1      38.171  19.630  25.237  1.00  0.00     0.042 C 
BRANCH  25  26
ATOM     26  C   UNL A   1      39.330  20.195  26.048  1.00  0.00     0.118 C 
BRANCH  26  27
ATOM     27  N   UNL A   1      40.500  19.333  25.992  1.00  0.00    -0.352 N 
ATOM     28  C   UNL A   1      41.828  19.682  26.007  1.00  0.00     0.251 C 
ATOM     29  H   UNL A   1      40.314  18.368  25.937  1.00  0.00     0.163 HD
ATOM     30  O   UNL A   1      42.678  18.852  25.712  1.00  0.00    -0.269 OA
BRANCH  28  31
ATOM     31  C   UNL A   1      42.209  21.066  26.358  1.00  0.00     0.039 A 
ATOM     32  C   UNL A   1      42.481  21.379  27.691  1.00  0.00     0.014 A 
ATOM     33  C   UNL A   1      42.308  22.048  25.367  1.00  0.00     0.014 A 
ATOM     34  C   UNL A   1      42.913  22.664  28.021  1.00  0.00     0.010 A 
ATOM     35  C   UNL A   1      42.817  23.301  25.686  1.00  0.00     0.010 A 
ATOM     36  C   UNL A   1      43.121  23.624  27.017  1.00  0.00    -0.014 A 
BRANCH  36  37
ATOM     37  C   UNL A   1      43.648  24.977  27.333  1.00  0.00     0.031 A 
ATOM     38  C   UNL A   1      42.720  26.043  27.846  1.00  0.00     0.074 A 
ATOM     39  C   UNL A   1      44.943  25.260  27.093  1.00  0.00     0.049 A 
ATOM     40  N   UNL A   1      42.960  27.306  28.086  1.00  0.00    -0.248 NA
ATOM     41  C   UNL A   1      41.328  25.636  28.092  1.00  0.00     0.031 C 
ATOM     42  C   UNL A   1      45.933  24.317  26.572  1.00  0.00     0.029 A 
ATOM     43  N   UNL A   1      45.647  26.428  27.248  1.00  0.00    -0.354 N 
ATOM     44  C   UNL A   1      41.749  27.848  28.501  1.00  0.00     0.074 A 
ATOM     45  C   UNL A   1      40.764  26.792  28.406  1.00  0.00     0.031 C 
ATOM     46  C   UNL A   1      47.122  24.933  26.481  1.00  0.00     0.029 A 
ATOM     47  C   UNL A   1      46.969  26.328  26.880  1.00  0.00     0.049 A 
ATOM     48  H   UNL A   1      45.246  27.259  27.591  1.00  0.00     0.167 HD
ATOM     49  C   UNL A   1      41.488  29.104  28.945  1.00  0.00     0.034 A 
ATOM     50  C   UNL A   1      47.943  27.259  26.851  1.00  0.00     0.034 A 
ATOM     51  C   UNL A   1      42.484  30.145  29.027  1.00  0.00     0.049 A 
ATOM     52  C   UNL A   1      47.617  28.665  27.287  1.00  0.00     0.074 A 
ATOM     53  C   UNL A   1      42.342  31.441  29.491  1.00  0.00     0.029 A 
ATOM     54  N   UNL A   1      43.808  30.013  28.622  1.00  0.00    -0.354 N 
ATOM     55  N   UNL A   1      46.475  29.156  27.711  1.00  0.00    -0.248 NA
ATOM     56  C   UNL A   1      48.715  29.640  27.247  1.00  0.00     0.031 C 
ATOM     57  C   UNL A   1      43.553  32.113  29.294  1.00  0.00     0.029 A 
ATOM     58  C   UNL A   1      44.481  31.214  28.794  1.00  0.00     0.049 A 
ATOM     59  H   UNL A   1      44.209  29.188  28.266  1.00  0.00     0.167 HD
ATOM     60  C   UNL A   1      46.729  30.490  28.026  1.00  0.00     0.074 A 
ATOM     61  C   UNL A   1      48.133  30.719  27.750  1.00  0.00     0.031 C 
ATOM     62  C   UNL A   1      45.881  31.435  28.507  1.00  0.00     0.034 A 
BRANCH  49  63
ATOM     63  C   UNL A   1      40.063  29.413  29.344  1.00  0.00     0.023 A 
ATOM     64  C   UNL A   1      39.671  29.471  30.693  1.00  0.00     0.031 A 
ATOM     65  C   UNL A   1      39.070  29.604  28.366  1.00  0.00     0.131 A 
ATOM     66  C   UNL A   1      38.315  29.612  31.026  1.00  0.00     0.055 A 
ATOM     67  C   UNL A   1      37.737  29.844  28.706  1.00  0.00     0.041 A 
ATOM     68  F   UNL A   1      39.375  29.540  27.060  1.00  0.00    -0.206 F 
ATOM     69  C   UNL A   1      37.349  29.828  30.042  1.00  0.00     0.022 A 
BRANCH  66  70
ATOM     70  S   UNL A   1      37.815  29.327  32.746  1.00  0.00     0.124 S 
ATOM     71  O   UNL A   1      37.675  27.873  32.774  1.00  0.00    -0.237 OA
ATOM     72  O   UNL A   1      38.939  29.875  33.496  1.00  0.00    -0.237 OA
ATOM     73  O   UNL A   1      36.562  30.068  32.867  1.00  0.00    -0.744 OA
ENDBRANCH  66  70
ENDBRANCH  49  63
BRANCH  50  74
ATOM     74  C   UNL A   1      49.317  26.901  26.395  1.00  0.00     0.023 A 
ATOM     75  C   UNL A   1      49.765  27.256  25.114  1.00  0.00     0.031 A 
ATOM     76  C   UNL A   1      50.190  26.167  27.218  1.00  0.00     0.131 A 
ATOM     77  C   UNL A   1      51.030  26.840  24.674  1.00  0.00     0.055 A 
ATOM     78  C   UNL A   1      51.471  25.806  26.797  1.00  0.00     0.041 A 
ATOM     79  F   UNL A   1      49.815  25.804  28.455  1.00  0.00    -0.206 F 
ATOM     80  C   UNL A   1      51.893  26.132  25.512  1.00  0.00     0.022 A 
BRANCH  77  81
ATOM     81  S   UNL A   1      51.501  27.166  22.953  1.00  0.00     0.124 S 
ATOM     82  O   UNL A   1      51.784  28.597  22.990  1.00  0.00    -0.237 OA
ATOM     83  O   UNL A   1      52.654  26.288  22.782  1.00  0.00    -0.237 OA
ATOM     84  O   UNL A   1      50.311  26.784  22.197  1.00  0.00    -0.744 OA
ENDBRANCH  77  81
ENDBRANCH  50  74
BRANCH  62  85
ATOM     85  C   UNL A   1      46.468  32.791  28.821  1.00  0.00     0.023 A 
ATOM     86  C   UNL A   1      46.474  33.837  27.883  1.00  0.00     0.031 A 
ATOM     87  C   UNL A   1      47.037  33.035  30.085  1.00  0.00     0.131 A 
ATOM     88  C   UNL A   1      47.089  35.058  28.200  1.00  0.00     0.055 A 
ATOM     89  C   UNL A   1      47.585  34.273  30.419  1.00  0.00     0.041 A 
ATOM     90  F   UNL A   1      47.065  32.070  31.019  1.00  0.00    -0.206 F 
ATOM     91  C   UNL A   1      47.626  35.290  29.471  1.00  0.00     0.022 A 
BRANCH  88  92
ATOM     92  S   UNL A   1      47.271  36.308  26.899  1.00  0.00     0.124 S 
ATOM     93  O   UNL A   1      47.052  35.522  25.690  1.00  0.00    -0.237 OA
ATOM     94  O   UNL A   1      46.221  37.265  27.237  1.00  0.00    -0.237 OA
ATOM     95  O   UNL A   1      48.636  36.798  27.082  1.00  0.00    -0.744 OA
ENDBRANCH  88  92
ENDBRANCH  62  85
ENDBRANCH  36  37
ENDBRANCH  28  31
ENDBRANCH  26  27
ENDBRANCH  25  26
ENDBRANCH   1  25
TORSDOF 19
ENDMDL
MODEL 2
REMARK VINA RESULT:     -10.5      5.768     11.582
REMARK SMILES CCCC[C@H](CC)C(=O)N1[C@H](C(=O)NCCCNC(=O)c2ccc(-c3c4nc(c(-c5cc(S(=O)(=O)[O-])ccc5F)c5ccc([nH]5)c(-c5cc(S(=O)(=O)[O-])ccc5F)c5nc(c(-c6cc(S(=O)(=O)[O-])ccc6F)c6ccc3[nH]6)C=C5)C=C4)cc2)COC12CCCCC2
REMARK SMILES IDX 15 1 14 2 12 3 13 4 11 6 10 7 86 8 84 9 85 10 87 11 91 12
REMARK SMILES IDX 88 13 90 14 89 15 8 16 9 17 5 18 4 19 3 20 2 21 1 22 6 23
REMARK SMILES IDX 7 24 16 25 17 26 18 27 19 28 20 30 21 31 22 32 83 33 23 34
REMARK SMILES IDX 82 35 24 36 25 37 26 38 76 39 27 40 81 41 75 42 77 43 28 44
REMARK SMILES IDX 80 45 74 46 73 47 29 49 61 50 41 51 60 52 42 53 45 54 59 55
REMARK SMILES IDX 78 56 43 57 44 58 58 60 79 61 46 62 30 63 31 64 39 65 32 66
REMARK SMILES IDX 38 67 40 68 37 69 33 70 34 71 35 72 36 73 62 74 63 75 71 76
REMARK SMILES IDX 64 77 70 78 72 79 69 80 65 81 66 82 67 83 68 84 47 85 48 86
REMARK SMILES IDX 56 87 49 88 55 89 57 90 54 91 50 92 51 93 52 94 53 95
REMARK H PARENT 14 5 18 29 77 48 45 59
REMARK Flexibility Score: inf
ROOT
ATOM      1  C   UNL A   1      32.189  30.274  26.128  1.00  0.00     0.117 C 
ENDROOT
BRANCH   1   2
ATOM      2  N   UNL A   1      31.333  29.926  25.006  1.00  0.00    -0.354 N 
ATOM      3  C   UNL A   1      31.631  29.101  23.949  1.00  0.00     0.245 C 
ATOM      4  O   UNL A   1      31.044  29.270  22.880  1.00  0.00    -0.273 OA
ATOM      5  H   UNL A   1      30.436  30.330  25.002  1.00  0.00     0.163 HD
BRANCH   3   6
ATOM      6  C   UNL A   1      32.736  28.057  24.161  1.00  0.00     0.203 C 
ATOM      7  N   UNL A   1      32.369  26.702  24.566  1.00  0.00    -0.299 N 
ATOM      8  C   UNL A   1      33.189  25.751  23.799  1.00  0.00     0.144 C 
ATOM      9  C   UNL A   1      33.437  27.854  22.842  1.00  0.00     0.198 C 
ATOM     10  O   UNL A   1      34.039  26.572  22.949  1.00  0.00    -0.353 OA
ATOM     11  C   UNL A   1      34.212  24.988  24.642  1.00  0.00     0.059 C 
ATOM     12  C   UNL A   1      32.396  24.868  22.821  1.00  0.00     0.059 C 
ATOM     13  C   UNL A   1      35.077  24.037  23.818  1.00  0.00     0.005 C 
ATOM     14  C   UNL A   1      33.291  23.889  22.053  1.00  0.00     0.005 C 
ATOM     15  C   UNL A   1      34.211  23.102  22.982  1.00  0.00     0.000 C 
BRANCH   7  16
ATOM     16  C   UNL A   1      31.581  26.604  25.695  1.00  0.00     0.228 C 
ATOM     17  O   UNL A   1      32.014  27.054  26.770  1.00  0.00    -0.274 OA
BRANCH  16  18
ATOM     18  C   UNL A   1      30.274  25.802  25.829  1.00  0.00     0.078 C 
BRANCH  18  19
ATOM     19  C   UNL A   1      30.700  24.309  25.814  1.00  0.00     0.013 C 
BRANCH  19  20
ATOM     20  C   UNL A   1      31.669  23.800  26.883  1.00  0.00     0.001 C 
BRANCH  20  21
ATOM     21  C   UNL A   1      32.170  22.367  26.691  1.00  0.00    -0.003 C 
ATOM     22  C   UNL A   1      31.807  21.760  25.341  1.00  0.00     0.004 C 
ENDBRANCH  20  21
ENDBRANCH  19  20
ENDBRANCH  18  19
BRANCH  18  23
ATOM     23  C   UNL A   1      29.027  26.216  25.051  1.00  0.00     0.010 C 
ATOM     24  C   UNL A   1      29.172  26.025  23.543  1.00  0.00     0.005 C 
ENDBRANCH  18  23
ENDBRANCH  16  18
ENDBRANCH   7  16
ENDBRANCH   3   6
ENDBRANCH   1   2
BRANCH   1  25
ATOM     25  C   UNL A   1      31.816  31.654  26.665  1.00  0.00     0.042 C 
BRANCH  25  26
ATOM     26  C   UNL A   1      32.979  32.355  27.356  1.00  0.00     0.118 C 
BRANCH  26  27
ATOM     27  N   UNL A   1      32.695  33.760  27.601  1.00  0.00    -0.352 N 
ATOM     28  C   UNL A   1      33.195  34.583  28.580  1.00  0.00     0.251 C 
ATOM     29  H   UNL A   1      32.058  34.179  26.978  1.00  0.00     0.163 HD
ATOM     30  O   UNL A   1      32.670  35.669  28.788  1.00  0.00    -0.269 OA
BRANCH  28  31
ATOM     31  C   UNL A   1      34.349  34.130  29.385  1.00  0.00     0.039 A 
ATOM     32  C   UNL A   1      34.122  33.334  30.509  1.00  0.00     0.014 A 
ATOM     33  C   UNL A   1      35.651  34.486  29.022  1.00  0.00     0.014 A 
ATOM     34  C   UNL A   1      35.208  32.841  31.233  1.00  0.00     0.010 A 
ATOM     35  C   UNL A   1      36.731  33.927  29.694  1.00  0.00     0.010 A 
ATOM     36  C   UNL A   1      36.522  33.102  30.809  1.00  0.00    -0.014 A 
BRANCH  36  37
ATOM     37  C   UNL A   1      37.695  32.531  31.520  1.00  0.00     0.031 A 
ATOM     38  C   UNL A   1      38.477  31.408  30.895  1.00  0.00     0.074 A 
ATOM     39  C   UNL A   1      38.010  32.975  32.751  1.00  0.00     0.049 A 
ATOM     40  N   UNL A   1      39.464  30.709  31.391  1.00  0.00    -0.248 NA
ATOM     41  C   UNL A   1      38.069  31.000  29.542  1.00  0.00     0.031 C 
ATOM     42  C   UNL A   1      37.309  34.040  33.471  1.00  0.00     0.029 A 
ATOM     43  N   UNL A   1      38.995  32.581  33.621  1.00  0.00    -0.354 N 
ATOM     44  C   UNL A   1      39.791  29.772  30.417  1.00  0.00     0.074 A 
ATOM     45  C   UNL A   1      38.845  29.947  29.336  1.00  0.00     0.031 C 
ATOM     46  C   UNL A   1      37.906  34.236  34.657  1.00  0.00     0.029 A 
ATOM     47  C   UNL A   1      38.994  33.274  34.809  1.00  0.00     0.049 A 
ATOM     48  H   UNL A   1      39.643  31.869  33.414  1.00  0.00     0.167 HD
ATOM     49  C   UNL A   1      40.803  28.868  30.413  1.00  0.00     0.034 A 
ATOM     50  C   UNL A   1      39.769  33.140  35.903  1.00  0.00     0.034 A 
ATOM     51  C   UNL A   1      41.733  28.706  31.504  1.00  0.00     0.049 A 
ATOM     52  C   UNL A   1      40.846  32.084  35.905  1.00  0.00     0.074 A 
ATOM     53  C   UNL A   1      42.814  27.848  31.597  1.00  0.00     0.029 A 
ATOM     54  N   UNL A   1      41.685  29.411  32.703  1.00  0.00    -0.354 N 
ATOM     55  N   UNL A   1      41.166  31.227  34.962  1.00  0.00    -0.248 NA
ATOM     56  C   UNL A   1      41.669  31.984  37.117  1.00  0.00     0.031 C 
ATOM     57  C   UNL A   1      43.369  27.975  32.875  1.00  0.00     0.029 A 
ATOM     58  C   UNL A   1      42.695  28.980  33.551  1.00  0.00     0.049 A 
ATOM     59  H   UNL A   1      41.030  30.113  32.918  1.00  0.00     0.167 HD
ATOM     60  C   UNL A   1      42.257  30.513  35.454  1.00  0.00     0.074 A 
ATOM     61  C   UNL A   1      42.540  31.047  36.771  1.00  0.00     0.031 C 
ATOM     62  C   UNL A   1      42.964  29.513  34.867  1.00  0.00     0.034 A 
BRANCH  49  63
ATOM     63  C   UNL A   1      40.925  27.973  29.201  1.00  0.00     0.023 A 
ATOM     64  C   UNL A   1      41.974  28.124  28.277  1.00  0.00     0.031 A 
ATOM     65  C   UNL A   1      39.955  26.989  28.935  1.00  0.00     0.131 A 
ATOM     66  C   UNL A   1      41.976  27.378  27.088  1.00  0.00     0.055 A 
ATOM     67  C   UNL A   1      40.018  26.181  27.798  1.00  0.00     0.041 A 
ATOM     68  F   UNL A   1      38.917  26.810  29.767  1.00  0.00    -0.206 F 
ATOM     69  C   UNL A   1      41.020  26.388  26.855  1.00  0.00     0.022 A 
BRANCH  66  70
ATOM     70  S   UNL A   1      43.135  27.851  25.775  1.00  0.00     0.124 S 
ATOM     71  O   UNL A   1      44.027  26.694  25.740  1.00  0.00    -0.237 OA
ATOM     72  O   UNL A   1      42.257  28.015  24.623  1.00  0.00    -0.237 OA
ATOM     73  O   UNL A   1      43.742  29.080  26.279  1.00  0.00    -0.744 OA
ENDBRANCH  66  70
ENDBRANCH  49  63
BRANCH  50  74
ATOM     74  C   UNL A   1      39.560  34.019  37.088  1.00  0.00     0.023 A 
ATOM     75  C   UNL A   1      38.966  33.522  38.258  1.00  0.00     0.031 A 
ATOM     76  C   UNL A   1      39.919  35.379  37.060  1.00  0.00     0.131 A 
ATOM     77  C   UNL A   1      38.705  34.385  39.334  1.00  0.00     0.055 A 
ATOM     78  C   UNL A   1      39.711  36.221  38.154  1.00  0.00     0.041 A 
ATOM     79  F   UNL A   1      40.494  35.907  35.968  1.00  0.00    -0.206 F 
ATOM     80  C   UNL A   1      39.088  35.727  39.296  1.00  0.00     0.022 A 
BRANCH  77  81
ATOM     81  S   UNL A   1      37.778  33.745  40.755  1.00  0.00     0.124 S 
ATOM     82  O   UNL A   1      37.470  34.971  41.483  1.00  0.00    -0.237 OA
ATOM     83  O   UNL A   1      36.650  33.083  40.107  1.00  0.00    -0.237 OA
ATOM     84  O   UNL A   1      38.731  32.852  41.408  1.00  0.00    -0.744 OA
ENDBRANCH  77  81
ENDBRANCH  50  74
BRANCH  62  85
ATOM     85  C   UNL A   1      44.152  28.973  35.626  1.00  0.00     0.023 A 
ATOM     86  C   UNL A   1      44.043  27.881  36.504  1.00  0.00     0.031 A 
ATOM     87  C   UNL A   1      45.417  29.570  35.470  1.00  0.00     0.131 A 
ATOM     88  C   UNL A   1      45.164  27.456  37.235  1.00  0.00     0.055 A 
ATOM     89  C   UNL A   1      46.542  29.099  36.147  1.00  0.00     0.041 A 
ATOM     90  F   UNL A   1      45.580  30.620  34.649  1.00  0.00    -0.206 F 
ATOM     91  C   UNL A   1      46.417  28.045  37.046  1.00  0.00     0.022 A 
BRANCH  88  92
ATOM     92  S   UNL A   1      44.942  26.189  38.515  1.00  0.00     0.124 S 
ATOM     93  O   UNL A   1      45.941  26.580  39.504  1.00  0.00    -0.237 OA
ATOM     94  O   UNL A   1      43.548  26.382  38.905  1.00  0.00    -0.237 OA
ATOM     95  O   UNL A   1      45.221  24.939  37.811  1.00  0.00    -0.744 OA
ENDBRANCH  88  92
ENDBRANCH  62  85
ENDBRANCH  36  37
ENDBRANCH  28  31
ENDBRANCH  26  27
ENDBRANCH  25  26
ENDBRANCH   1  25
TORSDOF 19
ENDMDL
MODEL 3
REMARK VINA RESULT:     -10.5      5.597     10.610
REMARK SMILES CCCC[C@H](CC)C(=O)N1[C@H](C(=O)NCCCNC(=O)c2ccc(-c3c4nc(c(-c5cc(S(=O)(=O)[O-])ccc5F)c5ccc([nH]5)c(-c5cc(S(=O)(=O)[O-])ccc5F)c5nc(c(-c6cc(S(=O)(=O)[O-])ccc6F)c6ccc3[nH]6)C=C5)C=C4)cc2)COC12CCCCC2
REMARK SMILES IDX 15 1 14 2 12 3 13 4 11 6 10 7 86 8 84 9 85 10 87 11 91 12
REMARK SMILES IDX 88 13 90 14 89 15 8 16 9 17 5 18 4 19 3 20 2 21 1 22 6 23
REMARK SMILES IDX 7 24 16 25 17 26 18 27 19 28 20 30 21 31 22 32 83 33 23 34
REMARK SMILES IDX 82 35 24 36 25 37 26 38 76 39 27 40 81 41 75 42 77 43 28 44
REMARK SMILES IDX 80 45 74 46 73 47 29 49 61 50 41 51 60 52 42 53 45 54 59 55
REMARK SMILES IDX 78 56 43 57 44 58 58 60 79 61 46 62 30 63 31 64 39 65 32 66
REMARK SMILES IDX 38 67 40 68 37 69 33 70 34 71 35 72 36 73 62 74 63 75 71 76
REMARK SMILES IDX 64 77 70 78 72 79 69 80 65 81 66 82 67 83 68 84 47 85 48 86
REMARK SMILES IDX 56 87 49 88 55 89 57 90 54 91 50 92 51 93 52 94 53 95
REMARK H PARENT 14 5 18 29 77 48 45 59
REMARK Flexibility Score: inf
ROOT
ATOM      1  C   UNL A   1      32.395  27.439  25.626  1.00  0.00     0.117 C 
ENDROOT
BRANCH   1   2
ATOM      2  N   UNL A   1      31.531  26.458  24.990  1.00  0.00    -0.354 N 
ATOM      3  C   UNL A   1      31.854  25.180  24.607  1.00  0.00     0.245 C 
ATOM      4  O   UNL A   1      31.222  24.658  23.689  1.00  0.00    -0.273 OA
ATOM      5  H   UNL A   1      30.606  26.744  24.812  1.00  0.00     0.163 HD
BRANCH   3   6
ATOM      6  C   UNL A   1      33.040  24.512  25.315  1.00  0.00     0.203 C 
ATOM      7  N   UNL A   1      33.395  23.137  24.970  1.00  0.00    -0.299 N 
ATOM      8  C   UNL A   1      34.861  23.045  24.879  1.00  0.00     0.144 C 
ATOM      9  C   UNL A   1      34.283  25.294  24.972  1.00  0.00     0.198 C 
ATOM     10  O   UNL A   1      35.351  24.382  25.183  1.00  0.00    -0.353 OA
ATOM     11  C   UNL A   1      35.503  22.205  25.986  1.00  0.00     0.059 C 
ATOM     12  C   UNL A   1      35.397  22.744  23.470  1.00  0.00     0.059 C 
ATOM     13  C   UNL A   1      37.026  22.158  25.893  1.00  0.00     0.005 C 
ATOM     14  C   UNL A   1      36.926  22.649  23.429  1.00  0.00     0.005 C 
ATOM     15  C   UNL A   1      37.472  21.716  24.505  1.00  0.00     0.000 C 
BRANCH   7  16
ATOM     16  C   UNL A   1      32.375  22.211  25.058  1.00  0.00     0.228 C 
ATOM     17  O   UNL A   1      31.799  22.056  26.150  1.00  0.00    -0.274 OA
BRANCH  16  18
ATOM     18  C   UNL A   1      31.986  21.176  23.988  1.00  0.00     0.078 C 
BRANCH  18  19
ATOM     19  C   UNL A   1      32.433  19.803  24.558  1.00  0.00     0.013 C 
BRANCH  19  20
ATOM     20  C   UNL A   1      33.922  19.450  24.569  1.00  0.00     0.001 C 
BRANCH  20  21
ATOM     21  C   UNL A   1      34.257  17.996  24.231  1.00  0.00    -0.003 C 
ATOM     22  C   UNL A   1      33.336  17.374  23.189  1.00  0.00     0.004 C 
ENDBRANCH  20  21
ENDBRANCH  19  20
ENDBRANCH  18  19
BRANCH  18  23
ATOM     23  C   UNL A   1      32.220  21.466  22.507  1.00  0.00     0.010 C 
ATOM     24  C   UNL A   1      31.780  20.323  21.596  1.00  0.00     0.005 C 
ENDBRANCH  18  23
ENDBRANCH  16  18
ENDBRANCH   7  16
ENDBRANCH   3   6
ENDBRANCH   1   2
BRANCH   1  25
ATOM     25  C   UNL A   1      31.773  28.830  25.527  1.00  0.00     0.042 C 
BRANCH  25  26
ATOM     26  C   UNL A   1      32.813  29.940  25.448  1.00  0.00     0.118 C 
BRANCH  26  27
ATOM     27  N   UNL A   1      32.313  31.190  25.999  1.00  0.00    -0.352 N 
ATOM     28  C   UNL A   1      32.765  31.894  27.088  1.00  0.00     0.251 C 
ATOM     29  H   UNL A   1      31.546  31.586  25.525  1.00  0.00     0.163 HD
ATOM     30  O   UNL A   1      32.082  32.796  27.555  1.00  0.00    -0.269 OA
BRANCH  28  31
ATOM     31  C   UNL A   1      34.063  31.533  27.695  1.00  0.00     0.039 A 
ATOM     32  C   UNL A   1      35.011  32.533  27.918  1.00  0.00     0.014 A 
ATOM     33  C   UNL A   1      34.335  30.208  28.053  1.00  0.00     0.014 A 
ATOM     34  C   UNL A   1      36.209  32.214  28.558  1.00  0.00     0.010 A 
ATOM     35  C   UNL A   1      35.492  29.910  28.763  1.00  0.00     0.010 A 
ATOM     36  C   UNL A   1      36.443  30.908  29.020  1.00  0.00    -0.014 A 
BRANCH  36  37
ATOM     37  C   UNL A   1      37.678  30.559  29.767  1.00  0.00     0.031 A 
ATOM     38  C   UNL A   1      38.704  29.655  29.140  1.00  0.00     0.074 A 
ATOM     39  C   UNL A   1      37.841  30.999  31.029  1.00  0.00     0.049 A 
ATOM     40  N   UNL A   1      39.795  29.153  29.659  1.00  0.00    -0.248 NA
ATOM     41  C   UNL A   1      38.448  29.237  27.753  1.00  0.00     0.031 C 
ATOM     42  C   UNL A   1      36.903  31.859  31.753  1.00  0.00     0.029 A 
ATOM     43  N   UNL A   1      38.850  30.776  31.933  1.00  0.00    -0.354 N 
ATOM     44  C   UNL A   1      40.351  28.353  28.667  1.00  0.00     0.074 A 
ATOM     45  C   UNL A   1      39.435  28.380  27.547  1.00  0.00     0.031 C 
ATOM     46  C   UNL A   1      37.396  32.117  32.975  1.00  0.00     0.029 A 
ATOM     47  C   UNL A   1      38.653  31.395  33.145  1.00  0.00     0.049 A 
ATOM     48  H   UNL A   1      39.641  30.225  31.732  1.00  0.00     0.167 HD
ATOM     49  C   UNL A   1      41.529  27.680  28.680  1.00  0.00     0.034 A 
ATOM     50  C   UNL A   1      39.392  31.372  34.272  1.00  0.00     0.034 A 
ATOM     51  C   UNL A   1      42.426  27.662  29.811  1.00  0.00     0.049 A 
ATOM     52  C   UNL A   1      40.666  30.564  34.288  1.00  0.00     0.074 A 
ATOM     53  C   UNL A   1      43.658  27.043  29.926  1.00  0.00     0.029 A 
ATOM     54  N   UNL A   1      42.181  28.282  31.031  1.00  0.00    -0.354 N 
ATOM     55  N   UNL A   1      41.198  29.839  33.330  1.00  0.00    -0.248 NA
ATOM     56  C   UNL A   1      41.440  30.578  35.535  1.00  0.00     0.031 C 
ATOM     57  C   UNL A   1      44.119  27.221  31.234  1.00  0.00     0.029 A 
ATOM     58  C   UNL A   1      43.222  28.029  31.913  1.00  0.00     0.049 A 
ATOM     59  H   UNL A   1      41.385  28.821  31.240  1.00  0.00     0.167 HD
ATOM     60  C   UNL A   1      42.393  29.344  33.849  1.00  0.00     0.074 A 
ATOM     61  C   UNL A   1      42.502  29.860  35.199  1.00  0.00     0.031 C 
ATOM     62  C   UNL A   1      43.317  28.542  33.261  1.00  0.00     0.034 A 
BRANCH  49  63
ATOM     63  C   UNL A   1      41.887  26.890  27.442  1.00  0.00     0.023 A 
ATOM     64  C   UNL A   1      41.596  25.518  27.334  1.00  0.00     0.031 A 
ATOM     65  C   UNL A   1      42.570  27.499  26.374  1.00  0.00     0.131 A 
ATOM     66  C   UNL A   1      42.072  24.783  26.238  1.00  0.00     0.055 A 
ATOM     67  C   UNL A   1      42.954  26.781  25.239  1.00  0.00     0.041 A 
ATOM     68  F   UNL A   1      42.896  28.800  26.425  1.00  0.00    -0.206 F 
ATOM     69  C   UNL A   1      42.725  25.411  25.176  1.00  0.00     0.022 A 
BRANCH  66  70
ATOM     70  S   UNL A   1      41.986  22.972  26.311  1.00  0.00     0.124 S 
ATOM     71  O   UNL A   1      42.791  22.687  27.496  1.00  0.00    -0.237 OA
ATOM     72  O   UNL A   1      40.554  22.729  26.438  1.00  0.00    -0.237 OA
ATOM     73  O   UNL A   1      42.582  22.549  25.046  1.00  0.00    -0.744 OA
ENDBRANCH  66  70
ENDBRANCH  49  63
BRANCH  50  74
ATOM     74  C   UNL A   1      38.955  32.131  35.478  1.00  0.00     0.023 A 
ATOM     75  C   UNL A   1      38.342  31.475  36.557  1.00  0.00     0.031 A 
ATOM     76  C   UNL A   1      39.109  33.526  35.557  1.00  0.00     0.131 A 
ATOM     77  C   UNL A   1      37.865  32.217  37.648  1.00  0.00     0.055 A 
ATOM     78  C   UNL A   1      38.684  34.254  36.671  1.00  0.00     0.041 A 
ATOM     79  F   UNL A   1      39.691  34.204  34.555  1.00  0.00    -0.206 F 
ATOM     80  C   UNL A   1      38.046  33.599  37.720  1.00  0.00     0.022 A 
BRANCH  77  81
ATOM     81  S   UNL A   1      36.924  31.357  38.937  1.00  0.00     0.124 S 
ATOM     82  O   UNL A   1      36.769  30.029  38.354  1.00  0.00    -0.237 OA
ATOM     83  O   UNL A   1      37.821  31.454  40.084  1.00  0.00    -0.237 OA
ATOM     84  O   UNL A   1      35.695  32.141  39.042  1.00  0.00    -0.744 OA
ENDBRANCH  77  81
ENDBRANCH  50  74
BRANCH  62  85
ATOM     85  C   UNL A   1      44.560  28.224  34.059  1.00  0.00     0.023 A 
ATOM     86  C   UNL A   1      44.649  27.087  34.880  1.00  0.00     0.031 A 
ATOM     87  C   UNL A   1      45.674  29.083  33.998  1.00  0.00     0.131 A 
ATOM     88  C   UNL A   1      45.801  26.869  35.651  1.00  0.00     0.055 A 
ATOM     89  C   UNL A   1      46.842  28.824  34.714  1.00  0.00     0.041 A 
ATOM     90  F   UNL A   1      45.644  30.187  33.235  1.00  0.00    -0.206 F 
ATOM     91  C   UNL A   1      46.907  27.719  35.557  1.00  0.00     0.022 A 
BRANCH  88  92
ATOM     92  S   UNL A   1      45.800  25.516  36.859  1.00  0.00     0.124 S 
ATOM     93  O   UNL A   1      45.679  24.343  36.000  1.00  0.00    -0.237 OA
ATOM     94  O   UNL A   1      47.089  25.689  37.522  1.00  0.00    -0.237 OA
ATOM     95  O   UNL A   1      44.632  25.799  37.691  1.00  0.00    -0.744 OA
ENDBRANCH  88  92
ENDBRANCH  62  85
ENDBRANCH  36  37
ENDBRANCH  28  31
ENDBRANCH  26  27
ENDBRANCH  25  26
ENDBRANCH   1  25
TORSDOF 19
ENDMDL
