MODEL 1
REMARK VINA RESULT:     -10.7      0.000      0.000
REMARK SMILES Cc1cc(F)cc(NC(=O)CCC(=O)NCCCNC(=O)c2ccc(-c3c4nc(c(-c5cc(S(=O)(=O)[O-])ccc5F)c5ccc([nH]5)c(-c5cc(S(=O)(=O)[O-])ccc5F)c5nc(c(-c6cc(S(=O)(=O)[O-])ccc6F)c6ccc3[nH]6)C=C5)C=C4)cc2)c1
REMARK SMILES IDX 17 1 16 2 15 3 13 4 14 5 12 7 11 8 9 9 8 10 10 12 7 13 1 14
REMARK SMILES IDX 2 15 3 16 85 17 4 18 5 19 6 20 18 21 19 22 20 23 21 25 22 26
REMARK SMILES IDX 23 27 84 28 24 29 83 30 25 31 26 32 27 33 77 34 28 35 82 36
REMARK SMILES IDX 76 37 78 38 29 39 81 40 75 41 74 42 30 44 62 45 42 46 61 47
REMARK SMILES IDX 43 48 46 49 60 50 79 51 44 52 45 53 59 55 80 56 47 57 31 58
REMARK SMILES IDX 32 59 40 60 33 61 39 62 41 63 38 64 34 65 35 66 36 67 37 68
REMARK SMILES IDX 63 69 64 70 72 71 65 72 71 73 73 74 70 75 66 76 67 77 68 78
REMARK SMILES IDX 69 79 48 80 49 81 57 82 50 83 56 84 58 85 55 86 51 87 52 88
REMARK SMILES IDX 53 89 54 90
REMARK H PARENT 15 6 8 11 19 24 78 43 46 54
REMARK Flexibility Score: inf
ROOT
ATOM      1  C   UNL A   1      41.482  19.725  26.235  1.00  0.00     0.042 C 
ENDROOT
BRANCH   1   2
ATOM      2  C   UNL A   1      43.007  19.672  26.159  1.00  0.00     0.117 C 
BRANCH   2   3
ATOM      3  N   UNL A   1      43.524  19.207  24.880  1.00  0.00    -0.356 N 
ATOM      4  C   UNL A   1      44.783  19.232  24.364  1.00  0.00     0.220 C 
ATOM      5  O   UNL A   1      45.002  18.602  23.328  1.00  0.00    -0.275 OA
ATOM      6  H   UNL A   1      42.847  18.806  24.288  1.00  0.00     0.163 HD
BRANCH   4   7
ATOM      7  C   UNL A   1      45.886  20.013  25.037  1.00  0.00     0.110 C 
BRANCH   7   8
ATOM      8  C   UNL A   1      46.186  21.357  24.387  1.00  0.00     0.110 C 
BRANCH   8   9
ATOM      9  C   UNL A   1      44.970  22.230  24.176  1.00  0.00     0.224 C 
ATOM     10  N   UNL A   1      44.504  23.108  25.110  1.00  0.00    -0.326 N 
ATOM     11  H   UNL A   1      43.700  23.603  24.831  1.00  0.00     0.169 HD
ATOM     12  O   UNL A   1      44.423  22.234  23.066  1.00  0.00    -0.275 OA
BRANCH  10  13
ATOM     13  C   UNL A   1      44.958  23.436  26.398  1.00  0.00     0.044 A 
ATOM     14  C   UNL A   1      43.388  23.286  29.874  1.00  0.00     0.044 C 
ATOM     15  C   UNL A   1      44.366  23.543  28.766  1.00  0.00    -0.046 A 
ATOM     16  C   UNL A   1      45.522  24.286  29.008  1.00  0.00     0.042 A 
ATOM     17  C   UNL A   1      44.127  23.068  27.467  1.00  0.00     0.029 A 
ATOM     18  C   UNL A   1      46.405  24.542  27.967  1.00  0.00     0.125 A 
ATOM     19  F   UNL A   1      47.534  25.221  28.214  1.00  0.00    -0.207 F 
ATOM     20  C   UNL A   1      46.135  24.123  26.668  1.00  0.00     0.065 A 
ENDBRANCH  10  13
ENDBRANCH   8   9
ENDBRANCH   7   8
ENDBRANCH   4   7
ENDBRANCH   2   3
ENDBRANCH   1   2
BRANCH   1  21
ATOM     21  C   UNL A   1      40.895  21.086  26.596  1.00  0.00     0.118 C 
BRANCH  21  22
ATOM     22  N   UNL A   1      39.537  21.270  26.120  1.00  0.00    -0.352 N 
ATOM     23  C   UNL A   1      38.730  22.380  26.152  1.00  0.00     0.251 C 
ATOM     24  H   UNL A   1      39.130  20.473  25.711  1.00  0.00     0.163 HD
ATOM     25  O   UNL A   1      37.545  22.255  25.829  1.00  0.00    -0.269 OA
BRANCH  23  26
ATOM     26  C   UNL A   1      39.233  23.705  26.591  1.00  0.00     0.039 A 
ATOM     27  C   UNL A   1      39.011  24.090  27.918  1.00  0.00     0.014 A 
ATOM     28  C   UNL A   1      39.857  24.600  25.715  1.00  0.00     0.014 A 
ATOM     29  C   UNL A   1      39.454  25.335  28.375  1.00  0.00     0.010 A 
ATOM     30  C   UNL A   1      40.358  25.818  26.190  1.00  0.00     0.010 A 
ATOM     31  C   UNL A   1      40.158  26.204  27.525  1.00  0.00    -0.014 A 
BRANCH  31  32
ATOM     32  C   UNL A   1      40.663  27.515  28.026  1.00  0.00     0.031 A 
ATOM     33  C   UNL A   1      42.133  27.840  27.977  1.00  0.00     0.074 A 
ATOM     34  C   UNL A   1      39.800  28.414  28.543  1.00  0.00     0.049 A 
ATOM     35  N   UNL A   1      42.759  28.916  28.386  1.00  0.00    -0.248 NA
ATOM     36  C   UNL A   1      43.017  26.813  27.409  1.00  0.00     0.031 C 
ATOM     37  C   UNL A   1      38.355  28.220  28.669  1.00  0.00     0.029 A 
ATOM     38  N   UNL A   1      40.009  29.670  29.059  1.00  0.00    -0.354 N 
ATOM     39  C   UNL A   1      44.109  28.695  28.129  1.00  0.00     0.074 A 
ATOM     40  C   UNL A   1      44.213  27.358  27.584  1.00  0.00     0.031 C 
ATOM     41  C   UNL A   1      37.806  29.323  29.200  1.00  0.00     0.029 A 
ATOM     42  C   UNL A   1      38.860  30.289  29.496  1.00  0.00     0.049 A 
ATOM     43  H   UNL A   1      40.899  30.090  29.111  1.00  0.00     0.167 HD
ATOM     44  C   UNL A   1      45.160  29.534  28.310  1.00  0.00     0.034 A 
ATOM     45  C   UNL A   1      38.674  31.491  30.082  1.00  0.00     0.034 A 
ATOM     46  C   UNL A   1      45.047  30.870  28.847  1.00  0.00     0.049 A 
ATOM     47  C   UNL A   1      39.864  32.387  30.318  1.00  0.00     0.074 A 
ATOM     48  C   UNL A   1      46.043  31.816  29.023  1.00  0.00     0.029 A 
ATOM     49  N   UNL A   1      43.870  31.449  29.306  1.00  0.00    -0.354 N 
ATOM     50  N   UNL A   1      41.128  32.176  30.029  1.00  0.00    -0.248 NA
ATOM     51  C   UNL A   1      39.601  33.686  30.951  1.00  0.00     0.031 C 
ATOM     52  C   UNL A   1      45.484  32.934  29.651  1.00  0.00     0.029 A 
ATOM     53  C   UNL A   1      44.123  32.721  29.798  1.00  0.00     0.049 A 
ATOM     54  H   UNL A   1      42.985  31.018  29.286  1.00  0.00     0.167 HD
ATOM     55  C   UNL A   1      41.802  33.330  30.420  1.00  0.00     0.074 A 
ATOM     56  C   UNL A   1      40.807  34.236  30.951  1.00  0.00     0.031 C 
ATOM     57  C   UNL A   1      43.127  33.616  30.339  1.00  0.00     0.034 A 
BRANCH  44  58
ATOM     58  C   UNL A   1      46.533  29.017  27.948  1.00  0.00     0.023 A 
ATOM     59  C   UNL A   1      46.901  28.769  26.614  1.00  0.00     0.031 A 
ATOM     60  C   UNL A   1      47.483  28.752  28.951  1.00  0.00     0.131 A 
ATOM     61  C   UNL A   1      48.151  28.201  26.326  1.00  0.00     0.055 A 
ATOM     62  C   UNL A   1      48.757  28.266  28.650  1.00  0.00     0.041 A 
ATOM     63  F   UNL A   1      47.184  28.952  30.245  1.00  0.00    -0.206 F 
ATOM     64  C   UNL A   1      49.092  27.972  27.332  1.00  0.00     0.022 A 
BRANCH  61  65
ATOM     65  S   UNL A   1      48.475  27.631  24.634  1.00  0.00     0.124 S 
ATOM     66  O   UNL A   1      48.455  26.181  24.804  1.00  0.00    -0.237 OA
ATOM     67  O   UNL A   1      47.357  28.203  23.890  1.00  0.00    -0.237 OA
ATOM     68  O   UNL A   1      49.785  28.197  24.325  1.00  0.00    -0.744 OA
ENDBRANCH  61  65
ENDBRANCH  44  58
BRANCH  45  69
ATOM     69  C   UNL A   1      37.310  31.918  30.509  1.00  0.00     0.023 A 
ATOM     70  C   UNL A   1      36.434  32.552  29.613  1.00  0.00     0.031 A 
ATOM     71  C   UNL A   1      36.881  31.742  31.836  1.00  0.00     0.131 A 
ATOM     72  C   UNL A   1      35.193  33.028  30.065  1.00  0.00     0.055 A 
ATOM     73  C   UNL A   1      35.624  32.168  32.269  1.00  0.00     0.041 A 
ATOM     74  F   UNL A   1      37.679  31.142  32.733  1.00  0.00    -0.206 F 
ATOM     75  C   UNL A   1      34.777  32.827  31.384  1.00  0.00     0.022 A 
BRANCH  72  76
ATOM     76  S   UNL A   1      34.163  33.992  28.925  1.00  0.00     0.124 S 
ATOM     77  O   UNL A   1      35.127  34.943  28.386  1.00  0.00    -0.237 OA
ATOM     78  O   UNL A   1      33.690  32.964  28.002  1.00  0.00    -0.237 OA
ATOM     79  O   UNL A   1      33.137  34.564  29.795  1.00  0.00    -0.744 OA
ENDBRANCH  72  76
ENDBRANCH  45  69
BRANCH  57  80
ATOM     80  C   UNL A   1      43.567  34.984  30.802  1.00  0.00     0.023 A 
ATOM     81  C   UNL A   1      43.873  35.249  32.147  1.00  0.00     0.031 A 
ATOM     82  C   UNL A   1      43.674  36.041  29.880  1.00  0.00     0.131 A 
ATOM     83  C   UNL A   1      44.224  36.550  32.543  1.00  0.00     0.055 A 
ATOM     84  C   UNL A   1      44.078  37.319  30.268  1.00  0.00     0.041 A 
ATOM     85  F   UNL A   1      43.392  35.845  28.581  1.00  0.00    -0.206 F 
ATOM     86  C   UNL A   1      44.345  37.582  31.608  1.00  0.00     0.022 A 
BRANCH  83  87
ATOM     87  S   UNL A   1      44.445  36.898  34.309  1.00  0.00     0.124 S 
ATOM     88  O   UNL A   1      44.922  35.615  34.814  1.00  0.00    -0.237 OA
ATOM     89  O   UNL A   1      45.424  37.981  34.294  1.00  0.00    -0.237 OA
ATOM     90  O   UNL A   1      43.107  37.280  34.754  1.00  0.00    -0.744 OA
ENDBRANCH  83  87
ENDBRANCH  57  80
ENDBRANCH  31  32
ENDBRANCH  23  26
ENDBRANCH  21  22
ENDBRANCH   1  21
TORSDOF 16
ENDMDL
MODEL 2
REMARK VINA RESULT:     -10.7      4.630     11.827
REMARK SMILES Cc1cc(F)cc(NC(=O)CCC(=O)NCCCNC(=O)c2ccc(-c3c4nc(c(-c5cc(S(=O)(=O)[O-])ccc5F)c5ccc([nH]5)c(-c5cc(S(=O)(=O)[O-])ccc5F)c5nc(c(-c6cc(S(=O)(=O)[O-])ccc6F)c6ccc3[nH]6)C=C5)C=C4)cc2)c1
REMARK SMILES IDX 17 1 16 2 15 3 13 4 14 5 12 7 11 8 9 9 8 10 10 12 7 13 1 14
REMARK SMILES IDX 2 15 3 16 85 17 4 18 5 19 6 20 18 21 19 22 20 23 21 25 22 26
REMARK SMILES IDX 23 27 84 28 24 29 83 30 25 31 26 32 27 33 77 34 28 35 82 36
REMARK SMILES IDX 76 37 78 38 29 39 81 40 75 41 74 42 30 44 62 45 42 46 61 47
REMARK SMILES IDX 43 48 46 49 60 50 79 51 44 52 45 53 59 55 80 56 47 57 31 58
REMARK SMILES IDX 32 59 40 60 33 61 39 62 41 63 38 64 34 65 35 66 36 67 37 68
REMARK SMILES IDX 63 69 64 70 72 71 65 72 71 73 73 74 70 75 66 76 67 77 68 78
REMARK SMILES IDX 69 79 48 80 49 81 57 82 50 83 56 84 58 85 55 86 51 87 52 88
REMARK SMILES IDX 53 89 54 90
REMARK H PARENT 15 6 8 11 19 24 78 43 46 54
REMARK Flexibility Score: inf
ROOT
ATOM      1  C   UNL A   1      34.079  34.457  28.733  1.00  0.00     0.042 C 
ENDROOT
BRANCH   1   2
ATOM      2  C   UNL A   1      34.686  34.619  30.126  1.00  0.00     0.117 C 
BRANCH   2   3
ATOM      3  N   UNL A   1      33.976  33.899  31.174  1.00  0.00    -0.356 N 
ATOM      4  C   UNL A   1      34.425  33.038  32.127  1.00  0.00     0.220 C 
ATOM      5  O   UNL A   1      33.649  32.703  33.023  1.00  0.00    -0.275 OA
ATOM      6  H   UNL A   1      33.006  34.064  31.196  1.00  0.00     0.163 HD
BRANCH   4   7
ATOM      7  C   UNL A   1      35.835  32.500  32.089  1.00  0.00     0.110 C 
BRANCH   7   8
ATOM      8  C   UNL A   1      36.421  32.188  33.461  1.00  0.00     0.110 C 
BRANCH   8   9
ATOM      9  C   UNL A   1      36.651  33.404  34.329  1.00  0.00     0.224 C 
ATOM     10  N   UNL A   1      37.612  34.338  34.075  1.00  0.00    -0.326 N 
ATOM     11  H   UNL A   1      37.644  35.071  34.731  1.00  0.00     0.169 HD
ATOM     12  O   UNL A   1      35.869  33.629  35.261  1.00  0.00    -0.275 OA
BRANCH  10  13
ATOM     13  C   UNL A   1      38.565  34.449  33.049  1.00  0.00     0.044 A 
ATOM     14  C   UNL A   1      38.394  34.199  29.244  1.00  0.00     0.044 C 
ATOM     15  C   UNL A   1      38.933  34.345  30.636  1.00  0.00    -0.046 A 
ATOM     16  C   UNL A   1      40.310  34.336  30.860  1.00  0.00     0.042 A 
ATOM     17  C   UNL A   1      38.070  34.467  31.736  1.00  0.00     0.029 A 
ATOM     18  C   UNL A   1      40.797  34.443  32.156  1.00  0.00     0.125 A 
ATOM     19  F   UNL A   1      42.121  34.474  32.362  1.00  0.00    -0.207 F 
ATOM     20  C   UNL A   1      39.938  34.502  33.250  1.00  0.00     0.065 A 
ENDBRANCH  10  13
ENDBRANCH   8   9
ENDBRANCH   7   8
ENDBRANCH   4   7
ENDBRANCH   2   3
ENDBRANCH   1   2
BRANCH   1  21
ATOM     21  C   UNL A   1      34.728  33.389  27.859  1.00  0.00     0.118 C 
BRANCH  21  22
ATOM     22  N   UNL A   1      33.878  32.236  27.634  1.00  0.00    -0.352 N 
ATOM     23  C   UNL A   1      34.169  30.896  27.694  1.00  0.00     0.251 C 
ATOM     24  H   UNL A   1      32.946  32.448  27.400  1.00  0.00     0.163 HD
ATOM     25  O   UNL A   1      33.317  30.092  27.303  1.00  0.00    -0.269 OA
BRANCH  23  26
ATOM     26  C   UNL A   1      35.479  30.397  28.181  1.00  0.00     0.039 A 
ATOM     27  C   UNL A   1      35.532  29.809  29.450  1.00  0.00     0.014 A 
ATOM     28  C   UNL A   1      36.661  30.551  27.449  1.00  0.00     0.014 A 
ATOM     29  C   UNL A   1      36.746  29.336  29.958  1.00  0.00     0.010 A 
ATOM     30  C   UNL A   1      37.863  30.019  27.930  1.00  0.00     0.010 A 
ATOM     31  C   UNL A   1      37.922  29.410  29.194  1.00  0.00    -0.014 A 
BRANCH  31  32
ATOM     32  C   UNL A   1      39.208  28.870  29.723  1.00  0.00     0.031 A 
ATOM     33  C   UNL A   1      39.868  29.496  30.923  1.00  0.00     0.074 A 
ATOM     34  C   UNL A   1      39.796  27.819  29.113  1.00  0.00     0.049 A 
ATOM     35  N   UNL A   1      40.996  29.179  31.510  1.00  0.00    -0.248 NA
ATOM     36  C   UNL A   1      39.177  30.641  31.533  1.00  0.00     0.031 C 
ATOM     37  C   UNL A   1      39.276  27.131  27.931  1.00  0.00     0.029 A 
ATOM     38  N   UNL A   1      40.959  27.145  29.401  1.00  0.00    -0.354 N 
ATOM     39  C   UNL A   1      41.152  30.085  32.555  1.00  0.00     0.074 A 
ATOM     40  C   UNL A   1      40.032  31.000  32.480  1.00  0.00     0.031 C 
ATOM     41  C   UNL A   1      40.099  26.120  27.611  1.00  0.00     0.029 A 
ATOM     42  C   UNL A   1      41.231  26.112  28.535  1.00  0.00     0.049 A 
ATOM     43  H   UNL A   1      41.544  27.380  30.158  1.00  0.00     0.167 HD
ATOM     44  C   UNL A   1      42.125  30.138  33.499  1.00  0.00     0.034 A 
ATOM     45  C   UNL A   1      42.277  25.261  28.477  1.00  0.00     0.034 A 
ATOM     46  C   UNL A   1      43.234  29.217  33.572  1.00  0.00     0.049 A 
ATOM     47  C   UNL A   1      43.371  25.369  29.509  1.00  0.00     0.074 A 
ATOM     48  C   UNL A   1      44.244  29.156  34.518  1.00  0.00     0.029 A 
ATOM     49  N   UNL A   1      43.490  28.202  32.658  1.00  0.00    -0.354 N 
ATOM     50  N   UNL A   1      43.479  26.208  30.514  1.00  0.00    -0.248 NA
ATOM     51  C   UNL A   1      44.481  24.413  29.403  1.00  0.00     0.031 C 
ATOM     52  C   UNL A   1      45.145  28.155  34.138  1.00  0.00     0.029 A 
ATOM     53  C   UNL A   1      44.659  27.536  32.998  1.00  0.00     0.049 A 
ATOM     54  H   UNL A   1      42.925  27.987  31.881  1.00  0.00     0.167 HD
ATOM     55  C   UNL A   1      44.653  25.856  31.175  1.00  0.00     0.074 A 
ATOM     56  C   UNL A   1      45.210  24.725  30.465  1.00  0.00     0.031 C 
ATOM     57  C   UNL A   1      45.217  26.417  32.276  1.00  0.00     0.034 A 
BRANCH  44  58
ATOM     58  C   UNL A   1      42.045  31.252  34.518  1.00  0.00     0.023 A 
ATOM     59  C   UNL A   1      41.021  31.302  35.479  1.00  0.00     0.031 A 
ATOM     60  C   UNL A   1      42.997  32.287  34.519  1.00  0.00     0.131 A 
ATOM     61  C   UNL A   1      40.927  32.400  36.348  1.00  0.00     0.055 A 
ATOM     62  C   UNL A   1      42.946  33.335  35.441  1.00  0.00     0.041 A 
ATOM     63  F   UNL A   1      43.988  32.305  33.614  1.00  0.00    -0.206 F 
ATOM     64  C   UNL A   1      41.897  33.404  36.353  1.00  0.00     0.022 A 
BRANCH  61  65
ATOM     65  S   UNL A   1      39.438  32.571  37.370  1.00  0.00     0.124 S 
ATOM     66  O   UNL A   1      38.666  31.400  36.965  1.00  0.00    -0.237 OA
ATOM     67  O   UNL A   1      39.981  32.541  38.725  1.00  0.00    -0.237 OA
ATOM     68  O   UNL A   1      38.879  33.853  36.950  1.00  0.00    -0.744 OA
ENDBRANCH  61  65
ENDBRANCH  44  58
BRANCH  45  69
ATOM     69  C   UNL A   1      42.358  24.238  27.394  1.00  0.00     0.023 A 
ATOM     70  C   UNL A   1      41.723  22.992  27.522  1.00  0.00     0.031 A 
ATOM     71  C   UNL A   1      43.116  24.474  26.234  1.00  0.00     0.131 A 
ATOM     72  C   UNL A   1      41.893  22.014  26.531  1.00  0.00     0.055 A 
ATOM     73  C   UNL A   1      43.238  23.518  25.224  1.00  0.00     0.041 A 
ATOM     74  F   UNL A   1      43.744  25.648  26.061  1.00  0.00    -0.206 F 
ATOM     75  C   UNL A   1      42.635  22.274  25.376  1.00  0.00     0.022 A 
BRANCH  72  76
ATOM     76  S   UNL A   1      41.201  20.360  26.811  1.00  0.00     0.124 S 
ATOM     77  O   UNL A   1      42.349  19.507  26.531  1.00  0.00    -0.237 OA
ATOM     78  O   UNL A   1      40.784  20.439  28.208  1.00  0.00    -0.237 OA
ATOM     79  O   UNL A   1      40.110  20.280  25.841  1.00  0.00    -0.744 OA
ENDBRANCH  72  76
ENDBRANCH  45  69
BRANCH  57  80
ATOM     80  C   UNL A   1      46.483  25.783  32.801  1.00  0.00     0.023 A 
ATOM     81  C   UNL A   1      46.456  24.753  33.756  1.00  0.00     0.031 A 
ATOM     82  C   UNL A   1      47.737  26.225  32.341  1.00  0.00     0.131 A 
ATOM     83  C   UNL A   1      47.660  24.230  34.257  1.00  0.00     0.055 A 
ATOM     84  C   UNL A   1      48.929  25.663  32.800  1.00  0.00     0.041 A 
ATOM     85  F   UNL A   1      47.822  27.207  31.430  1.00  0.00    -0.206 F 
ATOM     86  C   UNL A   1      48.895  24.668  33.772  1.00  0.00     0.022 A 
BRANCH  83  87
ATOM     87  S   UNL A   1      47.594  23.025  35.611  1.00  0.00     0.124 S 
ATOM     88  O   UNL A   1      46.992  21.867  34.958  1.00  0.00    -0.237 OA
ATOM     89  O   UNL A   1      49.000  22.891  35.979  1.00  0.00    -0.237 OA
ATOM     90  O   UNL A   1      46.752  23.678  36.612  1.00  0.00    -0.744 OA
ENDBRANCH  83  87
ENDBRANCH  57  80
ENDBRANCH  31  32
ENDBRANCH  23  26
ENDBRANCH  21  22
ENDBRANCH   1  21
TORSDOF 16
ENDMDL
MODEL 3
REMARK VINA RESULT:     -10.6      4.280     12.344
REMARK SMILES Cc1cc(F)cc(NC(=O)CCC(=O)NCCCNC(=O)c2ccc(-c3c4nc(c(-c5cc(S(=O)(=O)[O-])ccc5F)c5ccc([nH]5)c(-c5cc(S(=O)(=O)[O-])ccc5F)c5nc(c(-c6cc(S(=O)(=O)[O-])ccc6F)c6ccc3[nH]6)C=C5)C=C4)cc2)c1
REMARK SMILES IDX 17 1 16 2 15 3 13 4 14 5 12 7 11 8 9 9 8 10 10 12 7 13 1 14
REMARK SMILES IDX 2 15 3 16 85 17 4 18 5 19 6 20 18 21 19 22 20 23 21 25 22 26
REMARK SMILES IDX 23 27 84 28 24 29 83 30 25 31 26 32 27 33 77 34 28 35 82 36
REMARK SMILES IDX 76 37 78 38 29 39 81 40 75 41 74 42 30 44 62 45 42 46 61 47
REMARK SMILES IDX 43 48 46 49 60 50 79 51 44 52 45 53 59 55 80 56 47 57 31 58
REMARK SMILES IDX 32 59 40 60 33 61 39 62 41 63 38 64 34 65 35 66 36 67 37 68
REMARK SMILES IDX 63 69 64 70 72 71 65 72 71 73 73 74 70 75 66 76 67 77 68 78
REMARK SMILES IDX 69 79 48 80 49 81 57 82 50 83 56 84 58 85 55 86 51 87 52 88
REMARK SMILES IDX 53 89 54 90
REMARK H PARENT 15 6 8 11 19 24 78 43 46 54
REMARK Flexibility Score: inf
ROOT
ATOM      1  C   UNL A   1      35.014  33.667  27.878  1.00  0.00     0.042 C 
ENDROOT
BRANCH   1   2
ATOM      2  C   UNL A   1      35.293  34.965  28.635  1.00  0.00     0.117 C 
BRANCH   2   3
ATOM      3  N   UNL A   1      34.475  36.091  28.208  1.00  0.00    -0.356 N 
ATOM      4  C   UNL A   1      33.474  36.759  28.844  1.00  0.00     0.220 C 
ATOM      5  O   UNL A   1      33.060  37.805  28.343  1.00  0.00    -0.275 OA
ATOM      6  H   UNL A   1      34.683  36.428  27.307  1.00  0.00     0.163 HD
BRANCH   4   7
ATOM      7  C   UNL A   1      32.879  36.232  30.128  1.00  0.00     0.110 C 
BRANCH   7   8
ATOM      8  C   UNL A   1      33.506  36.810  31.391  1.00  0.00     0.110 C 
BRANCH   8   9
ATOM      9  C   UNL A   1      32.896  36.301  32.676  1.00  0.00     0.224 C 
ATOM     10  N   UNL A   1      33.374  35.220  33.358  1.00  0.00    -0.326 N 
ATOM     11  H   UNL A   1      32.870  35.006  34.176  1.00  0.00     0.169 HD
ATOM     12  O   UNL A   1      31.981  36.947  33.201  1.00  0.00    -0.275 OA
BRANCH  10  13
ATOM     13  C   UNL A   1      34.454  34.358  33.111  1.00  0.00     0.044 A 
ATOM     14  C   UNL A   1      38.235  34.665  33.533  1.00  0.00     0.044 C 
ATOM     15  C   UNL A   1      36.884  34.117  33.181  1.00  0.00    -0.046 A 
ATOM     16  C   UNL A   1      36.776  32.943  32.433  1.00  0.00     0.042 A 
ATOM     17  C   UNL A   1      35.711  34.781  33.568  1.00  0.00     0.029 A 
ATOM     18  C   UNL A   1      35.520  32.461  32.088  1.00  0.00     0.125 A 
ATOM     19  F   UNL A   1      35.421  31.311  31.406  1.00  0.00    -0.207 F 
ATOM     20  C   UNL A   1      34.361  33.155  32.422  1.00  0.00     0.065 A 
ENDBRANCH  10  13
ENDBRANCH   8   9
ENDBRANCH   7   8
ENDBRANCH   4   7
ENDBRANCH   2   3
ENDBRANCH   1   2
BRANCH   1  21
ATOM     21  C   UNL A   1      34.119  32.669  28.606  1.00  0.00     0.118 C 
BRANCH  21  22
ATOM     22  N   UNL A   1      33.615  31.615  27.746  1.00  0.00    -0.352 N 
ATOM     23  C   UNL A   1      34.218  30.461  27.312  1.00  0.00     0.251 C 
ATOM     24  H   UNL A   1      32.695  31.750  27.422  1.00  0.00     0.163 HD
ATOM     25  O   UNL A   1      33.646  29.788  26.449  1.00  0.00    -0.269 OA
BRANCH  23  26
ATOM     26  C   UNL A   1      35.540  30.024  27.824  1.00  0.00     0.039 A 
ATOM     27  C   UNL A   1      35.592  29.411  29.080  1.00  0.00     0.014 A 
ATOM     28  C   UNL A   1      36.731  30.261  27.129  1.00  0.00     0.014 A 
ATOM     29  C   UNL A   1      36.818  28.995  29.612  1.00  0.00     0.010 A 
ATOM     30  C   UNL A   1      37.948  29.786  27.632  1.00  0.00     0.010 A 
ATOM     31  C   UNL A   1      38.008  29.151  28.883  1.00  0.00    -0.014 A 
BRANCH  31  32
ATOM     32  C   UNL A   1      39.307  28.671  29.436  1.00  0.00     0.031 A 
ATOM     33  C   UNL A   1      39.960  29.385  30.590  1.00  0.00     0.074 A 
ATOM     34  C   UNL A   1      39.913  27.597  28.889  1.00  0.00     0.049 A 
ATOM     35  N   UNL A   1      41.098  29.127  31.188  1.00  0.00    -0.248 NA
ATOM     36  C   UNL A   1      39.250  30.551  31.132  1.00  0.00     0.031 C 
ATOM     37  C   UNL A   1      39.401  26.825  27.756  1.00  0.00     0.029 A 
ATOM     38  N   UNL A   1      41.091  26.966  29.211  1.00  0.00    -0.354 N 
ATOM     39  C   UNL A   1      41.242  30.100  32.173  1.00  0.00     0.074 A 
ATOM     40  C   UNL A   1      40.103  30.986  32.049  1.00  0.00     0.031 C 
ATOM     41  C   UNL A   1      40.242  25.813  27.494  1.00  0.00     0.029 A 
ATOM     42  C   UNL A   1      41.379  25.885  28.409  1.00  0.00     0.049 A 
ATOM     43  H   UNL A   1      41.675  27.259  29.948  1.00  0.00     0.167 HD
ATOM     44  C   UNL A   1      42.219  30.232  33.105  1.00  0.00     0.034 A 
ATOM     45  C   UNL A   1      42.442  25.054  28.397  1.00  0.00     0.034 A 
ATOM     46  C   UNL A   1      43.347  29.339  33.228  1.00  0.00     0.049 A 
ATOM     47  C   UNL A   1      43.539  25.248  29.413  1.00  0.00     0.074 A 
ATOM     48  C   UNL A   1      44.363  29.358  34.169  1.00  0.00     0.029 A 
ATOM     49  N   UNL A   1      43.618  28.275  32.378  1.00  0.00    -0.354 N 
ATOM     50  N   UNL A   1      43.636  26.150  30.363  1.00  0.00    -0.248 NA
ATOM     51  C   UNL A   1      44.668  24.309  29.359  1.00  0.00     0.031 C 
ATOM     52  C   UNL A   1      45.282  28.353  33.847  1.00  0.00     0.029 A 
ATOM     53  C   UNL A   1      44.802  27.655  32.750  1.00  0.00     0.049 A 
ATOM     54  H   UNL A   1      43.053  28.000  31.620  1.00  0.00     0.167 HD
ATOM     55  C   UNL A   1      44.821  25.864  31.036  1.00  0.00     0.074 A 
ATOM     56  C   UNL A   1      45.396  24.702  30.394  1.00  0.00     0.031 C 
ATOM     57  C   UNL A   1      45.379  26.504  32.096  1.00  0.00     0.034 A 
BRANCH  44  58
ATOM     58  C   UNL A   1      42.122  31.405  34.054  1.00  0.00     0.023 A 
ATOM     59  C   UNL A   1      41.261  31.388  35.164  1.00  0.00     0.031 A 
ATOM     60  C   UNL A   1      42.888  32.564  33.835  1.00  0.00     0.131 A 
ATOM     61  C   UNL A   1      41.129  32.531  35.968  1.00  0.00     0.055 A 
ATOM     62  C   UNL A   1      42.815  33.668  34.687  1.00  0.00     0.041 A 
ATOM     63  F   UNL A   1      43.715  32.647  32.780  1.00  0.00    -0.206 F 
ATOM     64  C   UNL A   1      41.920  33.662  35.752  1.00  0.00     0.022 A 
BRANCH  61  65
ATOM     65  S   UNL A   1      39.806  32.572  37.208  1.00  0.00     0.124 S 
ATOM     66  O   UNL A   1      40.569  32.650  38.450  1.00  0.00    -0.237 OA
ATOM     67  O   UNL A   1      39.063  33.772  36.837  1.00  0.00    -0.237 OA
ATOM     68  O   UNL A   1      39.100  31.311  36.997  1.00  0.00    -0.744 OA
ENDBRANCH  61  65
ENDBRANCH  44  58
BRANCH  45  69
ATOM     69  C   UNL A   1      42.538  23.967  27.380  1.00  0.00     0.023 A 
ATOM     70  C   UNL A   1      41.908  22.727  27.579  1.00  0.00     0.031 A 
ATOM     71  C   UNL A   1      43.304  24.136  26.213  1.00  0.00     0.131 A 
ATOM     72  C   UNL A   1      42.093  21.691  26.651  1.00  0.00     0.055 A 
ATOM     73  C   UNL A   1      43.441  23.120  25.265  1.00  0.00     0.041 A 
ATOM     74  F   UNL A   1      43.928  25.301  25.974  1.00  0.00    -0.206 F 
ATOM     75  C   UNL A   1      42.843  21.885  25.488  1.00  0.00     0.022 A 
BRANCH  72  76
ATOM     76  S   UNL A   1      41.406  20.054  27.026  1.00  0.00     0.124 S 
ATOM     77  O   UNL A   1      40.780  20.286  28.322  1.00  0.00    -0.237 OA
ATOM     78  O   UNL A   1      40.498  19.842  25.903  1.00  0.00    -0.237 OA
ATOM     79  O   UNL A   1      42.583  19.188  27.045  1.00  0.00    -0.744 OA
ENDBRANCH  72  76
ENDBRANCH  45  69
BRANCH  57  80
ATOM     80  C   UNL A   1      46.660  25.930  32.651  1.00  0.00     0.023 A 
ATOM     81  C   UNL A   1      47.917  26.273  32.124  1.00  0.00     0.031 A 
ATOM     82  C   UNL A   1      46.620  25.018  33.722  1.00  0.00     0.131 A 
ATOM     83  C   UNL A   1      49.079  25.673  32.635  1.00  0.00     0.055 A 
ATOM     84  C   UNL A   1      47.782  24.467  34.264  1.00  0.00     0.041 A 
ATOM     85  F   UNL A   1      45.447  24.652  34.264  1.00  0.00    -0.206 F 
ATOM     86  C   UNL A   1      49.020  24.784  33.712  1.00  0.00     0.022 A 
BRANCH  83  87
ATOM     87  S   UNL A   1      50.665  26.005  31.821  1.00  0.00     0.124 S 
ATOM     88  O   UNL A   1      50.969  24.714  31.211  1.00  0.00    -0.237 OA
ATOM     89  O   UNL A   1      50.323  27.082  30.898  1.00  0.00    -0.237 OA
ATOM     90  O   UNL A   1      51.543  26.391  32.923  1.00  0.00    -0.744 OA
ENDBRANCH  83  87
ENDBRANCH  57  80
ENDBRANCH  31  32
ENDBRANCH  23  26
ENDBRANCH  21  22
ENDBRANCH   1  21
TORSDOF 16
ENDMDL
