MODEL 1
REMARK VINA RESULT:     -14.0      0.000      0.000
REMARK SMILES CC1(C)O[C@@H]2C[C@H]3[C@H]4CCC5=CC(=O)C=C[C@@]5(C)[C@]4(F)[C@H](O)C[C@]3(C)[C@]2(C(=O)NCCCNC(=O)c2ccc(-c3c4nc(c(-c5cc(S(=O)(=O)[O-])ccc5F)c5ccc([nH]5)c(-c5cc(S(=O)(=O)[O-])ccc5F)c5nc(c(-c6cc(S(=O)(=O)[O-])ccc6F)c6ccc3[nH]6)C=C5)C=C4)cc2)O1
REMARK SMILES IDX 32 1 31 2 30 3 29 4 27 5 28 6 26 8 1 9 2 10 4 11 99 12 3 13
REMARK SMILES IDX 5 14 6 15 24 16 7 17 23 18 25 19 8 20 21 21 9 22 19 23 10 24
REMARK SMILES IDX 17 25 20 26 11 27 16 28 18 29 12 30 15 31 13 32 14 33 22 34
REMARK SMILES IDX 33 36 34 37 35 39 36 40 37 41 98 42 38 43 97 44 39 45 40 46
REMARK SMILES IDX 41 47 91 48 42 49 96 50 90 51 92 52 43 53 95 54 89 55 88 56
REMARK SMILES IDX 44 58 76 59 56 60 75 61 57 62 60 63 74 64 93 65 58 66 59 67
REMARK SMILES IDX 73 69 94 70 61 71 45 72 46 73 54 74 47 75 53 76 55 77 52 78
REMARK SMILES IDX 48 79 49 80 50 81 51 82 77 83 78 84 86 85 79 86 85 87 87 88
REMARK SMILES IDX 84 89 80 90 81 91 82 92 83 93 62 94 63 95 71 96 64 97 70 98
REMARK SMILES IDX 72 99 69 100 65 101 66 102 67 103 68 104
REMARK H PARENT 29 7 22 35 33 38 92 57 60 68
REMARK Flexibility Score: inf
ROOT
ATOM      1  C   UNL A   1      33.815  29.380  26.435  1.00  0.00     0.118 C 
ENDROOT
BRANCH   1   2
ATOM      2  C   UNL A   1      32.423  28.823  26.207  1.00  0.00     0.042 C 
BRANCH   2   3
ATOM      3  C   UNL A   1      32.142  27.628  27.102  1.00  0.00     0.117 C 
BRANCH   3   4
ATOM      4  N   UNL A   1      31.078  26.806  26.565  1.00  0.00    -0.353 N 
ATOM      5  C   UNL A   1      31.038  25.820  25.632  1.00  0.00     0.255 C 
ATOM      6  O   UNL A   1      29.919  25.677  25.117  1.00  0.00    -0.272 OA
ATOM      7  H   UNL A   1      30.199  27.003  26.960  1.00  0.00     0.163 HD
BRANCH   5   8
ATOM      8  C   UNL A   1      32.167  24.792  25.331  1.00  0.00     0.181 C 
ATOM      9  C   UNL A   1      32.351  26.261  22.208  1.00  0.00     0.075 C 
ATOM     10  C   UNL A   1      33.024  25.310  23.191  1.00  0.00     0.164 C 
ATOM     11  O   UNL A   1      33.809  26.046  24.132  1.00  0.00    -0.344 OA
ATOM     12  O   UNL A   1      32.011  24.536  23.882  1.00  0.00    -0.331 OA
ATOM     13  C   UNL A   1      33.978  24.417  22.367  1.00  0.00     0.075 C 
ATOM     14  C   UNL A   1      33.576  25.451  25.411  1.00  0.00     0.164 C 
ATOM     15  C   UNL A   1      34.612  24.301  25.655  1.00  0.00     0.040 C 
ATOM     16  C   UNL A   1      32.390  23.429  26.118  1.00  0.00     0.014 C 
ATOM     17  C   UNL A   1      33.745  23.059  25.446  1.00  0.00     0.008 C 
ATOM     18  C   UNL A   1      31.331  22.322  25.903  1.00  0.00     0.046 C 
ATOM     19  C   UNL A   1      32.565  23.715  27.644  1.00  0.00     0.015 C 
ATOM     20  C   UNL A   1      34.209  21.630  25.157  1.00  0.00     0.035 C 
ATOM     21  C   UNL A   1      31.745  21.118  25.068  1.00  0.00     0.154 C 
ATOM     22  C   UNL A   1      35.612  21.210  25.558  1.00  0.00     0.012 C 
ATOM     23  C   UNL A   1      33.144  20.571  25.484  1.00  0.00     0.152 C 
ATOM     24  C   UNL A   1      35.985  20.006  24.679  1.00  0.00     0.032 C 
ATOM     25  C   UNL A   1      33.489  19.170  24.827  1.00  0.00     0.044 C 
ATOM     26  F   UNL A   1      33.145  20.422  26.849  1.00  0.00    -0.239 F 
ATOM     27  C   UNL A   1      35.005  18.863  24.808  1.00  0.00    -0.053 C 
ATOM     28  C   UNL A   1      32.754  18.042  25.559  1.00  0.00    -0.009 C 
ATOM     29  C   UNL A   1      33.005  19.085  23.354  1.00  0.00     0.024 C 
ATOM     30  C   UNL A   1      35.458  17.594  24.824  1.00  0.00     0.052 C 
ATOM     31  C   UNL A   1      33.215  16.782  25.610  1.00  0.00     0.048 C 
ATOM     32  C   UNL A   1      34.525  16.464  25.008  1.00  0.00     0.178 C 
ATOM     33  O   UNL A   1      34.845  15.309  24.725  1.00  0.00    -0.290 OA
BRANCH  21  34
ATOM     34  O   UNL A   1      31.699  21.503  23.690  1.00  0.00    -0.390 OA
ATOM     35  H   UNL A   1      32.534  21.264  23.260  1.00  0.00     0.211 HD
ENDBRANCH  21  34
ENDBRANCH   5   8
ENDBRANCH   3   4
ENDBRANCH   2   3
ENDBRANCH   1   2
BRANCH   1  36
ATOM     36  N   UNL A   1      33.768  30.746  26.950  1.00  0.00    -0.352 N 
ATOM     37  C   UNL A   1      34.536  31.373  27.899  1.00  0.00     0.251 C 
ATOM     38  H   UNL A   1      33.069  31.311  26.549  1.00  0.00     0.163 HD
ATOM     39  O   UNL A   1      34.138  32.444  28.364  1.00  0.00    -0.269 OA
BRANCH  37  40
ATOM     40  C   UNL A   1      35.805  30.779  28.377  1.00  0.00     0.039 A 
ATOM     41  C   UNL A   1      37.018  31.258  27.877  1.00  0.00     0.014 A 
ATOM     42  C   UNL A   1      35.810  29.724  29.292  1.00  0.00     0.014 A 
ATOM     43  C   UNL A   1      38.220  30.714  28.334  1.00  0.00     0.010 A 
ATOM     44  C   UNL A   1      37.002  29.292  29.857  1.00  0.00     0.010 A 
ATOM     45  C   UNL A   1      38.224  29.749  29.357  1.00  0.00    -0.014 A 
BRANCH  45  46
ATOM     46  C   UNL A   1      39.494  29.175  29.872  1.00  0.00     0.031 A 
ATOM     47  C   UNL A   1      40.150  29.762  31.097  1.00  0.00     0.074 A 
ATOM     48  C   UNL A   1      40.078  28.160  29.205  1.00  0.00     0.049 A 
ATOM     49  N   UNL A   1      41.260  29.407  31.694  1.00  0.00    -0.248 NA
ATOM     50  C   UNL A   1      39.500  30.935  31.704  1.00  0.00     0.031 C 
ATOM     51  C   UNL A   1      39.583  27.575  27.956  1.00  0.00     0.029 A 
ATOM     52  N   UNL A   1      41.209  27.436  29.482  1.00  0.00    -0.354 N 
ATOM     53  C   UNL A   1      41.449  30.327  32.722  1.00  0.00     0.074 A 
ATOM     54  C   UNL A   1      40.389  31.303  32.610  1.00  0.00     0.031 C 
ATOM     55  C   UNL A   1      40.374  26.548  27.607  1.00  0.00     0.029 A 
ATOM     56  C   UNL A   1      41.453  26.427  28.580  1.00  0.00     0.049 A 
ATOM     57  H   UNL A   1      41.791  27.621  30.255  1.00  0.00     0.167 HD
ATOM     58  C   UNL A   1      42.397  30.335  33.694  1.00  0.00     0.034 A 
ATOM     59  C   UNL A   1      42.432  25.503  28.547  1.00  0.00     0.034 A 
ATOM     60  C   UNL A   1      43.424  29.328  33.799  1.00  0.00     0.049 A 
ATOM     61  C   UNL A   1      43.441  25.491  29.664  1.00  0.00     0.074 A 
ATOM     62  C   UNL A   1      44.393  29.179  34.776  1.00  0.00     0.029 A 
ATOM     63  N   UNL A   1      43.619  28.295  32.889  1.00  0.00    -0.354 N 
ATOM     64  N   UNL A   1      43.559  26.317  30.680  1.00  0.00    -0.248 NA
ATOM     65  C   UNL A   1      44.430  24.409  29.645  1.00  0.00     0.031 C 
ATOM     66  C   UNL A   1      45.213  28.103  34.419  1.00  0.00     0.029 A 
ATOM     67  C   UNL A   1      44.708  27.524  33.265  1.00  0.00     0.049 A 
ATOM     68  H   UNL A   1      43.064  28.135  32.092  1.00  0.00     0.167 HD
ATOM     69  C   UNL A   1      44.627  25.839  31.434  1.00  0.00     0.074 A 
ATOM     70  C   UNL A   1      45.093  24.638  30.769  1.00  0.00     0.031 C 
ATOM     71  C   UNL A   1      45.173  26.344  32.572  1.00  0.00     0.034 A 
BRANCH  58  72
ATOM     72  C   UNL A   1      42.367  31.477  34.689  1.00  0.00     0.023 A 
ATOM     73  C   UNL A   1      41.445  31.514  35.752  1.00  0.00     0.031 A 
ATOM     74  C   UNL A   1      43.235  32.573  34.542  1.00  0.00     0.131 A 
ATOM     75  C   UNL A   1      41.343  32.659  36.557  1.00  0.00     0.055 A 
ATOM     76  C   UNL A   1      43.194  33.668  35.409  1.00  0.00     0.041 A 
ATOM     77  F   UNL A   1      44.124  32.612  33.537  1.00  0.00    -0.206 F 
ATOM     78  C   UNL A   1      42.231  33.726  36.410  1.00  0.00     0.022 A 
BRANCH  75  79
ATOM     79  S   UNL A   1      39.923  32.808  37.678  1.00  0.00     0.124 S 
ATOM     80  O   UNL A   1      39.538  34.204  37.480  1.00  0.00    -0.237 OA
ATOM     81  O   UNL A   1      38.999  31.810  37.151  1.00  0.00    -0.237 OA
ATOM     82  O   UNL A   1      40.488  32.507  38.991  1.00  0.00    -0.744 OA
ENDBRANCH  75  79
ENDBRANCH  58  72
BRANCH  59  83
ATOM     83  C   UNL A   1      42.484  24.507  27.439  1.00  0.00     0.023 A 
ATOM     84  C   UNL A   1      41.688  23.351  27.459  1.00  0.00     0.031 A 
ATOM     85  C   UNL A   1      43.336  24.701  26.336  1.00  0.00     0.131 A 
ATOM     86  C   UNL A   1      41.785  22.415  26.416  1.00  0.00     0.055 A 
ATOM     87  C   UNL A   1      43.392  23.793  25.278  1.00  0.00     0.041 A 
ATOM     88  F   UNL A   1      44.108  25.796  26.260  1.00  0.00    -0.206 F 
ATOM     89  C   UNL A   1      42.621  22.636  25.319  1.00  0.00     0.022 A 
BRANCH  86  90
ATOM     90  S   UNL A   1      40.840  20.871  26.539  1.00  0.00     0.124 S 
ATOM     91  O   UNL A   1      39.557  21.260  25.966  1.00  0.00    -0.237 OA
ATOM     92  O   UNL A   1      41.649  19.956  25.742  1.00  0.00    -0.237 OA
ATOM     93  O   UNL A   1      40.826  20.596  27.975  1.00  0.00    -0.744 OA
ENDBRANCH  86  90
ENDBRANCH  59  83
BRANCH  71  94
ATOM     94  C   UNL A   1      46.319  25.567  33.173  1.00  0.00     0.023 A 
ATOM     95  C   UNL A   1      47.632  25.690  32.681  1.00  0.00     0.031 A 
ATOM     96  C   UNL A   1      46.090  24.661  34.224  1.00  0.00     0.131 A 
ATOM     97  C   UNL A   1      48.644  24.860  33.180  1.00  0.00     0.055 A 
ATOM     98  C   UNL A   1      47.120  23.894  34.769  1.00  0.00     0.041 A 
ATOM     99  F   UNL A   1      44.858  24.501  34.733  1.00  0.00    -0.206 F 
ATOM    100  C   UNL A   1      48.401  23.975  34.234  1.00  0.00     0.022 A 
BRANCH  97 101
ATOM    101  S   UNL A   1      50.251  24.853  32.338  1.00  0.00     0.124 S 
ATOM    102  O   UNL A   1      51.026  25.778  33.158  1.00  0.00    -0.237 OA
ATOM    103  O   UNL A   1      50.639  23.449  32.422  1.00  0.00    -0.237 OA
ATOM    104  O   UNL A   1      49.936  25.331  30.994  1.00  0.00    -0.744 OA
ENDBRANCH  97 101
ENDBRANCH  71  94
ENDBRANCH  45  46
ENDBRANCH  37  40
ENDBRANCH   1  36
TORSDOF 14
ENDMDL
MODEL 2
REMARK VINA RESULT:     -14.0      1.320      1.597
REMARK SMILES CC1(C)O[C@@H]2C[C@H]3[C@H]4CCC5=CC(=O)C=C[C@@]5(C)[C@]4(F)[C@H](O)C[C@]3(C)[C@]2(C(=O)NCCCNC(=O)c2ccc(-c3c4nc(c(-c5cc(S(=O)(=O)[O-])ccc5F)c5ccc([nH]5)c(-c5cc(S(=O)(=O)[O-])ccc5F)c5nc(c(-c6cc(S(=O)(=O)[O-])ccc6F)c6ccc3[nH]6)C=C5)C=C4)cc2)O1
REMARK SMILES IDX 32 1 31 2 30 3 29 4 27 5 28 6 26 8 1 9 2 10 4 11 99 12 3 13
REMARK SMILES IDX 5 14 6 15 24 16 7 17 23 18 25 19 8 20 21 21 9 22 19 23 10 24
REMARK SMILES IDX 17 25 20 26 11 27 16 28 18 29 12 30 15 31 13 32 14 33 22 34
REMARK SMILES IDX 33 36 34 37 35 39 36 40 37 41 98 42 38 43 97 44 39 45 40 46
REMARK SMILES IDX 41 47 91 48 42 49 96 50 90 51 92 52 43 53 95 54 89 55 88 56
REMARK SMILES IDX 44 58 76 59 56 60 75 61 57 62 60 63 74 64 93 65 58 66 59 67
REMARK SMILES IDX 73 69 94 70 61 71 45 72 46 73 54 74 47 75 53 76 55 77 52 78
REMARK SMILES IDX 48 79 49 80 50 81 51 82 77 83 78 84 86 85 79 86 85 87 87 88
REMARK SMILES IDX 84 89 80 90 81 91 82 92 83 93 62 94 63 95 71 96 64 97 70 98
REMARK SMILES IDX 72 99 69 100 65 101 66 102 67 103 68 104
REMARK H PARENT 29 7 22 35 33 38 92 57 60 68
REMARK Flexibility Score: inf
ROOT
ATOM      1  C   UNL A   1      33.803  28.993  26.285  1.00  0.00     0.118 C 
ENDROOT
BRANCH   1   2
ATOM      2  C   UNL A   1      32.416  28.516  25.898  1.00  0.00     0.042 C 
BRANCH   2   3
ATOM      3  C   UNL A   1      31.987  27.310  26.718  1.00  0.00     0.117 C 
BRANCH   3   4
ATOM      4  N   UNL A   1      30.988  26.528  26.021  1.00  0.00    -0.353 N 
ATOM      5  C   UNL A   1      31.052  25.576  25.055  1.00  0.00     0.255 C 
ATOM      6  O   UNL A   1      30.006  25.472  24.397  1.00  0.00    -0.272 OA
ATOM      7  H   UNL A   1      30.068  26.729  26.308  1.00  0.00     0.163 HD
BRANCH   5   8
ATOM      8  C   UNL A   1      32.195  24.536  24.863  1.00  0.00     0.181 C 
ATOM      9  C   UNL A   1      32.450  25.762  21.641  1.00  0.00     0.075 C 
ATOM     10  C   UNL A   1      33.103  24.895  22.711  1.00  0.00     0.164 C 
ATOM     11  O   UNL A   1      33.859  25.707  23.612  1.00  0.00    -0.344 OA
ATOM     12  O   UNL A   1      32.077  24.168  23.435  1.00  0.00    -0.331 OA
ATOM     13  C   UNL A   1      34.083  23.948  21.983  1.00  0.00     0.075 C 
ATOM     14  C   UNL A   1      33.597  25.211  24.926  1.00  0.00     0.164 C 
ATOM     15  C   UNL A   1      34.634  24.091  25.285  1.00  0.00     0.040 C 
ATOM     16  C   UNL A   1      32.405  23.239  25.758  1.00  0.00     0.014 C 
ATOM     17  C   UNL A   1      33.779  22.830  25.151  1.00  0.00     0.008 C 
ATOM     18  C   UNL A   1      31.358  22.111  25.602  1.00  0.00     0.046 C 
ATOM     19  C   UNL A   1      32.539  23.644  27.262  1.00  0.00     0.015 C 
ATOM     20  C   UNL A   1      34.259  21.386  24.985  1.00  0.00     0.035 C 
ATOM     21  C   UNL A   1      31.801  20.850  24.874  1.00  0.00     0.154 C 
ATOM     22  C   UNL A   1      35.654  21.010  25.452  1.00  0.00     0.012 C 
ATOM     23  C   UNL A   1      33.192  20.347  25.365  1.00  0.00     0.152 C 
ATOM     24  C   UNL A   1      36.056  19.745  24.678  1.00  0.00     0.032 C 
ATOM     25  C   UNL A   1      33.562  18.903  24.828  1.00  0.00     0.044 C 
ATOM     26  F   UNL A   1      33.159  20.304  26.738  1.00  0.00    -0.239 F 
ATOM     27  C   UNL A   1      35.079  18.608  24.870  1.00  0.00    -0.053 C 
ATOM     28  C   UNL A   1      32.815  17.829  25.626  1.00  0.00    -0.009 C 
ATOM     29  C   UNL A   1      33.116  18.701  23.354  1.00  0.00     0.024 C 
ATOM     30  C   UNL A   1      35.540  17.347  24.996  1.00  0.00     0.052 C 
ATOM     31  C   UNL A   1      33.282  16.580  25.786  1.00  0.00     0.048 C 
ATOM     32  C   UNL A   1      34.608  16.227  25.244  1.00  0.00     0.178 C 
ATOM     33  O   UNL A   1      34.942  15.056  25.058  1.00  0.00    -0.290 OA
BRANCH  21  34
ATOM     34  O   UNL A   1      31.787  21.127  23.470  1.00  0.00    -0.390 OA
ATOM     35  H   UNL A   1      31.832  22.086  23.329  1.00  0.00     0.211 HD
ENDBRANCH  21  34
ENDBRANCH   5   8
ENDBRANCH   3   4
ENDBRANCH   2   3
ENDBRANCH   1   2
BRANCH   1  36
ATOM     36  N   UNL A   1      33.790  30.386  26.721  1.00  0.00    -0.352 N 
ATOM     37  C   UNL A   1      34.572  31.046  27.635  1.00  0.00     0.251 C 
ATOM     38  H   UNL A   1      33.106  30.945  26.286  1.00  0.00     0.163 HD
ATOM     39  O   UNL A   1      34.200  32.152  28.037  1.00  0.00    -0.269 OA
BRANCH  37  40
ATOM     40  C   UNL A   1      35.824  30.449  28.150  1.00  0.00     0.039 A 
ATOM     41  C   UNL A   1      37.012  30.624  27.436  1.00  0.00     0.014 A 
ATOM     42  C   UNL A   1      35.834  29.684  29.318  1.00  0.00     0.014 A 
ATOM     43  C   UNL A   1      38.202  30.077  27.922  1.00  0.00     0.010 A 
ATOM     44  C   UNL A   1      37.036  29.273  29.877  1.00  0.00     0.010 A 
ATOM     45  C   UNL A   1      38.231  29.426  29.167  1.00  0.00    -0.014 A 
BRANCH  45  46
ATOM     46  C   UNL A   1      39.491  28.857  29.712  1.00  0.00     0.031 A 
ATOM     47  C   UNL A   1      40.128  29.461  30.939  1.00  0.00     0.074 A 
ATOM     48  C   UNL A   1      40.084  27.831  29.070  1.00  0.00     0.049 A 
ATOM     49  N   UNL A   1      41.227  29.113  31.560  1.00  0.00    -0.248 NA
ATOM     50  C   UNL A   1      39.470  30.644  31.517  1.00  0.00     0.031 C 
ATOM     51  C   UNL A   1      39.608  27.228  27.822  1.00  0.00     0.029 A 
ATOM     52  N   UNL A   1      41.208  27.109  29.377  1.00  0.00    -0.354 N 
ATOM     53  C   UNL A   1      41.401  30.047  32.577  1.00  0.00     0.074 A 
ATOM     54  C   UNL A   1      40.346  31.024  32.433  1.00  0.00     0.031 C 
ATOM     55  C   UNL A   1      40.402  26.195  27.502  1.00  0.00     0.029 A 
ATOM     56  C   UNL A   1      41.465  26.086  28.493  1.00  0.00     0.049 A 
ATOM     57  H   UNL A   1      41.778  27.304  30.156  1.00  0.00     0.167 HD
ATOM     58  C   UNL A   1      42.332  30.068  33.564  1.00  0.00     0.034 A 
ATOM     59  C   UNL A   1      42.442  25.160  28.491  1.00  0.00     0.034 A 
ATOM     60  C   UNL A   1      43.356  29.061  33.701  1.00  0.00     0.049 A 
ATOM     61  C   UNL A   1      43.432  25.163  29.624  1.00  0.00     0.074 A 
ATOM     62  C   UNL A   1      44.308  28.925  34.696  1.00  0.00     0.029 A 
ATOM     63  N   UNL A   1      43.564  28.014  32.810  1.00  0.00    -0.354 N 
ATOM     64  N   UNL A   1      43.536  26.003  30.629  1.00  0.00    -0.248 NA
ATOM     65  C   UNL A   1      44.420  24.079  29.637  1.00  0.00     0.031 C 
ATOM     66  C   UNL A   1      45.132  27.841  34.369  1.00  0.00     0.029 A 
ATOM     67  C   UNL A   1      44.645  27.246  33.215  1.00  0.00     0.049 A 
ATOM     68  H   UNL A   1      43.021  27.843  32.006  1.00  0.00     0.167 HD
ATOM     69  C   UNL A   1      44.590  25.535  31.408  1.00  0.00     0.074 A 
ATOM     70  C   UNL A   1      45.064  24.323  30.769  1.00  0.00     0.031 C 
ATOM     71  C   UNL A   1      45.118  26.055  32.548  1.00  0.00     0.034 A 
BRANCH  58  72
ATOM     72  C   UNL A   1      42.289  31.224  34.541  1.00  0.00     0.023 A 
ATOM     73  C   UNL A   1      41.321  31.301  35.561  1.00  0.00     0.031 A 
ATOM     74  C   UNL A   1      43.191  32.296  34.418  1.00  0.00     0.131 A 
ATOM     75  C   UNL A   1      41.214  32.459  36.346  1.00  0.00     0.055 A 
ATOM     76  C   UNL A   1      43.141  33.404  35.268  1.00  0.00     0.041 A 
ATOM     77  F   UNL A   1      44.125  32.298  33.454  1.00  0.00    -0.206 F 
ATOM     78  C   UNL A   1      42.136  33.501  36.225  1.00  0.00     0.022 A 
BRANCH  75  79
ATOM     79  S   UNL A   1      39.751  32.661  37.400  1.00  0.00     0.124 S 
ATOM     80  O   UNL A   1      40.334  32.553  38.736  1.00  0.00    -0.237 OA
ATOM     81  O   UNL A   1      39.266  33.982  37.019  1.00  0.00    -0.237 OA
ATOM     82  O   UNL A   1      38.892  31.544  37.014  1.00  0.00    -0.744 OA
ENDBRANCH  75  79
ENDBRANCH  58  72
BRANCH  59  83
ATOM     83  C   UNL A   1      42.511  24.147  27.399  1.00  0.00     0.023 A 
ATOM     84  C   UNL A   1      41.679  23.017  27.398  1.00  0.00     0.031 A 
ATOM     85  C   UNL A   1      43.414  24.300  26.331  1.00  0.00     0.131 A 
ATOM     86  C   UNL A   1      41.790  22.064  26.372  1.00  0.00     0.055 A 
ATOM     87  C   UNL A   1      43.488  23.376  25.288  1.00  0.00     0.041 A 
ATOM     88  F   UNL A   1      44.223  25.370  26.275  1.00  0.00    -0.206 F 
ATOM     89  C   UNL A   1      42.679  22.244  25.310  1.00  0.00     0.022 A 
BRANCH  86  90
ATOM     90  S   UNL A   1      40.792  20.552  26.474  1.00  0.00     0.124 S 
ATOM     91  O   UNL A   1      40.856  20.249  27.898  1.00  0.00    -0.237 OA
ATOM     92  O   UNL A   1      39.501  21.007  25.971  1.00  0.00    -0.237 OA
ATOM     93  O   UNL A   1      41.503  19.618  25.603  1.00  0.00    -0.744 OA
ENDBRANCH  86  90
ENDBRANCH  59  83
BRANCH  71  94
ATOM     94  C   UNL A   1      46.253  25.285  33.179  1.00  0.00     0.023 A 
ATOM     95  C   UNL A   1      46.019  24.268  34.122  1.00  0.00     0.031 A 
ATOM     96  C   UNL A   1      47.586  25.599  32.864  1.00  0.00     0.131 A 
ATOM     97  C   UNL A   1      47.099  23.664  34.779  1.00  0.00     0.055 A 
ATOM     98  C   UNL A   1      48.658  24.939  33.465  1.00  0.00     0.041 A 
ATOM     99  F   UNL A   1      47.870  26.561  31.971  1.00  0.00    -0.206 F 
ATOM    100  C   UNL A   1      48.418  23.979  34.443  1.00  0.00     0.022 A 
BRANCH  97 101
ATOM    101  S   UNL A   1      46.755  22.561  36.178  1.00  0.00     0.124 S 
ATOM    102  O   UNL A   1      46.312  23.502  37.202  1.00  0.00    -0.237 OA
ATOM    103  O   UNL A   1      45.727  21.681  35.634  1.00  0.00    -0.237 OA
ATOM    104  O   UNL A   1      48.044  21.924  36.437  1.00  0.00    -0.744 OA
ENDBRANCH  97 101
ENDBRANCH  71  94
ENDBRANCH  45  46
ENDBRANCH  37  40
ENDBRANCH   1  36
TORSDOF 14
ENDMDL
MODEL 3
REMARK VINA RESULT:     -13.9      1.793      2.078
REMARK SMILES CC1(C)O[C@@H]2C[C@H]3[C@H]4CCC5=CC(=O)C=C[C@@]5(C)[C@]4(F)[C@H](O)C[C@]3(C)[C@]2(C(=O)NCCCNC(=O)c2ccc(-c3c4nc(c(-c5cc(S(=O)(=O)[O-])ccc5F)c5ccc([nH]5)c(-c5cc(S(=O)(=O)[O-])ccc5F)c5nc(c(-c6cc(S(=O)(=O)[O-])ccc6F)c6ccc3[nH]6)C=C5)C=C4)cc2)O1
REMARK SMILES IDX 32 1 31 2 30 3 29 4 27 5 28 6 26 8 1 9 2 10 4 11 99 12 3 13
REMARK SMILES IDX 5 14 6 15 24 16 7 17 23 18 25 19 8 20 21 21 9 22 19 23 10 24
REMARK SMILES IDX 17 25 20 26 11 27 16 28 18 29 12 30 15 31 13 32 14 33 22 34
REMARK SMILES IDX 33 36 34 37 35 39 36 40 37 41 98 42 38 43 97 44 39 45 40 46
REMARK SMILES IDX 41 47 91 48 42 49 96 50 90 51 92 52 43 53 95 54 89 55 88 56
REMARK SMILES IDX 44 58 76 59 56 60 75 61 57 62 60 63 74 64 93 65 58 66 59 67
REMARK SMILES IDX 73 69 94 70 61 71 45 72 46 73 54 74 47 75 53 76 55 77 52 78
REMARK SMILES IDX 48 79 49 80 50 81 51 82 77 83 78 84 86 85 79 86 85 87 87 88
REMARK SMILES IDX 84 89 80 90 81 91 82 92 83 93 62 94 63 95 71 96 64 97 70 98
REMARK SMILES IDX 72 99 69 100 65 101 66 102 67 103 68 104
REMARK H PARENT 29 7 22 35 33 38 92 57 60 68
REMARK Flexibility Score: inf
ROOT
ATOM      1  C   UNL A   1      33.091  29.361  26.407  1.00  0.00     0.118 C 
ENDROOT
BRANCH   1   2
ATOM      2  C   UNL A   1      31.891  28.682  27.038  1.00  0.00     0.042 C 
BRANCH   2   3
ATOM      3  C   UNL A   1      32.061  27.173  27.092  1.00  0.00     0.117 C 
BRANCH   3   4
ATOM      4  N   UNL A   1      31.072  26.502  26.276  1.00  0.00    -0.353 N 
ATOM      5  C   UNL A   1      31.151  25.644  25.227  1.00  0.00     0.255 C 
ATOM      6  O   UNL A   1      30.136  25.646  24.513  1.00  0.00    -0.272 OA
ATOM      7  H   UNL A   1      30.146  26.713  26.537  1.00  0.00     0.163 HD
BRANCH   5   8
ATOM      8  C   UNL A   1      32.263  24.581  24.989  1.00  0.00     0.181 C 
ATOM      9  C   UNL A   1      32.448  25.835  21.773  1.00  0.00     0.075 C 
ATOM     10  C   UNL A   1      33.114  24.942  22.814  1.00  0.00     0.164 C 
ATOM     11  O   UNL A   1      33.914  25.728  23.700  1.00  0.00    -0.344 OA
ATOM     12  O   UNL A   1      32.094  24.231  23.561  1.00  0.00    -0.331 OA
ATOM     13  C   UNL A   1      34.049  23.982  22.047  1.00  0.00     0.075 C 
ATOM     14  C   UNL A   1      33.681  25.224  25.016  1.00  0.00     0.164 C 
ATOM     15  C   UNL A   1      34.703  24.078  25.332  1.00  0.00     0.040 C 
ATOM     16  C   UNL A   1      32.471  23.270  25.864  1.00  0.00     0.014 C 
ATOM     17  C   UNL A   1      33.817  22.837  25.212  1.00  0.00     0.008 C 
ATOM     18  C   UNL A   1      31.395  22.167  25.729  1.00  0.00     0.046 C 
ATOM     19  C   UNL A   1      32.660  23.656  27.367  1.00  0.00     0.015 C 
ATOM     20  C   UNL A   1      34.259  21.385  25.017  1.00  0.00     0.035 C 
ATOM     21  C   UNL A   1      31.787  20.904  24.975  1.00  0.00     0.154 C 
ATOM     22  C   UNL A   1      35.658  20.973  25.437  1.00  0.00     0.012 C 
ATOM     23  C   UNL A   1      33.180  20.366  25.419  1.00  0.00     0.152 C 
ATOM     24  C   UNL A   1      36.008  19.707  24.638  1.00  0.00     0.032 C 
ATOM     25  C   UNL A   1      33.501  18.919  24.856  1.00  0.00     0.044 C 
ATOM     26  F   UNL A   1      33.188  20.308  26.791  1.00  0.00    -0.239 F 
ATOM     27  C   UNL A   1      35.012  18.590  24.849  1.00  0.00    -0.053 C 
ATOM     28  C   UNL A   1      32.754  17.854  25.666  1.00  0.00    -0.009 C 
ATOM     29  C   UNL A   1      33.006  18.743  23.394  1.00  0.00     0.024 C 
ATOM     30  C   UNL A   1      35.448  17.318  24.949  1.00  0.00     0.052 C 
ATOM     31  C   UNL A   1      33.198  16.594  25.799  1.00  0.00     0.048 C 
ATOM     32  C   UNL A   1      34.499  16.216  25.213  1.00  0.00     0.178 C 
ATOM     33  O   UNL A   1      34.801  15.041  25.006  1.00  0.00    -0.290 OA
BRANCH  21  34
ATOM     34  O   UNL A   1      31.737  21.197  23.575  1.00  0.00    -0.390 OA
ATOM     35  H   UNL A   1      31.647  20.370  23.075  1.00  0.00     0.211 HD
ENDBRANCH  21  34
ENDBRANCH   5   8
ENDBRANCH   3   4
ENDBRANCH   2   3
ENDBRANCH   1   2
BRANCH   1  36
ATOM     36  N   UNL A   1      33.058  30.806  26.609  1.00  0.00    -0.352 N 
ATOM     37  C   UNL A   1      33.831  31.619  27.401  1.00  0.00     0.251 C 
ATOM     38  H   UNL A   1      32.367  31.277  26.090  1.00  0.00     0.163 HD
ATOM     39  O   UNL A   1      33.444  32.770  27.617  1.00  0.00    -0.269 OA
BRANCH  37  40
ATOM     40  C   UNL A   1      35.091  31.131  28.005  1.00  0.00     0.039 A 
ATOM     41  C   UNL A   1      36.177  32.002  28.121  1.00  0.00     0.014 A 
ATOM     42  C   UNL A   1      35.226  29.808  28.428  1.00  0.00     0.014 A 
ATOM     43  C   UNL A   1      37.366  31.555  28.704  1.00  0.00     0.010 A 
ATOM     44  C   UNL A   1      36.348  29.411  29.142  1.00  0.00     0.010 A 
ATOM     45  C   UNL A   1      37.450  30.264  29.253  1.00  0.00    -0.014 A 
BRANCH  45  46
ATOM     46  C   UNL A   1      38.698  29.778  29.896  1.00  0.00     0.031 A 
ATOM     47  C   UNL A   1      39.098  30.290  31.258  1.00  0.00     0.074 A 
ATOM     48  C   UNL A   1      39.493  28.918  29.230  1.00  0.00     0.049 A 
ATOM     49  N   UNL A   1      40.149  29.993  31.980  1.00  0.00    -0.248 NA
ATOM     50  C   UNL A   1      38.226  31.305  31.871  1.00  0.00     0.031 C 
ATOM     51  C   UNL A   1      39.255  28.430  27.869  1.00  0.00     0.029 A 
ATOM     52  N   UNL A   1      40.657  28.297  29.604  1.00  0.00    -0.354 N 
ATOM     53  C   UNL A   1      40.075  30.804  33.110  1.00  0.00     0.074 A 
ATOM     54  C   UNL A   1      38.927  31.663  32.934  1.00  0.00     0.031 C 
ATOM     55  C   UNL A   1      40.210  27.544  27.547  1.00  0.00     0.029 A 
ATOM     56  C   UNL A   1      41.150  27.432  28.655  1.00  0.00     0.049 A 
ATOM     57  H   UNL A   1      41.097  28.455  30.470  1.00  0.00     0.167 HD
ATOM     58  C   UNL A   1      40.870  30.805  34.210  1.00  0.00     0.034 A 
ATOM     59  C   UNL A   1      42.233  26.632  28.682  1.00  0.00     0.034 A 
ATOM     60  C   UNL A   1      41.992  29.913  34.372  1.00  0.00     0.049 A 
ATOM     61  C   UNL A   1      43.070  26.604  29.932  1.00  0.00     0.074 A 
ATOM     62  C   UNL A   1      42.826  29.761  35.466  1.00  0.00     0.029 A 
ATOM     63  N   UNL A   1      42.441  29.020  33.405  1.00  0.00    -0.354 N 
ATOM     64  N   UNL A   1      42.940  27.315  31.030  1.00  0.00    -0.248 NA
ATOM     65  C   UNL A   1      44.181  25.648  29.958  1.00  0.00     0.031 C 
ATOM     66  C   UNL A   1      43.818  28.831  35.134  1.00  0.00     0.029 A 
ATOM     67  C   UNL A   1      43.556  28.336  33.865  1.00  0.00     0.049 A 
ATOM     68  H   UNL A   1      42.026  28.892  32.521  1.00  0.00     0.167 HD
ATOM     69  C   UNL A   1      43.944  26.875  31.888  1.00  0.00     0.074 A 
ATOM     70  C   UNL A   1      44.647  25.818  31.187  1.00  0.00     0.031 C 
ATOM     71  C   UNL A   1      44.258  27.303  33.139  1.00  0.00     0.034 A 
BRANCH  58  72
ATOM     72  C   UNL A   1      40.557  31.814  35.296  1.00  0.00     0.023 A 
ATOM     73  C   UNL A   1      39.503  31.623  36.209  1.00  0.00     0.031 A 
ATOM     74  C   UNL A   1      41.286  33.013  35.386  1.00  0.00     0.131 A 
ATOM     75  C   UNL A   1      39.145  32.648  37.098  1.00  0.00     0.055 A 
ATOM     76  C   UNL A   1      40.986  33.990  36.339  1.00  0.00     0.041 A 
ATOM     77  F   UNL A   1      42.290  33.270  34.532  1.00  0.00    -0.206 F 
ATOM     78  C   UNL A   1      39.898  33.821  37.189  1.00  0.00     0.022 A 
BRANCH  75  79
ATOM     79  S   UNL A   1      37.580  32.503  38.006  1.00  0.00     0.124 S 
ATOM     80  O   UNL A   1      37.908  33.170  39.264  1.00  0.00    -0.237 OA
ATOM     81  O   UNL A   1      36.644  33.204  37.136  1.00  0.00    -0.237 OA
ATOM     82  O   UNL A   1      37.376  31.060  38.111  1.00  0.00    -0.744 OA
ENDBRANCH  75  79
ENDBRANCH  58  72
BRANCH  59  83
ATOM     83  C   UNL A   1      42.565  25.782  27.503  1.00  0.00     0.023 A 
ATOM     84  C   UNL A   1      42.129  24.451  27.417  1.00  0.00     0.031 A 
ATOM     85  C   UNL A   1      43.326  26.296  26.437  1.00  0.00     0.131 A 
ATOM     86  C   UNL A   1      42.486  23.666  26.308  1.00  0.00     0.055 A 
ATOM     87  C   UNL A   1      43.637  25.528  25.314  1.00  0.00     0.041 A 
ATOM     88  F   UNL A   1      43.757  27.567  26.461  1.00  0.00    -0.206 F 
ATOM     89  C   UNL A   1      43.225  24.200  25.250  1.00  0.00     0.022 A 
BRANCH  86  90
ATOM     90  S   UNL A   1      42.017  21.914  26.293  1.00  0.00     0.124 S 
ATOM     91  O   UNL A   1      42.306  21.516  27.665  1.00  0.00    -0.237 OA
ATOM     92  O   UNL A   1      40.606  21.981  25.927  1.00  0.00    -0.237 OA
ATOM     93  O   UNL A   1      42.894  21.337  25.276  1.00  0.00    -0.744 OA
ENDBRANCH  86  90
ENDBRANCH  59  83
BRANCH  71  94
ATOM     94  C   UNL A   1      45.398  26.594  33.829  1.00  0.00     0.023 A 
ATOM     95  C   UNL A   1      45.178  25.491  34.674  1.00  0.00     0.031 A 
ATOM     96  C   UNL A   1      46.718  27.052  33.672  1.00  0.00     0.131 A 
ATOM     97  C   UNL A   1      46.246  24.939  35.394  1.00  0.00     0.055 A 
ATOM     98  C   UNL A   1      47.789  26.448  34.332  1.00  0.00     0.041 A 
ATOM     99  F   UNL A   1      46.989  28.101  32.879  1.00  0.00    -0.206 F 
ATOM    100  C   UNL A   1      47.554  25.399  35.215  1.00  0.00     0.022 A 
BRANCH  97 101
ATOM    101  S   UNL A   1      45.882  23.706  36.674  1.00  0.00     0.124 S 
ATOM    102  O   UNL A   1      45.241  22.648  35.900  1.00  0.00    -0.237 OA
ATOM    103  O   UNL A   1      47.210  23.399  37.194  1.00  0.00    -0.237 OA
ATOM    104  O   UNL A   1      45.002  24.419  37.596  1.00  0.00    -0.744 OA
ENDBRANCH  97 101
ENDBRANCH  71  94
ENDBRANCH  45  46
ENDBRANCH  37  40
ENDBRANCH   1  36
TORSDOF 14
ENDMDL
