MODEL 1
REMARK VINA RESULT:     -11.8      0.000      0.000
REMARK SMILES O=C(/C=C/c1ccc(C(=O)NC2CC2)cc1)NC1(C(=O)NCCCNC(=O)c2ccc(-c3c4nc(c(-c5cc(S(=O)(=O)[O-])ccc5F)c5ccc([nH]5)c(-c5cc(S(=O)(=O)[O-])ccc5F)c5nc(c(-c6cc(S(=O)(=O)[O-])ccc6F)c6ccc3[nH]6)C=C5)C=C4)cc2)CCCC1
REMARK SMILES IDX 22 1 21 2 19 3 20 4 18 6 91 7 94 8 92 9 93 10 17 11 1 12
REMARK SMILES IDX 2 13 3 15 4 16 5 17 6 18 16 19 7 20 15 21 8 22 9 23 10 24
REMARK SMILES IDX 11 25 12 27 13 28 14 29 23 30 24 31 25 32 26 33 27 35 28 36
REMARK SMILES IDX 29 37 90 38 30 39 89 40 31 41 32 42 33 43 83 44 34 45 88 46
REMARK SMILES IDX 82 47 84 48 35 49 87 50 81 51 80 52 36 54 68 55 48 56 67 57
REMARK SMILES IDX 49 58 52 59 66 60 85 61 50 62 51 63 65 65 86 66 53 67 37 68
REMARK SMILES IDX 38 69 46 70 39 71 45 72 47 73 44 74 40 75 41 76 42 77 43 78
REMARK SMILES IDX 69 79 70 80 78 81 71 82 77 83 79 84 76 85 72 86 73 87 74 88
REMARK SMILES IDX 75 89 54 90 55 91 63 92 56 93 62 94 64 95 61 96 57 97 58 98
REMARK SMILES IDX 59 99 60 100
REMARK H PARENT 21 5 17 14 11 26 25 34 84 53 52 64
REMARK Flexibility Score: inf
ROOT
ATOM      1  C   UNL A   1      36.562  20.700  25.200  1.00  0.00     0.117 C 
ENDROOT
BRANCH   1   2
ATOM      2  N   UNL A   1      36.210  21.811  24.346  1.00  0.00    -0.354 N 
ATOM      3  C   UNL A   1      35.010  22.256  23.899  1.00  0.00     0.245 C 
ATOM      4  O   UNL A   1      35.058  22.949  22.871  1.00  0.00    -0.272 OA
ATOM      5  H   UNL A   1      36.980  22.340  24.033  1.00  0.00     0.163 HD
BRANCH   3   6
ATOM      6  C   UNL A   1      33.635  21.868  24.546  1.00  0.00     0.119 C 
ATOM      7  C   UNL A   1      33.647  20.834  25.685  1.00  0.00     0.038 C 
ATOM      8  C   UNL A   1      32.662  21.309  23.494  1.00  0.00     0.038 C 
ATOM      9  C   UNL A   1      32.880  19.602  25.204  1.00  0.00     0.003 C 
ATOM     10  C   UNL A   1      32.554  19.814  23.736  1.00  0.00     0.003 C 
BRANCH   6  11
ATOM     11  N   UNL A   1      33.101  23.153  25.032  1.00  0.00    -0.338 N 
ATOM     12  O   UNL A   1      34.686  23.507  26.676  1.00  0.00    -0.270 OA
ATOM     13  C   UNL A   1      33.715  23.867  26.035  1.00  0.00     0.244 C 
ATOM     14  H   UNL A   1      32.278  23.511  24.628  1.00  0.00     0.164 HD
BRANCH  13  15
ATOM     15  C   UNL A   1      33.128  25.207  26.228  1.00  0.00     0.072 C 
ATOM     16  C   UNL A   1      33.702  26.278  25.662  1.00  0.00     0.014 C 
BRANCH  16  17
ATOM     17  C   UNL A   1      33.111  27.604  25.789  1.00  0.00    -0.025 A 
ATOM     18  C   UNL A   1      33.305  28.532  24.766  1.00  0.00     0.009 A 
ATOM     19  C   UNL A   1      32.338  27.947  26.904  1.00  0.00     0.009 A 
ATOM     20  C   UNL A   1      32.655  29.765  24.818  1.00  0.00     0.014 A 
ATOM     21  C   UNL A   1      31.715  29.197  26.972  1.00  0.00     0.014 A 
ATOM     22  C   UNL A   1      31.813  30.078  25.894  1.00  0.00     0.039 A 
BRANCH  22  23
ATOM     23  C   UNL A   1      31.062  31.351  25.809  1.00  0.00     0.251 C 
ATOM     24  O   UNL A   1      31.352  32.266  26.581  1.00  0.00    -0.269 OA
ATOM     25  N   UNL A   1      30.105  31.580  24.848  1.00  0.00    -0.349 N 
ATOM     26  H   UNL A   1      29.749  32.498  24.862  1.00  0.00     0.164 HD
BRANCH  25  27
ATOM     27  C   UNL A   1      29.521  30.764  23.835  1.00  0.00     0.082 C 
ATOM     28  C   UNL A   1      28.048  30.948  23.546  1.00  0.00     0.027 C 
ATOM     29  C   UNL A   1      29.055  31.176  22.467  1.00  0.00     0.027 C 
ENDBRANCH  25  27
ENDBRANCH  22  23
ENDBRANCH  16  17
ENDBRANCH  13  15
ENDBRANCH   6  11
ENDBRANCH   3   6
ENDBRANCH   1   2
BRANCH   1  30
ATOM     30  C   UNL A   1      38.012  20.295  24.973  1.00  0.00     0.042 C 
BRANCH  30  31
ATOM     31  C   UNL A   1      38.967  21.000  25.926  1.00  0.00     0.118 C 
BRANCH  31  32
ATOM     32  N   UNL A   1      40.192  20.235  26.114  1.00  0.00    -0.352 N 
ATOM     33  C   UNL A   1      41.474  20.665  26.338  1.00  0.00     0.251 C 
ATOM     34  H   UNL A   1      40.082  19.258  26.074  1.00  0.00     0.163 HD
ATOM     35  O   UNL A   1      42.403  19.882  26.159  1.00  0.00    -0.269 OA
BRANCH  33  36
ATOM     36  C   UNL A   1      41.734  22.050  26.787  1.00  0.00     0.039 A 
ATOM     37  C   UNL A   1      41.982  23.035  25.829  1.00  0.00     0.014 A 
ATOM     38  C   UNL A   1      41.793  22.370  28.147  1.00  0.00     0.014 A 
ATOM     39  C   UNL A   1      42.257  24.341  26.235  1.00  0.00     0.010 A 
ATOM     40  C   UNL A   1      41.959  23.691  28.546  1.00  0.00     0.010 A 
ATOM     41  C   UNL A   1      42.227  24.685  27.597  1.00  0.00    -0.014 A 
BRANCH  41  42
ATOM     42  C   UNL A   1      42.529  26.069  28.041  1.00  0.00     0.031 A 
ATOM     43  C   UNL A   1      43.941  26.590  27.976  1.00  0.00     0.074 A 
ATOM     44  C   UNL A   1      41.538  26.843  28.523  1.00  0.00     0.049 A 
ATOM     45  N   UNL A   1      44.410  27.762  28.322  1.00  0.00    -0.248 NA
ATOM     46  C   UNL A   1      44.969  25.656  27.490  1.00  0.00     0.031 C 
ATOM     47  C   UNL A   1      40.142  26.426  28.680  1.00  0.00     0.029 A 
ATOM     48  N   UNL A   1      41.545  28.142  28.961  1.00  0.00    -0.354 N 
ATOM     49  C   UNL A   1      45.783  27.701  28.103  1.00  0.00     0.074 A 
ATOM     50  C   UNL A   1      46.079  26.350  27.679  1.00  0.00     0.031 C 
ATOM     51  C   UNL A   1      39.421  27.464  29.131  1.00  0.00     0.029 A 
ATOM     52  C   UNL A   1      40.306  28.606  29.336  1.00  0.00     0.049 A 
ATOM     53  H   UNL A   1      42.362  28.691  29.002  1.00  0.00     0.167 HD
ATOM     54  C   UNL A   1      46.707  28.688  28.211  1.00  0.00     0.034 A 
ATOM     55  C   UNL A   1      39.929  29.817  29.788  1.00  0.00     0.034 A 
ATOM     56  C   UNL A   1      46.387  30.032  28.629  1.00  0.00     0.049 A 
ATOM     57  C   UNL A   1      40.973  30.898  29.908  1.00  0.00     0.074 A 
ATOM     58  C   UNL A   1      47.229  31.125  28.746  1.00  0.00     0.029 A 
ATOM     59  N   UNL A   1      45.119  30.468  29.000  1.00  0.00    -0.354 N 
ATOM     60  N   UNL A   1      42.260  30.839  29.651  1.00  0.00    -0.248 NA
ATOM     61  C   UNL A   1      40.505  32.214  30.356  1.00  0.00     0.031 C 
ATOM     62  C   UNL A   1      46.485  32.199  29.250  1.00  0.00     0.029 A 
ATOM     63  C   UNL A   1      45.162  31.804  29.368  1.00  0.00     0.049 A 
ATOM     64  H   UNL A   1      44.310  29.907  29.001  1.00  0.00     0.167 HD
ATOM     65  C   UNL A   1      42.748  32.124  29.873  1.00  0.00     0.074 A 
ATOM     66  C   UNL A   1      41.611  32.935  30.260  1.00  0.00     0.031 C 
ATOM     67  C   UNL A   1      44.019  32.595  29.766  1.00  0.00     0.034 A 
BRANCH  54  68
ATOM     68  C   UNL A   1      48.143  28.332  27.894  1.00  0.00     0.023 A 
ATOM     69  C   UNL A   1      48.656  28.430  26.586  1.00  0.00     0.031 A 
ATOM     70  C   UNL A   1      48.998  27.842  28.896  1.00  0.00     0.131 A 
ATOM     71  C   UNL A   1      49.946  27.958  26.300  1.00  0.00     0.055 A 
ATOM     72  C   UNL A   1      50.315  27.461  28.621  1.00  0.00     0.041 A 
ATOM     73  F   UNL A   1      48.564  27.702  30.158  1.00  0.00    -0.206 F 
ATOM     74  C   UNL A   1      50.789  27.501  27.313  1.00  0.00     0.022 A 
BRANCH  71  75
ATOM     75  S   UNL A   1      50.441  27.794  24.562  1.00  0.00     0.124 S 
ATOM     76  O   UNL A   1      49.146  27.800  23.886  1.00  0.00    -0.237 OA
ATOM     77  O   UNL A   1      51.274  28.973  24.357  1.00  0.00    -0.237 OA
ATOM     78  O   UNL A   1      51.148  26.516  24.527  1.00  0.00    -0.744 OA
ENDBRANCH  71  75
ENDBRANCH  54  68
BRANCH  55  79
ATOM     79  C   UNL A   1      38.505  30.084  30.140  1.00  0.00     0.023 A 
ATOM     80  C   UNL A   1      37.622  30.648  29.204  1.00  0.00     0.031 A 
ATOM     81  C   UNL A   1      38.014  29.817  31.430  1.00  0.00     0.131 A 
ATOM     82  C   UNL A   1      36.311  30.974  29.586  1.00  0.00     0.055 A 
ATOM     83  C   UNL A   1      36.693  30.092  31.789  1.00  0.00     0.041 A 
ATOM     84  F   UNL A   1      38.812  29.271  32.362  1.00  0.00    -0.206 F 
ATOM     85  C   UNL A   1      35.837  30.688  30.868  1.00  0.00     0.022 A 
BRANCH  82  86
ATOM     86  S   UNL A   1      35.260  31.864  28.406  1.00  0.00     0.124 S 
ATOM     87  O   UNL A   1      34.831  30.788  27.520  1.00  0.00    -0.237 OA
ATOM     88  O   UNL A   1      34.234  32.426  29.278  1.00  0.00    -0.237 OA
ATOM     89  O   UNL A   1      36.171  32.839  27.810  1.00  0.00    -0.744 OA
ENDBRANCH  82  86
ENDBRANCH  55  79
BRANCH  67  90
ATOM     90  C   UNL A   1      44.221  34.070  30.026  1.00  0.00     0.023 A 
ATOM     91  C   UNL A   1      44.063  35.029  29.011  1.00  0.00     0.031 A 
ATOM     92  C   UNL A   1      44.629  34.514  31.297  1.00  0.00     0.131 A 
ATOM     93  C   UNL A   1      44.393  36.370  29.260  1.00  0.00     0.055 A 
ATOM     94  C   UNL A   1      44.880  35.861  31.559  1.00  0.00     0.041 A 
ATOM     95  F   UNL A   1      44.798  33.643  32.305  1.00  0.00    -0.206 F 
ATOM     96  C   UNL A   1      44.783  36.795  30.532  1.00  0.00     0.022 A 
BRANCH  93  97
ATOM     97  S   UNL A   1      44.445  37.523  27.860  1.00  0.00     0.124 S 
ATOM     98  O   UNL A   1      43.711  36.788  26.835  1.00  0.00    -0.237 OA
ATOM     99  O   UNL A   1      43.776  38.700  28.401  1.00  0.00    -0.237 OA
ATOM    100  O   UNL A   1      45.875  37.685  27.602  1.00  0.00    -0.744 OA
ENDBRANCH  93  97
ENDBRANCH  67  90
ENDBRANCH  41  42
ENDBRANCH  33  36
ENDBRANCH  31  32
ENDBRANCH  30  31
ENDBRANCH   1  30
TORSDOF 18
ENDMDL
MODEL 2
REMARK VINA RESULT:     -11.5      2.063      7.640
REMARK SMILES O=C(/C=C/c1ccc(C(=O)NC2CC2)cc1)NC1(C(=O)NCCCNC(=O)c2ccc(-c3c4nc(c(-c5cc(S(=O)(=O)[O-])ccc5F)c5ccc([nH]5)c(-c5cc(S(=O)(=O)[O-])ccc5F)c5nc(c(-c6cc(S(=O)(=O)[O-])ccc6F)c6ccc3[nH]6)C=C5)C=C4)cc2)CCCC1
REMARK SMILES IDX 22 1 21 2 19 3 20 4 18 6 91 7 94 8 92 9 93 10 17 11 1 12
REMARK SMILES IDX 2 13 3 15 4 16 5 17 6 18 16 19 7 20 15 21 8 22 9 23 10 24
REMARK SMILES IDX 11 25 12 27 13 28 14 29 23 30 24 31 25 32 26 33 27 35 28 36
REMARK SMILES IDX 29 37 90 38 30 39 89 40 31 41 32 42 33 43 83 44 34 45 88 46
REMARK SMILES IDX 82 47 84 48 35 49 87 50 81 51 80 52 36 54 68 55 48 56 67 57
REMARK SMILES IDX 49 58 52 59 66 60 85 61 50 62 51 63 65 65 86 66 53 67 37 68
REMARK SMILES IDX 38 69 46 70 39 71 45 72 47 73 44 74 40 75 41 76 42 77 43 78
REMARK SMILES IDX 69 79 70 80 78 81 71 82 77 83 79 84 76 85 72 86 73 87 74 88
REMARK SMILES IDX 75 89 54 90 55 91 63 92 56 93 62 94 64 95 61 96 57 97 58 98
REMARK SMILES IDX 59 99 60 100
REMARK H PARENT 21 5 17 14 11 26 25 34 84 53 52 64
REMARK Flexibility Score: inf
ROOT
ATOM      1  C   UNL A   1      36.869  20.410  25.045  1.00  0.00     0.117 C 
ENDROOT
BRANCH   1   2
ATOM      2  N   UNL A   1      36.658  21.605  24.261  1.00  0.00    -0.354 N 
ATOM      3  C   UNL A   1      35.524  22.253  23.899  1.00  0.00     0.245 C 
ATOM      4  O   UNL A   1      35.633  22.983  22.901  1.00  0.00    -0.272 OA
ATOM      5  H   UNL A   1      37.487  22.023  23.931  1.00  0.00     0.163 HD
BRANCH   3   6
ATOM      6  C   UNL A   1      34.136  22.050  24.600  1.00  0.00     0.119 C 
ATOM      7  C   UNL A   1      34.096  21.180  25.867  1.00  0.00     0.038 C 
ATOM      8  C   UNL A   1      33.111  21.424  23.639  1.00  0.00     0.038 C 
ATOM      9  C   UNL A   1      33.240  19.949  25.561  1.00  0.00     0.003 C 
ATOM     10  C   UNL A   1      32.908  19.986  24.080  1.00  0.00     0.003 C 
BRANCH   6  11
ATOM     11  N   UNL A   1      33.696  23.422  24.912  1.00  0.00    -0.338 N 
ATOM     12  O   UNL A   1      35.548  24.029  26.155  1.00  0.00    -0.270 OA
ATOM     13  C   UNL A   1      34.479  24.293  25.635  1.00  0.00     0.244 C 
ATOM     14  H   UNL A   1      32.815  23.725  24.595  1.00  0.00     0.164 HD
BRANCH  13  15
ATOM     15  C   UNL A   1      33.936  25.666  25.663  1.00  0.00     0.072 C 
ATOM     16  C   UNL A   1      32.682  25.899  25.251  1.00  0.00     0.014 C 
BRANCH  16  17
ATOM     17  C   UNL A   1      32.102  27.233  25.323  1.00  0.00    -0.025 A 
ATOM     18  C   UNL A   1      32.299  27.996  26.474  1.00  0.00     0.009 A 
ATOM     19  C   UNL A   1      31.374  27.764  24.252  1.00  0.00     0.009 A 
ATOM     20  C   UNL A   1      31.848  29.315  26.517  1.00  0.00     0.014 A 
ATOM     21  C   UNL A   1      30.892  29.075  24.309  1.00  0.00     0.014 A 
ATOM     22  C   UNL A   1      31.192  29.876  25.412  1.00  0.00     0.039 A 
BRANCH  22  23
ATOM     23  C   UNL A   1      30.861  31.316  25.489  1.00  0.00     0.251 C 
ATOM     24  O   UNL A   1      31.439  32.016  26.322  1.00  0.00    -0.269 OA
ATOM     25  N   UNL A   1      29.990  31.921  24.613  1.00  0.00    -0.349 N 
ATOM     26  H   UNL A   1      29.931  32.897  24.733  1.00  0.00     0.164 HD
BRANCH  25  27
ATOM     27  C   UNL A   1      29.154  31.429  23.568  1.00  0.00     0.082 C 
ATOM     28  C   UNL A   1      27.658  31.556  23.745  1.00  0.00     0.027 C 
ATOM     29  C   UNL A   1      28.332  32.219  22.589  1.00  0.00     0.027 C 
ENDBRANCH  25  27
ENDBRANCH  22  23
ENDBRANCH  16  17
ENDBRANCH  13  15
ENDBRANCH   6  11
ENDBRANCH   3   6
ENDBRANCH   1   2
BRANCH   1  30
ATOM     30  C   UNL A   1      38.290  19.897  24.858  1.00  0.00     0.042 C 
BRANCH  30  31
ATOM     31  C   UNL A   1      39.179  20.203  26.056  1.00  0.00     0.118 C 
BRANCH  31  32
ATOM     32  N   UNL A   1      40.344  19.330  26.091  1.00  0.00    -0.352 N 
ATOM     33  C   UNL A   1      41.678  19.638  26.044  1.00  0.00     0.251 C 
ATOM     34  H   UNL A   1      40.140  18.369  26.160  1.00  0.00     0.163 HD
ATOM     35  O   UNL A   1      42.484  18.751  25.773  1.00  0.00    -0.269 OA
BRANCH  33  36
ATOM     36  C   UNL A   1      42.141  21.016  26.312  1.00  0.00     0.039 A 
ATOM     37  C   UNL A   1      42.297  21.897  25.240  1.00  0.00     0.014 A 
ATOM     38  C   UNL A   1      42.478  21.427  27.606  1.00  0.00     0.014 A 
ATOM     39  C   UNL A   1      42.759  23.193  25.470  1.00  0.00     0.010 A 
ATOM     40  C   UNL A   1      42.834  22.749  27.847  1.00  0.00     0.010 A 
ATOM     41  C   UNL A   1      43.011  23.637  26.779  1.00  0.00    -0.014 A 
BRANCH  41  42
ATOM     42  C   UNL A   1      43.513  25.010  27.035  1.00  0.00     0.031 A 
ATOM     43  C   UNL A   1      42.592  26.054  27.613  1.00  0.00     0.074 A 
ATOM     44  C   UNL A   1      44.787  25.320  26.727  1.00  0.00     0.049 A 
ATOM     45  N   UNL A   1      42.835  27.307  27.901  1.00  0.00    -0.248 NA
ATOM     46  C   UNL A   1      41.202  25.642  27.865  1.00  0.00     0.031 C 
ATOM     47  C   UNL A   1      45.754  24.404  26.116  1.00  0.00     0.029 A 
ATOM     48  N   UNL A   1      45.493  26.484  26.891  1.00  0.00    -0.354 N 
ATOM     49  C   UNL A   1      41.631  27.831  28.360  1.00  0.00     0.074 A 
ATOM     50  C   UNL A   1      40.642  26.784  28.226  1.00  0.00     0.031 C 
ATOM     51  C   UNL A   1      46.938  25.026  26.004  1.00  0.00     0.029 A 
ATOM     52  C   UNL A   1      46.806  26.394  26.493  1.00  0.00     0.049 A 
ATOM     53  H   UNL A   1      45.096  27.306  27.260  1.00  0.00     0.167 HD
ATOM     54  C   UNL A   1      41.379  29.060  28.878  1.00  0.00     0.034 A 
ATOM     55  C   UNL A   1      47.791  27.312  26.525  1.00  0.00     0.034 A 
ATOM     56  C   UNL A   1      42.384  30.087  29.009  1.00  0.00     0.049 A 
ATOM     57  C   UNL A   1      47.489  28.674  27.097  1.00  0.00     0.074 A 
ATOM     58  C   UNL A   1      42.259  31.356  29.545  1.00  0.00     0.029 A 
ATOM     59  N   UNL A   1      43.707  29.961  28.596  1.00  0.00    -0.354 N 
ATOM     60  N   UNL A   1      46.356  29.140  27.573  1.00  0.00    -0.248 NA
ATOM     61  C   UNL A   1      48.606  29.623  27.158  1.00  0.00     0.031 C 
ATOM     62  C   UNL A   1      43.484  32.018  29.396  1.00  0.00     0.029 A 
ATOM     63  C   UNL A   1      44.399  31.136  28.844  1.00  0.00     0.049 A 
ATOM     64  H   UNL A   1      44.094  29.153  28.187  1.00  0.00     0.167 HD
ATOM     65  C   UNL A   1      46.636  30.427  28.022  1.00  0.00     0.074 A 
ATOM     66  C   UNL A   1      48.049  30.648  27.782  1.00  0.00     0.031 C 
ATOM     67  C   UNL A   1      45.806  31.345  28.585  1.00  0.00     0.034 A 
BRANCH  54  68
ATOM     68  C   UNL A   1      39.960  29.352  29.311  1.00  0.00     0.023 A 
ATOM     69  C   UNL A   1      39.600  29.403  30.672  1.00  0.00     0.031 A 
ATOM     70  C   UNL A   1      38.942  29.533  28.360  1.00  0.00     0.131 A 
ATOM     71  C   UNL A   1      38.251  29.534  31.038  1.00  0.00     0.055 A 
ATOM     72  C   UNL A   1      37.613  29.758  28.733  1.00  0.00     0.041 A 
ATOM     73  F   UNL A   1      39.214  29.473  27.047  1.00  0.00    -0.206 F 
ATOM     74  C   UNL A   1      37.259  29.740  30.079  1.00  0.00     0.022 A 
BRANCH  71  75
ATOM     75  S   UNL A   1      37.795  29.261  32.773  1.00  0.00     0.124 S 
ATOM     76  O   UNL A   1      36.532  29.989  32.862  1.00  0.00    -0.237 OA
ATOM     77  O   UNL A   1      37.702  27.808  32.850  1.00  0.00    -0.237 OA
ATOM     78  O   UNL A   1      38.903  29.857  33.516  1.00  0.00    -0.744 OA
ENDBRANCH  71  75
ENDBRANCH  54  68
BRANCH  55  79
ATOM     79  C   UNL A   1      49.155  26.976  26.025  1.00  0.00     0.023 A 
ATOM     80  C   UNL A   1      49.587  27.403  24.759  1.00  0.00     0.031 A 
ATOM     81  C   UNL A   1      50.034  26.188  26.789  1.00  0.00     0.131 A 
ATOM     82  C   UNL A   1      50.841  26.998  24.273  1.00  0.00     0.055 A 
ATOM     83  C   UNL A   1      51.302  25.834  26.324  1.00  0.00     0.041 A 
ATOM     84  F   UNL A   1      49.675  25.759  28.010  1.00  0.00    -0.206 F 
ATOM     85  C   UNL A   1      51.706  26.227  25.052  1.00  0.00     0.022 A 
BRANCH  82  86
ATOM     86  S   UNL A   1      51.286  27.420  22.566  1.00  0.00     0.124 S 
ATOM     87  O   UNL A   1      52.593  26.787  22.434  1.00  0.00    -0.237 OA
ATOM     88  O   UNL A   1      50.198  26.810  21.810  1.00  0.00    -0.237 OA
ATOM     89  O   UNL A   1      51.297  28.882  22.570  1.00  0.00    -0.744 OA
ENDBRANCH  82  86
ENDBRANCH  55  79
BRANCH  67  90
ATOM     90  C   UNL A   1      46.431  32.649  29.021  1.00  0.00     0.023 A 
ATOM     91  C   UNL A   1      46.640  33.708  28.121  1.00  0.00     0.031 A 
ATOM     92  C   UNL A   1      46.870  32.815  30.348  1.00  0.00     0.131 A 
ATOM     93  C   UNL A   1      47.346  34.848  28.534  1.00  0.00     0.055 A 
ATOM     94  C   UNL A   1      47.502  33.984  30.773  1.00  0.00     0.041 A 
ATOM     95  F   UNL A   1      46.698  31.837  31.253  1.00  0.00    -0.206 F 
ATOM     96  C   UNL A   1      47.762  35.000  29.859  1.00  0.00     0.022 A 
BRANCH  93  97
ATOM     97  S   UNL A   1      47.840  36.063  27.280  1.00  0.00     0.124 S 
ATOM     98  O   UNL A   1      46.553  36.615  26.871  1.00  0.00    -0.237 OA
ATOM     99  O   UNL A   1      48.706  36.958  28.038  1.00  0.00    -0.237 OA
ATOM    100  O   UNL A   1      48.517  35.254  26.268  1.00  0.00    -0.744 OA
ENDBRANCH  93  97
ENDBRANCH  67  90
ENDBRANCH  41  42
ENDBRANCH  33  36
ENDBRANCH  31  32
ENDBRANCH  30  31
ENDBRANCH   1  30
TORSDOF 18
ENDMDL
MODEL 3
REMARK VINA RESULT:     -11.5      2.340      7.932
REMARK SMILES O=C(/C=C/c1ccc(C(=O)NC2CC2)cc1)NC1(C(=O)NCCCNC(=O)c2ccc(-c3c4nc(c(-c5cc(S(=O)(=O)[O-])ccc5F)c5ccc([nH]5)c(-c5cc(S(=O)(=O)[O-])ccc5F)c5nc(c(-c6cc(S(=O)(=O)[O-])ccc6F)c6ccc3[nH]6)C=C5)C=C4)cc2)CCCC1
REMARK SMILES IDX 22 1 21 2 19 3 20 4 18 6 91 7 94 8 92 9 93 10 17 11 1 12
REMARK SMILES IDX 2 13 3 15 4 16 5 17 6 18 16 19 7 20 15 21 8 22 9 23 10 24
REMARK SMILES IDX 11 25 12 27 13 28 14 29 23 30 24 31 25 32 26 33 27 35 28 36
REMARK SMILES IDX 29 37 90 38 30 39 89 40 31 41 32 42 33 43 83 44 34 45 88 46
REMARK SMILES IDX 82 47 84 48 35 49 87 50 81 51 80 52 36 54 68 55 48 56 67 57
REMARK SMILES IDX 49 58 52 59 66 60 85 61 50 62 51 63 65 65 86 66 53 67 37 68
REMARK SMILES IDX 38 69 46 70 39 71 45 72 47 73 44 74 40 75 41 76 42 77 43 78
REMARK SMILES IDX 69 79 70 80 78 81 71 82 77 83 79 84 76 85 72 86 73 87 74 88
REMARK SMILES IDX 75 89 54 90 55 91 63 92 56 93 62 94 64 95 61 96 57 97 58 98
REMARK SMILES IDX 59 99 60 100
REMARK H PARENT 21 5 17 14 11 26 25 34 84 53 52 64
REMARK Flexibility Score: inf
ROOT
ATOM      1  C   UNL A   1      38.022  21.831  25.550  1.00  0.00     0.117 C 
ENDROOT
BRANCH   1   2
ATOM      2  N   UNL A   1      37.687  22.501  24.314  1.00  0.00    -0.354 N 
ATOM      3  C   UNL A   1      36.493  22.864  23.786  1.00  0.00     0.245 C 
ATOM      4  O   UNL A   1      36.494  23.033  22.556  1.00  0.00    -0.272 OA
ATOM      5  H   UNL A   1      38.465  22.735  23.758  1.00  0.00     0.163 HD
BRANCH   3   6
ATOM      6  C   UNL A   1      35.166  22.981  24.613  1.00  0.00     0.119 C 
ATOM      7  C   UNL A   1      35.133  22.330  26.006  1.00  0.00     0.038 C 
ATOM      8  C   UNL A   1      33.976  22.375  23.849  1.00  0.00     0.038 C 
ATOM      9  C   UNL A   1      34.093  21.209  25.973  1.00  0.00     0.003 C 
ATOM     10  C   UNL A   1      33.624  21.068  24.535  1.00  0.00     0.003 C 
BRANCH   6  11
ATOM     11  N   UNL A   1      34.949  24.434  24.727  1.00  0.00    -0.338 N 
ATOM     12  O   UNL A   1      32.739  24.332  25.393  1.00  0.00    -0.270 OA
ATOM     13  C   UNL A   1      33.751  24.963  25.150  1.00  0.00     0.244 C 
ATOM     14  H   UNL A   1      35.683  25.047  24.493  1.00  0.00     0.164 HD
BRANCH  13  15
ATOM     15  C   UNL A   1      33.815  26.421  25.377  1.00  0.00     0.072 C 
ATOM     16  C   UNL A   1      33.190  26.962  26.432  1.00  0.00     0.014 C 
BRANCH  16  17
ATOM     17  C   UNL A   1      33.286  28.388  26.713  1.00  0.00    -0.025 A 
ATOM     18  C   UNL A   1      32.137  29.175  26.620  1.00  0.00     0.009 A 
ATOM     19  C   UNL A   1      34.501  28.970  27.092  1.00  0.00     0.009 A 
ATOM     20  C   UNL A   1      32.186  30.518  26.993  1.00  0.00     0.014 A 
ATOM     21  C   UNL A   1      34.556  30.325  27.432  1.00  0.00     0.014 A 
ATOM     22  C   UNL A   1      33.384  31.083  27.454  1.00  0.00     0.039 A 
BRANCH  22  23
ATOM     23  C   UNL A   1      33.321  32.475  27.950  1.00  0.00     0.251 C 
ATOM     24  O   UNL A   1      32.549  33.267  27.407  1.00  0.00    -0.269 OA
ATOM     25  N   UNL A   1      34.032  32.900  29.048  1.00  0.00    -0.349 N 
ATOM     26  H   UNL A   1      33.828  33.827  29.312  1.00  0.00     0.164 HD
BRANCH  25  27
ATOM     27  C   UNL A   1      35.005  32.278  29.884  1.00  0.00     0.082 C 
ATOM     28  C   UNL A   1      36.139  33.133  30.402  1.00  0.00     0.027 C 
ATOM     29  C   UNL A   1      35.212  32.462  31.361  1.00  0.00     0.027 C 
ENDBRANCH  25  27
ENDBRANCH  22  23
ENDBRANCH  16  17
ENDBRANCH  13  15
ENDBRANCH   6  11
ENDBRANCH   3   6
ENDBRANCH   1   2
BRANCH   1  30
ATOM     30  C   UNL A   1      38.900  20.618  25.274  1.00  0.00     0.042 C 
BRANCH  30  31
ATOM     31  C   UNL A   1      39.538  20.063  26.540  1.00  0.00     0.118 C 
BRANCH  31  32
ATOM     32  N   UNL A   1      40.721  19.271  26.237  1.00  0.00    -0.352 N 
ATOM     33  C   UNL A   1      41.993  19.673  25.920  1.00  0.00     0.251 C 
ATOM     34  H   UNL A   1      40.587  18.297  26.263  1.00  0.00     0.163 HD
ATOM     35  O   UNL A   1      42.759  18.865  25.399  1.00  0.00    -0.269 OA
BRANCH  33  36
ATOM     36  C   UNL A   1      42.437  21.055  26.200  1.00  0.00     0.039 A 
ATOM     37  C   UNL A   1      42.687  21.914  25.128  1.00  0.00     0.014 A 
ATOM     38  C   UNL A   1      42.662  21.491  27.509  1.00  0.00     0.014 A 
ATOM     39  C   UNL A   1      43.132  23.213  25.372  1.00  0.00     0.010 A 
ATOM     40  C   UNL A   1      43.001  22.816  27.754  1.00  0.00     0.010 A 
ATOM     41  C   UNL A   1      43.273  23.683  26.688  1.00  0.00    -0.014 A 
BRANCH  41  42
ATOM     42  C   UNL A   1      43.756  25.060  26.960  1.00  0.00     0.031 A 
ATOM     43  C   UNL A   1      42.826  26.079  27.566  1.00  0.00     0.074 A 
ATOM     44  C   UNL A   1      45.020  25.396  26.638  1.00  0.00     0.049 A 
ATOM     45  N   UNL A   1      43.053  27.331  27.872  1.00  0.00    -0.248 NA
ATOM     46  C   UNL A   1      41.447  25.640  27.831  1.00  0.00     0.031 C 
ATOM     47  C   UNL A   1      45.993  24.506  25.999  1.00  0.00     0.029 A 
ATOM     48  N   UNL A   1      45.709  26.568  26.811  1.00  0.00    -0.354 N 
ATOM     49  C   UNL A   1      41.847  27.828  28.356  1.00  0.00     0.074 A 
ATOM     50  C   UNL A   1      40.874  26.767  28.219  1.00  0.00     0.031 C 
ATOM     51  C   UNL A   1      47.165  25.149  25.880  1.00  0.00     0.029 A 
ATOM     52  C   UNL A   1      47.018  26.507  26.393  1.00  0.00     0.049 A 
ATOM     53  H   UNL A   1      45.304  27.378  27.199  1.00  0.00     0.167 HD
ATOM     54  C   UNL A   1      41.583  29.044  28.897  1.00  0.00     0.034 A 
ATOM     55  C   UNL A   1      47.988  27.440  26.426  1.00  0.00     0.034 A 
ATOM     56  C   UNL A   1      42.573  30.085  29.030  1.00  0.00     0.049 A 
ATOM     57  C   UNL A   1      47.672  28.788  27.025  1.00  0.00     0.074 A 
ATOM     58  C   UNL A   1      42.434  31.344  29.589  1.00  0.00     0.029 A 
ATOM     59  N   UNL A   1      43.891  29.988  28.597  1.00  0.00    -0.354 N 
ATOM     60  N   UNL A   1      46.538  29.227  27.523  1.00  0.00    -0.248 NA
ATOM     61  C   UNL A   1      48.774  29.754  27.085  1.00  0.00     0.031 C 
ATOM     62  C   UNL A   1      43.646  32.028  29.433  1.00  0.00     0.029 A 
ATOM     63  C   UNL A   1      44.568  31.170  28.855  1.00  0.00     0.049 A 
ATOM     64  H   UNL A   1      44.285  29.194  28.169  1.00  0.00     0.167 HD
ATOM     65  C   UNL A   1      46.804  30.512  27.990  1.00  0.00     0.074 A 
ATOM     66  C   UNL A   1      48.209  30.760  27.733  1.00  0.00     0.031 C 
ATOM     67  C   UNL A   1      45.967  31.406  28.579  1.00  0.00     0.034 A 
BRANCH  54  68
ATOM     68  C   UNL A   1      40.165  29.306  29.355  1.00  0.00     0.023 A 
ATOM     69  C   UNL A   1      39.806  29.245  30.716  1.00  0.00     0.031 A 
ATOM     70  C   UNL A   1      39.147  29.570  28.423  1.00  0.00     0.131 A 
ATOM     71  C   UNL A   1      38.459  29.351  31.093  1.00  0.00     0.055 A 
ATOM     72  C   UNL A   1      37.820  29.769  28.815  1.00  0.00     0.041 A 
ATOM     73  F   UNL A   1      39.418  29.619  27.109  1.00  0.00    -0.206 F 
ATOM     74  C   UNL A   1      37.467  29.641  30.155  1.00  0.00     0.022 A 
BRANCH  71  75
ATOM     75  S   UNL A   1      38.003  28.937  32.800  1.00  0.00     0.124 S 
ATOM     76  O   UNL A   1      36.675  29.538  32.903  1.00  0.00    -0.237 OA
ATOM     77  O   UNL A   1      38.045  27.479  32.793  1.00  0.00    -0.237 OA
ATOM     78  O   UNL A   1      39.038  29.588  33.599  1.00  0.00    -0.744 OA
ENDBRANCH  71  75
ENDBRANCH  54  68
BRANCH  55  79
ATOM     79  C   UNL A   1      49.350  27.135  25.902  1.00  0.00     0.023 A 
ATOM     80  C   UNL A   1      49.764  27.607  24.646  1.00  0.00     0.031 A 
ATOM     81  C   UNL A   1      50.245  26.332  26.631  1.00  0.00     0.131 A 
ATOM     82  C   UNL A   1      51.017  27.231  24.134  1.00  0.00     0.055 A 
ATOM     83  C   UNL A   1      51.512  26.007  26.142  1.00  0.00     0.041 A 
ATOM     84  F   UNL A   1      49.904  25.861  27.841  1.00  0.00    -0.206 F 
ATOM     85  C   UNL A   1      51.898  26.445  24.879  1.00  0.00     0.022 A 
BRANCH  82  86
ATOM     86  S   UNL A   1      51.440  27.711  22.437  1.00  0.00     0.124 S 
ATOM     87  O   UNL A   1      52.887  27.537  22.430  1.00  0.00    -0.237 OA
ATOM     88  O   UNL A   1      50.673  26.751  21.651  1.00  0.00    -0.237 OA
ATOM     89  O   UNL A   1      50.976  29.095  22.352  1.00  0.00    -0.744 OA
ENDBRANCH  82  86
ENDBRANCH  55  79
BRANCH  67  90
ATOM     90  C   UNL A   1      46.577  32.714  29.027  1.00  0.00     0.023 A 
ATOM     91  C   UNL A   1      46.583  33.850  28.201  1.00  0.00     0.031 A 
ATOM     92  C   UNL A   1      47.205  32.808  30.283  1.00  0.00     0.131 A 
ATOM     93  C   UNL A   1      47.279  35.001  28.600  1.00  0.00     0.055 A 
ATOM     94  C   UNL A   1      47.828  33.982  30.708  1.00  0.00     0.041 A 
ATOM     95  F   UNL A   1      47.232  31.754  31.115  1.00  0.00    -0.206 F 
ATOM     96  C   UNL A   1      47.886  35.081  29.855  1.00  0.00     0.022 A 
BRANCH  93  97
ATOM     97  S   UNL A   1      47.503  36.340  27.395  1.00  0.00     0.124 S 
ATOM     98  O   UNL A   1      48.632  37.071  27.962  1.00  0.00    -0.237 OA
ATOM     99  O   UNL A   1      47.772  35.608  26.163  1.00  0.00    -0.237 OA
ATOM    100  O   UNL A   1      46.225  37.049  27.430  1.00  0.00    -0.744 OA
ENDBRANCH  93  97
ENDBRANCH  67  90
ENDBRANCH  41  42
ENDBRANCH  33  36
ENDBRANCH  31  32
ENDBRANCH  30  31
ENDBRANCH   1  30
TORSDOF 18
ENDMDL
