MODEL 1
REMARK VINA RESULT:     -13.1      0.000      0.000
REMARK SMILES C[C@H]1CC[C@H]([NH2+]Cc2c(C(=O)NCCCNC(=O)c3ccc(-c4c5nc(c(-c6cc(S(=O)(=O)[O-])ccc6F)c6ccc([nH]6)c(-c6cc(S(=O)(=O)[O-])ccc6F)c6nc(c(-c7cc(S(=O)(=O)[O-])ccc7F)c7ccc4[nH]7)C=C6)C=C5)cc3)n(Cc3ccccc3F)c3ccccc23)CC1
REMARK SMILES IDX 14 1 13 2 12 3 10 4 11 5 9 7 8 8 96 9 82 10 91 11 95 12
REMARK SMILES IDX 92 13 94 14 93 15 7 16 6 17 5 20 1 21 2 22 3 23 98 24 4 25
REMARK SMILES IDX 97 26 83 27 84 28 85 29 89 30 86 31 88 32 90 33 87 34 15 35
REMARK SMILES IDX 16 36 17 37 18 39 19 40 20 41 81 42 21 43 80 44 22 45 23 46
REMARK SMILES IDX 24 47 74 48 25 49 79 50 73 51 75 52 26 53 78 54 72 55 71 56
REMARK SMILES IDX 27 58 59 59 39 60 58 61 40 62 43 63 57 64 76 65 41 66 42 67
REMARK SMILES IDX 56 69 77 70 44 71 28 72 29 73 37 74 30 75 36 76 38 77 35 78
REMARK SMILES IDX 31 79 32 80 33 81 34 82 60 83 61 84 69 85 62 86 68 87 70 88
REMARK SMILES IDX 67 89 63 90 64 91 65 92 66 93 45 94 46 95 54 96 47 97 53 98
REMARK SMILES IDX 55 99 52 100 48 101 49 102 50 103 51 104
REMARK H PARENT 12 6 6 18 6 19 16 38 75 57 43 68
REMARK Flexibility Score: inf
ROOT
ATOM      1  C   UNL A   1      32.059  28.734  27.165  1.00  0.00     0.042 C 
ENDROOT
BRANCH   1   2
ATOM      2  C   UNL A   1      32.496  27.288  26.958  1.00  0.00     0.118 C 
BRANCH   2   3
ATOM      3  N   UNL A   1      31.456  26.299  26.820  1.00  0.00    -0.351 N 
ATOM      4  C   UNL A   1      31.526  24.961  26.491  1.00  0.00     0.268 C 
ATOM      5  O   UNL A   1      30.443  24.380  26.605  1.00  0.00    -0.268 OA
ATOM      6  H   UNL A   1      30.546  26.634  26.988  1.00  0.00     0.163 HD
BRANCH   4   7
ATOM      7  C   UNL A   1      32.730  24.271  25.988  1.00  0.00     0.117 A 
ATOM      8  C   UNL A   1      33.542  23.233  26.486  1.00  0.00     0.045 A 
ATOM      9  C   UNL A   1      34.771  23.299  25.752  1.00  0.00     0.009 A 
ATOM     10  N   UNL A   1      33.217  24.448  24.665  1.00  0.00    -0.331 N 
ATOM     11  C   UNL A   1      34.458  23.838  24.519  1.00  0.00     0.049 A 
ATOM     12  C   UNL A   1      36.069  22.786  25.970  1.00  0.00     0.011 A 
ATOM     13  C   UNL A   1      35.331  23.687  23.425  1.00  0.00     0.027 A 
ATOM     14  C   UNL A   1      37.004  22.801  24.934  1.00  0.00     0.001 A 
ATOM     15  C   UNL A   1      36.621  23.203  23.663  1.00  0.00     0.002 A 
BRANCH   8  16
ATOM     16  C   UNL A   1      33.395  22.157  27.529  1.00  0.00     0.300 C 
BRANCH  16  17
ATOM     17  N   UNL A   1      33.162  20.812  27.051  1.00  0.00    -0.340 N 
ATOM     18  H   UNL A   1      33.763  20.212  27.616  1.00  0.00     0.346 HD
ATOM     19  H   UNL A   1      32.145  20.758  27.123  1.00  0.00     0.346 HD
BRANCH  17  20
ATOM     20  C   UNL A   1      33.362  20.383  25.670  1.00  0.00     0.182 C 
ATOM     21  C   UNL A   1      32.192  17.836  22.234  1.00  0.00     0.007 C 
ATOM     22  C   UNL A   1      32.249  18.600  23.549  1.00  0.00    -0.014 C 
ATOM     23  C   UNL A   1      32.400  20.107  23.318  1.00  0.00     0.009 C 
ATOM     24  C   UNL A   1      33.397  18.114  24.433  1.00  0.00     0.009 C 
ATOM     25  C   UNL A   1      32.318  20.845  24.649  1.00  0.00     0.065 C 
ATOM     26  C   UNL A   1      33.385  18.840  25.773  1.00  0.00     0.065 C 
ENDBRANCH  17  20
ENDBRANCH  16  17
ENDBRANCH   8  16
BRANCH  10  27
ATOM     27  C   UNL A   1      32.506  25.053  23.525  1.00  0.00     0.161 C 
BRANCH  27  28
ATOM     28  C   UNL A   1      32.587  26.562  23.445  1.00  0.00     0.008 A 
ATOM     29  C   UNL A   1      33.808  27.257  23.488  1.00  0.00     0.008 A 
ATOM     30  C   UNL A   1      31.435  27.325  23.237  1.00  0.00     0.128 A 
ATOM     31  C   UNL A   1      33.871  28.648  23.370  1.00  0.00     0.001 A 
ATOM     32  C   UNL A   1      31.484  28.717  23.133  1.00  0.00     0.039 A 
ATOM     33  F   UNL A   1      30.247  26.727  23.080  1.00  0.00    -0.207 F 
ATOM     34  C   UNL A   1      32.705  29.382  23.206  1.00  0.00     0.003 A 
ENDBRANCH  27  28
ENDBRANCH  10  27
ENDBRANCH   4   7
ENDBRANCH   2   3
ENDBRANCH   1   2
BRANCH   1  35
ATOM     35  C   UNL A   1      33.115  29.818  26.866  1.00  0.00     0.118 C 
BRANCH  35  36
ATOM     36  N   UNL A   1      33.374  30.796  27.914  1.00  0.00    -0.352 N 
ATOM     37  C   UNL A   1      34.475  31.546  28.248  1.00  0.00     0.251 C 
ATOM     38  H   UNL A   1      32.601  30.951  28.503  1.00  0.00     0.163 HD
ATOM     39  O   UNL A   1      34.255  32.652  28.751  1.00  0.00    -0.269 OA
BRANCH  37  40
ATOM     40  C   UNL A   1      35.879  31.061  28.168  1.00  0.00     0.039 A 
ATOM     41  C   UNL A   1      36.234  29.818  27.652  1.00  0.00     0.014 A 
ATOM     42  C   UNL A   1      36.865  31.829  28.822  1.00  0.00     0.014 A 
ATOM     43  C   UNL A   1      37.506  29.305  27.874  1.00  0.00     0.010 A 
ATOM     44  C   UNL A   1      38.146  31.323  29.037  1.00  0.00     0.010 A 
ATOM     45  C   UNL A   1      38.446  30.033  28.610  1.00  0.00    -0.014 A 
BRANCH  45  46
ATOM     46  C   UNL A   1      39.727  29.382  28.878  1.00  0.00     0.031 A 
ATOM     47  C   UNL A   1      40.004  29.051  30.306  1.00  0.00     0.074 A 
ATOM     48  C   UNL A   1      40.610  29.036  27.922  1.00  0.00     0.049 A 
ATOM     49  N   UNL A   1      40.926  29.525  31.081  1.00  0.00    -0.248 NA
ATOM     50  C   UNL A   1      39.066  28.143  30.974  1.00  0.00     0.031 C 
ATOM     51  C   UNL A   1      40.415  28.976  26.473  1.00  0.00     0.029 A 
ATOM     52  N   UNL A   1      41.875  28.556  28.085  1.00  0.00    -0.354 N 
ATOM     53  C   UNL A   1      40.778  28.873  32.309  1.00  0.00     0.074 A 
ATOM     54  C   UNL A   1      39.547  28.127  32.216  1.00  0.00     0.031 C 
ATOM     55  C   UNL A   1      41.428  28.269  25.921  1.00  0.00     0.029 A 
ATOM     56  C   UNL A   1      42.406  27.962  26.953  1.00  0.00     0.049 A 
ATOM     57  H   UNL A   1      42.368  28.625  28.934  1.00  0.00     0.167 HD
ATOM     58  C   UNL A   1      41.746  28.882  33.272  1.00  0.00     0.034 A 
ATOM     59  C   UNL A   1      43.512  27.180  26.901  1.00  0.00     0.034 A 
ATOM     60  C   UNL A   1      42.740  29.887  33.019  1.00  0.00     0.049 A 
ATOM     61  C   UNL A   1      44.335  27.452  28.105  1.00  0.00     0.074 A 
ATOM     62  C   UNL A   1      42.738  31.266  32.967  1.00  0.00     0.029 A 
ATOM     63  N   UNL A   1      43.928  29.496  32.451  1.00  0.00    -0.354 N 
ATOM     64  N   UNL A   1      44.983  28.563  28.319  1.00  0.00    -0.248 NA
ATOM     65  C   UNL A   1      44.097  26.633  29.285  1.00  0.00     0.031 C 
ATOM     66  C   UNL A   1      43.672  31.598  31.946  1.00  0.00     0.029 A 
ATOM     67  C   UNL A   1      44.212  30.404  31.463  1.00  0.00     0.049 A 
ATOM     68  H   UNL A   1      44.471  28.715  32.704  1.00  0.00     0.167 HD
ATOM     69  C   UNL A   1      44.838  28.798  29.678  1.00  0.00     0.074 A 
ATOM     70  C   UNL A   1      44.381  27.526  30.236  1.00  0.00     0.031 C 
ATOM     71  C   UNL A   1      44.824  30.063  30.193  1.00  0.00     0.034 A 
BRANCH  58  72
ATOM     72  C   UNL A   1      41.933  27.814  34.325  1.00  0.00     0.023 A 
ATOM     73  C   UNL A   1      42.669  26.639  34.094  1.00  0.00     0.031 A 
ATOM     74  C   UNL A   1      41.554  28.045  35.666  1.00  0.00     0.131 A 
ATOM     75  C   UNL A   1      42.983  25.750  35.131  1.00  0.00     0.055 A 
ATOM     76  C   UNL A   1      41.924  27.190  36.714  1.00  0.00     0.041 A 
ATOM     77  F   UNL A   1      40.855  29.137  36.011  1.00  0.00    -0.206 F 
ATOM     78  C   UNL A   1      42.643  26.033  36.449  1.00  0.00     0.022 A 
BRANCH  75  79
ATOM     79  S   UNL A   1      43.852  24.198  34.771  1.00  0.00     0.124 S 
ATOM     80  O   UNL A   1      42.744  23.256  34.658  1.00  0.00    -0.237 OA
ATOM     81  O   UNL A   1      44.538  24.523  33.523  1.00  0.00    -0.237 OA
ATOM     82  O   UNL A   1      44.725  24.023  35.927  1.00  0.00    -0.744 OA
ENDBRANCH  75  79
ENDBRANCH  58  72
BRANCH  59  83
ATOM     83  C   UNL A   1      43.597  25.893  26.169  1.00  0.00     0.023 A 
ATOM     84  C   UNL A   1      42.719  24.842  26.500  1.00  0.00     0.031 A 
ATOM     85  C   UNL A   1      44.705  25.577  25.367  1.00  0.00     0.131 A 
ATOM     86  C   UNL A   1      42.978  23.533  26.081  1.00  0.00     0.055 A 
ATOM     87  C   UNL A   1      44.957  24.269  24.936  1.00  0.00     0.041 A 
ATOM     88  F   UNL A   1      45.602  26.522  25.045  1.00  0.00    -0.206 F 
ATOM     89  C   UNL A   1      44.096  23.236  25.304  1.00  0.00     0.022 A 
BRANCH  86  90
ATOM     90  S   UNL A   1      41.888  22.184  26.608  1.00  0.00     0.124 S 
ATOM     91  O   UNL A   1      42.373  21.896  27.955  1.00  0.00    -0.237 OA
ATOM     92  O   UNL A   1      40.576  22.815  26.531  1.00  0.00    -0.237 OA
ATOM     93  O   UNL A   1      42.147  21.135  25.625  1.00  0.00    -0.744 OA
ENDBRANCH  86  90
ENDBRANCH  59  83
BRANCH  71  94
ATOM     94  C   UNL A   1      45.180  31.233  29.300  1.00  0.00     0.023 A 
ATOM     95  C   UNL A   1      46.439  31.836  29.482  1.00  0.00     0.031 A 
ATOM     96  C   UNL A   1      44.253  31.911  28.486  1.00  0.00     0.131 A 
ATOM     97  C   UNL A   1      46.719  33.082  28.905  1.00  0.00     0.055 A 
ATOM     98  C   UNL A   1      44.562  33.118  27.851  1.00  0.00     0.041 A 
ATOM     99  F   UNL A   1      42.991  31.482  28.354  1.00  0.00    -0.206 F 
ATOM    100  C   UNL A   1      45.794  33.719  28.074  1.00  0.00     0.022 A 
BRANCH  97 101
ATOM    101  S   UNL A   1      48.222  33.986  29.360  1.00  0.00     0.124 S 
ATOM    102  O   UNL A   1      47.695  35.311  29.691  1.00  0.00    -0.237 OA
ATOM    103  O   UNL A   1      48.714  33.211  30.502  1.00  0.00    -0.237 OA
ATOM    104  O   UNL A   1      49.051  33.922  28.168  1.00  0.00    -0.744 OA
ENDBRANCH  97 101
ENDBRANCH  71  94
ENDBRANCH  45  46
ENDBRANCH  37  40
ENDBRANCH  35  36
ENDBRANCH   1  35
TORSDOF 18
ENDMDL
MODEL 2
REMARK VINA RESULT:     -13.1      1.577      4.374
REMARK SMILES C[C@H]1CC[C@H]([NH2+]Cc2c(C(=O)NCCCNC(=O)c3ccc(-c4c5nc(c(-c6cc(S(=O)(=O)[O-])ccc6F)c6ccc([nH]6)c(-c6cc(S(=O)(=O)[O-])ccc6F)c6nc(c(-c7cc(S(=O)(=O)[O-])ccc7F)c7ccc4[nH]7)C=C6)C=C5)cc3)n(Cc3ccccc3F)c3ccccc23)CC1
REMARK SMILES IDX 14 1 13 2 12 3 10 4 11 5 9 7 8 8 96 9 82 10 91 11 95 12
REMARK SMILES IDX 92 13 94 14 93 15 7 16 6 17 5 20 1 21 2 22 3 23 98 24 4 25
REMARK SMILES IDX 97 26 83 27 84 28 85 29 89 30 86 31 88 32 90 33 87 34 15 35
REMARK SMILES IDX 16 36 17 37 18 39 19 40 20 41 81 42 21 43 80 44 22 45 23 46
REMARK SMILES IDX 24 47 74 48 25 49 79 50 73 51 75 52 26 53 78 54 72 55 71 56
REMARK SMILES IDX 27 58 59 59 39 60 58 61 40 62 43 63 57 64 76 65 41 66 42 67
REMARK SMILES IDX 56 69 77 70 44 71 28 72 29 73 37 74 30 75 36 76 38 77 35 78
REMARK SMILES IDX 31 79 32 80 33 81 34 82 60 83 61 84 69 85 62 86 68 87 70 88
REMARK SMILES IDX 67 89 63 90 64 91 65 92 66 93 45 94 46 95 54 96 47 97 53 98
REMARK SMILES IDX 55 99 52 100 48 101 49 102 50 103 51 104
REMARK H PARENT 12 6 6 18 6 19 16 38 75 57 43 68
REMARK Flexibility Score: inf
ROOT
ATOM      1  C   UNL A   1      32.241  29.443  27.257  1.00  0.00     0.042 C 
ENDROOT
BRANCH   1   2
ATOM      2  C   UNL A   1      32.432  27.931  27.241  1.00  0.00     0.118 C 
BRANCH   2   3
ATOM      3  N   UNL A   1      31.244  27.117  27.172  1.00  0.00    -0.351 N 
ATOM      4  C   UNL A   1      30.811  26.239  26.201  1.00  0.00     0.268 C 
ATOM      5  O   UNL A   1      29.809  25.603  26.539  1.00  0.00    -0.268 OA
ATOM      6  H   UNL A   1      30.642  27.203  27.947  1.00  0.00     0.163 HD
BRANCH   4   7
ATOM      7  C   UNL A   1      31.411  26.091  24.861  1.00  0.00     0.117 A 
ATOM      8  C   UNL A   1      31.698  26.989  23.812  1.00  0.00     0.045 A 
ATOM      9  C   UNL A   1      31.884  26.187  22.639  1.00  0.00     0.009 A 
ATOM     10  N   UNL A   1      32.039  24.891  24.432  1.00  0.00    -0.331 N 
ATOM     11  C   UNL A   1      32.343  24.959  23.077  1.00  0.00     0.049 A 
ATOM     12  C   UNL A   1      31.870  26.463  21.254  1.00  0.00     0.011 A 
ATOM     13  C   UNL A   1      32.990  24.076  22.191  1.00  0.00     0.027 A 
ATOM     14  C   UNL A   1      32.345  25.511  20.351  1.00  0.00     0.001 A 
ATOM     15  C   UNL A   1      32.942  24.351  20.821  1.00  0.00     0.002 A 
BRANCH   8  16
ATOM     16  C   UNL A   1      31.848  28.481  23.684  1.00  0.00     0.300 C 
BRANCH  16  17
ATOM     17  N   UNL A   1      30.770  29.292  24.206  1.00  0.00    -0.340 N 
ATOM     18  H   UNL A   1      30.380  28.762  24.986  1.00  0.00     0.346 HD
ATOM     19  H   UNL A   1      31.256  30.177  24.360  1.00  0.00     0.346 HD
BRANCH  17  20
ATOM     20  C   UNL A   1      29.624  29.742  23.422  1.00  0.00     0.182 C 
ATOM     21  C   UNL A   1      27.698  32.790  20.841  1.00  0.00     0.007 C 
ATOM     22  C   UNL A   1      28.678  31.947  21.645  1.00  0.00    -0.014 C 
ATOM     23  C   UNL A   1      28.697  30.494  21.162  1.00  0.00     0.009 C 
ATOM     24  C   UNL A   1      28.349  31.972  23.137  1.00  0.00     0.009 C 
ATOM     25  C   UNL A   1      29.782  29.718  21.899  1.00  0.00     0.065 C 
ATOM     26  C   UNL A   1      29.388  31.185  23.927  1.00  0.00     0.065 C 
ENDBRANCH  17  20
ENDBRANCH  16  17
ENDBRANCH   8  16
BRANCH  10  27
ATOM     27  C   UNL A   1      32.466  23.758  25.271  1.00  0.00     0.161 C 
BRANCH  27  28
ATOM     28  C   UNL A   1      33.940  23.426  25.202  1.00  0.00     0.008 A 
ATOM     29  C   UNL A   1      34.936  24.304  25.667  1.00  0.00     0.008 A 
ATOM     30  C   UNL A   1      34.367  22.177  24.744  1.00  0.00     0.128 A 
ATOM     31  C   UNL A   1      36.291  23.966  25.637  1.00  0.00     0.001 A 
ATOM     32  C   UNL A   1      35.720  21.835  24.695  1.00  0.00     0.039 A 
ATOM     33  F   UNL A   1      33.473  21.248  24.382  1.00  0.00    -0.207 F 
ATOM     34  C   UNL A   1      36.687  22.733  25.137  1.00  0.00     0.003 A 
ENDBRANCH  27  28
ENDBRANCH  10  27
ENDBRANCH   4   7
ENDBRANCH   2   3
ENDBRANCH   1   2
BRANCH   1  35
ATOM     35  C   UNL A   1      33.464  30.292  26.852  1.00  0.00     0.118 C 
BRANCH  35  36
ATOM     36  N   UNL A   1      33.695  31.520  27.603  1.00  0.00    -0.352 N 
ATOM     37  C   UNL A   1      34.829  32.136  28.071  1.00  0.00     0.251 C 
ATOM     38  H   UNL A   1      32.867  32.008  27.817  1.00  0.00     0.163 HD
ATOM     39  O   UNL A   1      34.801  33.368  28.132  1.00  0.00    -0.269 OA
BRANCH  37  40
ATOM     40  C   UNL A   1      36.009  31.418  28.625  1.00  0.00     0.039 A 
ATOM     41  C   UNL A   1      37.198  32.050  28.974  1.00  0.00     0.014 A 
ATOM     42  C   UNL A   1      35.970  30.008  28.612  1.00  0.00     0.014 A 
ATOM     43  C   UNL A   1      38.349  31.304  29.201  1.00  0.00     0.010 A 
ATOM     44  C   UNL A   1      37.119  29.255  28.851  1.00  0.00     0.010 A 
ATOM     45  C   UNL A   1      38.323  29.910  29.088  1.00  0.00    -0.014 A 
BRANCH  45  46
ATOM     46  C   UNL A   1      39.595  29.208  29.249  1.00  0.00     0.031 A 
ATOM     47  C   UNL A   1      39.966  28.843  30.646  1.00  0.00     0.074 A 
ATOM     48  C   UNL A   1      40.389  28.846  28.224  1.00  0.00     0.049 A 
ATOM     49  N   UNL A   1      40.961  29.270  31.356  1.00  0.00    -0.248 NA
ATOM     50  C   UNL A   1      39.047  27.959  31.371  1.00  0.00     0.031 C 
ATOM     51  C   UNL A   1      40.083  28.819  26.793  1.00  0.00     0.029 A 
ATOM     52  N   UNL A   1      41.644  28.318  28.283  1.00  0.00    -0.354 N 
ATOM     53  C   UNL A   1      40.882  28.604  32.582  1.00  0.00     0.074 A 
ATOM     54  C   UNL A   1      39.620  27.905  32.572  1.00  0.00     0.031 C 
ATOM     55  C   UNL A   1      41.025  28.085  26.155  1.00  0.00     0.029 A 
ATOM     56  C   UNL A   1      42.066  27.725  27.106  1.00  0.00     0.049 A 
ATOM     57  H   UNL A   1      42.202  28.355  29.093  1.00  0.00     0.167 HD
ATOM     58  C   UNL A   1      41.919  28.561  33.469  1.00  0.00     0.034 A 
ATOM     59  C   UNL A   1      43.134  26.904  26.958  1.00  0.00     0.034 A 
ATOM     60  C   UNL A   1      42.929  29.533  33.155  1.00  0.00     0.049 A 
ATOM     61  C   UNL A   1      44.056  27.125  28.100  1.00  0.00     0.074 A 
ATOM     62  C   UNL A   1      42.974  30.912  33.123  1.00  0.00     0.029 A 
ATOM     63  N   UNL A   1      44.055  29.109  32.493  1.00  0.00    -0.354 N 
ATOM     64  N   UNL A   1      44.759  28.208  28.280  1.00  0.00    -0.248 NA
ATOM     65  C   UNL A   1      43.876  26.296  29.283  1.00  0.00     0.031 C 
ATOM     66  C   UNL A   1      43.840  31.227  32.038  1.00  0.00     0.029 A 
ATOM     67  C   UNL A   1      44.298  30.023  31.499  1.00  0.00     0.049 A 
ATOM     68  H   UNL A   1      44.586  28.305  32.693  1.00  0.00     0.167 HD
ATOM     69  C   UNL A   1      44.726  28.425  29.650  1.00  0.00     0.074 A 
ATOM     70  C   UNL A   1      44.265  27.161  30.222  1.00  0.00     0.031 C 
ATOM     71  C   UNL A   1      44.798  29.682  30.182  1.00  0.00     0.034 A 
BRANCH  58  72
ATOM     72  C   UNL A   1      42.144  27.469  34.489  1.00  0.00     0.023 A 
ATOM     73  C   UNL A   1      42.901  26.316  34.216  1.00  0.00     0.031 A 
ATOM     74  C   UNL A   1      41.782  27.656  35.842  1.00  0.00     0.131 A 
ATOM     75  C   UNL A   1      43.250  25.407  35.222  1.00  0.00     0.055 A 
ATOM     76  C   UNL A   1      42.187  26.781  36.860  1.00  0.00     0.041 A 
ATOM     77  F   UNL A   1      41.067  28.724  36.227  1.00  0.00    -0.206 F 
ATOM     78  C   UNL A   1      42.925  25.647  36.553  1.00  0.00     0.022 A 
BRANCH  75  79
ATOM     79  S   UNL A   1      44.144  23.884  34.807  1.00  0.00     0.124 S 
ATOM     80  O   UNL A   1      44.631  23.458  36.114  1.00  0.00    -0.237 OA
ATOM     81  O   UNL A   1      43.084  23.064  34.227  1.00  0.00    -0.237 OA
ATOM     82  O   UNL A   1      45.160  24.335  33.861  1.00  0.00    -0.744 OA
ENDBRANCH  75  79
ENDBRANCH  58  72
BRANCH  59  83
ATOM     83  C   UNL A   1      43.115  25.628  26.204  1.00  0.00     0.023 A 
ATOM     84  C   UNL A   1      42.266  24.584  26.619  1.00  0.00     0.031 A 
ATOM     85  C   UNL A   1      44.120  25.309  25.276  1.00  0.00     0.131 A 
ATOM     86  C   UNL A   1      42.455  23.277  26.156  1.00  0.00     0.055 A 
ATOM     87  C   UNL A   1      44.301  24.004  24.801  1.00  0.00     0.041 A 
ATOM     88  F   UNL A   1      44.988  26.246  24.865  1.00  0.00    -0.206 F 
ATOM     89  C   UNL A   1      43.472  22.977  25.251  1.00  0.00     0.022 A 
BRANCH  86  90
ATOM     90  S   UNL A   1      41.412  21.935  26.785  1.00  0.00     0.124 S 
ATOM     91  O   UNL A   1      40.157  22.151  26.070  1.00  0.00    -0.237 OA
ATOM     92  O   UNL A   1      42.171  20.757  26.385  1.00  0.00    -0.237 OA
ATOM     93  O   UNL A   1      41.353  22.195  28.222  1.00  0.00    -0.744 OA
ENDBRANCH  86  90
ENDBRANCH  59  83
BRANCH  71  94
ATOM     94  C   UNL A   1      45.130  30.853  29.281  1.00  0.00     0.023 A 
ATOM     95  C   UNL A   1      46.429  31.389  29.357  1.00  0.00     0.031 A 
ATOM     96  C   UNL A   1      44.167  31.593  28.568  1.00  0.00     0.131 A 
ATOM     97  C   UNL A   1      46.717  32.633  28.779  1.00  0.00     0.055 A 
ATOM     98  C   UNL A   1      44.477  32.798  27.929  1.00  0.00     0.041 A 
ATOM     99  F   UNL A   1      42.879  31.229  28.546  1.00  0.00    -0.206 F 
ATOM    100  C   UNL A   1      45.753  33.332  28.048  1.00  0.00     0.022 A 
BRANCH  97 101
ATOM    101  S   UNL A   1      48.300  33.452  29.109  1.00  0.00     0.124 S 
ATOM    102  O   UNL A   1      48.519  33.138  30.521  1.00  0.00    -0.237 OA
ATOM    103  O   UNL A   1      49.200  32.770  28.174  1.00  0.00    -0.237 OA
ATOM    104  O   UNL A   1      48.046  34.851  28.811  1.00  0.00    -0.744 OA
ENDBRANCH  97 101
ENDBRANCH  71  94
ENDBRANCH  45  46
ENDBRANCH  37  40
ENDBRANCH  35  36
ENDBRANCH   1  35
TORSDOF 18
ENDMDL
MODEL 3
REMARK VINA RESULT:     -13.1      3.145      8.065
REMARK SMILES C[C@H]1CC[C@H]([NH2+]Cc2c(C(=O)NCCCNC(=O)c3ccc(-c4c5nc(c(-c6cc(S(=O)(=O)[O-])ccc6F)c6ccc([nH]6)c(-c6cc(S(=O)(=O)[O-])ccc6F)c6nc(c(-c7cc(S(=O)(=O)[O-])ccc7F)c7ccc4[nH]7)C=C6)C=C5)cc3)n(Cc3ccccc3F)c3ccccc23)CC1
REMARK SMILES IDX 14 1 13 2 12 3 10 4 11 5 9 7 8 8 96 9 82 10 91 11 95 12
REMARK SMILES IDX 92 13 94 14 93 15 7 16 6 17 5 20 1 21 2 22 3 23 98 24 4 25
REMARK SMILES IDX 97 26 83 27 84 28 85 29 89 30 86 31 88 32 90 33 87 34 15 35
REMARK SMILES IDX 16 36 17 37 18 39 19 40 20 41 81 42 21 43 80 44 22 45 23 46
REMARK SMILES IDX 24 47 74 48 25 49 79 50 73 51 75 52 26 53 78 54 72 55 71 56
REMARK SMILES IDX 27 58 59 59 39 60 58 61 40 62 43 63 57 64 76 65 41 66 42 67
REMARK SMILES IDX 56 69 77 70 44 71 28 72 29 73 37 74 30 75 36 76 38 77 35 78
REMARK SMILES IDX 31 79 32 80 33 81 34 82 60 83 61 84 69 85 62 86 68 87 70 88
REMARK SMILES IDX 67 89 63 90 64 91 65 92 66 93 45 94 46 95 54 96 47 97 53 98
REMARK SMILES IDX 55 99 52 100 48 101 49 102 50 103 51 104
REMARK H PARENT 12 6 6 18 6 19 16 38 75 57 43 68
REMARK Flexibility Score: inf
ROOT
ATOM      1  C   UNL A   1      38.141  21.456  25.412  1.00  0.00     0.042 C 
ENDROOT
BRANCH   1   2
ATOM      2  C   UNL A   1      37.239  22.676  25.554  1.00  0.00     0.118 C 
BRANCH   2   3
ATOM      3  N   UNL A   1      36.169  22.596  26.516  1.00  0.00    -0.351 N 
ATOM      4  C   UNL A   1      34.804  22.710  26.354  1.00  0.00     0.268 C 
ATOM      5  O   UNL A   1      34.173  22.443  27.381  1.00  0.00    -0.268 OA
ATOM      6  H   UNL A   1      36.460  22.433  27.442  1.00  0.00     0.163 HD
BRANCH   4   7
ATOM      7  C   UNL A   1      34.129  23.162  25.122  1.00  0.00     0.117 A 
ATOM      8  C   UNL A   1      33.227  22.558  24.222  1.00  0.00     0.045 A 
ATOM      9  C   UNL A   1      33.267  23.347  23.026  1.00  0.00     0.009 A 
ATOM     10  N   UNL A   1      34.146  24.517  24.692  1.00  0.00    -0.331 N 
ATOM     11  C   UNL A   1      33.603  24.629  23.418  1.00  0.00     0.049 A 
ATOM     12  C   UNL A   1      32.876  23.115  21.689  1.00  0.00     0.011 A 
ATOM     13  C   UNL A   1      33.355  25.727  22.572  1.00  0.00     0.027 A 
ATOM     14  C   UNL A   1      32.804  24.182  20.792  1.00  0.00     0.001 A 
ATOM     15  C   UNL A   1      32.995  25.479  21.244  1.00  0.00     0.002 A 
BRANCH   8  16
ATOM     16  C   UNL A   1      32.304  21.370  24.259  1.00  0.00     0.300 C 
BRANCH  16  17
ATOM     17  N   UNL A   1      32.668  20.235  23.438  1.00  0.00    -0.340 N 
ATOM     18  H   UNL A   1      31.808  19.945  22.973  1.00  0.00     0.346 HD
ATOM     19  H   UNL A   1      33.448  20.626  22.909  1.00  0.00     0.346 HD
BRANCH  17  20
ATOM     20  C   UNL A   1      33.272  19.009  23.951  1.00  0.00     0.182 C 
ATOM     21  C   UNL A   1      32.844  14.885  25.521  1.00  0.00     0.007 C 
ATOM     22  C   UNL A   1      32.623  16.246  24.876  1.00  0.00    -0.014 C 
ATOM     23  C   UNL A   1      33.599  16.485  23.719  1.00  0.00     0.009 C 
ATOM     24  C   UNL A   1      32.766  17.379  25.892  1.00  0.00     0.009 C 
ATOM     25  C   UNL A   1      33.258  17.795  23.018  1.00  0.00     0.065 C 
ATOM     26  C   UNL A   1      32.465  18.723  25.238  1.00  0.00     0.065 C 
ENDBRANCH  17  20
ENDBRANCH  16  17
ENDBRANCH   8  16
BRANCH  10  27
ATOM     27  C   UNL A   1      34.535  25.698  25.481  1.00  0.00     0.161 C 
BRANCH  27  28
ATOM     28  C   UNL A   1      33.385  26.496  26.055  1.00  0.00     0.008 A 
ATOM     29  C   UNL A   1      32.077  25.987  26.134  1.00  0.00     0.008 A 
ATOM     30  C   UNL A   1      33.604  27.758  26.612  1.00  0.00     0.128 A 
ATOM     31  C   UNL A   1      31.033  26.719  26.705  1.00  0.00     0.001 A 
ATOM     32  C   UNL A   1      32.565  28.506  27.172  1.00  0.00     0.039 A 
ATOM     33  F   UNL A   1      34.842  28.267  26.669  1.00  0.00    -0.207 F 
ATOM     34  C   UNL A   1      31.274  27.988  27.213  1.00  0.00     0.003 A 
ENDBRANCH  27  28
ENDBRANCH  10  27
ENDBRANCH   4   7
ENDBRANCH   2   3
ENDBRANCH   1   2
BRANCH   1  35
ATOM     35  C   UNL A   1      39.395  21.424  26.310  1.00  0.00     0.118 C 
BRANCH  35  36
ATOM     36  N   UNL A   1      40.615  22.005  25.764  1.00  0.00    -0.352 N 
ATOM     37  C   UNL A   1      41.552  22.872  26.270  1.00  0.00     0.251 C 
ATOM     38  H   UNL A   1      40.807  21.716  24.843  1.00  0.00     0.163 HD
ATOM     39  O   UNL A   1      42.709  22.732  25.863  1.00  0.00    -0.269 OA
BRANCH  37  40
ATOM     40  C   UNL A   1      41.238  24.027  27.153  1.00  0.00     0.039 A 
ATOM     41  C   UNL A   1      40.109  24.826  27.000  1.00  0.00     0.014 A 
ATOM     42  C   UNL A   1      42.236  24.433  28.064  1.00  0.00     0.014 A 
ATOM     43  C   UNL A   1      40.022  26.050  27.654  1.00  0.00     0.010 A 
ATOM     44  C   UNL A   1      42.147  25.655  28.731  1.00  0.00     0.010 A 
ATOM     45  C   UNL A   1      41.063  26.489  28.478  1.00  0.00    -0.014 A 
BRANCH  45  46
ATOM     46  C   UNL A   1      40.935  27.827  29.051  1.00  0.00     0.031 A 
ATOM     47  C   UNL A   1      41.891  28.851  28.538  1.00  0.00     0.074 A 
ATOM     48  C   UNL A   1      39.995  28.173  29.951  1.00  0.00     0.049 A 
ATOM     49  N   UNL A   1      42.828  29.473  29.177  1.00  0.00    -0.248 NA
ATOM     50  C   UNL A   1      41.848  29.140  27.101  1.00  0.00     0.031 C 
ATOM     51  C   UNL A   1      38.792  27.440  30.347  1.00  0.00     0.029 A 
ATOM     52  N   UNL A   1      39.885  29.345  30.638  1.00  0.00    -0.354 N 
ATOM     53  C   UNL A   1      43.416  30.345  28.257  1.00  0.00     0.074 A 
ATOM     54  C   UNL A   1      42.851  30.008  26.973  1.00  0.00     0.031 C 
ATOM     55  C   UNL A   1      37.964  28.279  31.012  1.00  0.00     0.029 A 
ATOM     56  C   UNL A   1      38.643  29.550  31.213  1.00  0.00     0.049 A 
ATOM     57  H   UNL A   1      40.624  29.991  30.717  1.00  0.00     0.167 HD
ATOM     58  C   UNL A   1      44.228  31.378  28.630  1.00  0.00     0.034 A 
ATOM     59  C   UNL A   1      38.173  30.719  31.715  1.00  0.00     0.034 A 
ATOM     60  C   UNL A   1      44.663  31.247  29.993  1.00  0.00     0.049 A 
ATOM     61  C   UNL A   1      39.330  31.601  32.008  1.00  0.00     0.074 A 
ATOM     62  C   UNL A   1      45.445  30.343  30.682  1.00  0.00     0.029 A 
ATOM     63  N   UNL A   1      44.017  31.987  30.954  1.00  0.00    -0.354 N 
ATOM     64  N   UNL A   1      40.189  31.394  32.967  1.00  0.00    -0.248 NA
ATOM     65  C   UNL A   1      39.777  32.502  30.955  1.00  0.00     0.031 C 
ATOM     66  C   UNL A   1      44.860  30.260  31.976  1.00  0.00     0.029 A 
ATOM     67  C   UNL A   1      43.780  31.144  32.010  1.00  0.00     0.049 A 
ATOM     68  H   UNL A   1      43.773  32.939  30.897  1.00  0.00     0.167 HD
ATOM     69  C   UNL A   1      41.413  31.762  32.427  1.00  0.00     0.074 A 
ATOM     70  C   UNL A   1      41.082  32.536  31.231  1.00  0.00     0.031 C 
ATOM     71  C   UNL A   1      42.581  31.176  32.825  1.00  0.00     0.034 A 
BRANCH  58  72
ATOM     72  C   UNL A   1      44.440  32.647  27.838  1.00  0.00     0.023 A 
ATOM     73  C   UNL A   1      43.730  33.833  28.096  1.00  0.00     0.031 A 
ATOM     74  C   UNL A   1      45.519  32.766  26.934  1.00  0.00     0.131 A 
ATOM     75  C   UNL A   1      44.065  35.043  27.477  1.00  0.00     0.055 A 
ATOM     76  C   UNL A   1      45.896  33.989  26.364  1.00  0.00     0.041 A 
ATOM     77  F   UNL A   1      46.276  31.704  26.615  1.00  0.00    -0.206 F 
ATOM     78  C   UNL A   1      45.167  35.139  26.633  1.00  0.00     0.022 A 
BRANCH  75  79
ATOM     79  S   UNL A   1      43.061  36.526  27.767  1.00  0.00     0.124 S 
ATOM     80  O   UNL A   1      41.760  35.949  28.079  1.00  0.00    -0.237 OA
ATOM     81  O   UNL A   1      43.765  37.149  28.885  1.00  0.00    -0.237 OA
ATOM     82  O   UNL A   1      43.153  37.250  26.502  1.00  0.00    -0.744 OA
ENDBRANCH  75  79
ENDBRANCH  58  72
BRANCH  59  83
ATOM     83  C   UNL A   1      36.821  31.265  31.447  1.00  0.00     0.023 A 
ATOM     84  C   UNL A   1      36.393  31.451  30.118  1.00  0.00     0.031 A 
ATOM     85  C   UNL A   1      36.065  31.880  32.458  1.00  0.00     0.131 A 
ATOM     86  C   UNL A   1      35.288  32.257  29.826  1.00  0.00     0.055 A 
ATOM     87  C   UNL A   1      34.950  32.676  32.167  1.00  0.00     0.041 A 
ATOM     88  F   UNL A   1      36.437  31.775  33.743  1.00  0.00    -0.206 F 
ATOM     89  C   UNL A   1      34.563  32.877  30.843  1.00  0.00     0.022 A 
BRANCH  86  90
ATOM     90  S   UNL A   1      34.822  32.562  28.101  1.00  0.00     0.124 S 
ATOM     91  O   UNL A   1      35.934  33.375  27.615  1.00  0.00    -0.237 OA
ATOM     92  O   UNL A   1      34.751  31.207  27.569  1.00  0.00    -0.237 OA
ATOM     93  O   UNL A   1      33.548  33.268  28.213  1.00  0.00    -0.744 OA
ENDBRANCH  86  90
ENDBRANCH  59  83
BRANCH  71  94
ATOM     94  C   UNL A   1      42.579  30.254  34.027  1.00  0.00     0.023 A 
ATOM     95  C   UNL A   1      43.103  30.751  35.235  1.00  0.00     0.031 A 
ATOM     96  C   UNL A   1      42.327  28.870  33.954  1.00  0.00     0.131 A 
ATOM     97  C   UNL A   1      43.397  29.880  36.292  1.00  0.00     0.055 A 
ATOM     98  C   UNL A   1      42.552  28.015  35.037  1.00  0.00     0.041 A 
ATOM     99  F   UNL A   1      41.948  28.286  32.810  1.00  0.00    -0.206 F 
ATOM    100  C   UNL A   1      43.107  28.516  36.207  1.00  0.00     0.022 A 
BRANCH  97 101
ATOM    101  S   UNL A   1      44.323  30.468  37.734  1.00  0.00     0.124 S 
ATOM    102  O   UNL A   1      43.312  31.247  38.450  1.00  0.00    -0.237 OA
ATOM    103  O   UNL A   1      44.713  29.214  38.382  1.00  0.00    -0.237 OA
ATOM    104  O   UNL A   1      45.418  31.236  37.166  1.00  0.00    -0.744 OA
ENDBRANCH  97 101
ENDBRANCH  71  94
ENDBRANCH  45  46
ENDBRANCH  37  40
ENDBRANCH  35  36
ENDBRANCH   1  35
TORSDOF 18
ENDMDL
