MODEL 1
REMARK VINA RESULT:     -10.8      0.000      0.000
REMARK SMILES COc1ccc2cc([C@H](C)C(=O)NCCCNC(=O)c3ccc(-c4c5nc(c(-c6cc(S(=O)(=O)[O-])ccc6F)c6ccc([nH]6)c(-c6cc(S(=O)(=O)[O-])ccc6F)c6nc(c(-c7cc(S(=O)(=O)[O-])ccc7F)c7ccc4[nH]7)C=C6)C=C5)cc3)ccc2c1
REMARK SMILES IDX 15 1 14 2 13 3 11 4 12 5 9 7 10 8 8 9 3 10 4 11 86 12 5 13
REMARK SMILES IDX 85 14 6 15 84 16 7 17 83 18 2 19 1 20 16 21 17 22 18 23
REMARK SMILES IDX 19 25 20 26 21 27 82 28 22 29 81 30 23 31 24 32 25 33 75 34
REMARK SMILES IDX 26 35 80 36 74 37 76 38 27 39 79 40 73 41 72 42 28 44 60 45
REMARK SMILES IDX 40 46 59 47 41 48 44 49 58 50 77 51 42 52 43 53 57 55 78 56
REMARK SMILES IDX 45 57 29 58 30 59 38 60 31 61 37 62 39 63 36 64 32 65 33 66
REMARK SMILES IDX 34 67 35 68 61 69 62 70 70 71 63 72 69 73 71 74 68 75 64 76
REMARK SMILES IDX 65 77 66 78 67 79 46 80 47 81 55 82 48 83 54 84 56 85 53 86
REMARK SMILES IDX 49 87 50 88 51 89 52 90
REMARK H PARENT 13 6 17 24 76 43 44 54
REMARK Flexibility Score: inf
ROOT
ATOM      1  C   UNL A   1      33.762  35.189  29.105  1.00  0.00     0.042 C 
ENDROOT
BRANCH   1   2
ATOM      2  C   UNL A   1      33.663  34.994  30.608  1.00  0.00     0.117 C 
BRANCH   2   3
ATOM      3  N   UNL A   1      34.121  33.691  31.052  1.00  0.00    -0.356 N 
ATOM      4  C   UNL A   1      34.880  33.347  32.132  1.00  0.00     0.227 C 
ATOM      5  O   UNL A   1      35.021  32.141  32.363  1.00  0.00    -0.274 OA
ATOM      6  H   UNL A   1      33.841  32.937  30.484  1.00  0.00     0.163 HD
BRANCH   4   7
ATOM      7  C   UNL A   1      35.568  34.392  33.024  1.00  0.00     0.105 C 
ATOM      8  C   UNL A   1      35.154  34.216  34.486  1.00  0.00     0.023 C 
BRANCH   7   9
ATOM      9  C   UNL A   1      37.059  34.529  32.739  1.00  0.00    -0.035 A 
ATOM     10  C   UNL A   1      41.607  34.520  30.468  1.00  0.00     0.119 A 
ATOM     11  C   UNL A   1      40.669  34.578  29.440  1.00  0.00     0.047 A 
ATOM     12  C   UNL A   1      41.185  34.479  31.796  1.00  0.00     0.055 A 
ATOM     13  C   UNL A   1      39.305  34.586  29.743  1.00  0.00     0.012 A 
ATOM     14  C   UNL A   1      39.820  34.534  32.114  1.00  0.00    -0.015 A 
ATOM     15  C   UNL A   1      38.865  34.553  31.075  1.00  0.00    -0.018 A 
ATOM     16  C   UNL A   1      39.387  34.578  33.443  1.00  0.00     0.009 A 
ATOM     17  C   UNL A   1      37.497  34.522  31.403  1.00  0.00     0.013 A 
ATOM     18  C   UNL A   1      38.026  34.624  33.747  1.00  0.00     0.005 A 
BRANCH  10  19
ATOM     19  O   UNL A   1      42.957  34.433  30.262  1.00  0.00    -0.497 OA
ATOM     20  C   UNL A   1      43.622  33.590  31.196  1.00  0.00     0.278 C 
ENDBRANCH  10  19
ENDBRANCH   7   9
ENDBRANCH   4   7
ENDBRANCH   2   3
ENDBRANCH   1   2
BRANCH   1  21
ATOM     21  C   UNL A   1      34.568  34.111  28.402  1.00  0.00     0.118 C 
BRANCH  21  22
ATOM     22  N   UNL A   1      33.727  33.062  27.839  1.00  0.00    -0.352 N 
ATOM     23  C   UNL A   1      34.004  31.741  27.578  1.00  0.00     0.251 C 
ATOM     24  H   UNL A   1      32.812  33.345  27.609  1.00  0.00     0.163 HD
ATOM     25  O   UNL A   1      33.209  31.082  26.911  1.00  0.00    -0.269 OA
BRANCH  23  26
ATOM     26  C   UNL A   1      35.260  31.126  28.063  1.00  0.00     0.039 A 
ATOM     27  C   UNL A   1      36.419  31.905  28.129  1.00  0.00     0.014 A 
ATOM     28  C   UNL A   1      35.300  29.787  28.453  1.00  0.00     0.014 A 
ATOM     29  C   UNL A   1      37.591  31.357  28.657  1.00  0.00     0.010 A 
ATOM     30  C   UNL A   1      36.431  29.281  29.083  1.00  0.00     0.010 A 
ATOM     31  C   UNL A   1      37.595  30.055  29.183  1.00  0.00    -0.014 A 
BRANCH  31  32
ATOM     32  C   UNL A   1      38.808  29.475  29.816  1.00  0.00     0.031 A 
ATOM     33  C   UNL A   1      39.256  29.960  31.171  1.00  0.00     0.074 A 
ATOM     34  C   UNL A   1      39.538  28.559  29.151  1.00  0.00     0.049 A 
ATOM     35  N   UNL A   1      40.318  29.630  31.860  1.00  0.00    -0.248 NA
ATOM     36  C   UNL A   1      38.416  30.980  31.814  1.00  0.00     0.031 C 
ATOM     37  C   UNL A   1      39.234  28.043  27.814  1.00  0.00     0.029 A 
ATOM     38  N   UNL A   1      40.689  27.900  29.504  1.00  0.00    -0.354 N 
ATOM     39  C   UNL A   1      40.278  30.409  33.012  1.00  0.00     0.074 A 
ATOM     40  C   UNL A   1      39.137  31.289  32.880  1.00  0.00     0.031 C 
ATOM     41  C   UNL A   1      40.144  27.114  27.484  1.00  0.00     0.029 A 
ATOM     42  C   UNL A   1      41.129  27.007  28.555  1.00  0.00     0.049 A 
ATOM     43  H   UNL A   1      41.155  28.051  30.358  1.00  0.00     0.167 HD
ATOM     44  C   UNL A   1      41.094  30.372  34.095  1.00  0.00     0.034 A 
ATOM     45  C   UNL A   1      42.205  26.196  28.547  1.00  0.00     0.034 A 
ATOM     46  C   UNL A   1      42.225  29.484  34.210  1.00  0.00     0.049 A 
ATOM     47  C   UNL A   1      43.129  26.202  29.739  1.00  0.00     0.074 A 
ATOM     48  C   UNL A   1      43.095  29.325  35.274  1.00  0.00     0.029 A 
ATOM     49  N   UNL A   1      42.653  28.608  33.218  1.00  0.00    -0.354 N 
ATOM     50  N   UNL A   1      43.050  26.909  30.843  1.00  0.00    -0.248 NA
ATOM     51  C   UNL A   1      44.280  25.294  29.684  1.00  0.00     0.031 C 
ATOM     52  C   UNL A   1      44.089  28.416  34.898  1.00  0.00     0.029 A 
ATOM     53  C   UNL A   1      43.794  27.936  33.632  1.00  0.00     0.049 A 
ATOM     54  H   UNL A   1      42.210  28.484  32.348  1.00  0.00     0.167 HD
ATOM     55  C   UNL A   1      44.125  26.505  31.629  1.00  0.00     0.074 A 
ATOM     56  C   UNL A   1      44.826  25.484  30.876  1.00  0.00     0.031 C 
ATOM     57  C   UNL A   1      44.493  26.931  32.865  1.00  0.00     0.034 A 
BRANCH  44  58
ATOM     58  C   UNL A   1      40.795  31.340  35.219  1.00  0.00     0.023 A 
ATOM     59  C   UNL A   1      39.733  31.121  36.116  1.00  0.00     0.031 A 
ATOM     60  C   UNL A   1      41.536  32.526  35.362  1.00  0.00     0.131 A 
ATOM     61  C   UNL A   1      39.377  32.114  37.039  1.00  0.00     0.055 A 
ATOM     62  C   UNL A   1      41.239  33.466  36.352  1.00  0.00     0.041 A 
ATOM     63  F   UNL A   1      42.549  32.806  34.526  1.00  0.00    -0.206 F 
ATOM     64  C   UNL A   1      40.140  33.273  37.183  1.00  0.00     0.022 A 
BRANCH  61  65
ATOM     65  S   UNL A   1      37.793  31.953  37.909  1.00  0.00     0.124 S 
ATOM     66  O   UNL A   1      36.999  33.002  37.273  1.00  0.00    -0.237 OA
ATOM     67  O   UNL A   1      37.403  30.581  37.604  1.00  0.00    -0.237 OA
ATOM     68  O   UNL A   1      38.141  32.208  39.306  1.00  0.00    -0.744 OA
ENDBRANCH  61  65
ENDBRANCH  44  58
BRANCH  45  69
ATOM     69  C   UNL A   1      42.467  25.304  27.381  1.00  0.00     0.023 A 
ATOM     70  C   UNL A   1      41.990  23.984  27.365  1.00  0.00     0.031 A 
ATOM     71  C   UNL A   1      43.218  25.747  26.278  1.00  0.00     0.131 A 
ATOM     72  C   UNL A   1      42.301  23.140  26.287  1.00  0.00     0.055 A 
ATOM     73  C   UNL A   1      43.480  24.920  25.184  1.00  0.00     0.041 A 
ATOM     74  F   UNL A   1      43.694  27.002  26.240  1.00  0.00    -0.206 F 
ATOM     75  C   UNL A   1      43.031  23.604  25.190  1.00  0.00     0.022 A 
BRANCH  72  76
ATOM     76  S   UNL A   1      41.801  21.398  26.375  1.00  0.00     0.124 S 
ATOM     77  O   UNL A   1      42.670  20.790  25.375  1.00  0.00    -0.237 OA
ATOM     78  O   UNL A   1      42.093  21.069  27.766  1.00  0.00    -0.237 OA
ATOM     79  O   UNL A   1      40.381  21.436  26.031  1.00  0.00    -0.744 OA
ENDBRANCH  72  76
ENDBRANCH  45  69
BRANCH  57  80
ATOM     80  C   UNL A   1      45.689  26.257  33.495  1.00  0.00     0.023 A 
ATOM     81  C   UNL A   1      45.563  25.097  34.278  1.00  0.00     0.031 A 
ATOM     82  C   UNL A   1      46.978  26.795  33.316  1.00  0.00     0.131 A 
ATOM     83  C   UNL A   1      46.693  24.545  34.899  1.00  0.00     0.055 A 
ATOM     84  C   UNL A   1      48.107  26.202  33.880  1.00  0.00     0.041 A 
ATOM     85  F   UNL A   1      47.159  27.904  32.583  1.00  0.00    -0.206 F 
ATOM     86  C   UNL A   1      47.967  25.079  34.689  1.00  0.00     0.022 A 
BRANCH  83  87
ATOM     87  S   UNL A   1      46.464  23.179  36.072  1.00  0.00     0.124 S 
ATOM     88  O   UNL A   1      47.371  22.168  35.538  1.00  0.00    -0.237 OA
ATOM     89  O   UNL A   1      46.858  23.785  37.339  1.00  0.00    -0.237 OA
ATOM     90  O   UNL A   1      45.042  22.861  35.953  1.00  0.00    -0.744 OA
ENDBRANCH  83  87
ENDBRANCH  57  80
ENDBRANCH  31  32
ENDBRANCH  23  26
ENDBRANCH  21  22
ENDBRANCH   1  21
TORSDOF 15
ENDMDL
MODEL 2
REMARK VINA RESULT:     -10.5      3.460      6.594
REMARK SMILES COc1ccc2cc([C@H](C)C(=O)NCCCNC(=O)c3ccc(-c4c5nc(c(-c6cc(S(=O)(=O)[O-])ccc6F)c6ccc([nH]6)c(-c6cc(S(=O)(=O)[O-])ccc6F)c6nc(c(-c7cc(S(=O)(=O)[O-])ccc7F)c7ccc4[nH]7)C=C6)C=C5)cc3)ccc2c1
REMARK SMILES IDX 15 1 14 2 13 3 11 4 12 5 9 7 10 8 8 9 3 10 4 11 86 12 5 13
REMARK SMILES IDX 85 14 6 15 84 16 7 17 83 18 2 19 1 20 16 21 17 22 18 23
REMARK SMILES IDX 19 25 20 26 21 27 82 28 22 29 81 30 23 31 24 32 25 33 75 34
REMARK SMILES IDX 26 35 80 36 74 37 76 38 27 39 79 40 73 41 72 42 28 44 60 45
REMARK SMILES IDX 40 46 59 47 41 48 44 49 58 50 77 51 42 52 43 53 57 55 78 56
REMARK SMILES IDX 45 57 29 58 30 59 38 60 31 61 37 62 39 63 36 64 32 65 33 66
REMARK SMILES IDX 34 67 35 68 61 69 62 70 70 71 63 72 69 73 71 74 68 75 64 76
REMARK SMILES IDX 65 77 66 78 67 79 46 80 47 81 55 82 48 83 54 84 56 85 53 86
REMARK SMILES IDX 49 87 50 88 51 89 52 90
REMARK H PARENT 13 6 17 24 76 43 44 54
REMARK Flexibility Score: inf
ROOT
ATOM      1  C   UNL A   1      32.179  28.606  26.658  1.00  0.00     0.042 C 
ENDROOT
BRANCH   1   2
ATOM      2  C   UNL A   1      32.634  27.158  26.718  1.00  0.00     0.117 C 
BRANCH   2   3
ATOM      3  N   UNL A   1      31.549  26.222  26.943  1.00  0.00    -0.356 N 
ATOM      4  C   UNL A   1      30.970  25.327  26.092  1.00  0.00     0.227 C 
ATOM      5  O   UNL A   1      30.142  24.544  26.571  1.00  0.00    -0.274 OA
ATOM      6  H   UNL A   1      31.171  26.234  27.852  1.00  0.00     0.163 HD
BRANCH   4   7
ATOM      7  C   UNL A   1      31.289  25.291  24.589  1.00  0.00     0.105 C 
ATOM      8  C   UNL A   1      30.754  24.008  23.950  1.00  0.00     0.023 C 
BRANCH   7   9
ATOM      9  C   UNL A   1      30.970  26.602  23.881  1.00  0.00    -0.035 A 
ATOM     10  C   UNL A   1      28.545  30.453  21.615  1.00  0.00     0.119 A 
ATOM     11  C   UNL A   1      27.583  29.795  22.378  1.00  0.00     0.047 A 
ATOM     12  C   UNL A   1      29.861  29.994  21.604  1.00  0.00     0.055 A 
ATOM     13  C   UNL A   1      27.940  28.670  23.126  1.00  0.00     0.012 A 
ATOM     14  C   UNL A   1      30.241  28.894  22.387  1.00  0.00    -0.015 A 
ATOM     15  C   UNL A   1      29.263  28.200  23.131  1.00  0.00    -0.018 A 
ATOM     16  C   UNL A   1      31.574  28.475  22.449  1.00  0.00     0.009 A 
ATOM     17  C   UNL A   1      29.637  27.047  23.846  1.00  0.00     0.013 A 
ATOM     18  C   UNL A   1      31.938  27.374  23.225  1.00  0.00     0.005 A 
BRANCH  10  19
ATOM     19  O   UNL A   1      28.270  31.515  20.796  1.00  0.00    -0.497 OA
ATOM     20  C   UNL A   1      28.030  32.729  21.500  1.00  0.00     0.278 C 
ENDBRANCH  10  19
ENDBRANCH   7   9
ENDBRANCH   4   7
ENDBRANCH   2   3
ENDBRANCH   1   2
BRANCH   1  21
ATOM     21  C   UNL A   1      33.223  29.551  26.090  1.00  0.00     0.118 C 
BRANCH  21  22
ATOM     22  N   UNL A   1      33.073  30.914  26.586  1.00  0.00    -0.352 N 
ATOM     23  C   UNL A   1      33.823  31.618  27.497  1.00  0.00     0.251 C 
ATOM     24  H   UNL A   1      32.311  31.410  26.207  1.00  0.00     0.163 HD
ATOM     25  O   UNL A   1      33.399  32.690  27.922  1.00  0.00    -0.269 OA
BRANCH  23  26
ATOM     26  C   UNL A   1      35.111  31.079  27.987  1.00  0.00     0.039 A 
ATOM     27  C   UNL A   1      36.240  31.903  27.983  1.00  0.00     0.014 A 
ATOM     28  C   UNL A   1      35.212  29.766  28.450  1.00  0.00     0.014 A 
ATOM     29  C   UNL A   1      37.443  31.431  28.515  1.00  0.00     0.010 A 
ATOM     30  C   UNL A   1      36.374  29.339  29.082  1.00  0.00     0.010 A 
ATOM     31  C   UNL A   1      37.509  30.161  29.112  1.00  0.00    -0.014 A 
BRANCH  31  32
ATOM     32  C   UNL A   1      38.757  29.664  29.749  1.00  0.00     0.031 A 
ATOM     33  C   UNL A   1      39.180  30.197  31.093  1.00  0.00     0.074 A 
ATOM     34  C   UNL A   1      39.536  28.781  29.095  1.00  0.00     0.049 A 
ATOM     35  N   UNL A   1      40.262  29.942  31.782  1.00  0.00    -0.248 NA
ATOM     36  C   UNL A   1      38.284  31.178  31.723  1.00  0.00     0.031 C 
ATOM     37  C   UNL A   1      39.257  28.226  27.769  1.00  0.00     0.029 A 
ATOM     38  N   UNL A   1      40.725  28.197  29.454  1.00  0.00    -0.354 N 
ATOM     39  C   UNL A   1      40.181  30.737  32.921  1.00  0.00     0.074 A 
ATOM     40  C   UNL A   1      38.990  31.546  32.780  1.00  0.00     0.031 C 
ATOM     41  C   UNL A   1      40.219  27.346  27.450  1.00  0.00     0.029 A 
ATOM     42  C   UNL A   1      41.213  27.315  28.518  1.00  0.00     0.049 A 
ATOM     43  H   UNL A   1      41.185  28.389  30.303  1.00  0.00     0.167 HD
ATOM     44  C   UNL A   1      41.003  30.766  34.000  1.00  0.00     0.034 A 
ATOM     45  C   UNL A   1      42.335  26.568  28.518  1.00  0.00     0.034 A 
ATOM     46  C   UNL A   1      42.184  29.948  34.125  1.00  0.00     0.049 A 
ATOM     47  C   UNL A   1      43.261  26.649  29.705  1.00  0.00     0.074 A 
ATOM     48  C   UNL A   1      43.066  29.859  35.187  1.00  0.00     0.029 A 
ATOM     49  N   UNL A   1      42.659  29.081  33.145  1.00  0.00    -0.354 N 
ATOM     50  N   UNL A   1      43.145  27.369  30.797  1.00  0.00    -0.248 NA
ATOM     51  C   UNL A   1      44.463  25.809  29.661  1.00  0.00     0.031 C 
ATOM     52  C   UNL A   1      44.110  29.003  34.821  1.00  0.00     0.029 A 
ATOM     53  C   UNL A   1      43.838  28.485  33.566  1.00  0.00     0.049 A 
ATOM     54  H   UNL A   1      42.220  28.917  32.280  1.00  0.00     0.167 HD
ATOM     55  C   UNL A   1      44.245  27.041  31.585  1.00  0.00     0.074 A 
ATOM     56  C   UNL A   1      45.002  26.051  30.846  1.00  0.00     0.031 C 
ATOM     57  C   UNL A   1      44.593  27.509  32.812  1.00  0.00     0.034 A 
BRANCH  44  58
ATOM     58  C   UNL A   1      40.652  31.734  35.109  1.00  0.00     0.023 A 
ATOM     59  C   UNL A   1      39.697  31.413  36.092  1.00  0.00     0.031 A 
ATOM     60  C   UNL A   1      41.229  33.015  35.154  1.00  0.00     0.131 A 
ATOM     61  C   UNL A   1      39.271  32.389  37.004  1.00  0.00     0.055 A 
ATOM     62  C   UNL A   1      40.875  33.949  36.131  1.00  0.00     0.041 A 
ATOM     63  F   UNL A   1      42.132  33.392  34.235  1.00  0.00    -0.206 F 
ATOM     64  C   UNL A   1      39.874  33.647  37.049  1.00  0.00     0.022 A 
BRANCH  61  65
ATOM     65  S   UNL A   1      37.791  32.053  37.997  1.00  0.00     0.124 S 
ATOM     66  O   UNL A   1      36.867  33.071  37.502  1.00  0.00    -0.237 OA
ATOM     67  O   UNL A   1      37.476  30.675  37.639  1.00  0.00    -0.237 OA
ATOM     68  O   UNL A   1      38.246  32.253  39.371  1.00  0.00    -0.744 OA
ENDBRANCH  61  65
ENDBRANCH  44  58
BRANCH  45  69
ATOM     69  C   UNL A   1      42.644  25.673  27.366  1.00  0.00     0.023 A 
ATOM     70  C   UNL A   1      42.179  24.349  27.340  1.00  0.00     0.031 A 
ATOM     71  C   UNL A   1      43.427  26.118  26.287  1.00  0.00     0.131 A 
ATOM     72  C   UNL A   1      42.534  23.503  26.278  1.00  0.00     0.055 A 
ATOM     73  C   UNL A   1      43.734  25.289  25.206  1.00  0.00     0.041 A 
ATOM     74  F   UNL A   1      43.893  27.377  26.259  1.00  0.00    -0.206 F 
ATOM     75  C   UNL A   1      43.296  23.968  25.203  1.00  0.00     0.022 A 
BRANCH  72  76
ATOM     76  S   UNL A   1      42.048  21.757  26.358  1.00  0.00     0.124 S 
ATOM     77  O   UNL A   1      42.352  21.428  27.745  1.00  0.00    -0.237 OA
ATOM     78  O   UNL A   1      40.634  21.820  26.007  1.00  0.00    -0.237 OA
ATOM     79  O   UNL A   1      42.907  21.120  25.360  1.00  0.00    -0.744 OA
ENDBRANCH  72  76
ENDBRANCH  45  69
BRANCH  57  80
ATOM     80  C   UNL A   1      45.829  26.918  33.448  1.00  0.00     0.023 A 
ATOM     81  C   UNL A   1      45.787  25.721  34.183  1.00  0.00     0.031 A 
ATOM     82  C   UNL A   1      47.069  27.571  33.321  1.00  0.00     0.131 A 
ATOM     83  C   UNL A   1      46.947  25.245  34.813  1.00  0.00     0.055 A 
ATOM     84  C   UNL A   1      48.233  27.057  33.892  1.00  0.00     0.041 A 
ATOM     85  F   UNL A   1      47.169  28.720  32.635  1.00  0.00    -0.206 F 
ATOM     86  C   UNL A   1      48.174  25.896  34.655  1.00  0.00     0.022 A 
BRANCH  83  87
ATOM     87  S   UNL A   1      46.812  23.820  35.927  1.00  0.00     0.124 S 
ATOM     88  O   UNL A   1      45.624  23.145  35.412  1.00  0.00    -0.237 OA
ATOM     89  O   UNL A   1      48.080  23.133  35.712  1.00  0.00    -0.237 OA
ATOM     90  O   UNL A   1      46.654  24.430  37.247  1.00  0.00    -0.744 OA
ENDBRANCH  83  87
ENDBRANCH  57  80
ENDBRANCH  31  32
ENDBRANCH  23  26
ENDBRANCH  21  22
ENDBRANCH   1  21
TORSDOF 15
ENDMDL
MODEL 3
REMARK VINA RESULT:     -10.4      4.107     11.743
REMARK SMILES COc1ccc2cc([C@H](C)C(=O)NCCCNC(=O)c3ccc(-c4c5nc(c(-c6cc(S(=O)(=O)[O-])ccc6F)c6ccc([nH]6)c(-c6cc(S(=O)(=O)[O-])ccc6F)c6nc(c(-c7cc(S(=O)(=O)[O-])ccc7F)c7ccc4[nH]7)C=C6)C=C5)cc3)ccc2c1
REMARK SMILES IDX 15 1 14 2 13 3 11 4 12 5 9 7 10 8 8 9 3 10 4 11 86 12 5 13
REMARK SMILES IDX 85 14 6 15 84 16 7 17 83 18 2 19 1 20 16 21 17 22 18 23
REMARK SMILES IDX 19 25 20 26 21 27 82 28 22 29 81 30 23 31 24 32 25 33 75 34
REMARK SMILES IDX 26 35 80 36 74 37 76 38 27 39 79 40 73 41 72 42 28 44 60 45
REMARK SMILES IDX 40 46 59 47 41 48 44 49 58 50 77 51 42 52 43 53 57 55 78 56
REMARK SMILES IDX 45 57 29 58 30 59 38 60 31 61 37 62 39 63 36 64 32 65 33 66
REMARK SMILES IDX 34 67 35 68 61 69 62 70 70 71 63 72 69 73 71 74 68 75 64 76
REMARK SMILES IDX 65 77 66 78 67 79 46 80 47 81 55 82 48 83 54 84 56 85 53 86
REMARK SMILES IDX 49 87 50 88 51 89 52 90
REMARK H PARENT 13 6 17 24 76 43 44 54
REMARK Flexibility Score: inf
ROOT
ATOM      1  C   UNL A   1      41.874  20.098  26.749  1.00  0.00     0.042 C 
ENDROOT
BRANCH   1   2
ATOM      2  C   UNL A   1      42.975  20.557  25.809  1.00  0.00     0.117 C 
BRANCH   2   3
ATOM      3  N   UNL A   1      42.815  21.926  25.358  1.00  0.00    -0.356 N 
ATOM      4  C   UNL A   1      43.749  22.896  25.141  1.00  0.00     0.227 C 
ATOM      5  O   UNL A   1      43.362  23.950  24.626  1.00  0.00    -0.274 OA
ATOM      6  H   UNL A   1      41.885  22.200  25.183  1.00  0.00     0.163 HD
BRANCH   4   7
ATOM      7  C   UNL A   1      45.224  22.724  25.537  1.00  0.00     0.105 C 
ATOM      8  C   UNL A   1      46.140  22.942  24.331  1.00  0.00     0.023 C 
BRANCH   7   9
ATOM      9  C   UNL A   1      45.585  23.460  26.822  1.00  0.00    -0.035 A 
ATOM     10  C   UNL A   1      45.402  25.587  31.436  1.00  0.00     0.119 A 
ATOM     11  C   UNL A   1      44.372  24.650  31.408  1.00  0.00     0.047 A 
ATOM     12  C   UNL A   1      46.216  25.762  30.318  1.00  0.00     0.055 A 
ATOM     13  C   UNL A   1      44.152  23.892  30.255  1.00  0.00     0.012 A 
ATOM     14  C   UNL A   1      46.035  24.974  29.172  1.00  0.00    -0.015 A 
ATOM     15  C   UNL A   1      44.969  24.051  29.124  1.00  0.00    -0.018 A 
ATOM     16  C   UNL A   1      46.896  25.082  28.075  1.00  0.00     0.009 A 
ATOM     17  C   UNL A   1      44.741  23.327  27.939  1.00  0.00     0.013 A 
ATOM     18  C   UNL A   1      46.701  24.300  26.937  1.00  0.00     0.005 A 
BRANCH  10  19
ATOM     19  O   UNL A   1      45.642  26.422  32.493  1.00  0.00    -0.497 OA
ATOM     20  C   UNL A   1      44.746  26.233  33.583  1.00  0.00     0.278 C 
ENDBRANCH  10  19
ENDBRANCH   7   9
ENDBRANCH   4   7
ENDBRANCH   2   3
ENDBRANCH   1   2
BRANCH   1  21
ATOM     21  C   UNL A   1      40.960  21.218  27.212  1.00  0.00     0.118 C 
BRANCH  21  22
ATOM     22  N   UNL A   1      39.710  21.266  26.462  1.00  0.00    -0.352 N 
ATOM     23  C   UNL A   1      38.834  22.304  26.255  1.00  0.00     0.251 C 
ATOM     24  H   UNL A   1      39.453  20.417  26.035  1.00  0.00     0.163 HD
ATOM     25  O   UNL A   1      37.734  22.071  25.758  1.00  0.00    -0.269 OA
BRANCH  23  26
ATOM     26  C   UNL A   1      39.194  23.683  26.656  1.00  0.00     0.039 A 
ATOM     27  C   UNL A   1      38.932  24.102  27.963  1.00  0.00     0.014 A 
ATOM     28  C   UNL A   1      39.786  24.563  25.749  1.00  0.00     0.014 A 
ATOM     29  C   UNL A   1      39.336  25.375  28.375  1.00  0.00     0.010 A 
ATOM     30  C   UNL A   1      40.290  25.780  26.192  1.00  0.00     0.010 A 
ATOM     31  C   UNL A   1      40.061  26.208  27.507  1.00  0.00    -0.014 A 
BRANCH  31  32
ATOM     32  C   UNL A   1      40.566  27.537  27.944  1.00  0.00     0.031 A 
ATOM     33  C   UNL A   1      42.026  27.875  27.791  1.00  0.00     0.074 A 
ATOM     34  C   UNL A   1      39.726  28.412  28.531  1.00  0.00     0.049 A 
ATOM     35  N   UNL A   1      42.671  28.948  28.169  1.00  0.00    -0.248 NA
ATOM     36  C   UNL A   1      42.876  26.852  27.166  1.00  0.00     0.031 C 
ATOM     37  C   UNL A   1      38.301  28.182  28.776  1.00  0.00     0.029 A 
ATOM     38  N   UNL A   1      39.948  29.670  29.030  1.00  0.00    -0.354 N 
ATOM     39  C   UNL A   1      44.004  28.724  27.836  1.00  0.00     0.074 A 
ATOM     40  C   UNL A   1      44.081  27.378  27.311  1.00  0.00     0.031 C 
ATOM     41  C   UNL A   1      37.768  29.281  29.333  1.00  0.00     0.029 A 
ATOM     42  C   UNL A   1      38.820  30.272  29.537  1.00  0.00     0.049 A 
ATOM     43  H   UNL A   1      40.832  30.104  29.025  1.00  0.00     0.167 HD
ATOM     44  C   UNL A   1      45.059  29.572  27.926  1.00  0.00     0.034 A 
ATOM     45  C   UNL A   1      38.651  31.482  30.105  1.00  0.00     0.034 A 
ATOM     46  C   UNL A   1      44.961  30.913  28.449  1.00  0.00     0.049 A 
ATOM     47  C   UNL A   1      39.845  32.393  30.241  1.00  0.00     0.074 A 
ATOM     48  C   UNL A   1      45.949  31.876  28.548  1.00  0.00     0.029 A 
ATOM     49  N   UNL A   1      43.804  31.480  28.974  1.00  0.00    -0.354 N 
ATOM     50  N   UNL A   1      41.090  32.186  29.876  1.00  0.00    -0.248 NA
ATOM     51  C   UNL A   1      39.607  33.703  30.857  1.00  0.00     0.031 C 
ATOM     52  C   UNL A   1      45.413  32.991  29.200  1.00  0.00     0.029 A 
ATOM     53  C   UNL A   1      44.066  32.763  29.431  1.00  0.00     0.049 A 
ATOM     54  H   UNL A   1      42.928  31.034  29.016  1.00  0.00     0.167 HD
ATOM     55  C   UNL A   1      41.776  33.356  30.189  1.00  0.00     0.074 A 
ATOM     56  C   UNL A   1      40.802  34.266  30.760  1.00  0.00     0.031 C 
ATOM     57  C   UNL A   1      43.089  33.655  30.013  1.00  0.00     0.034 A 
BRANCH  44  58
ATOM     58  C   UNL A   1      46.404  29.051  27.469  1.00  0.00     0.023 A 
ATOM     59  C   UNL A   1      46.678  28.811  26.110  1.00  0.00     0.031 A 
ATOM     60  C   UNL A   1      47.406  28.732  28.403  1.00  0.00     0.131 A 
ATOM     61  C   UNL A   1      47.868  28.173  25.735  1.00  0.00     0.055 A 
ATOM     62  C   UNL A   1      48.633  28.190  28.012  1.00  0.00     0.041 A 
ATOM     63  F   UNL A   1      47.202  28.918  29.717  1.00  0.00    -0.206 F 
ATOM     64  C   UNL A   1      48.861  27.886  26.673  1.00  0.00     0.022 A 
BRANCH  61  65
ATOM     65  S   UNL A   1      48.014  27.551  24.037  1.00  0.00     0.124 S 
ATOM     66  O   UNL A   1      47.697  26.135  24.214  1.00  0.00    -0.237 OA
ATOM     67  O   UNL A   1      47.021  28.344  23.323  1.00  0.00    -0.237 OA
ATOM     68  O   UNL A   1      49.406  27.829  23.688  1.00  0.00    -0.744 OA
ENDBRANCH  61  65
ENDBRANCH  44  58
BRANCH  45  69
ATOM     69  C   UNL A   1      37.305  31.910  30.580  1.00  0.00     0.023 A 
ATOM     70  C   UNL A   1      36.419  32.579  29.722  1.00  0.00     0.031 A 
ATOM     71  C   UNL A   1      36.891  31.680  31.905  1.00  0.00     0.131 A 
ATOM     72  C   UNL A   1      35.181  33.031  30.206  1.00  0.00     0.055 A 
ATOM     73  C   UNL A   1      35.638  32.084  32.367  1.00  0.00     0.041 A 
ATOM     74  F   UNL A   1      37.698  31.040  32.767  1.00  0.00    -0.206 F 
ATOM     75  C   UNL A   1      34.778  32.775  31.518  1.00  0.00     0.022 A 
BRANCH  72  76
ATOM     76  S   UNL A   1      34.132  34.028  29.112  1.00  0.00     0.124 S 
ATOM     77  O   UNL A   1      33.162  34.577  30.051  1.00  0.00    -0.237 OA
ATOM     78  O   UNL A   1      35.091  34.973  28.551  1.00  0.00    -0.237 OA
ATOM     79  O   UNL A   1      33.601  33.048  28.165  1.00  0.00    -0.744 OA
ENDBRANCH  72  76
ENDBRANCH  45  69
BRANCH  57  80
ATOM     80  C   UNL A   1      43.536  35.044  30.404  1.00  0.00     0.023 A 
ATOM     81  C   UNL A   1      43.431  36.135  29.525  1.00  0.00     0.031 A 
ATOM     82  C   UNL A   1      44.085  35.275  31.680  1.00  0.00     0.131 A 
ATOM     83  C   UNL A   1      43.921  37.393  29.908  1.00  0.00     0.055 A 
ATOM     84  C   UNL A   1      44.508  36.542  32.080  1.00  0.00     0.041 A 
ATOM     85  F   UNL A   1      44.214  34.270  32.560  1.00  0.00    -0.206 F 
ATOM     86  C   UNL A   1      44.441  37.607  31.187  1.00  0.00     0.022 A 
BRANCH  83  87
ATOM     87  S   UNL A   1      43.967  38.723  28.675  1.00  0.00     0.124 S 
ATOM     88  O   UNL A   1      42.547  38.987  28.463  1.00  0.00    -0.237 OA
ATOM     89  O   UNL A   1      44.714  39.766  29.368  1.00  0.00    -0.237 OA
ATOM     90  O   UNL A   1      44.659  38.115  27.540  1.00  0.00    -0.744 OA
ENDBRANCH  83  87
ENDBRANCH  57  80
ENDBRANCH  31  32
ENDBRANCH  23  26
ENDBRANCH  21  22
ENDBRANCH   1  21
TORSDOF 15
ENDMDL
