MODEL 1
REMARK VINA RESULT:     -11.7      0.000      0.000
REMARK SMILES O=C(CCn1cc(Cl)c([N+](=O)[O-])n1)NCCCNC(=O)c1ccc(-c2c3nc(c(-c4cc(S(=O)(=O)[O-])ccc4F)c4ccc([nH]4)c(-c4cc(S(=O)(=O)[O-])ccc4F)c4nc(c(-c5cc(S(=O)(=O)[O-])ccc5F)c5ccc2[nH]5)C=C4)C=C3)cc1
REMARK SMILES IDX 16 1 15 2 14 3 1 4 2 5 3 7 4 8 5 9 6 10 13 11 7 12 9 13 8 14
REMARK SMILES IDX 10 15 11 16 12 17 17 18 18 19 19 20 20 22 21 23 22 24 83 25
REMARK SMILES IDX 23 26 82 27 24 28 25 29 26 30 76 31 27 32 81 33 75 34 77 35
REMARK SMILES IDX 28 36 80 37 74 38 73 39 29 41 61 42 41 43 60 44 42 45 45 46
REMARK SMILES IDX 59 47 78 48 43 49 44 50 58 52 79 53 46 54 30 55 31 56 39 57
REMARK SMILES IDX 32 58 38 59 40 60 37 61 33 62 34 63 35 64 36 65 62 66 63 67
REMARK SMILES IDX 71 68 64 69 70 70 72 71 69 72 65 73 66 74 67 75 68 76 47 77
REMARK SMILES IDX 48 78 56 79 49 80 55 81 57 82 54 83 50 84 51 85 52 86 53 87
REMARK H PARENT 14 6 18 21 77 40 45 51
REMARK Flexibility Score: inf
ROOT
ATOM      1  C   UNL A   1      38.473  31.601  31.431  1.00  0.00     0.042 C 
ENDROOT
BRANCH   1   2
ATOM      2  C   UNL A   1      38.630  32.847  32.308  1.00  0.00     0.117 C 
BRANCH   2   3
ATOM      3  N   UNL A   1      37.362  33.417  32.733  1.00  0.00    -0.356 N 
ATOM      4  O   UNL A   1      37.037  32.139  34.612  1.00  0.00    -0.275 OA
ATOM      5  C   UNL A   1      36.684  33.051  33.870  1.00  0.00     0.221 C 
ATOM      6  H   UNL A   1      36.960  34.113  32.165  1.00  0.00     0.163 HD
BRANCH   5   7
ATOM      7  C   UNL A   1      35.410  33.840  34.137  1.00  0.00     0.125 C 
BRANCH   7   8
ATOM      8  C   UNL A   1      34.186  33.298  33.409  1.00  0.00     0.179 C 
BRANCH   8   9
ATOM      9  N   UNL A   1      34.036  33.824  32.061  1.00  0.00    -0.178 N 
ATOM     10  C   UNL A   1      34.513  33.294  30.901  1.00  0.00     0.161 A 
ATOM     11  N   UNL A   1      33.423  35.008  31.890  1.00  0.00     0.061 NA
ATOM     12  C   UNL A   1      34.120  34.151  29.893  1.00  0.00     0.160 A 
ATOM     13  C   UNL A   1      33.444  35.198  30.554  1.00  0.00     0.408 A 
ATOM     14  Cl  UNL A   1      34.448  33.972  28.244  1.00  0.00    -0.073 Cl
BRANCH  13  15
ATOM     15  N   UNL A   1      32.862  36.427  30.041  1.00  0.00    -0.020 N 
ATOM     16  O   UNL A   1      32.917  37.426  30.765  1.00  0.00    -0.358 OA
ATOM     17  O   UNL A   1      32.334  36.388  28.917  1.00  0.00    -0.358 OA
ENDBRANCH  13  15
ENDBRANCH   8   9
ENDBRANCH   7   8
ENDBRANCH   5   7
ENDBRANCH   2   3
ENDBRANCH   1   2
BRANCH   1  18
ATOM     18  C   UNL A   1      37.785  31.847  30.092  1.00  0.00     0.118 C 
BRANCH  18  19
ATOM     19  N   UNL A   1      36.672  30.945  29.799  1.00  0.00    -0.352 N 
ATOM     20  C   UNL A   1      36.673  29.869  28.927  1.00  0.00     0.251 C 
ATOM     21  H   UNL A   1      35.828  31.123  30.274  1.00  0.00     0.163 HD
ATOM     22  O   UNL A   1      35.616  29.468  28.441  1.00  0.00    -0.269 OA
BRANCH  20  23
ATOM     23  C   UNL A   1      37.957  29.218  28.578  1.00  0.00     0.039 A 
ATOM     24  C   UNL A   1      38.625  29.505  27.388  1.00  0.00     0.014 A 
ATOM     25  C   UNL A   1      38.510  28.311  29.478  1.00  0.00     0.014 A 
ATOM     26  C   UNL A   1      39.894  28.959  27.178  1.00  0.00     0.010 A 
ATOM     27  C   UNL A   1      39.804  27.864  29.329  1.00  0.00     0.010 A 
ATOM     28  C   UNL A   1      40.505  28.166  28.171  1.00  0.00    -0.014 A 
BRANCH  28  29
ATOM     29  C   UNL A   1      41.925  27.812  28.077  1.00  0.00     0.031 A 
ATOM     30  C   UNL A   1      42.184  26.537  27.356  1.00  0.00     0.074 A 
ATOM     31  C   UNL A   1      42.969  28.606  28.411  1.00  0.00     0.049 A 
ATOM     32  N   UNL A   1      42.584  25.424  27.873  1.00  0.00    -0.248 NA
ATOM     33  C   UNL A   1      41.810  26.431  25.937  1.00  0.00     0.031 C 
ATOM     34  C   UNL A   1      42.946  29.991  28.885  1.00  0.00     0.029 A 
ATOM     35  N   UNL A   1      44.307  28.351  28.310  1.00  0.00    -0.354 N 
ATOM     36  C   UNL A   1      42.750  24.542  26.813  1.00  0.00     0.074 A 
ATOM     37  C   UNL A   1      42.083  25.147  25.692  1.00  0.00     0.031 C 
ATOM     38  C   UNL A   1      44.188  30.523  28.822  1.00  0.00     0.029 A 
ATOM     39  C   UNL A   1      45.125  29.468  28.477  1.00  0.00     0.049 A 
ATOM     40  H   UNL A   1      44.666  27.451  28.135  1.00  0.00     0.167 HD
ATOM     41  C   UNL A   1      43.623  23.500  26.909  1.00  0.00     0.034 A 
ATOM     42  C   UNL A   1      46.479  29.536  28.372  1.00  0.00     0.034 A 
ATOM     43  C   UNL A   1      43.981  23.254  28.292  1.00  0.00     0.049 A 
ATOM     44  C   UNL A   1      46.993  28.172  28.633  1.00  0.00     0.074 A 
ATOM     45  C   UNL A   1      43.266  22.964  29.439  1.00  0.00     0.029 A 
ATOM     46  N   UNL A   1      45.211  23.687  28.733  1.00  0.00    -0.354 N 
ATOM     47  N   UNL A   1      46.879  27.580  29.789  1.00  0.00    -0.248 NA
ATOM     48  C   UNL A   1      47.205  27.285  27.501  1.00  0.00     0.031 C 
ATOM     49  C   UNL A   1      43.896  23.729  30.467  1.00  0.00     0.029 A 
ATOM     50  C   UNL A   1      45.011  24.364  29.913  1.00  0.00     0.049 A 
ATOM     51  H   UNL A   1      46.077  23.539  28.287  1.00  0.00     0.167 HD
ATOM     52  C   UNL A   1      46.548  26.269  29.485  1.00  0.00     0.074 A 
ATOM     53  C   UNL A   1      46.872  26.121  28.067  1.00  0.00     0.031 C 
ATOM     54  C   UNL A   1      45.789  25.514  30.336  1.00  0.00     0.034 A 
BRANCH  41  55
ATOM     55  C   UNL A   1      44.443  22.949  25.760  1.00  0.00     0.023 A 
ATOM     56  C   UNL A   1      44.413  21.554  25.565  1.00  0.00     0.031 A 
ATOM     57  C   UNL A   1      45.455  23.641  25.059  1.00  0.00     0.131 A 
ATOM     58  C   UNL A   1      45.416  20.903  24.827  1.00  0.00     0.055 A 
ATOM     59  C   UNL A   1      46.410  22.995  24.266  1.00  0.00     0.041 A 
ATOM     60  F   UNL A   1      45.642  24.961  25.166  1.00  0.00    -0.206 F 
ATOM     61  C   UNL A   1      46.418  21.616  24.176  1.00  0.00     0.022 A 
BRANCH  58  62
ATOM     62  S   UNL A   1      45.498  19.096  24.904  1.00  0.00     0.124 S 
ATOM     63  O   UNL A   1      45.535  18.747  23.488  1.00  0.00    -0.237 OA
ATOM     64  O   UNL A   1      46.732  18.884  25.654  1.00  0.00    -0.237 OA
ATOM     65  O   UNL A   1      44.270  18.732  25.607  1.00  0.00    -0.744 OA
ENDBRANCH  58  62
ENDBRANCH  41  55
BRANCH  42  66
ATOM     66  C   UNL A   1      47.301  30.627  27.776  1.00  0.00     0.023 A 
ATOM     67  C   UNL A   1      46.742  31.710  27.063  1.00  0.00     0.031 A 
ATOM     68  C   UNL A   1      48.660  30.744  28.141  1.00  0.00     0.131 A 
ATOM     69  C   UNL A   1      47.529  32.848  26.759  1.00  0.00     0.055 A 
ATOM     70  C   UNL A   1      49.431  31.870  27.843  1.00  0.00     0.041 A 
ATOM     71  F   UNL A   1      49.264  29.800  28.882  1.00  0.00    -0.206 F 
ATOM     72  C   UNL A   1      48.864  32.933  27.160  1.00  0.00     0.022 A 
BRANCH  69  73
ATOM     73  S   UNL A   1      46.798  34.289  25.912  1.00  0.00     0.124 S 
ATOM     74  O   UNL A   1      46.621  35.235  27.006  1.00  0.00    -0.237 OA
ATOM     75  O   UNL A   1      47.815  34.621  24.921  1.00  0.00    -0.237 OA
ATOM     76  O   UNL A   1      45.553  33.759  25.352  1.00  0.00    -0.744 OA
ENDBRANCH  69  73
ENDBRANCH  42  66
BRANCH  54  77
ATOM     77  C   UNL A   1      45.583  26.010  31.757  1.00  0.00     0.023 A 
ATOM     78  C   UNL A   1      44.466  26.750  32.213  1.00  0.00     0.031 A 
ATOM     79  C   UNL A   1      46.538  25.627  32.716  1.00  0.00     0.131 A 
ATOM     80  C   UNL A   1      44.350  27.090  33.577  1.00  0.00     0.055 A 
ATOM     81  C   UNL A   1      46.408  25.943  34.067  1.00  0.00     0.041 A 
ATOM     82  F   UNL A   1      47.614  24.907  32.356  1.00  0.00    -0.206 F 
ATOM     83  C   UNL A   1      45.316  26.683  34.503  1.00  0.00     0.022 A 
BRANCH  80  84
ATOM     84  S   UNL A   1      42.954  28.101  34.172  1.00  0.00     0.124 S 
ATOM     85  O   UNL A   1      41.826  27.637  33.372  1.00  0.00    -0.237 OA
ATOM     86  O   UNL A   1      42.906  27.770  35.593  1.00  0.00    -0.237 OA
ATOM     87  O   UNL A   1      43.380  29.472  33.883  1.00  0.00    -0.744 OA
ENDBRANCH  80  84
ENDBRANCH  54  77
ENDBRANCH  28  29
ENDBRANCH  20  23
ENDBRANCH  18  19
ENDBRANCH   1  18
TORSDOF 16
ENDMDL
MODEL 2
REMARK VINA RESULT:     -11.3      1.541      2.536
REMARK SMILES O=C(CCn1cc(Cl)c([N+](=O)[O-])n1)NCCCNC(=O)c1ccc(-c2c3nc(c(-c4cc(S(=O)(=O)[O-])ccc4F)c4ccc([nH]4)c(-c4cc(S(=O)(=O)[O-])ccc4F)c4nc(c(-c5cc(S(=O)(=O)[O-])ccc5F)c5ccc2[nH]5)C=C4)C=C3)cc1
REMARK SMILES IDX 16 1 15 2 14 3 1 4 2 5 3 7 4 8 5 9 6 10 13 11 7 12 9 13 8 14
REMARK SMILES IDX 10 15 11 16 12 17 17 18 18 19 19 20 20 22 21 23 22 24 83 25
REMARK SMILES IDX 23 26 82 27 24 28 25 29 26 30 76 31 27 32 81 33 75 34 77 35
REMARK SMILES IDX 28 36 80 37 74 38 73 39 29 41 61 42 41 43 60 44 42 45 45 46
REMARK SMILES IDX 59 47 78 48 43 49 44 50 58 52 79 53 46 54 30 55 31 56 39 57
REMARK SMILES IDX 32 58 38 59 40 60 37 61 33 62 34 63 35 64 36 65 62 66 63 67
REMARK SMILES IDX 71 68 64 69 70 70 72 71 69 72 65 73 66 74 67 75 68 76 47 77
REMARK SMILES IDX 48 78 56 79 49 80 55 81 57 82 54 83 50 84 51 85 52 86 53 87
REMARK H PARENT 14 6 18 21 77 40 45 51
REMARK Flexibility Score: inf
ROOT
ATOM      1  C   UNL A   1      33.970  29.327  27.140  1.00  0.00     0.042 C 
ENDROOT
BRANCH   1   2
ATOM      2  C   UNL A   1      33.184  30.632  27.298  1.00  0.00     0.117 C 
BRANCH   2   3
ATOM      3  N   UNL A   1      34.025  31.777  27.604  1.00  0.00    -0.356 N 
ATOM      4  O   UNL A   1      32.397  33.396  27.595  1.00  0.00    -0.275 OA
ATOM      5  C   UNL A   1      33.565  33.061  27.770  1.00  0.00     0.221 C 
ATOM      6  H   UNL A   1      34.993  31.623  27.698  1.00  0.00     0.163 HD
BRANCH   5   7
ATOM      7  C   UNL A   1      34.631  34.078  28.152  1.00  0.00     0.125 C 
BRANCH   7   8
ATOM      8  C   UNL A   1      34.069  35.421  28.601  1.00  0.00     0.179 C 
BRANCH   8   9
ATOM      9  N   UNL A   1      33.679  35.444  30.002  1.00  0.00    -0.178 N 
ATOM     10  C   UNL A   1      32.593  36.052  30.556  1.00  0.00     0.161 A 
ATOM     11  N   UNL A   1      34.485  34.871  30.911  1.00  0.00     0.061 NA
ATOM     12  C   UNL A   1      32.654  35.796  31.911  1.00  0.00     0.160 A 
ATOM     13  C   UNL A   1      33.843  35.057  32.084  1.00  0.00     0.408 A 
ATOM     14  Cl  UNL A   1      31.550  36.320  33.078  1.00  0.00    -0.073 Cl
BRANCH  13  15
ATOM     15  N   UNL A   1      34.485  34.557  33.288  1.00  0.00    -0.020 N 
ATOM     16  O   UNL A   1      34.109  33.463  33.719  1.00  0.00    -0.358 OA
ATOM     17  O   UNL A   1      35.356  35.270  33.813  1.00  0.00    -0.358 OA
ENDBRANCH  13  15
ENDBRANCH   8   9
ENDBRANCH   7   8
ENDBRANCH   5   7
ENDBRANCH   2   3
ENDBRANCH   1   2
BRANCH   1  18
ATOM     18  C   UNL A   1      35.419  29.394  27.607  1.00  0.00     0.118 C 
BRANCH  18  19
ATOM     19  N   UNL A   1      35.600  29.845  28.986  1.00  0.00    -0.352 N 
ATOM     20  C   UNL A   1      36.589  29.452  29.873  1.00  0.00     0.251 C 
ATOM     21  H   UNL A   1      34.945  30.498  29.322  1.00  0.00     0.163 HD
ATOM     22  O   UNL A   1      36.402  29.543  31.085  1.00  0.00    -0.269 OA
BRANCH  20  23
ATOM     23  C   UNL A   1      37.864  28.912  29.346  1.00  0.00     0.039 A 
ATOM     24  C   UNL A   1      38.495  29.473  28.235  1.00  0.00     0.014 A 
ATOM     25  C   UNL A   1      38.449  27.829  29.997  1.00  0.00     0.014 A 
ATOM     26  C   UNL A   1      39.758  29.003  27.867  1.00  0.00     0.010 A 
ATOM     27  C   UNL A   1      39.739  27.443  29.711  1.00  0.00     0.010 A 
ATOM     28  C   UNL A   1      40.402  28.010  28.633  1.00  0.00    -0.014 A 
BRANCH  28  29
ATOM     29  C   UNL A   1      41.820  27.702  28.419  1.00  0.00     0.031 A 
ATOM     30  C   UNL A   1      42.059  26.442  27.665  1.00  0.00     0.074 A 
ATOM     31  C   UNL A   1      42.863  28.526  28.674  1.00  0.00     0.049 A 
ATOM     32  N   UNL A   1      42.534  25.339  28.135  1.00  0.00    -0.248 NA
ATOM     33  C   UNL A   1      41.572  26.336  26.281  1.00  0.00     0.031 C 
ATOM     34  C   UNL A   1      42.836  29.906  29.164  1.00  0.00     0.029 A 
ATOM     35  N   UNL A   1      44.196  28.315  28.461  1.00  0.00    -0.354 N 
ATOM     36  C   UNL A   1      42.640  24.471  27.056  1.00  0.00     0.074 A 
ATOM     37  C   UNL A   1      41.863  25.064  26.000  1.00  0.00     0.031 C 
ATOM     38  C   UNL A   1      44.052  30.477  29.005  1.00  0.00     0.029 A 
ATOM     39  C   UNL A   1      44.989  29.456  28.572  1.00  0.00     0.049 A 
ATOM     40  H   UNL A   1      44.566  27.429  28.247  1.00  0.00     0.167 HD
ATOM     41  C   UNL A   1      43.549  23.456  27.067  1.00  0.00     0.034 A 
ATOM     42  C   UNL A   1      46.327  29.568  28.357  1.00  0.00     0.034 A 
ATOM     43  C   UNL A   1      44.028  23.210  28.413  1.00  0.00     0.049 A 
ATOM     44  C   UNL A   1      46.903  28.219  28.559  1.00  0.00     0.074 A 
ATOM     45  C   UNL A   1      43.419  22.888  29.613  1.00  0.00     0.029 A 
ATOM     46  N   UNL A   1      45.276  23.679  28.757  1.00  0.00    -0.354 N 
ATOM     47  N   UNL A   1      46.904  27.614  29.714  1.00  0.00    -0.248 NA
ATOM     48  C   UNL A   1      47.048  27.349  27.404  1.00  0.00     0.031 C 
ATOM     49  C   UNL A   1      44.108  23.664  30.593  1.00  0.00     0.029 A 
ATOM     50  C   UNL A   1      45.153  24.339  29.956  1.00  0.00     0.049 A 
ATOM     51  H   UNL A   1      46.106  23.562  28.239  1.00  0.00     0.167 HD
ATOM     52  C   UNL A   1      46.589  26.296  29.425  1.00  0.00     0.074 A 
ATOM     53  C   UNL A   1      46.799  26.170  27.983  1.00  0.00     0.031 C 
ATOM     54  C   UNL A   1      45.928  25.509  30.326  1.00  0.00     0.034 A 
BRANCH  41  55
ATOM     55  C   UNL A   1      44.288  22.942  25.850  1.00  0.00     0.023 A 
ATOM     56  C   UNL A   1      44.308  21.545  25.657  1.00  0.00     0.031 A 
ATOM     57  C   UNL A   1      45.198  23.679  25.060  1.00  0.00     0.131 A 
ATOM     58  C   UNL A   1      45.271  20.941  24.830  1.00  0.00     0.055 A 
ATOM     59  C   UNL A   1      46.108  23.077  24.184  1.00  0.00     0.041 A 
ATOM     60  F   UNL A   1      45.330  25.007  25.151  1.00  0.00    -0.206 F 
ATOM     61  C   UNL A   1      46.175  21.699  24.093  1.00  0.00     0.022 A 
BRANCH  58  62
ATOM     62  S   UNL A   1      45.447  19.141  24.899  1.00  0.00     0.124 S 
ATOM     63  O   UNL A   1      45.517  18.802  23.481  1.00  0.00    -0.237 OA
ATOM     64  O   UNL A   1      46.683  18.990  25.661  1.00  0.00    -0.237 OA
ATOM     65  O   UNL A   1      44.233  18.708  25.587  1.00  0.00    -0.744 OA
ENDBRANCH  58  62
ENDBRANCH  41  55
BRANCH  42  66
ATOM     66  C   UNL A   1      47.063  30.689  27.707  1.00  0.00     0.023 A 
ATOM     67  C   UNL A   1      46.415  31.737  27.016  1.00  0.00     0.031 A 
ATOM     68  C   UNL A   1      48.432  30.875  27.996  1.00  0.00     0.131 A 
ATOM     69  C   UNL A   1      47.130  32.907  26.659  1.00  0.00     0.055 A 
ATOM     70  C   UNL A   1      49.131  32.032  27.646  1.00  0.00     0.041 A 
ATOM     71  F   UNL A   1      49.120  29.968  28.711  1.00  0.00    -0.206 F 
ATOM     72  C   UNL A   1      48.479  33.060  26.986  1.00  0.00     0.022 A 
BRANCH  69  73
ATOM     73  S   UNL A   1      46.286  34.303  25.841  1.00  0.00     0.124 S 
ATOM     74  O   UNL A   1      47.333  34.834  24.977  1.00  0.00    -0.237 OA
ATOM     75  O   UNL A   1      45.164  33.648  25.180  1.00  0.00    -0.237 OA
ATOM     76  O   UNL A   1      45.911  35.175  26.956  1.00  0.00    -0.744 OA
ENDBRANCH  69  73
ENDBRANCH  42  66
BRANCH  54  77
ATOM     77  C   UNL A   1      45.825  25.987  31.765  1.00  0.00     0.023 A 
ATOM     78  C   UNL A   1      44.689  26.602  32.345  1.00  0.00     0.031 A 
ATOM     79  C   UNL A   1      46.914  25.715  32.612  1.00  0.00     0.131 A 
ATOM     80  C   UNL A   1      44.686  26.935  33.716  1.00  0.00     0.055 A 
ATOM     81  C   UNL A   1      46.898  26.022  33.972  1.00  0.00     0.041 A 
ATOM     82  F   UNL A   1      48.017  25.116  32.132  1.00  0.00    -0.206 F 
ATOM     83  C   UNL A   1      45.786  26.640  34.528  1.00  0.00     0.022 A 
BRANCH  80  84
ATOM     84  S   UNL A   1      43.261  27.789  34.467  1.00  0.00     0.124 S 
ATOM     85  O   UNL A   1      42.375  26.700  34.863  1.00  0.00    -0.237 OA
ATOM     86  O   UNL A   1      43.878  28.538  35.557  1.00  0.00    -0.237 OA
ATOM     87  O   UNL A   1      42.750  28.620  33.374  1.00  0.00    -0.744 OA
ENDBRANCH  80  84
ENDBRANCH  54  77
ENDBRANCH  28  29
ENDBRANCH  20  23
ENDBRANCH  18  19
ENDBRANCH   1  18
TORSDOF 16
ENDMDL
MODEL 3
REMARK VINA RESULT:     -11.3      4.275     12.970
REMARK SMILES O=C(CCn1cc(Cl)c([N+](=O)[O-])n1)NCCCNC(=O)c1ccc(-c2c3nc(c(-c4cc(S(=O)(=O)[O-])ccc4F)c4ccc([nH]4)c(-c4cc(S(=O)(=O)[O-])ccc4F)c4nc(c(-c5cc(S(=O)(=O)[O-])ccc5F)c5ccc2[nH]5)C=C4)C=C3)cc1
REMARK SMILES IDX 16 1 15 2 14 3 1 4 2 5 3 7 4 8 5 9 6 10 13 11 7 12 9 13 8 14
REMARK SMILES IDX 10 15 11 16 12 17 17 18 18 19 19 20 20 22 21 23 22 24 83 25
REMARK SMILES IDX 23 26 82 27 24 28 25 29 26 30 76 31 27 32 81 33 75 34 77 35
REMARK SMILES IDX 28 36 80 37 74 38 73 39 29 41 61 42 41 43 60 44 42 45 45 46
REMARK SMILES IDX 59 47 78 48 43 49 44 50 58 52 79 53 46 54 30 55 31 56 39 57
REMARK SMILES IDX 32 58 38 59 40 60 37 61 33 62 34 63 35 64 36 65 62 66 63 67
REMARK SMILES IDX 71 68 64 69 70 70 72 71 69 72 65 73 66 74 67 75 68 76 47 77
REMARK SMILES IDX 48 78 56 79 49 80 55 81 57 82 54 83 50 84 51 85 52 86 53 87
REMARK H PARENT 14 6 18 21 77 40 45 51
REMARK Flexibility Score: inf
ROOT
ATOM      1  C   UNL A   1      43.271  25.905  27.256  1.00  0.00     0.042 C 
ENDROOT
BRANCH   1   2
ATOM      2  C   UNL A   1      44.774  25.679  27.064  1.00  0.00     0.117 C 
BRANCH   2   3
ATOM      3  N   UNL A   1      45.096  24.950  25.849  1.00  0.00    -0.356 N 
ATOM      4  O   UNL A   1      46.449  23.343  26.775  1.00  0.00    -0.275 OA
ATOM      5  C   UNL A   1      45.872  23.817  25.801  1.00  0.00     0.221 C 
ATOM      6  H   UNL A   1      44.735  25.292  25.000  1.00  0.00     0.163 HD
BRANCH   5   7
ATOM      7  C   UNL A   1      46.011  23.195  24.418  1.00  0.00     0.125 C 
BRANCH   7   8
ATOM      8  C   UNL A   1      44.694  22.712  23.824  1.00  0.00     0.179 C 
BRANCH   8   9
ATOM      9  N   UNL A   1      43.998  21.754  24.668  1.00  0.00    -0.178 N 
ATOM     10  C   UNL A   1      43.051  22.008  25.613  1.00  0.00     0.161 A 
ATOM     11  N   UNL A   1      44.340  20.456  24.597  1.00  0.00     0.061 NA
ATOM     12  C   UNL A   1      42.696  20.785  26.145  1.00  0.00     0.160 A 
ATOM     13  C   UNL A   1      43.519  19.851  25.481  1.00  0.00     0.408 A 
ATOM     14  Cl  UNL A   1      41.554  20.517  27.363  1.00  0.00    -0.073 Cl
BRANCH  13  15
ATOM     15  N   UNL A   1      43.659  18.416  25.655  1.00  0.00    -0.020 N 
ATOM     16  O   UNL A   1      44.804  17.952  25.643  1.00  0.00    -0.358 OA
ATOM     17  O   UNL A   1      42.620  17.748  25.787  1.00  0.00    -0.358 OA
ENDBRANCH  13  15
ENDBRANCH   8   9
ENDBRANCH   7   8
ENDBRANCH   5   7
ENDBRANCH   2   3
ENDBRANCH   1   2
BRANCH   1  18
ATOM     18  C   UNL A   1      42.515  26.278  25.986  1.00  0.00     0.118 C 
BRANCH  18  19
ATOM     19  N   UNL A   1      41.308  25.492  25.737  1.00  0.00    -0.352 N 
ATOM     20  C   UNL A   1      40.195  25.384  26.555  1.00  0.00     0.251 C 
ATOM     21  H   UNL A   1      41.284  24.982  24.896  1.00  0.00     0.163 HD
ATOM     22  O   UNL A   1      39.462  24.400  26.472  1.00  0.00    -0.269 OA
BRANCH  20  23
ATOM     23  C   UNL A   1      39.906  26.457  27.534  1.00  0.00     0.039 A 
ATOM     24  C   UNL A   1      39.574  26.171  28.858  1.00  0.00     0.014 A 
ATOM     25  C   UNL A   1      39.990  27.782  27.115  1.00  0.00     0.014 A 
ATOM     26  C   UNL A   1      39.442  27.227  29.764  1.00  0.00     0.010 A 
ATOM     27  C   UNL A   1      39.976  28.815  28.025  1.00  0.00     0.010 A 
ATOM     28  C   UNL A   1      39.684  28.554  29.355  1.00  0.00    -0.014 A 
BRANCH  28  29
ATOM     29  C   UNL A   1      39.810  29.630  30.344  1.00  0.00     0.031 A 
ATOM     30  C   UNL A   1      38.553  30.393  30.571  1.00  0.00     0.074 A 
ATOM     31  C   UNL A   1      40.870  29.848  31.156  1.00  0.00     0.049 A 
ATOM     32  N   UNL A   1      38.307  31.606  30.206  1.00  0.00    -0.248 NA
ATOM     33  C   UNL A   1      37.382  29.691  31.121  1.00  0.00     0.031 C 
ATOM     34  C   UNL A   1      42.097  29.059  31.285  1.00  0.00     0.029 A 
ATOM     35  N   UNL A   1      41.032  30.803  32.119  1.00  0.00    -0.354 N 
ATOM     36  C   UNL A   1      37.042  31.909  30.692  1.00  0.00     0.074 A 
ATOM     37  C   UNL A   1      36.456  30.650  31.068  1.00  0.00     0.031 C 
ATOM     38  C   UNL A   1      42.769  29.426  32.400  1.00  0.00     0.029 A 
ATOM     39  C   UNL A   1      42.119  30.594  32.967  1.00  0.00     0.049 A 
ATOM     40  H   UNL A   1      40.430  31.577  32.207  1.00  0.00     0.167 HD
ATOM     41  C   UNL A   1      36.689  33.199  30.950  1.00  0.00     0.034 A 
ATOM     42  C   UNL A   1      42.492  31.334  34.045  1.00  0.00     0.034 A 
ATOM     43  C   UNL A   1      37.600  34.122  30.302  1.00  0.00     0.049 A 
ATOM     44  C   UNL A   1      41.938  32.692  33.839  1.00  0.00     0.074 A 
ATOM     45  C   UNL A   1      38.000  34.327  28.994  1.00  0.00     0.029 A 
ATOM     46  N   UNL A   1      38.556  34.744  31.073  1.00  0.00    -0.354 N 
ATOM     47  N   UNL A   1      42.325  33.478  32.874  1.00  0.00    -0.248 NA
ATOM     48  C   UNL A   1      40.633  32.999  34.402  1.00  0.00     0.031 C 
ATOM     49  C   UNL A   1      39.403  34.580  29.074  1.00  0.00     0.029 A 
ATOM     50  C   UNL A   1      39.761  34.608  30.425  1.00  0.00     0.049 A 
ATOM     51  H   UNL A   1      38.406  35.203  31.931  1.00  0.00     0.167 HD
ATOM     52  C   UNL A   1      41.161  34.065  32.405  1.00  0.00     0.074 A 
ATOM     53  C   UNL A   1      40.171  33.818  33.452  1.00  0.00     0.031 C 
ATOM     54  C   UNL A   1      41.037  34.452  31.099  1.00  0.00     0.034 A 
BRANCH  41  55
ATOM     55  C   UNL A   1      35.772  33.638  32.073  1.00  0.00     0.023 A 
ATOM     56  C   UNL A   1      34.858  34.672  31.785  1.00  0.00     0.031 A 
ATOM     57  C   UNL A   1      35.936  33.333  33.443  1.00  0.00     0.131 A 
ATOM     58  C   UNL A   1      34.266  35.424  32.815  1.00  0.00     0.055 A 
ATOM     59  C   UNL A   1      35.287  34.038  34.463  1.00  0.00     0.041 A 
ATOM     60  F   UNL A   1      36.793  32.406  33.884  1.00  0.00    -0.206 F 
ATOM     61  C   UNL A   1      34.476  35.115  34.154  1.00  0.00     0.022 A 
BRANCH  58  62
ATOM     62  S   UNL A   1      33.378  36.936  32.365  1.00  0.00     0.124 S 
ATOM     63  O   UNL A   1      32.163  36.806  33.162  1.00  0.00    -0.237 OA
ATOM     64  O   UNL A   1      34.318  37.971  32.784  1.00  0.00    -0.237 OA
ATOM     65  O   UNL A   1      33.197  36.806  30.921  1.00  0.00    -0.744 OA
ENDBRANCH  58  62
ENDBRANCH  41  55
BRANCH  42  66
ATOM     66  C   UNL A   1      43.031  30.852  35.348  1.00  0.00     0.023 A 
ATOM     67  C   UNL A   1      43.000  29.496  35.740  1.00  0.00     0.031 A 
ATOM     68  C   UNL A   1      43.837  31.716  36.122  1.00  0.00     0.131 A 
ATOM     69  C   UNL A   1      43.762  29.055  36.850  1.00  0.00     0.055 A 
ATOM     70  C   UNL A   1      44.590  31.275  37.213  1.00  0.00     0.041 A 
ATOM     71  F   UNL A   1      43.989  33.009  35.789  1.00  0.00    -0.206 F 
ATOM     72  C   UNL A   1      44.564  29.938  37.574  1.00  0.00     0.022 A 
BRANCH  69  73
ATOM     73  S   UNL A   1      43.796  27.291  37.316  1.00  0.00     0.124 S 
ATOM     74  O   UNL A   1      44.372  27.335  38.654  1.00  0.00    -0.237 OA
ATOM     75  O   UNL A   1      42.392  26.913  37.222  1.00  0.00    -0.237 OA
ATOM     76  O   UNL A   1      44.658  26.687  36.298  1.00  0.00    -0.744 OA
ENDBRANCH  69  73
ENDBRANCH  42  66
BRANCH  54  77
ATOM     77  C   UNL A   1      42.291  34.531  30.245  1.00  0.00     0.023 A 
ATOM     78  C   UNL A   1      43.150  35.652  30.153  1.00  0.00     0.031 A 
ATOM     79  C   UNL A   1      42.677  33.364  29.561  1.00  0.00     0.131 A 
ATOM     80  C   UNL A   1      44.330  35.579  29.382  1.00  0.00     0.055 A 
ATOM     81  C   UNL A   1      43.856  33.287  28.821  1.00  0.00     0.041 A 
ATOM     82  F   UNL A   1      41.918  32.257  29.620  1.00  0.00    -0.206 F 
ATOM     83  C   UNL A   1      44.684  34.398  28.723  1.00  0.00     0.022 A 
BRANCH  80  84
ATOM     84  S   UNL A   1      45.415  37.032  29.195  1.00  0.00     0.124 S 
ATOM     85  O   UNL A   1      45.784  37.367  30.566  1.00  0.00    -0.237 OA
ATOM     86  O   UNL A   1      46.490  36.519  28.352  1.00  0.00    -0.237 OA
ATOM     87  O   UNL A   1      44.550  38.018  28.542  1.00  0.00    -0.744 OA
ENDBRANCH  80  84
ENDBRANCH  54  77
ENDBRANCH  28  29
ENDBRANCH  20  23
ENDBRANCH  18  19
ENDBRANCH   1  18
TORSDOF 16
ENDMDL
