MODEL 1
REMARK VINA RESULT:     -13.1      0.000      0.000
REMARK SMILES O=C(NCCCNC(=O)[C@H](NC(=O)[C@H]1CC(=O)N(CC2CC2)C1)c1ccccc1C(F)(F)F)c1ccc(-c2c3nc(c(-c4cc(S(=O)(=O)[O-])ccc4F)c4ccc([nH]4)c(-c4cc(S(=O)(=O)[O-])ccc4F)c4nc(c(-c5cc(S(=O)(=O)[O-])ccc5F)c5ccc2[nH]5)C=C4)C=C3)cc1
REMARK SMILES IDX 5 1 4 2 3 3 1 4 2 5 34 7 35 8 96 9 36 10 95 11 37 12 38 13
REMARK SMILES IDX 39 14 89 15 40 16 94 17 88 18 90 19 41 20 93 21 87 22 86 23
REMARK SMILES IDX 42 25 74 26 54 27 73 28 55 29 58 30 72 31 91 32 56 33 57 34
REMARK SMILES IDX 71 36 92 37 59 38 43 39 44 40 52 41 45 42 51 43 53 44 50 45
REMARK SMILES IDX 46 46 47 47 48 48 49 49 75 50 76 51 84 52 77 53 83 54 85 55
REMARK SMILES IDX 82 56 78 57 79 58 80 59 81 60 60 61 61 62 69 63 62 64 68 65
REMARK SMILES IDX 70 66 67 67 63 68 64 69 65 70 66 71 6 72 7 73 8 74 9 76
REMARK SMILES IDX 10 77 24 78 25 79 29 80 26 81 28 82 27 83 30 84 31 85 32 86
REMARK SMILES IDX 33 87 11 88 12 89 13 91 14 92 15 93 23 94 16 95 18 96 17 97
REMARK SMILES IDX 19 98 20 99 21 100 22 101
REMARK H PARENT 3 6 90 24 58 35 7 75 11 90
REMARK Flexibility Score: inf
ROOT
ATOM      1  C   UNL A   1      31.266  31.114  25.685  1.00  0.00     0.042 C 
ENDROOT
BRANCH   1   2
ATOM      2  C   UNL A   1      31.824  31.534  27.033  1.00  0.00     0.118 C 
BRANCH   2   3
ATOM      3  N   UNL A   1      32.069  32.968  27.065  1.00  0.00    -0.352 N 
ATOM      4  O   UNL A   1      32.871  34.870  27.951  1.00  0.00    -0.269 OA
ATOM      5  C   UNL A   1      33.023  33.665  27.765  1.00  0.00     0.251 C 
ATOM      6  H   UNL A   1      31.467  33.514  26.509  1.00  0.00     0.163 HD
BRANCH   5   7
ATOM      7  C   UNL A   1      34.231  32.975  28.273  1.00  0.00     0.039 A 
ATOM      8  C   UNL A   1      35.425  33.677  28.444  1.00  0.00     0.014 A 
ATOM      9  C   UNL A   1      34.153  31.633  28.659  1.00  0.00     0.014 A 
ATOM     10  C   UNL A   1      36.567  33.019  28.876  1.00  0.00     0.010 A 
ATOM     11  C   UNL A   1      35.272  31.005  29.218  1.00  0.00     0.010 A 
ATOM     12  C   UNL A   1      36.487  31.696  29.333  1.00  0.00    -0.014 A 
BRANCH  12  13
ATOM     13  C   UNL A   1      37.649  31.132  30.065  1.00  0.00     0.031 A 
ATOM     14  C   UNL A   1      38.566  30.131  29.429  1.00  0.00     0.074 A 
ATOM     15  C   UNL A   1      37.872  31.569  31.324  1.00  0.00     0.049 A 
ATOM     16  N   UNL A   1      39.618  29.544  29.940  1.00  0.00    -0.248 NA
ATOM     17  C   UNL A   1      38.265  29.728  28.047  1.00  0.00     0.031 C 
ATOM     18  C   UNL A   1      37.031  32.539  32.038  1.00  0.00     0.029 A 
ATOM     19  N   UNL A   1      38.867  31.282  32.221  1.00  0.00    -0.354 N 
ATOM     20  C   UNL A   1      40.097  28.689  28.954  1.00  0.00     0.074 A 
ATOM     21  C   UNL A   1      39.204  28.818  27.820  1.00  0.00     0.031 C 
ATOM     22  C   UNL A   1      37.577  32.810  33.229  1.00  0.00     0.029 A 
ATOM     23  C   UNL A   1      38.745  31.961  33.414  1.00  0.00     0.049 A 
ATOM     24  H   UNL A   1      39.600  30.653  32.032  1.00  0.00     0.167 HD
ATOM     25  C   UNL A   1      41.181  27.877  29.001  1.00  0.00     0.034 A 
ATOM     26  C   UNL A   1      39.467  31.881  34.548  1.00  0.00     0.034 A 
ATOM     27  C   UNL A   1      42.054  27.770  30.148  1.00  0.00     0.049 A 
ATOM     28  C   UNL A   1      40.630  30.927  34.582  1.00  0.00     0.074 A 
ATOM     29  C   UNL A   1      43.199  27.006  30.287  1.00  0.00     0.029 A 
ATOM     30  N   UNL A   1      41.874  28.433  31.356  1.00  0.00    -0.354 N 
ATOM     31  N   UNL A   1      41.084  30.148  33.627  1.00  0.00    -0.248 NA
ATOM     32  C   UNL A   1      41.378  30.841  35.841  1.00  0.00     0.031 C 
ATOM     33  C   UNL A   1      43.662  27.141  31.599  1.00  0.00     0.029 A 
ATOM     34  C   UNL A   1      42.862  28.061  32.256  1.00  0.00     0.049 A 
ATOM     35  H   UNL A   1      41.149  29.072  31.545  1.00  0.00     0.167 HD
ATOM     36  C   UNL A   1      42.188  29.497  34.168  1.00  0.00     0.074 A 
ATOM     37  C   UNL A   1      42.346  30.000  35.518  1.00  0.00     0.031 C 
ATOM     38  C   UNL A   1      42.997  28.565  33.603  1.00  0.00     0.034 A 
BRANCH  25  39
ATOM     39  C   UNL A   1      41.462  27.001  27.804  1.00  0.00     0.023 A 
ATOM     40  C   UNL A   1      41.128  25.635  27.783  1.00  0.00     0.031 A 
ATOM     41  C   UNL A   1      42.051  27.552  26.652  1.00  0.00     0.131 A 
ATOM     42  C   UNL A   1      41.424  24.860  26.651  1.00  0.00     0.055 A 
ATOM     43  C   UNL A   1      42.279  26.792  25.503  1.00  0.00     0.041 A 
ATOM     44  F   UNL A   1      42.413  28.845  26.622  1.00  0.00    -0.206 F 
ATOM     45  C   UNL A   1      41.972  25.435  25.500  1.00  0.00     0.022 A 
BRANCH  42  46
ATOM     46  S   UNL A   1      41.179  23.065  26.737  1.00  0.00     0.124 S 
ATOM     47  O   UNL A   1      41.648  22.765  28.088  1.00  0.00    -0.237 OA
ATOM     48  O   UNL A   1      39.745  22.929  26.516  1.00  0.00    -0.237 OA
ATOM     49  O   UNL A   1      42.027  22.550  25.663  1.00  0.00    -0.744 OA
ENDBRANCH  42  46
ENDBRANCH  25  39
BRANCH  26  50
ATOM     50  C   UNL A   1      39.082  32.671  35.753  1.00  0.00     0.023 A 
ATOM     51  C   UNL A   1      39.514  33.995  35.922  1.00  0.00     0.031 A 
ATOM     52  C   UNL A   1      38.330  32.090  36.793  1.00  0.00     0.131 A 
ATOM     53  C   UNL A   1      39.249  34.670  37.123  1.00  0.00     0.055 A 
ATOM     54  C   UNL A   1      38.004  32.792  37.953  1.00  0.00     0.041 A 
ATOM     55  F   UNL A   1      37.891  30.825  36.690  1.00  0.00    -0.206 F 
ATOM     56  C   UNL A   1      38.482  34.084  38.132  1.00  0.00     0.022 A 
BRANCH  53  57
ATOM     57  S   UNL A   1      40.041  36.278  37.402  1.00  0.00     0.124 S 
ATOM     58  O   UNL A   1      39.164  36.870  38.405  1.00  0.00    -0.237 OA
ATOM     59  O   UNL A   1      41.368  35.885  37.862  1.00  0.00    -0.237 OA
ATOM     60  O   UNL A   1      39.999  36.909  36.084  1.00  0.00    -0.744 OA
ENDBRANCH  53  57
ENDBRANCH  26  50
BRANCH  38  61
ATOM     61  C   UNL A   1      44.150  28.070  34.441  1.00  0.00     0.023 A 
ATOM     62  C   UNL A   1      43.973  27.094  35.438  1.00  0.00     0.031 A 
ATOM     63  C   UNL A   1      45.437  28.604  34.258  1.00  0.00     0.131 A 
ATOM     64  C   UNL A   1      45.051  26.732  36.258  1.00  0.00     0.055 A 
ATOM     65  C   UNL A   1      46.522  28.186  35.029  1.00  0.00     0.041 A 
ATOM     66  F   UNL A   1      45.662  29.543  33.325  1.00  0.00    -0.206 F 
ATOM     67  C   UNL A   1      46.328  27.257  36.048  1.00  0.00     0.022 A 
BRANCH  64  68
ATOM     68  S   UNL A   1      44.736  25.650  37.680  1.00  0.00     0.124 S 
ATOM     69  O   UNL A   1      46.039  25.627  38.337  1.00  0.00    -0.237 OA
ATOM     70  O   UNL A   1      43.678  26.364  38.387  1.00  0.00    -0.237 OA
ATOM     71  O   UNL A   1      44.328  24.388  37.065  1.00  0.00    -0.744 OA
ENDBRANCH  64  68
ENDBRANCH  38  61
ENDBRANCH  12  13
ENDBRANCH   5   7
ENDBRANCH   2   3
ENDBRANCH   1   2
BRANCH   1  72
ATOM     72  C   UNL A   1      31.673  29.696  25.320  1.00  0.00     0.117 C 
BRANCH  72  73
ATOM     73  N   UNL A   1      32.685  29.718  24.288  1.00  0.00    -0.354 N 
ATOM     74  C   UNL A   1      32.922  28.847  23.275  1.00  0.00     0.247 C 
ATOM     75  H   UNL A   1      33.299  30.486  24.326  1.00  0.00     0.163 HD
ATOM     76  O   UNL A   1      34.081  28.837  22.836  1.00  0.00    -0.272 OA
BRANCH  74  77
ATOM     77  C   UNL A   1      31.866  27.868  22.687  1.00  0.00     0.202 C 
BRANCH  77  78
ATOM     78  C   UNL A   1      30.443  28.420  22.558  1.00  0.00    -0.004 A 
ATOM     79  C   UNL A   1      30.314  29.607  21.786  1.00  0.00     0.007 A 
ATOM     80  C   UNL A   1      29.280  27.924  23.189  1.00  0.00     0.061 A 
ATOM     81  C   UNL A   1      29.134  30.346  21.737  1.00  0.00     0.000 A 
ATOM     82  C   UNL A   1      28.079  28.673  23.089  1.00  0.00     0.013 A 
ATOM     83  C   UNL A   1      28.013  29.881  22.400  1.00  0.00     0.001 A 
BRANCH  80  84
ATOM     84  C   UNL A   1      29.156  26.640  23.980  1.00  0.00     0.416 C 
ATOM     85  F   UNL A   1      27.873  26.386  24.360  1.00  0.00    -0.166 F 
ATOM     86  F   UNL A   1      29.553  25.558  23.252  1.00  0.00    -0.166 F 
ATOM     87  F   UNL A   1      29.890  26.581  25.118  1.00  0.00    -0.166 F 
ENDBRANCH  80  84
ENDBRANCH  77  78
BRANCH  77  88
ATOM     88  N   UNL A   1      32.265  26.888  21.672  1.00  0.00    -0.340 N 
ATOM     89  C   UNL A   1      32.749  25.615  21.735  1.00  0.00     0.226 C 
ATOM     90  H   UNL A   1      32.162  27.219  20.751  1.00  0.00     0.164 HD
ATOM     91  O   UNL A   1      33.181  25.149  20.676  1.00  0.00    -0.275 OA
BRANCH  89  92
ATOM     92  C   UNL A   1      32.674  24.744  22.986  1.00  0.00     0.107 C 
ATOM     93  C   UNL A   1      32.576  23.242  22.661  1.00  0.00     0.115 C 
ATOM     94  C   UNL A   1      33.916  24.814  23.830  1.00  0.00     0.133 C 
ATOM     95  C   UNL A   1      33.433  22.554  23.708  1.00  0.00     0.223 C 
ATOM     96  N   UNL A   1      34.190  23.518  24.337  1.00  0.00    -0.342 N 
ATOM     97  O   UNL A   1      33.459  21.356  23.920  1.00  0.00    -0.275 OA
BRANCH  96  98
ATOM     98  C   UNL A   1      35.163  23.316  25.396  1.00  0.00     0.123 C 
BRANCH  98  99
ATOM     99  C   UNL A   1      34.611  23.140  26.791  1.00  0.00     0.008 C 
ATOM    100  C   UNL A   1      33.149  22.953  27.129  1.00  0.00     0.006 C 
ATOM    101  C   UNL A   1      34.116  21.818  27.340  1.00  0.00     0.006 C 
ENDBRANCH  98  99
ENDBRANCH  96  98
ENDBRANCH  89  92
ENDBRANCH  77  88
ENDBRANCH  74  77
ENDBRANCH  72  73
ENDBRANCH   1  72
TORSDOF 19
ENDMDL
MODEL 2
REMARK VINA RESULT:     -13.0      1.623      7.376
REMARK SMILES O=C(NCCCNC(=O)[C@H](NC(=O)[C@H]1CC(=O)N(CC2CC2)C1)c1ccccc1C(F)(F)F)c1ccc(-c2c3nc(c(-c4cc(S(=O)(=O)[O-])ccc4F)c4ccc([nH]4)c(-c4cc(S(=O)(=O)[O-])ccc4F)c4nc(c(-c5cc(S(=O)(=O)[O-])ccc5F)c5ccc2[nH]5)C=C4)C=C3)cc1
REMARK SMILES IDX 5 1 4 2 3 3 1 4 2 5 34 7 35 8 96 9 36 10 95 11 37 12 38 13
REMARK SMILES IDX 39 14 89 15 40 16 94 17 88 18 90 19 41 20 93 21 87 22 86 23
REMARK SMILES IDX 42 25 74 26 54 27 73 28 55 29 58 30 72 31 91 32 56 33 57 34
REMARK SMILES IDX 71 36 92 37 59 38 43 39 44 40 52 41 45 42 51 43 53 44 50 45
REMARK SMILES IDX 46 46 47 47 48 48 49 49 75 50 76 51 84 52 77 53 83 54 85 55
REMARK SMILES IDX 82 56 78 57 79 58 80 59 81 60 60 61 61 62 69 63 62 64 68 65
REMARK SMILES IDX 70 66 67 67 63 68 64 69 65 70 66 71 6 72 7 73 8 74 9 76
REMARK SMILES IDX 10 77 24 78 25 79 29 80 26 81 28 82 27 83 30 84 31 85 32 86
REMARK SMILES IDX 33 87 11 88 12 89 13 91 14 92 15 93 23 94 16 95 18 96 17 97
REMARK SMILES IDX 19 98 20 99 21 100 22 101
REMARK H PARENT 3 6 90 24 58 35 7 75 11 90
REMARK Flexibility Score: inf
ROOT
ATOM      1  C   UNL A   1      31.359  30.983  25.811  1.00  0.00     0.042 C 
ENDROOT
BRANCH   1   2
ATOM      2  C   UNL A   1      32.021  31.411  27.108  1.00  0.00     0.118 C 
BRANCH   2   3
ATOM      3  N   UNL A   1      32.299  32.839  27.099  1.00  0.00    -0.352 N 
ATOM      4  O   UNL A   1      33.164  34.742  27.919  1.00  0.00    -0.269 OA
ATOM      5  C   UNL A   1      33.285  33.531  27.760  1.00  0.00     0.251 C 
ATOM      6  H   UNL A   1      31.698  33.384  26.543  1.00  0.00     0.163 HD
BRANCH   5   7
ATOM      7  C   UNL A   1      34.487  32.825  28.259  1.00  0.00     0.039 A 
ATOM      8  C   UNL A   1      35.642  33.540  28.582  1.00  0.00     0.014 A 
ATOM      9  C   UNL A   1      34.439  31.446  28.486  1.00  0.00     0.014 A 
ATOM     10  C   UNL A   1      36.782  32.873  29.005  1.00  0.00     0.010 A 
ATOM     11  C   UNL A   1      35.548  30.793  29.037  1.00  0.00     0.010 A 
ATOM     12  C   UNL A   1      36.727  31.505  29.304  1.00  0.00    -0.014 A 
BRANCH  12  13
ATOM     13  C   UNL A   1      37.866  30.897  30.037  1.00  0.00     0.031 A 
ATOM     14  C   UNL A   1      38.086  31.155  31.497  1.00  0.00     0.074 A 
ATOM     15  C   UNL A   1      38.693  30.080  29.349  1.00  0.00     0.049 A 
ATOM     16  N   UNL A   1      39.037  30.702  32.274  1.00  0.00    -0.248 NA
ATOM     17  C   UNL A   1      37.126  32.038  32.175  1.00  0.00     0.031 C 
ATOM     18  C   UNL A   1      38.567  29.769  27.918  1.00  0.00     0.029 A 
ATOM     19  N   UNL A   1      39.780  29.346  29.744  1.00  0.00    -0.354 N 
ATOM     20  C   UNL A   1      38.804  31.256  33.527  1.00  0.00     0.074 A 
ATOM     21  C   UNL A   1      37.632  32.099  33.401  1.00  0.00     0.031 C 
ATOM     22  C   UNL A   1      39.496  28.869  27.576  1.00  0.00     0.029 A 
ATOM     23  C   UNL A   1      40.350  28.613  28.727  1.00  0.00     0.049 A 
ATOM     24  H   UNL A   1      40.121  29.342  30.668  1.00  0.00     0.167 HD
ATOM     25  C   UNL A   1      39.508  31.072  34.671  1.00  0.00     0.034 A 
ATOM     26  C   UNL A   1      41.460  27.851  28.708  1.00  0.00     0.034 A 
ATOM     27  C   UNL A   1      40.674  30.223  34.767  1.00  0.00     0.049 A 
ATOM     28  C   UNL A   1      42.247  27.715  29.982  1.00  0.00     0.074 A 
ATOM     29  C   UNL A   1      41.440  29.939  35.884  1.00  0.00     0.029 A 
ATOM     30  N   UNL A   1      41.254  29.536  33.707  1.00  0.00    -0.354 N 
ATOM     31  N   UNL A   1      41.994  28.224  31.166  1.00  0.00    -0.248 NA
ATOM     32  C   UNL A   1      43.468  26.903  29.922  1.00  0.00     0.031 C 
ATOM     33  C   UNL A   1      42.524  29.151  35.486  1.00  0.00     0.029 A 
ATOM     34  C   UNL A   1      42.388  28.864  34.138  1.00  0.00     0.049 A 
ATOM     35  H   UNL A   1      40.908  29.528  32.785  1.00  0.00     0.167 HD
ATOM     36  C   UNL A   1      43.014  27.772  31.996  1.00  0.00     0.074 A 
ATOM     37  C   UNL A   1      43.864  26.925  31.184  1.00  0.00     0.031 C 
ATOM     38  C   UNL A   1      43.232  28.033  33.310  1.00  0.00     0.034 A 
BRANCH  25  39
ATOM     39  C   UNL A   1      39.076  31.834  35.900  1.00  0.00     0.023 A 
ATOM     40  C   UNL A   1      38.279  31.250  36.900  1.00  0.00     0.031 A 
ATOM     41  C   UNL A   1      39.494  33.164  36.086  1.00  0.00     0.131 A 
ATOM     42  C   UNL A   1      37.891  32.006  38.017  1.00  0.00     0.055 A 
ATOM     43  C   UNL A   1      39.163  33.889  37.232  1.00  0.00     0.041 A 
ATOM     44  F   UNL A   1      40.237  33.783  35.154  1.00  0.00    -0.206 F 
ATOM     45  C   UNL A   1      38.350  33.313  38.204  1.00  0.00     0.022 A 
BRANCH  42  46
ATOM     46  S   UNL A   1      36.691  31.294  39.175  1.00  0.00     0.124 S 
ATOM     47  O   UNL A   1      35.652  32.321  39.197  1.00  0.00    -0.237 OA
ATOM     48  O   UNL A   1      36.330  30.038  38.528  1.00  0.00    -0.237 OA
ATOM     49  O   UNL A   1      37.449  31.159  40.418  1.00  0.00    -0.744 OA
ENDBRANCH  42  46
ENDBRANCH  25  39
BRANCH  26  50
ATOM     50  C   UNL A   1      41.925  27.214  27.442  1.00  0.00     0.023 A 
ATOM     51  C   UNL A   1      41.883  25.822  27.271  1.00  0.00     0.031 A 
ATOM     52  C   UNL A   1      42.485  27.985  26.404  1.00  0.00     0.131 A 
ATOM     53  C   UNL A   1      42.449  25.241  26.126  1.00  0.00     0.055 A 
ATOM     54  C   UNL A   1      42.977  27.407  25.234  1.00  0.00     0.041 A 
ATOM     55  F   UNL A   1      42.555  29.322  26.511  1.00  0.00    -0.206 F 
ATOM     56  C   UNL A   1      42.979  26.024  25.099  1.00  0.00     0.022 A 
BRANCH  53  57
ATOM     57  S   UNL A   1      42.604  23.434  26.064  1.00  0.00     0.124 S 
ATOM     58  O   UNL A   1      41.236  23.010  26.339  1.00  0.00    -0.237 OA
ATOM     59  O   UNL A   1      43.081  23.219  24.702  1.00  0.00    -0.237 OA
ATOM     60  O   UNL A   1      43.573  23.141  27.118  1.00  0.00    -0.744 OA
ENDBRANCH  53  57
ENDBRANCH  26  50
BRANCH  38  61
ATOM     61  C   UNL A   1      44.418  27.354  33.949  1.00  0.00     0.023 A 
ATOM     62  C   UNL A   1      44.294  26.120  34.610  1.00  0.00     0.031 A 
ATOM     63  C   UNL A   1      45.682  27.967  33.921  1.00  0.00     0.131 A 
ATOM     64  C   UNL A   1      45.401  25.570  35.274  1.00  0.00     0.055 A 
ATOM     65  C   UNL A   1      46.796  27.380  34.520  1.00  0.00     0.041 A 
ATOM     66  F   UNL A   1      45.856  29.149  33.309  1.00  0.00    -0.206 F 
ATOM     67  C   UNL A   1      46.656  26.182  35.216  1.00  0.00     0.022 A 
BRANCH  64  68
ATOM     68  S   UNL A   1      45.152  24.102  36.309  1.00  0.00     0.124 S 
ATOM     69  O   UNL A   1      46.524  23.721  36.628  1.00  0.00    -0.237 OA
ATOM     70  O   UNL A   1      44.364  24.631  37.417  1.00  0.00    -0.237 OA
ATOM     71  O   UNL A   1      44.440  23.178  35.428  1.00  0.00    -0.744 OA
ENDBRANCH  64  68
ENDBRANCH  38  61
ENDBRANCH  12  13
ENDBRANCH   5   7
ENDBRANCH   2   3
ENDBRANCH   1   2
BRANCH   1  72
ATOM     72  C   UNL A   1      31.801  29.595  25.380  1.00  0.00     0.117 C 
BRANCH  72  73
ATOM     73  N   UNL A   1      32.733  29.688  24.278  1.00  0.00    -0.354 N 
ATOM     74  C   UNL A   1      32.915  28.867  23.213  1.00  0.00     0.247 C 
ATOM     75  H   UNL A   1      33.330  30.470  24.306  1.00  0.00     0.163 HD
ATOM     76  O   UNL A   1      34.038  28.907  22.691  1.00  0.00    -0.272 OA
BRANCH  74  77
ATOM     77  C   UNL A   1      31.841  27.887  22.660  1.00  0.00     0.202 C 
BRANCH  77  78
ATOM     78  C   UNL A   1      30.417  28.443  22.561  1.00  0.00    -0.004 A 
ATOM     79  C   UNL A   1      30.279  29.641  21.809  1.00  0.00     0.007 A 
ATOM     80  C   UNL A   1      29.264  27.938  23.203  1.00  0.00     0.061 A 
ATOM     81  C   UNL A   1      29.098  30.381  21.789  1.00  0.00     0.000 A 
ATOM     82  C   UNL A   1      28.063  28.690  23.132  1.00  0.00     0.013 A 
ATOM     83  C   UNL A   1      27.987  29.908  22.463  1.00  0.00     0.001 A 
BRANCH  80  84
ATOM     84  C   UNL A   1      29.150  26.643  23.977  1.00  0.00     0.416 C 
ATOM     85  F   UNL A   1      27.872  26.382  24.367  1.00  0.00    -0.166 F 
ATOM     86  F   UNL A   1      29.541  25.573  23.230  1.00  0.00    -0.166 F 
ATOM     87  F   UNL A   1      29.896  26.569  25.107  1.00  0.00    -0.166 F 
ENDBRANCH  80  84
ENDBRANCH  77  78
BRANCH  77  88
ATOM     88  N   UNL A   1      32.212  26.896  21.645  1.00  0.00    -0.340 N 
ATOM     89  C   UNL A   1      32.712  25.629  21.707  1.00  0.00     0.226 C 
ATOM     90  H   UNL A   1      32.071  27.213  20.724  1.00  0.00     0.164 HD
ATOM     91  O   UNL A   1      33.108  25.152  20.639  1.00  0.00    -0.275 OA
BRANCH  89  92
ATOM     92  C   UNL A   1      32.695  24.776  22.973  1.00  0.00     0.107 C 
ATOM     93  C   UNL A   1      32.606  23.268  22.672  1.00  0.00     0.115 C 
ATOM     94  C   UNL A   1      33.965  24.875  23.770  1.00  0.00     0.133 C 
ATOM     95  C   UNL A   1      33.509  22.607  23.697  1.00  0.00     0.223 C 
ATOM     96  N   UNL A   1      34.275  23.590  24.285  1.00  0.00    -0.342 N 
ATOM     97  O   UNL A   1      33.559  21.413  23.926  1.00  0.00    -0.275 OA
BRANCH  96  98
ATOM     98  C   UNL A   1      35.289  23.416  25.311  1.00  0.00     0.123 C 
BRANCH  98  99
ATOM     99  C   UNL A   1      36.670  23.036  24.831  1.00  0.00     0.008 C 
ATOM    100  C   UNL A   1      37.884  22.877  25.718  1.00  0.00     0.006 C 
ATOM    101  C   UNL A   1      37.288  21.670  25.042  1.00  0.00     0.006 C 
ENDBRANCH  98  99
ENDBRANCH  96  98
ENDBRANCH  89  92
ENDBRANCH  77  88
ENDBRANCH  74  77
ENDBRANCH  72  73
ENDBRANCH   1  72
TORSDOF 19
ENDMDL
MODEL 3
REMARK VINA RESULT:     -13.0      2.285      7.835
REMARK SMILES O=C(NCCCNC(=O)[C@H](NC(=O)[C@H]1CC(=O)N(CC2CC2)C1)c1ccccc1C(F)(F)F)c1ccc(-c2c3nc(c(-c4cc(S(=O)(=O)[O-])ccc4F)c4ccc([nH]4)c(-c4cc(S(=O)(=O)[O-])ccc4F)c4nc(c(-c5cc(S(=O)(=O)[O-])ccc5F)c5ccc2[nH]5)C=C4)C=C3)cc1
REMARK SMILES IDX 5 1 4 2 3 3 1 4 2 5 34 7 35 8 96 9 36 10 95 11 37 12 38 13
REMARK SMILES IDX 39 14 89 15 40 16 94 17 88 18 90 19 41 20 93 21 87 22 86 23
REMARK SMILES IDX 42 25 74 26 54 27 73 28 55 29 58 30 72 31 91 32 56 33 57 34
REMARK SMILES IDX 71 36 92 37 59 38 43 39 44 40 52 41 45 42 51 43 53 44 50 45
REMARK SMILES IDX 46 46 47 47 48 48 49 49 75 50 76 51 84 52 77 53 83 54 85 55
REMARK SMILES IDX 82 56 78 57 79 58 80 59 81 60 60 61 61 62 69 63 62 64 68 65
REMARK SMILES IDX 70 66 67 67 63 68 64 69 65 70 66 71 6 72 7 73 8 74 9 76
REMARK SMILES IDX 10 77 24 78 25 79 29 80 26 81 28 82 27 83 30 84 31 85 32 86
REMARK SMILES IDX 33 87 11 88 12 89 13 91 14 92 15 93 23 94 16 95 18 96 17 97
REMARK SMILES IDX 19 98 20 99 21 100 22 101
REMARK H PARENT 3 6 90 24 58 35 7 75 11 90
REMARK Flexibility Score: inf
ROOT
ATOM      1  C   UNL A   1      32.290  29.634  27.191  1.00  0.00     0.042 C 
ENDROOT
BRANCH   1   2
ATOM      2  C   UNL A   1      33.660  30.264  27.017  1.00  0.00     0.118 C 
BRANCH   2   3
ATOM      3  N   UNL A   1      33.718  31.563  27.669  1.00  0.00    -0.352 N 
ATOM      4  O   UNL A   1      34.236  32.973  29.338  1.00  0.00    -0.269 OA
ATOM      5  C   UNL A   1      34.548  31.986  28.678  1.00  0.00     0.251 C 
ATOM      6  H   UNL A   1      33.072  32.230  27.343  1.00  0.00     0.163 HD
BRANCH   5   7
ATOM      7  C   UNL A   1      35.814  31.269  28.954  1.00  0.00     0.039 A 
ATOM      8  C   UNL A   1      37.032  31.794  28.516  1.00  0.00     0.014 A 
ATOM      9  C   UNL A   1      35.799  30.103  29.725  1.00  0.00     0.014 A 
ATOM     10  C   UNL A   1      38.212  31.099  28.734  1.00  0.00     0.010 A 
ATOM     11  C   UNL A   1      37.004  29.473  30.056  1.00  0.00     0.010 A 
ATOM     12  C   UNL A   1      38.221  29.970  29.565  1.00  0.00    -0.014 A 
BRANCH  12  13
ATOM     13  C   UNL A   1      39.531  29.440  30.018  1.00  0.00     0.031 A 
ATOM     14  C   UNL A   1      40.268  30.052  31.172  1.00  0.00     0.074 A 
ATOM     15  C   UNL A   1      40.033  28.365  29.371  1.00  0.00     0.049 A 
ATOM     16  N   UNL A   1      41.423  29.705  31.682  1.00  0.00    -0.248 NA
ATOM     17  C   UNL A   1      39.640  31.204  31.835  1.00  0.00     0.031 C 
ATOM     18  C   UNL A   1      39.393  27.699  28.229  1.00  0.00     0.029 A 
ATOM     19  N   UNL A   1      41.169  27.630  29.579  1.00  0.00    -0.354 N 
ATOM     20  C   UNL A   1      41.671  30.602  32.713  1.00  0.00     0.074 A 
ATOM     21  C   UNL A   1      40.555  31.526  32.741  1.00  0.00     0.031 C 
ATOM     22  C   UNL A   1      40.112  26.625  27.880  1.00  0.00     0.029 A 
ATOM     23  C   UNL A   1      41.316  26.580  28.698  1.00  0.00     0.049 A 
ATOM     24  H   UNL A   1      41.820  27.831  30.291  1.00  0.00     0.167 HD
ATOM     25  C   UNL A   1      42.734  30.644  33.553  1.00  0.00     0.034 A 
ATOM     26  C   UNL A   1      42.324  25.703  28.537  1.00  0.00     0.034 A 
ATOM     27  C   UNL A   1      43.834  29.707  33.501  1.00  0.00     0.049 A 
ATOM     28  C   UNL A   1      43.514  25.814  29.451  1.00  0.00     0.074 A 
ATOM     29  C   UNL A   1      44.942  29.638  34.326  1.00  0.00     0.029 A 
ATOM     30  N   UNL A   1      43.975  28.689  32.565  1.00  0.00    -0.354 N 
ATOM     31  N   UNL A   1      43.716  26.653  30.441  1.00  0.00    -0.248 NA
ATOM     32  C   UNL A   1      44.609  24.863  29.230  1.00  0.00     0.031 C 
ATOM     33  C   UNL A   1      45.789  28.636  33.842  1.00  0.00     0.029 A 
ATOM     34  C   UNL A   1      45.170  28.016  32.770  1.00  0.00     0.049 A 
ATOM     35  H   UNL A   1      43.321  28.478  31.860  1.00  0.00     0.167 HD
ATOM     36  C   UNL A   1      44.954  26.313  30.975  1.00  0.00     0.074 A 
ATOM     37  C   UNL A   1      45.433  25.174  30.217  1.00  0.00     0.031 C 
ATOM     38  C   UNL A   1      45.637  26.888  31.996  1.00  0.00     0.034 A 
BRANCH  25  39
ATOM     39  C   UNL A   1      42.793  31.760  34.567  1.00  0.00     0.023 A 
ATOM     40  C   UNL A   1      42.163  31.665  35.820  1.00  0.00     0.031 A 
ATOM     41  C   UNL A   1      43.519  32.931  34.283  1.00  0.00     0.131 A 
ATOM     42  C   UNL A   1      42.235  32.737  36.723  1.00  0.00     0.055 A 
ATOM     43  C   UNL A   1      43.645  33.965  35.212  1.00  0.00     0.041 A 
ATOM     44  F   UNL A   1      44.122  33.089  33.094  1.00  0.00    -0.206 F 
ATOM     45  C   UNL A   1      42.994  33.876  36.439  1.00  0.00     0.022 A 
BRANCH  42  46
ATOM     46  S   UNL A   1      41.236  32.670  38.235  1.00  0.00     0.124 S 
ATOM     47  O   UNL A   1      41.200  34.076  38.632  1.00  0.00    -0.237 OA
ATOM     48  O   UNL A   1      39.976  32.111  37.760  1.00  0.00    -0.237 OA
ATOM     49  O   UNL A   1      42.009  31.800  39.121  1.00  0.00    -0.744 OA
ENDBRANCH  42  46
ENDBRANCH  25  39
BRANCH  26  50
ATOM     50  C   UNL A   1      42.286  24.692  27.441  1.00  0.00     0.023 A 
ATOM     51  C   UNL A   1      41.600  23.478  27.596  1.00  0.00     0.031 A 
ATOM     52  C   UNL A   1      42.994  24.895  26.240  1.00  0.00     0.131 A 
ATOM     53  C   UNL A   1      41.691  22.491  26.603  1.00  0.00     0.055 A 
ATOM     54  C   UNL A   1      43.018  23.941  25.223  1.00  0.00     0.041 A 
ATOM     55  F   UNL A   1      43.671  26.036  26.035  1.00  0.00    -0.206 F 
ATOM     56  C   UNL A   1      42.380  22.721  25.410  1.00  0.00     0.022 A 
BRANCH  53  57
ATOM     57  S   UNL A   1      41.007  20.848  26.955  1.00  0.00     0.124 S 
ATOM     58  O   UNL A   1      40.719  20.947  28.381  1.00  0.00    -0.237 OA
ATOM     59  O   UNL A   1      39.849  20.808  26.068  1.00  0.00    -0.237 OA
ATOM     60  O   UNL A   1      42.098  19.944  26.598  1.00  0.00    -0.744 OA
ENDBRANCH  53  57
ENDBRANCH  26  50
BRANCH  38  61
ATOM     61  C   UNL A   1      46.955  26.258  32.372  1.00  0.00     0.023 A 
ATOM     62  C   UNL A   1      47.035  25.220  33.317  1.00  0.00     0.031 A 
ATOM     63  C   UNL A   1      48.150  26.724  31.798  1.00  0.00     0.131 A 
ATOM     64  C   UNL A   1      48.288  24.728  33.709  1.00  0.00     0.055 A 
ATOM     65  C   UNL A   1      49.389  26.181  32.138  1.00  0.00     0.041 A 
ATOM     66  F   UNL A   1      48.134  27.718  30.896  1.00  0.00    -0.206 F 
ATOM     67  C   UNL A   1      49.465  25.187  33.111  1.00  0.00     0.022 A 
BRANCH  64  68
ATOM     68  S   UNL A   1      48.369  23.559  35.093  1.00  0.00     0.124 S 
ATOM     69  O   UNL A   1      47.040  22.956  35.059  1.00  0.00    -0.237 OA
ATOM     70  O   UNL A   1      49.473  22.688  34.702  1.00  0.00    -0.237 OA
ATOM     71  O   UNL A   1      48.634  24.414  36.248  1.00  0.00    -0.744 OA
ENDBRANCH  64  68
ENDBRANCH  38  61
ENDBRANCH  12  13
ENDBRANCH   5   7
ENDBRANCH   2   3
ENDBRANCH   1   2
BRANCH   1  72
ATOM     72  C   UNL A   1      31.759  29.063  25.887  1.00  0.00     0.117 C 
BRANCH  72  73
ATOM     73  N   UNL A   1      32.559  29.529  24.776  1.00  0.00    -0.354 N 
ATOM     74  C   UNL A   1      32.750  28.990  23.546  1.00  0.00     0.247 C 
ATOM     75  H   UNL A   1      33.042  30.372  24.939  1.00  0.00     0.163 HD
ATOM     76  O   UNL A   1      33.801  29.313  22.976  1.00  0.00    -0.272 OA
BRANCH  74  77
ATOM     77  C   UNL A   1      31.774  27.992  22.859  1.00  0.00     0.202 C 
BRANCH  77  78
ATOM     78  C   UNL A   1      30.342  28.495  22.650  1.00  0.00    -0.004 A 
ATOM     79  C   UNL A   1      30.218  29.692  21.893  1.00  0.00     0.007 A 
ATOM     80  C   UNL A   1      29.161  27.943  23.196  1.00  0.00     0.061 A 
ATOM     81  C   UNL A   1      29.016  30.388  21.784  1.00  0.00     0.000 A 
ATOM     82  C   UNL A   1      27.943  28.650  23.034  1.00  0.00     0.013 A 
ATOM     83  C   UNL A   1      27.874  29.869  22.365  1.00  0.00     0.001 A 
BRANCH  80  84
ATOM     84  C   UNL A   1      29.036  26.639  23.954  1.00  0.00     0.416 C 
ATOM     85  F   UNL A   1      29.457  25.571  23.221  1.00  0.00    -0.166 F 
ATOM     86  F   UNL A   1      29.794  26.640  25.087  1.00  0.00    -0.166 F 
ATOM     87  F   UNL A   1      27.786  26.323  24.371  1.00  0.00    -0.166 F 
ENDBRANCH  80  84
ENDBRANCH  77  78
BRANCH  77  88
ATOM     88  N   UNL A   1      32.278  27.060  21.845  1.00  0.00    -0.340 N 
ATOM     89  C   UNL A   1      32.767  25.789  21.898  1.00  0.00     0.226 C 
ATOM     90  H   UNL A   1      32.260  27.432  20.934  1.00  0.00     0.164 HD
ATOM     91  O   UNL A   1      33.303  25.373  20.866  1.00  0.00    -0.275 OA
BRANCH  89  92
ATOM     92  C   UNL A   1      32.582  24.863  23.097  1.00  0.00     0.107 C 
ATOM     93  C   UNL A   1      32.710  23.374  22.724  1.00  0.00     0.115 C 
ATOM     94  C   UNL A   1      33.649  25.029  24.142  1.00  0.00     0.133 C 
ATOM     95  C   UNL A   1      33.451  22.737  23.886  1.00  0.00     0.223 C 
ATOM     96  N   UNL A   1      33.978  23.749  24.658  1.00  0.00    -0.342 N 
ATOM     97  O   UNL A   1      33.575  21.541  24.071  1.00  0.00    -0.275 OA
BRANCH  96  98
ATOM     98  C   UNL A   1      34.777  23.607  25.863  1.00  0.00     0.123 C 
BRANCH  98  99
ATOM     99  C   UNL A   1      36.157  23.019  25.687  1.00  0.00     0.008 C 
ATOM    100  C   UNL A   1      37.063  23.268  24.503  1.00  0.00     0.006 C 
ATOM    101  C   UNL A   1      37.438  23.809  25.858  1.00  0.00     0.006 C 
ENDBRANCH  98  99
ENDBRANCH  96  98
ENDBRANCH  89  92
ENDBRANCH  77  88
ENDBRANCH  74  77
ENDBRANCH  72  73
ENDBRANCH   1  72
TORSDOF 19
ENDMDL
