MODEL 1
REMARK VINA RESULT:     -11.8      0.000      0.000
REMARK SMILES O=C(CN1C(=O)/C(=C\c2cccs2)SC1=S)Nc1ccccc1C(=O)NCCCNC(=O)c1ccc(-c2c3nc(c(-c4cc(S(=O)(=O)[O-])ccc4F)c4ccc([nH]4)c(-c4cc(S(=O)(=O)[O-])ccc4F)c4nc(c(-c5cc(S(=O)(=O)[O-])ccc5F)c5ccc2[nH]5)C=C4)C=C3)cc1
REMARK SMILES IDX 27 1 26 2 24 3 25 4 23 6 18 7 19 8 20 9 22 10 21 11 17 12
REMARK SMILES IDX 1 13 2 14 3 16 4 17 5 18 15 19 6 20 7 21 14 22 16 23 8 24
REMARK SMILES IDX 9 25 10 26 13 27 11 28 12 29 28 30 29 31 30 32 31 33 32 35
REMARK SMILES IDX 33 36 34 37 95 38 35 39 94 40 36 41 37 42 38 43 88 44 39 45
REMARK SMILES IDX 93 46 87 47 89 48 40 49 92 50 86 51 85 52 41 54 73 55 53 56
REMARK SMILES IDX 72 57 54 58 57 59 71 60 90 61 55 62 56 63 70 65 91 66 58 67
REMARK SMILES IDX 42 68 43 69 51 70 44 71 50 72 52 73 49 74 45 75 46 76 47 77
REMARK SMILES IDX 48 78 74 79 75 80 83 81 76 82 82 83 84 84 81 85 77 86 78 87
REMARK SMILES IDX 79 88 80 89 59 90 60 91 68 92 61 93 67 94 69 95 66 96 62 97
REMARK SMILES IDX 63 98 64 99 65 100
REMARK H PARENT 26 5 17 15 30 34 89 53 57 64
REMARK Flexibility Score: inf
ROOT
ATOM      1  C   UNL A   1      42.375  19.181  26.399  1.00  0.00     0.118 C 
ENDROOT
BRANCH   1   2
ATOM      2  N   UNL A   1      41.038  18.834  26.007  1.00  0.00    -0.352 N 
ATOM      3  C   UNL A   1      39.976  19.708  25.845  1.00  0.00     0.253 C 
ATOM      4  O   UNL A   1      38.966  19.290  25.274  1.00  0.00    -0.269 OA
ATOM      5  H   UNL A   1      40.859  17.881  25.835  1.00  0.00     0.163 HD
BRANCH   3   6
ATOM      6  C   UNL A   1      39.927  21.040  26.531  1.00  0.00     0.063 A 
ATOM      7  C   UNL A   1      39.294  22.231  26.117  1.00  0.00     0.054 A 
ATOM      8  C   UNL A   1      39.683  23.444  26.725  1.00  0.00     0.027 A 
ATOM      9  C   UNL A   1      40.576  23.478  27.798  1.00  0.00     0.002 A 
ATOM     10  C   UNL A   1      40.804  21.095  27.642  1.00  0.00     0.016 A 
ATOM     11  C   UNL A   1      41.115  22.296  28.278  1.00  0.00     0.001 A 
BRANCH   7  12
ATOM     12  N   UNL A   1      38.327  22.393  25.095  1.00  0.00    -0.324 N 
ATOM     13  O   UNL A   1      36.496  23.107  26.288  1.00  0.00    -0.273 OA
ATOM     14  C   UNL A   1      36.993  22.737  25.227  1.00  0.00     0.244 C 
ATOM     15  H   UNL A   1      38.642  22.242  24.176  1.00  0.00     0.170 HD
BRANCH  14  16
ATOM     16  C   UNL A   1      36.092  22.402  23.995  1.00  0.00     0.227 C 
BRANCH  16  17
ATOM     17  N   UNL A   1      34.670  22.153  24.225  1.00  0.00    -0.283 N 
ATOM     18  C   UNL A   1      34.286  20.901  24.651  1.00  0.00     0.266 C 
ATOM     19  C   UNL A   1      33.696  23.126  24.267  1.00  0.00     0.148 C 
ATOM     20  O   UNL A   1      35.068  19.973  24.834  1.00  0.00    -0.268 OA
ATOM     21  C   UNL A   1      32.813  20.815  24.797  1.00  0.00     0.081 C 
ATOM     22  S   UNL A   1      32.154  22.405  24.741  1.00  0.00    -0.054 SA
ATOM     23  S   UNL A   1      33.837  24.754  23.939  1.00  0.00    -0.052 S 
ATOM     24  C   UNL A   1      32.073  19.697  24.828  1.00  0.00     0.040 C 
BRANCH  24  25
ATOM     25  C   UNL A   1      32.651  18.406  24.686  1.00  0.00     0.028 A 
ATOM     26  C   UNL A   1      33.020  17.493  25.657  1.00  0.00     0.020 A 
ATOM     27  S   UNL A   1      33.022  17.809  23.115  1.00  0.00    -0.144 S 
ATOM     28  C   UNL A   1      33.678  16.348  25.117  1.00  0.00     0.012 A 
ATOM     29  C   UNL A   1      33.753  16.399  23.744  1.00  0.00     0.065 A 
ENDBRANCH  24  25
ENDBRANCH  16  17
ENDBRANCH  14  16
ENDBRANCH   7  12
ENDBRANCH   3   6
ENDBRANCH   1   2
BRANCH   1  30
ATOM     30  C   UNL A   1      43.406  18.088  26.547  1.00  0.00     0.042 C 
BRANCH  30  31
ATOM     31  C   UNL A   1      44.804  18.439  26.052  1.00  0.00     0.118 C 
BRANCH  31  32
ATOM     32  N   UNL A   1      44.917  18.661  24.606  1.00  0.00    -0.352 N 
ATOM     33  C   UNL A   1      44.868  19.803  23.832  1.00  0.00     0.251 C 
ATOM     34  H   UNL A   1      45.052  17.836  24.087  1.00  0.00     0.163 HD
ATOM     35  O   UNL A   1      44.784  19.683  22.611  1.00  0.00    -0.269 OA
BRANCH  33  36
ATOM     36  C   UNL A   1      44.864  21.152  24.449  1.00  0.00     0.039 A 
ATOM     37  C   UNL A   1      45.525  21.375  25.662  1.00  0.00     0.014 A 
ATOM     38  C   UNL A   1      44.219  22.214  23.825  1.00  0.00     0.014 A 
ATOM     39  C   UNL A   1      45.646  22.678  26.162  1.00  0.00     0.010 A 
ATOM     40  C   UNL A   1      44.476  23.515  24.229  1.00  0.00     0.010 A 
ATOM     41  C   UNL A   1      45.186  23.771  25.409  1.00  0.00    -0.014 A 
BRANCH  41  42
ATOM     42  C   UNL A   1      45.400  25.186  25.818  1.00  0.00     0.031 A 
ATOM     43  C   UNL A   1      46.790  25.774  25.772  1.00  0.00     0.074 A 
ATOM     44  C   UNL A   1      44.383  25.899  26.343  1.00  0.00     0.049 A 
ATOM     45  N   UNL A   1      47.229  26.909  26.248  1.00  0.00    -0.248 NA
ATOM     46  C   UNL A   1      47.836  24.938  25.159  1.00  0.00     0.031 C 
ATOM     47  C   UNL A   1      43.006  25.424  26.502  1.00  0.00     0.029 A 
ATOM     48  N   UNL A   1      44.350  27.172  26.859  1.00  0.00    -0.354 N 
ATOM     49  C   UNL A   1      48.604  26.905  26.027  1.00  0.00     0.074 A 
ATOM     50  C   UNL A   1      48.932  25.618  25.456  1.00  0.00     0.031 C 
ATOM     51  C   UNL A   1      42.259  26.402  27.039  1.00  0.00     0.029 A 
ATOM     52  C   UNL A   1      43.111  27.552  27.323  1.00  0.00     0.049 A 
ATOM     53  H   UNL A   1      45.141  27.758  26.895  1.00  0.00     0.167 HD
ATOM     54  C   UNL A   1      49.505  27.895  26.246  1.00  0.00     0.034 A 
ATOM     55  C   UNL A   1      42.708  28.691  27.922  1.00  0.00     0.034 A 
ATOM     56  C   UNL A   1      49.150  29.185  26.782  1.00  0.00     0.049 A 
ATOM     57  C   UNL A   1      43.723  29.782  28.154  1.00  0.00     0.074 A 
ATOM     58  C   UNL A   1      49.958  30.290  26.979  1.00  0.00     0.029 A 
ATOM     59  N   UNL A   1      47.876  29.544  27.209  1.00  0.00    -0.354 N 
ATOM     60  N   UNL A   1      45.010  29.784  27.887  1.00  0.00    -0.248 NA
ATOM     61  C   UNL A   1      43.231  31.026  28.757  1.00  0.00     0.031 C 
ATOM     62  C   UNL A   1      49.193  31.288  27.593  1.00  0.00     0.029 A 
ATOM     63  C   UNL A   1      47.886  30.840  27.697  1.00  0.00     0.049 A 
ATOM     64  H   UNL A   1      47.083  28.961  27.171  1.00  0.00     0.167 HD
ATOM     65  C   UNL A   1      45.473  31.043  28.260  1.00  0.00     0.074 A 
ATOM     66  C   UNL A   1      44.324  31.774  28.755  1.00  0.00     0.031 C 
ATOM     67  C   UNL A   1      46.730  31.551  28.196  1.00  0.00     0.034 A 
BRANCH  54  68
ATOM     68  C   UNL A   1      50.954  27.604  25.920  1.00  0.00     0.023 A 
ATOM     69  C   UNL A   1      51.484  27.831  24.637  1.00  0.00     0.031 A 
ATOM     70  C   UNL A   1      51.807  27.050  26.890  1.00  0.00     0.131 A 
ATOM     71  C   UNL A   1      52.788  27.413  24.330  1.00  0.00     0.055 A 
ATOM     72  C   UNL A   1      53.137  26.728  26.605  1.00  0.00     0.041 A 
ATOM     73  F   UNL A   1      51.359  26.789  28.127  1.00  0.00    -0.206 F 
ATOM     74  C   UNL A   1      53.629  26.890  25.313  1.00  0.00     0.022 A 
BRANCH  71  75
ATOM     75  S   UNL A   1      53.302  27.400  22.590  1.00  0.00     0.124 S 
ATOM     76  O   UNL A   1      53.086  26.000  22.232  1.00  0.00    -0.237 OA
ATOM     77  O   UNL A   1      52.391  28.363  21.984  1.00  0.00    -0.237 OA
ATOM     78  O   UNL A   1      54.703  27.813  22.644  1.00  0.00    -0.744 OA
ENDBRANCH  71  75
ENDBRANCH  54  68
BRANCH  55  79
ATOM     79  C   UNL A   1      41.287  28.864  28.342  1.00  0.00     0.023 A 
ATOM     80  C   UNL A   1      40.912  28.740  29.690  1.00  0.00     0.031 A 
ATOM     81  C   UNL A   1      40.276  29.129  27.401  1.00  0.00     0.131 A 
ATOM     82  C   UNL A   1      39.560  28.837  30.054  1.00  0.00     0.055 A 
ATOM     83  C   UNL A   1      38.939  29.280  27.775  1.00  0.00     0.041 A 
ATOM     84  F   UNL A   1      40.578  29.265  26.100  1.00  0.00    -0.206 F 
ATOM     85  C   UNL A   1      38.574  29.122  29.108  1.00  0.00     0.022 A 
BRANCH  82  86
ATOM     86  S   UNL A   1      39.098  28.506  31.777  1.00  0.00     0.124 S 
ATOM     87  O   UNL A   1      38.553  27.157  31.684  1.00  0.00    -0.237 OA
ATOM     88  O   UNL A   1      40.378  28.637  32.463  1.00  0.00    -0.237 OA
ATOM     89  O   UNL A   1      38.125  29.556  32.074  1.00  0.00    -0.744 OA
ENDBRANCH  82  86
ENDBRANCH  55  79
BRANCH  67  90
ATOM     90  C   UNL A   1      46.914  32.987  28.627  1.00  0.00     0.023 A 
ATOM     91  C   UNL A   1      46.672  34.061  27.753  1.00  0.00     0.031 A 
ATOM     92  C   UNL A   1      47.348  33.281  29.932  1.00  0.00     0.131 A 
ATOM     93  C   UNL A   1      46.922  35.374  28.175  1.00  0.00     0.055 A 
ATOM     94  C   UNL A   1      47.528  34.593  30.368  1.00  0.00     0.041 A 
ATOM     95  F   UNL A   1      47.600  32.295  30.808  1.00  0.00    -0.206 F 
ATOM     96  C   UNL A   1      47.330  35.649  29.485  1.00  0.00     0.022 A 
BRANCH  93  97
ATOM     97  S   UNL A   1      46.814  36.714  26.958  1.00  0.00     0.124 S 
ATOM     98  O   UNL A   1      47.485  37.808  27.652  1.00  0.00    -0.237 OA
ATOM     99  O   UNL A   1      47.525  36.154  25.814  1.00  0.00    -0.237 OA
ATOM    100  O   UNL A   1      45.375  36.889  26.769  1.00  0.00    -0.744 OA
ENDBRANCH  93  97
ENDBRANCH  67  90
ENDBRANCH  41  42
ENDBRANCH  33  36
ENDBRANCH  31  32
ENDBRANCH  30  31
ENDBRANCH   1  30
TORSDOF 17
ENDMDL
MODEL 2
REMARK VINA RESULT:     -11.3      6.000     15.020
REMARK SMILES O=C(CN1C(=O)/C(=C\c2cccs2)SC1=S)Nc1ccccc1C(=O)NCCCNC(=O)c1ccc(-c2c3nc(c(-c4cc(S(=O)(=O)[O-])ccc4F)c4ccc([nH]4)c(-c4cc(S(=O)(=O)[O-])ccc4F)c4nc(c(-c5cc(S(=O)(=O)[O-])ccc5F)c5ccc2[nH]5)C=C4)C=C3)cc1
REMARK SMILES IDX 27 1 26 2 24 3 25 4 23 6 18 7 19 8 20 9 22 10 21 11 17 12
REMARK SMILES IDX 1 13 2 14 3 16 4 17 5 18 15 19 6 20 7 21 14 22 16 23 8 24
REMARK SMILES IDX 9 25 10 26 13 27 11 28 12 29 28 30 29 31 30 32 31 33 32 35
REMARK SMILES IDX 33 36 34 37 95 38 35 39 94 40 36 41 37 42 38 43 88 44 39 45
REMARK SMILES IDX 93 46 87 47 89 48 40 49 92 50 86 51 85 52 41 54 73 55 53 56
REMARK SMILES IDX 72 57 54 58 57 59 71 60 90 61 55 62 56 63 70 65 91 66 58 67
REMARK SMILES IDX 42 68 43 69 51 70 44 71 50 72 52 73 49 74 45 75 46 76 47 77
REMARK SMILES IDX 48 78 74 79 75 80 83 81 76 82 82 83 84 84 81 85 77 86 78 87
REMARK SMILES IDX 79 88 80 89 59 90 60 91 68 92 61 93 67 94 69 95 66 96 62 97
REMARK SMILES IDX 63 98 64 99 65 100
REMARK H PARENT 26 5 17 15 30 34 89 53 57 64
REMARK Flexibility Score: inf
ROOT
ATOM      1  C   UNL A   1      42.149  40.601  29.830  1.00  0.00     0.118 C 
ENDROOT
BRANCH   1   2
ATOM      2  N   UNL A   1      41.999  40.917  28.437  1.00  0.00    -0.352 N 
ATOM      3  C   UNL A   1      41.918  40.010  27.393  1.00  0.00     0.253 C 
ATOM      4  O   UNL A   1      41.549  40.428  26.293  1.00  0.00    -0.269 OA
ATOM      5  H   UNL A   1      41.948  41.871  28.201  1.00  0.00     0.163 HD
BRANCH   3   6
ATOM      6  C   UNL A   1      42.474  38.621  27.497  1.00  0.00     0.063 A 
ATOM      7  C   UNL A   1      43.681  38.106  26.981  1.00  0.00     0.054 A 
ATOM      8  C   UNL A   1      43.825  36.705  26.880  1.00  0.00     0.027 A 
ATOM      9  C   UNL A   1      42.864  35.827  27.387  1.00  0.00     0.002 A 
ATOM     10  C   UNL A   1      41.529  37.713  28.034  1.00  0.00     0.016 A 
ATOM     11  C   UNL A   1      41.726  36.334  27.993  1.00  0.00     0.001 A 
BRANCH   7  12
ATOM     12  N   UNL A   1      44.791  38.827  26.476  1.00  0.00    -0.324 N 
ATOM     13  O   UNL A   1      45.259  40.252  28.219  1.00  0.00    -0.273 OA
ATOM     14  C   UNL A   1      45.461  39.886  27.063  1.00  0.00     0.244 C 
ATOM     15  H   UNL A   1      45.127  38.541  25.597  1.00  0.00     0.170 HD
BRANCH  14  16
ATOM     16  C   UNL A   1      46.329  40.747  26.091  1.00  0.00     0.227 C 
BRANCH  16  17
ATOM     17  N   UNL A   1      45.945  42.141  25.871  1.00  0.00    -0.283 N 
ATOM     18  C   UNL A   1      44.813  42.398  25.131  1.00  0.00     0.266 C 
ATOM     19  C   UNL A   1      46.492  43.222  26.526  1.00  0.00     0.148 C 
ATOM     20  O   UNL A   1      44.114  41.524  24.628  1.00  0.00    -0.268 OA
ATOM     21  C   UNL A   1      44.595  43.856  24.977  1.00  0.00     0.081 C 
ATOM     22  S   UNL A   1      45.617  44.692  26.082  1.00  0.00    -0.054 SA
ATOM     23  S   UNL A   1      47.776  43.255  27.587  1.00  0.00    -0.052 S 
ATOM     24  C   UNL A   1      43.842  44.462  24.047  1.00  0.00     0.040 C 
BRANCH  24  25
ATOM     25  C   UNL A   1      43.159  43.732  23.037  1.00  0.00     0.028 A 
ATOM     26  C   UNL A   1      41.867  43.239  23.025  1.00  0.00     0.020 A 
ATOM     27  S   UNL A   1      43.984  43.314  21.585  1.00  0.00    -0.144 S 
ATOM     28  C   UNL A   1      41.586  42.454  21.869  1.00  0.00     0.012 A 
ATOM     29  C   UNL A   1      42.657  42.405  21.008  1.00  0.00     0.065 A 
ENDBRANCH  24  25
ENDBRANCH  16  17
ENDBRANCH  14  16
ENDBRANCH   7  12
ENDBRANCH   3   6
ENDBRANCH   1   2
BRANCH   1  30
ATOM     30  C   UNL A   1      42.752  41.629  30.757  1.00  0.00     0.042 C 
BRANCH  30  31
ATOM     31  C   UNL A   1      42.468  41.416  32.240  1.00  0.00     0.118 C 
BRANCH  31  32
ATOM     32  N   UNL A   1      43.644  41.112  33.063  1.00  0.00    -0.352 N 
ATOM     33  C   UNL A   1      44.275  39.928  33.385  1.00  0.00     0.251 C 
ATOM     34  H   UNL A   1      44.063  41.907  33.465  1.00  0.00     0.163 HD
ATOM     35  O   UNL A   1      45.129  39.938  34.271  1.00  0.00    -0.269 OA
BRANCH  33  36
ATOM     36  C   UNL A   1      43.906  38.654  32.721  1.00  0.00     0.039 A 
ATOM     37  C   UNL A   1      44.076  38.502  31.341  1.00  0.00     0.014 A 
ATOM     38  C   UNL A   1      43.404  37.589  33.462  1.00  0.00     0.014 A 
ATOM     39  C   UNL A   1      43.870  37.250  30.745  1.00  0.00     0.010 A 
ATOM     40  C   UNL A   1      43.357  36.319  32.908  1.00  0.00     0.010 A 
ATOM     41  C   UNL A   1      43.580  36.128  31.538  1.00  0.00    -0.014 A 
BRANCH  41  42
ATOM     42  C   UNL A   1      43.479  34.749  30.986  1.00  0.00     0.031 A 
ATOM     43  C   UNL A   1      44.695  34.101  30.371  1.00  0.00     0.074 A 
ATOM     44  C   UNL A   1      42.281  34.132  30.925  1.00  0.00     0.049 A 
ATOM     45  N   UNL A   1      44.789  32.997  29.677  1.00  0.00    -0.248 NA
ATOM     46  C   UNL A   1      45.967  34.831  30.505  1.00  0.00     0.031 C 
ATOM     47  C   UNL A   1      41.018  34.677  31.428  1.00  0.00     0.029 A 
ATOM     48  N   UNL A   1      41.924  32.915  30.398  1.00  0.00    -0.354 N 
ATOM     49  C   UNL A   1      46.116  32.922  29.262  1.00  0.00     0.074 A 
ATOM     50  C   UNL A   1      46.762  34.136  29.708  1.00  0.00     0.031 C 
ATOM     51  C   UNL A   1      40.036  33.786  31.218  1.00  0.00     0.029 A 
ATOM     52  C   UNL A   1      40.582  32.632  30.512  1.00  0.00     0.049 A 
ATOM     53  H   UNL A   1      42.568  32.302  29.975  1.00  0.00     0.167 HD
ATOM     54  C   UNL A   1      46.746  31.920  28.601  1.00  0.00     0.034 A 
ATOM     55  C   UNL A   1      39.867  31.572  30.083  1.00  0.00     0.034 A 
ATOM     56  C   UNL A   1      46.090  30.701  28.198  1.00  0.00     0.049 A 
ATOM     57  C   UNL A   1      40.586  30.465  29.353  1.00  0.00     0.074 A 
ATOM     58  C   UNL A   1      46.638  29.586  27.591  1.00  0.00     0.029 A 
ATOM     59  N   UNL A   1      44.735  30.438  28.361  1.00  0.00    -0.354 N 
ATOM     60  N   UNL A   1      41.854  30.384  29.018  1.00  0.00    -0.248 NA
ATOM     61  C   UNL A   1      39.782  29.305  28.954  1.00  0.00     0.031 C 
ATOM     62  C   UNL A   1      45.605  28.682  27.320  1.00  0.00     0.029 A 
ATOM     63  C   UNL A   1      44.425  29.193  27.837  1.00  0.00     0.049 A 
ATOM     64  H   UNL A   1      44.088  31.048  28.786  1.00  0.00     0.167 HD
ATOM     65  C   UNL A   1      42.004  29.146  28.397  1.00  0.00     0.074 A 
ATOM     66  C   UNL A   1      40.700  28.513  28.421  1.00  0.00     0.031 C 
ATOM     67  C   UNL A   1      43.116  28.581  27.861  1.00  0.00     0.034 A 
BRANCH  54  68
ATOM     68  C   UNL A   1      48.209  32.117  28.264  1.00  0.00     0.023 A 
ATOM     69  C   UNL A   1      48.626  33.051  27.298  1.00  0.00     0.031 A 
ATOM     70  C   UNL A   1      49.197  31.332  28.882  1.00  0.00     0.131 A 
ATOM     71  C   UNL A   1      49.972  33.104  26.906  1.00  0.00     0.055 A 
ATOM     72  C   UNL A   1      50.550  31.459  28.558  1.00  0.00     0.041 A 
ATOM     73  F   UNL A   1      48.864  30.408  29.797  1.00  0.00    -0.206 F 
ATOM     74  C   UNL A   1      50.942  32.335  27.550  1.00  0.00     0.022 A 
BRANCH  71  75
ATOM     75  S   UNL A   1      50.401  34.059  25.424  1.00  0.00     0.124 S 
ATOM     76  O   UNL A   1      50.991  33.028  24.573  1.00  0.00    -0.237 OA
ATOM     77  O   UNL A   1      49.107  34.577  24.997  1.00  0.00    -0.237 OA
ATOM     78  O   UNL A   1      51.343  35.060  25.923  1.00  0.00    -0.744 OA
ENDBRANCH  71  75
ENDBRANCH  54  68
BRANCH  55  79
ATOM     79  C   UNL A   1      38.398  31.499  30.330  1.00  0.00     0.023 A 
ATOM     80  C   UNL A   1      37.480  31.975  29.379  1.00  0.00     0.031 A 
ATOM     81  C   UNL A   1      37.885  30.979  31.532  1.00  0.00     0.131 A 
ATOM     82  C   UNL A   1      36.106  31.961  29.661  1.00  0.00     0.055 A 
ATOM     83  C   UNL A   1      36.514  30.915  31.786  1.00  0.00     0.041 A 
ATOM     84  F   UNL A   1      38.716  30.503  32.475  1.00  0.00    -0.206 F 
ATOM     85  C   UNL A   1      35.616  31.420  30.851  1.00  0.00     0.022 A 
BRANCH  82  86
ATOM     86  S   UNL A   1      34.968  32.735  28.478  1.00  0.00     0.124 S 
ATOM     87  O   UNL A   1      34.296  31.572  27.909  1.00  0.00    -0.237 OA
ATOM     88  O   UNL A   1      34.160  33.583  29.347  1.00  0.00    -0.237 OA
ATOM     89  O   UNL A   1      35.860  33.450  27.568  1.00  0.00    -0.744 OA
ENDBRANCH  82  86
ENDBRANCH  55  79
BRANCH  67  90
ATOM     90  C   UNL A   1      42.977  27.185  27.303  1.00  0.00     0.023 A 
ATOM     91  C   UNL A   1      43.325  26.048  28.052  1.00  0.00     0.031 A 
ATOM     92  C   UNL A   1      42.496  26.994  25.995  1.00  0.00     0.131 A 
ATOM     93  C   UNL A   1      43.244  24.776  27.467  1.00  0.00     0.055 A 
ATOM     94  C   UNL A   1      42.351  25.721  25.444  1.00  0.00     0.041 A 
ATOM     95  F   UNL A   1      42.153  28.044  25.231  1.00  0.00    -0.206 F 
ATOM     96  C   UNL A   1      42.740  24.603  26.174  1.00  0.00     0.022 A 
BRANCH  93  97
ATOM     97  S   UNL A   1      43.909  23.357  28.380  1.00  0.00     0.124 S 
ATOM     98  O   UNL A   1      44.273  22.446  27.299  1.00  0.00    -0.237 OA
ATOM     99  O   UNL A   1      45.020  23.951  29.114  1.00  0.00    -0.237 OA
ATOM    100  O   UNL A   1      42.782  22.921  29.204  1.00  0.00    -0.744 OA
ENDBRANCH  93  97
ENDBRANCH  67  90
ENDBRANCH  41  42
ENDBRANCH  33  36
ENDBRANCH  31  32
ENDBRANCH  30  31
ENDBRANCH   1  30
TORSDOF 17
ENDMDL
MODEL 3
REMARK VINA RESULT:     -11.2      6.145     11.634
REMARK SMILES O=C(CN1C(=O)/C(=C\c2cccs2)SC1=S)Nc1ccccc1C(=O)NCCCNC(=O)c1ccc(-c2c3nc(c(-c4cc(S(=O)(=O)[O-])ccc4F)c4ccc([nH]4)c(-c4cc(S(=O)(=O)[O-])ccc4F)c4nc(c(-c5cc(S(=O)(=O)[O-])ccc5F)c5ccc2[nH]5)C=C4)C=C3)cc1
REMARK SMILES IDX 27 1 26 2 24 3 25 4 23 6 18 7 19 8 20 9 22 10 21 11 17 12
REMARK SMILES IDX 1 13 2 14 3 16 4 17 5 18 15 19 6 20 7 21 14 22 16 23 8 24
REMARK SMILES IDX 9 25 10 26 13 27 11 28 12 29 28 30 29 31 30 32 31 33 32 35
REMARK SMILES IDX 33 36 34 37 95 38 35 39 94 40 36 41 37 42 38 43 88 44 39 45
REMARK SMILES IDX 93 46 87 47 89 48 40 49 92 50 86 51 85 52 41 54 73 55 53 56
REMARK SMILES IDX 72 57 54 58 57 59 71 60 90 61 55 62 56 63 70 65 91 66 58 67
REMARK SMILES IDX 42 68 43 69 51 70 44 71 50 72 52 73 49 74 45 75 46 76 47 77
REMARK SMILES IDX 48 78 74 79 75 80 83 81 76 82 82 83 84 84 81 85 77 86 78 87
REMARK SMILES IDX 79 88 80 89 59 90 60 91 68 92 61 93 67 94 69 95 66 96 62 97
REMARK SMILES IDX 63 98 64 99 65 100
REMARK H PARENT 26 5 17 15 30 34 89 53 57 64
REMARK Flexibility Score: inf
ROOT
ATOM      1  C   UNL A   1      33.581  34.443  28.640  1.00  0.00     0.118 C 
ENDROOT
BRANCH   1   2
ATOM      2  N   UNL A   1      32.663  33.831  27.720  1.00  0.00    -0.352 N 
ATOM      3  C   UNL A   1      32.609  32.488  27.386  1.00  0.00     0.253 C 
ATOM      4  O   UNL A   1      31.618  32.085  26.774  1.00  0.00    -0.269 OA
ATOM      5  H   UNL A   1      32.008  34.423  27.286  1.00  0.00     0.163 HD
BRANCH   3   6
ATOM      6  C   UNL A   1      33.794  31.580  27.534  1.00  0.00     0.063 A 
ATOM      7  C   UNL A   1      34.013  30.305  26.971  1.00  0.00     0.054 A 
ATOM      8  C   UNL A   1      35.016  29.487  27.533  1.00  0.00     0.027 A 
ATOM      9  C   UNL A   1      35.869  29.951  28.537  1.00  0.00     0.002 A 
ATOM     10  C   UNL A   1      34.692  32.041  28.528  1.00  0.00     0.016 A 
ATOM     11  C   UNL A   1      35.726  31.243  29.015  1.00  0.00     0.001 A 
BRANCH   7  12
ATOM     12  N   UNL A   1      33.298  29.684  25.918  1.00  0.00    -0.324 N 
ATOM     13  O   UNL A   1      31.793  28.385  27.071  1.00  0.00    -0.273 OA
ATOM     14  C   UNL A   1      32.305  28.724  26.007  1.00  0.00     0.244 C 
ATOM     15  H   UNL A   1      33.538  29.970  25.007  1.00  0.00     0.170 HD
BRANCH  14  16
ATOM     16  C   UNL A   1      32.033  27.921  24.695  1.00  0.00     0.227 C 
BRANCH  16  17
ATOM     17  N   UNL A   1      30.646  27.631  24.336  1.00  0.00    -0.283 N 
ATOM     18  C   UNL A   1      30.023  28.449  23.420  1.00  0.00     0.266 C 
ATOM     19  C   UNL A   1      29.971  26.476  24.665  1.00  0.00     0.148 C 
ATOM     20  O   UNL A   1      30.559  29.422  22.899  1.00  0.00    -0.268 OA
ATOM     21  C   UNL A   1      28.617  28.034  23.203  1.00  0.00     0.081 C 
ATOM     22  S   UNL A   1      28.386  26.470  23.885  1.00  0.00    -0.054 SA
ATOM     23  S   UNL A   1      30.473  25.220  25.638  1.00  0.00    -0.052 S 
ATOM     24  C   UNL A   1      27.628  28.782  22.690  1.00  0.00     0.040 C 
BRANCH  24  25
ATOM     25  C   UNL A   1      27.828  30.137  22.309  1.00  0.00     0.028 A 
ATOM     26  C   UNL A   1      28.100  30.671  21.062  1.00  0.00     0.020 A 
ATOM     27  S   UNL A   1      27.783  31.373  23.505  1.00  0.00    -0.144 S 
ATOM     28  C   UNL A   1      28.351  32.074  21.105  1.00  0.00     0.012 A 
ATOM     29  C   UNL A   1      28.220  32.580  22.378  1.00  0.00     0.065 A 
ENDBRANCH  24  25
ENDBRANCH  16  17
ENDBRANCH  14  16
ENDBRANCH   7  12
ENDBRANCH   3   6
ENDBRANCH   1   2
BRANCH   1  30
ATOM     30  C   UNL A   1      33.080  35.523  29.569  1.00  0.00     0.042 C 
BRANCH  30  31
ATOM     31  C   UNL A   1      33.853  35.669  30.876  1.00  0.00     0.118 C 
BRANCH  31  32
ATOM     32  N   UNL A   1      33.445  34.754  31.947  1.00  0.00    -0.352 N 
ATOM     33  C   UNL A   1      34.029  33.621  32.478  1.00  0.00     0.251 C 
ATOM     34  H   UNL A   1      32.589  34.994  32.370  1.00  0.00     0.163 HD
ATOM     35  O   UNL A   1      33.365  32.921  33.242  1.00  0.00    -0.269 OA
BRANCH  33  36
ATOM     36  C   UNL A   1      35.406  33.218  32.105  1.00  0.00     0.039 A 
ATOM     37  C   UNL A   1      36.164  34.012  31.237  1.00  0.00     0.014 A 
ATOM     38  C   UNL A   1      35.968  32.056  32.623  1.00  0.00     0.014 A 
ATOM     39  C   UNL A   1      37.512  33.707  31.009  1.00  0.00     0.010 A 
ATOM     40  C   UNL A   1      37.335  31.846  32.530  1.00  0.00     0.010 A 
ATOM     41  C   UNL A   1      38.130  32.661  31.714  1.00  0.00    -0.014 A 
BRANCH  41  42
ATOM     42  C   UNL A   1      39.587  32.368  31.618  1.00  0.00     0.031 A 
ATOM     43  C   UNL A   1      40.569  33.207  32.398  1.00  0.00     0.074 A 
ATOM     44  C   UNL A   1      40.033  31.440  30.746  1.00  0.00     0.049 A 
ATOM     45  N   UNL A   1      41.874  33.245  32.323  1.00  0.00    -0.248 NA
ATOM     46  C   UNL A   1      39.997  34.177  33.346  1.00  0.00     0.031 C 
ATOM     47  C   UNL A   1      39.189  30.605  29.888  1.00  0.00     0.029 A 
ATOM     48  N   UNL A   1      41.310  31.054  30.422  1.00  0.00    -0.354 N 
ATOM     49  C   UNL A   1      42.273  34.266  33.182  1.00  0.00     0.074 A 
ATOM     50  C   UNL A   1      41.066  34.875  33.695  1.00  0.00     0.031 C 
ATOM     51  C   UNL A   1      39.967  29.784  29.166  1.00  0.00     0.029 A 
ATOM     52  C   UNL A   1      41.366  30.071  29.460  1.00  0.00     0.049 A 
ATOM     53  H   UNL A   1      42.113  31.444  30.839  1.00  0.00     0.167 HD
ATOM     54  C   UNL A   1      43.527  34.639  33.538  1.00  0.00     0.034 A 
ATOM     55  C   UNL A   1      42.424  29.479  28.869  1.00  0.00     0.034 A 
ATOM     56  C   UNL A   1      44.716  33.993  33.041  1.00  0.00     0.049 A 
ATOM     57  C   UNL A   1      43.811  29.904  29.280  1.00  0.00     0.074 A 
ATOM     58  C   UNL A   1      46.034  34.231  33.384  1.00  0.00     0.029 A 
ATOM     59  N   UNL A   1      44.730  32.978  32.091  1.00  0.00    -0.354 N 
ATOM     60  N   UNL A   1      44.171  30.833  30.137  1.00  0.00    -0.248 NA
ATOM     61  C   UNL A   1      44.933  29.195  28.654  1.00  0.00     0.031 C 
ATOM     62  C   UNL A   1      46.848  33.415  32.589  1.00  0.00     0.029 A 
ATOM     63  C   UNL A   1      46.035  32.603  31.814  1.00  0.00     0.049 A 
ATOM     64  H   UNL A   1      43.930  32.583  31.675  1.00  0.00     0.167 HD
ATOM     65  C   UNL A   1      45.563  30.794  30.176  1.00  0.00     0.074 A 
ATOM     66  C   UNL A   1      45.972  29.741  29.268  1.00  0.00     0.031 C 
ATOM     67  C   UNL A   1      46.425  31.556  30.898  1.00  0.00     0.034 A 
BRANCH  54  68
ATOM     68  C   UNL A   1      43.664  35.805  34.492  1.00  0.00     0.023 A 
ATOM     69  C   UNL A   1      43.583  37.138  34.049  1.00  0.00     0.031 A 
ATOM     70  C   UNL A   1      43.925  35.586  35.856  1.00  0.00     0.131 A 
ATOM     71  C   UNL A   1      43.861  38.191  34.933  1.00  0.00     0.055 A 
ATOM     72  C   UNL A   1      44.102  36.643  36.753  1.00  0.00     0.041 A 
ATOM     73  F   UNL A   1      44.036  34.340  36.340  1.00  0.00    -0.206 F 
ATOM     74  C   UNL A   1      44.091  37.956  36.288  1.00  0.00     0.022 A 
BRANCH  71  75
ATOM     75  S   UNL A   1      44.092  39.855  34.245  1.00  0.00     0.124 S 
ATOM     76  O   UNL A   1      42.815  40.074  33.571  1.00  0.00    -0.237 OA
ATOM     77  O   UNL A   1      44.332  40.658  35.438  1.00  0.00    -0.237 OA
ATOM     78  O   UNL A   1      45.241  39.700  33.354  1.00  0.00    -0.744 OA
ENDBRANCH  71  75
ENDBRANCH  54  68
BRANCH  55  79
ATOM     79  C   UNL A   1      42.221  28.425  27.833  1.00  0.00     0.023 A 
ATOM     80  C   UNL A   1      42.076  27.075  28.195  1.00  0.00     0.031 A 
ATOM     81  C   UNL A   1      42.195  28.743  26.464  1.00  0.00     0.131 A 
ATOM     82  C   UNL A   1      41.956  26.091  27.201  1.00  0.00     0.055 A 
ATOM     83  C   UNL A   1      42.019  27.768  25.481  1.00  0.00     0.041 A 
ATOM     84  F   UNL A   1      42.322  30.018  26.061  1.00  0.00    -0.206 F 
ATOM     85  C   UNL A   1      41.911  26.430  25.847  1.00  0.00     0.022 A 
BRANCH  82  86
ATOM     86  S   UNL A   1      41.938  24.347  27.702  1.00  0.00     0.124 S 
ATOM     87  O   UNL A   1      42.422  24.428  29.075  1.00  0.00    -0.237 OA
ATOM     88  O   UNL A   1      40.531  24.000  27.535  1.00  0.00    -0.237 OA
ATOM     89  O   UNL A   1      42.850  23.713  26.752  1.00  0.00    -0.744 OA
ENDBRANCH  82  86
ENDBRANCH  55  79
BRANCH  67  90
ATOM     90  C   UNL A   1      47.895  31.237  30.771  1.00  0.00     0.023 A 
ATOM     91  C   UNL A   1      48.525  30.294  31.600  1.00  0.00     0.031 A 
ATOM     92  C   UNL A   1      48.679  31.898  29.807  1.00  0.00     0.131 A 
ATOM     93  C   UNL A   1      49.907  30.081  31.492  1.00  0.00     0.055 A 
ATOM     94  C   UNL A   1      50.039  31.630  29.657  1.00  0.00     0.041 A 
ATOM     95  F   UNL A   1      48.132  32.813  28.990  1.00  0.00    -0.206 F 
ATOM     96  C   UNL A   1      50.665  30.729  30.512  1.00  0.00     0.022 A 
BRANCH  93  97
ATOM     97  S   UNL A   1      50.723  29.027  32.722  1.00  0.00     0.124 S 
ATOM     98  O   UNL A   1      51.626  28.237  31.891  1.00  0.00    -0.237 OA
ATOM     99  O   UNL A   1      51.355  30.004  33.600  1.00  0.00    -0.237 OA
ATOM    100  O   UNL A   1      49.617  28.279  33.319  1.00  0.00    -0.744 OA
ENDBRANCH  93  97
ENDBRANCH  67  90
ENDBRANCH  41  42
ENDBRANCH  33  36
ENDBRANCH  31  32
ENDBRANCH  30  31
ENDBRANCH   1  30
TORSDOF 17
ENDMDL
