MODEL 1
REMARK VINA RESULT:     -12.0      0.000      0.000
REMARK SMILES O=C(CCCc1nc(-c2ccc(Cl)c(Cl)c2)c(-c2ccccc2)o1)NCCCNC(=O)c1ccc(-c2c3nc(c(-c4cc(S(=O)(=O)[O-])ccc4F)c4ccc([nH]4)c(-c4cc(S(=O)(=O)[O-])ccc4F)c4nc(c(-c5cc(S(=O)(=O)[O-])ccc5F)c5ccc2[nH]5)C=C4)C=C3)cc1
REMARK SMILES IDX 26 1 25 2 1 3 2 4 3 6 4 7 5 8 6 9 7 10 24 11 8 12 17 13 9 14
REMARK SMILES IDX 10 15 16 16 11 17 14 18 12 19 15 20 13 21 18 22 19 23 23 24
REMARK SMILES IDX 20 25 22 26 21 27 27 28 28 29 29 30 30 31 31 33 32 34 33 35
REMARK SMILES IDX 94 36 34 37 93 38 35 39 36 40 37 41 87 42 38 43 92 44 86 45
REMARK SMILES IDX 88 46 39 47 91 48 85 49 84 50 40 52 72 53 52 54 71 55 53 56
REMARK SMILES IDX 56 57 70 58 89 59 54 60 55 61 69 63 90 64 57 65 41 66 42 67
REMARK SMILES IDX 50 68 43 69 49 70 51 71 48 72 44 73 45 74 46 75 47 76 73 77
REMARK SMILES IDX 74 78 82 79 75 80 81 81 83 82 80 83 76 84 77 85 78 86 79 87
REMARK SMILES IDX 58 88 59 89 67 90 60 91 66 92 68 93 65 94 61 95 62 96 63 97
REMARK SMILES IDX 64 98
REMARK H PARENT 25 5 29 32 88 51 56 62
REMARK Flexibility Score: inf
ROOT
ATOM      1  C   UNL A   1      31.823  29.291  25.570  1.00  0.00     0.117 C 
ENDROOT
BRANCH   1   2
ATOM      2  N   UNL A   1      31.050  28.383  24.747  1.00  0.00    -0.356 N 
ATOM      3  O   UNL A   1      32.855  27.563  23.584  1.00  0.00    -0.275 OA
ATOM      4  C   UNL A   1      31.654  27.554  23.830  1.00  0.00     0.220 C 
ATOM      5  H   UNL A   1      30.070  28.359  24.846  1.00  0.00     0.163 HD
BRANCH   4   6
ATOM      6  C   UNL A   1      30.710  26.560  23.191  1.00  0.00     0.100 C 
BRANCH   6   7
ATOM      7  C   UNL A   1      29.734  25.967  24.213  1.00  0.00     0.020 C 
BRANCH   7   8
ATOM      8  C   UNL A   1      30.348  25.335  25.470  1.00  0.00     0.098 C 
BRANCH   8   9
ATOM      9  C   UNL A   1      31.300  24.216  25.219  1.00  0.00     0.195 A 
ATOM     10  N   UNL A   1      31.018  22.942  25.020  1.00  0.00    -0.213 NA
ATOM     11  O   UNL A   1      32.632  24.518  25.146  1.00  0.00    -0.440 OA
ATOM     12  C   UNL A   1      32.251  22.358  24.849  1.00  0.00     0.117 A 
ATOM     13  C   UNL A   1      33.242  23.315  24.913  1.00  0.00     0.162 A 
BRANCH  12  14
ATOM     14  C   UNL A   1      32.462  20.939  24.671  1.00  0.00     0.006 A 
ATOM     15  C   UNL A   1      32.800  20.133  25.761  1.00  0.00     0.012 A 
ATOM     16  C   UNL A   1      32.297  20.358  23.406  1.00  0.00     0.032 A 
ATOM     17  C   UNL A   1      32.942  18.752  25.594  1.00  0.00     0.023 A 
ATOM     18  C   UNL A   1      32.452  18.979  23.235  1.00  0.00     0.060 A 
ATOM     19  C   UNL A   1      32.768  18.172  24.332  1.00  0.00     0.059 A 
ATOM     20  Cl  UNL A   1      32.237  18.344  21.641  1.00  0.00    -0.083 Cl
ATOM     21  Cl  UNL A   1      32.964  16.463  24.192  1.00  0.00    -0.083 Cl
ENDBRANCH  12  14
BRANCH  13  22
ATOM     22  C   UNL A   1      34.685  23.323  24.791  1.00  0.00     0.020 A 
ATOM     23  C   UNL A   1      35.491  23.589  25.906  1.00  0.00     0.012 A 
ATOM     24  C   UNL A   1      35.294  23.008  23.569  1.00  0.00     0.012 A 
ATOM     25  C   UNL A   1      36.882  23.522  25.803  1.00  0.00     0.001 A 
ATOM     26  C   UNL A   1      36.686  22.951  23.465  1.00  0.00     0.001 A 
ATOM     27  C   UNL A   1      37.478  23.202  24.584  1.00  0.00     0.000 A 
ENDBRANCH  13  22
ENDBRANCH   8   9
ENDBRANCH   7   8
ENDBRANCH   6   7
ENDBRANCH   4   6
ENDBRANCH   1   2
BRANCH   1  28
ATOM     28  C   UNL A   1      32.388  28.625  26.816  1.00  0.00     0.042 C 
BRANCH  28  29
ATOM     29  C   UNL A   1      33.789  29.091  27.203  1.00  0.00     0.118 C 
BRANCH  29  30
ATOM     30  N   UNL A   1      33.813  30.413  27.812  1.00  0.00    -0.352 N 
ATOM     31  C   UNL A   1      34.793  30.994  28.585  1.00  0.00     0.251 C 
ATOM     32  H   UNL A   1      33.017  30.970  27.647  1.00  0.00     0.163 HD
ATOM     33  O   UNL A   1      34.586  32.081  29.119  1.00  0.00    -0.269 OA
BRANCH  31  34
ATOM     34  C   UNL A   1      36.077  30.290  28.802  1.00  0.00     0.039 A 
ATOM     35  C   UNL A   1      37.114  30.468  27.881  1.00  0.00     0.014 A 
ATOM     36  C   UNL A   1      36.268  29.482  29.926  1.00  0.00     0.014 A 
ATOM     37  C   UNL A   1      38.372  29.913  28.136  1.00  0.00     0.010 A 
ATOM     38  C   UNL A   1      37.539  28.987  30.210  1.00  0.00     0.010 A 
ATOM     39  C   UNL A   1      38.608  29.208  29.326  1.00  0.00    -0.014 A 
BRANCH  39  40
ATOM     40  C   UNL A   1      39.959  28.699  29.687  1.00  0.00     0.031 A 
ATOM     41  C   UNL A   1      40.782  29.426  30.715  1.00  0.00     0.074 A 
ATOM     42  C   UNL A   1      40.487  27.654  29.018  1.00  0.00     0.049 A 
ATOM     43  N   UNL A   1      42.041  29.271  31.032  1.00  0.00    -0.248 NA
ATOM     44  C   UNL A   1      40.099  30.495  31.458  1.00  0.00     0.031 C 
ATOM     45  C   UNL A   1      39.800  26.875  27.984  1.00  0.00     0.029 A 
ATOM     46  N   UNL A   1      41.733  27.081  29.089  1.00  0.00    -0.354 N 
ATOM     47  C   UNL A   1      42.311  30.239  31.994  1.00  0.00     0.074 A 
ATOM     48  C   UNL A   1      41.094  31.004  32.168  1.00  0.00     0.031 C 
ATOM     49  C   UNL A   1      40.631  25.926  27.524  1.00  0.00     0.029 A 
ATOM     50  C   UNL A   1      41.926  26.060  28.185  1.00  0.00     0.049 A 
ATOM     51  H   UNL A   1      42.424  27.373  29.727  1.00  0.00     0.167 HD
ATOM     52  C   UNL A   1      43.462  30.458  32.677  1.00  0.00     0.034 A 
ATOM     53  C   UNL A   1      43.025  25.334  27.900  1.00  0.00     0.034 A 
ATOM     54  C   UNL A   1      44.660  29.672  32.507  1.00  0.00     0.049 A 
ATOM     55  C   UNL A   1      44.302  25.610  28.655  1.00  0.00     0.074 A 
ATOM     56  C   UNL A   1      45.866  29.781  33.178  1.00  0.00     0.029 A 
ATOM     57  N   UNL A   1      44.806  28.629  31.601  1.00  0.00    -0.354 N 
ATOM     58  N   UNL A   1      44.538  26.519  29.571  1.00  0.00    -0.248 NA
ATOM     59  C   UNL A   1      45.458  24.758  28.340  1.00  0.00     0.031 C 
ATOM     60  C   UNL A   1      46.758  28.847  32.639  1.00  0.00     0.029 A 
ATOM     61  C   UNL A   1      46.087  28.104  31.681  1.00  0.00     0.049 A 
ATOM     62  H   UNL A   1      44.103  28.310  30.990  1.00  0.00     0.167 HD
ATOM     63  C   UNL A   1      45.857  26.319  29.972  1.00  0.00     0.074 A 
ATOM     64  C   UNL A   1      46.364  25.208  29.195  1.00  0.00     0.031 C 
ATOM     65  C   UNL A   1      46.578  26.990  30.905  1.00  0.00     0.034 A 
BRANCH  52  66
ATOM     66  C   UNL A   1      43.482  31.614  33.647  1.00  0.00     0.023 A 
ATOM     67  C   UNL A   1      43.170  31.442  35.007  1.00  0.00     0.031 A 
ATOM     68  C   UNL A   1      43.785  32.913  33.201  1.00  0.00     0.131 A 
ATOM     69  C   UNL A   1      43.084  32.558  35.852  1.00  0.00     0.055 A 
ATOM     70  C   UNL A   1      43.782  34.008  34.068  1.00  0.00     0.041 A 
ATOM     71  F   UNL A   1      44.070  33.144  31.910  1.00  0.00    -0.206 F 
ATOM     72  C   UNL A   1      43.414  33.837  35.399  1.00  0.00     0.022 A 
BRANCH  69  73
ATOM     73  S   UNL A   1      42.387  32.331  37.511  1.00  0.00     0.124 S 
ATOM     74  O   UNL A   1      41.243  33.240  37.473  1.00  0.00    -0.237 OA
ATOM     75  O   UNL A   1      42.070  30.908  37.528  1.00  0.00    -0.237 OA
ATOM     76  O   UNL A   1      43.471  32.742  38.398  1.00  0.00    -0.744 OA
ENDBRANCH  69  73
ENDBRANCH  52  66
BRANCH  53  77
ATOM     77  C   UNL A   1      42.984  24.290  26.837  1.00  0.00     0.023 A 
ATOM     78  C   UNL A   1      42.339  23.062  27.057  1.00  0.00     0.031 A 
ATOM     79  C   UNL A   1      43.623  24.488  25.601  1.00  0.00     0.131 A 
ATOM     80  C   UNL A   1      42.386  22.062  26.073  1.00  0.00     0.055 A 
ATOM     81  C   UNL A   1      43.623  23.509  24.605  1.00  0.00     0.041 A 
ATOM     82  F   UNL A   1      44.249  25.646  25.337  1.00  0.00    -0.206 F 
ATOM     83  C   UNL A   1      43.012  22.281  24.844  1.00  0.00     0.022 A 
BRANCH  80  84
ATOM     84  S   UNL A   1      41.683  20.434  26.457  1.00  0.00     0.124 S 
ATOM     85  O   UNL A   1      42.167  19.632  25.340  1.00  0.00    -0.237 OA
ATOM     86  O   UNL A   1      42.276  20.149  27.759  1.00  0.00    -0.237 OA
ATOM     87  O   UNL A   1      40.243  20.681  26.471  1.00  0.00    -0.744 OA
ENDBRANCH  80  84
ENDBRANCH  53  77
BRANCH  65  88
ATOM     88  C   UNL A   1      47.971  26.489  31.192  1.00  0.00     0.023 A 
ATOM     89  C   UNL A   1      48.221  25.480  32.137  1.00  0.00     0.031 A 
ATOM     90  C   UNL A   1      49.065  27.028  30.491  1.00  0.00     0.131 A 
ATOM     91  C   UNL A   1      49.539  25.068  32.385  1.00  0.00     0.055 A 
ATOM     92  C   UNL A   1      50.368  26.580  30.707  1.00  0.00     0.041 A 
ATOM     93  F   UNL A   1      48.881  27.995  29.578  1.00  0.00    -0.206 F 
ATOM     94  C   UNL A   1      50.612  25.601  31.664  1.00  0.00     0.022 A 
BRANCH  91  95
ATOM     95  S   UNL A   1      49.846  23.864  33.707  1.00  0.00     0.124 S 
ATOM     96  O   UNL A   1      50.710  24.618  34.609  1.00  0.00    -0.237 OA
ATOM     97  O   UNL A   1      48.499  23.588  34.197  1.00  0.00    -0.237 OA
ATOM     98  O   UNL A   1      50.492  22.751  33.015  1.00  0.00    -0.744 OA
ENDBRANCH  91  95
ENDBRANCH  65  88
ENDBRANCH  39  40
ENDBRANCH  31  34
ENDBRANCH  29  30
ENDBRANCH  28  29
ENDBRANCH   1  28
TORSDOF 18
ENDMDL
MODEL 2
REMARK VINA RESULT:     -11.5      1.401      2.427
REMARK SMILES O=C(CCCc1nc(-c2ccc(Cl)c(Cl)c2)c(-c2ccccc2)o1)NCCCNC(=O)c1ccc(-c2c3nc(c(-c4cc(S(=O)(=O)[O-])ccc4F)c4ccc([nH]4)c(-c4cc(S(=O)(=O)[O-])ccc4F)c4nc(c(-c5cc(S(=O)(=O)[O-])ccc5F)c5ccc2[nH]5)C=C4)C=C3)cc1
REMARK SMILES IDX 26 1 25 2 1 3 2 4 3 6 4 7 5 8 6 9 7 10 24 11 8 12 17 13 9 14
REMARK SMILES IDX 10 15 16 16 11 17 14 18 12 19 15 20 13 21 18 22 19 23 23 24
REMARK SMILES IDX 20 25 22 26 21 27 27 28 28 29 29 30 30 31 31 33 32 34 33 35
REMARK SMILES IDX 94 36 34 37 93 38 35 39 36 40 37 41 87 42 38 43 92 44 86 45
REMARK SMILES IDX 88 46 39 47 91 48 85 49 84 50 40 52 72 53 52 54 71 55 53 56
REMARK SMILES IDX 56 57 70 58 89 59 54 60 55 61 69 63 90 64 57 65 41 66 42 67
REMARK SMILES IDX 50 68 43 69 49 70 51 71 48 72 44 73 45 74 46 75 47 76 73 77
REMARK SMILES IDX 74 78 82 79 75 80 81 81 83 82 80 83 76 84 77 85 78 86 79 87
REMARK SMILES IDX 58 88 59 89 67 90 60 91 66 92 68 93 65 94 61 95 62 96 63 97
REMARK SMILES IDX 64 98
REMARK H PARENT 25 5 29 32 88 51 56 62
REMARK Flexibility Score: inf
ROOT
ATOM      1  C   UNL A   1      31.733  29.401  26.194  1.00  0.00     0.117 C 
ENDROOT
BRANCH   1   2
ATOM      2  N   UNL A   1      31.338  28.353  25.274  1.00  0.00    -0.356 N 
ATOM      3  O   UNL A   1      30.386  29.772  23.736  1.00  0.00    -0.275 OA
ATOM      4  C   UNL A   1      30.717  28.642  24.082  1.00  0.00     0.220 C 
ATOM      5  H   UNL A   1      31.519  27.414  25.508  1.00  0.00     0.163 HD
BRANCH   4   6
ATOM      6  C   UNL A   1      30.537  27.441  23.181  1.00  0.00     0.100 C 
BRANCH   6   7
ATOM      7  C   UNL A   1      30.103  26.201  23.969  1.00  0.00     0.020 C 
BRANCH   7   8
ATOM      8  C   UNL A   1      30.216  24.849  23.251  1.00  0.00     0.098 C 
BRANCH   8   9
ATOM      9  C   UNL A   1      31.362  23.996  23.677  1.00  0.00     0.195 A 
ATOM     10  N   UNL A   1      32.544  24.387  24.114  1.00  0.00    -0.213 NA
ATOM     11  O   UNL A   1      31.187  22.640  23.657  1.00  0.00    -0.440 OA
ATOM     12  C   UNL A   1      33.209  23.208  24.355  1.00  0.00     0.117 A 
ATOM     13  C   UNL A   1      32.383  22.136  24.090  1.00  0.00     0.162 A 
BRANCH  12  14
ATOM     14  C   UNL A   1      34.586  23.123  24.785  1.00  0.00     0.006 A 
ATOM     15  C   UNL A   1      35.177  24.187  25.473  1.00  0.00     0.012 A 
ATOM     16  C   UNL A   1      35.327  21.959  24.542  1.00  0.00     0.032 A 
ATOM     17  C   UNL A   1      36.491  24.074  25.941  1.00  0.00     0.023 A 
ATOM     18  C   UNL A   1      36.644  21.851  24.998  1.00  0.00     0.060 A 
ATOM     19  C   UNL A   1      37.227  22.907  25.706  1.00  0.00     0.059 A 
ATOM     20  Cl  UNL A   1      37.490  20.384  24.650  1.00  0.00    -0.083 Cl
ATOM     21  Cl  UNL A   1      38.844  22.834  26.304  1.00  0.00    -0.083 Cl
ENDBRANCH  12  14
BRANCH  13  22
ATOM     22  C   UNL A   1      32.498  20.694  24.169  1.00  0.00     0.020 A 
ATOM     23  C   UNL A   1      32.660  20.061  25.408  1.00  0.00     0.012 A 
ATOM     24  C   UNL A   1      32.391  19.910  23.012  1.00  0.00     0.012 A 
ATOM     25  C   UNL A   1      32.694  18.667  25.490  1.00  0.00     0.001 A 
ATOM     26  C   UNL A   1      32.436  18.517  23.094  1.00  0.00     0.001 A 
ATOM     27  C   UNL A   1      32.581  17.897  24.334  1.00  0.00     0.000 A 
ENDBRANCH  13  22
ENDBRANCH   8   9
ENDBRANCH   7   8
ENDBRANCH   6   7
ENDBRANCH   4   6
ENDBRANCH   1   2
BRANCH   1  28
ATOM     28  C   UNL A   1      32.835  28.967  27.149  1.00  0.00     0.042 C 
BRANCH  28  29
ATOM     29  C   UNL A   1      34.090  29.834  27.106  1.00  0.00     0.118 C 
BRANCH  29  30
ATOM     30  N   UNL A   1      34.030  30.985  27.995  1.00  0.00    -0.352 N 
ATOM     31  C   UNL A   1      34.914  31.369  28.978  1.00  0.00     0.251 C 
ATOM     32  H   UNL A   1      33.248  31.572  27.876  1.00  0.00     0.163 HD
ATOM     33  O   UNL A   1      34.635  32.310  29.718  1.00  0.00    -0.269 OA
BRANCH  31  34
ATOM     34  C   UNL A   1      36.179  30.623  29.166  1.00  0.00     0.039 A 
ATOM     35  C   UNL A   1      37.302  30.991  28.421  1.00  0.00     0.014 A 
ATOM     36  C   UNL A   1      36.264  29.584  30.097  1.00  0.00     0.014 A 
ATOM     37  C   UNL A   1      38.535  30.382  28.675  1.00  0.00     0.010 A 
ATOM     38  C   UNL A   1      37.505  29.027  30.396  1.00  0.00     0.010 A 
ATOM     39  C   UNL A   1      38.657  29.429  29.698  1.00  0.00    -0.014 A 
BRANCH  39  40
ATOM     40  C   UNL A   1      39.971  28.840  30.076  1.00  0.00     0.031 A 
ATOM     41  C   UNL A   1      40.830  29.527  31.101  1.00  0.00     0.074 A 
ATOM     42  C   UNL A   1      40.436  27.755  29.424  1.00  0.00     0.049 A 
ATOM     43  N   UNL A   1      42.075  29.297  31.430  1.00  0.00    -0.248 NA
ATOM     44  C   UNL A   1      40.211  30.646  31.825  1.00  0.00     0.031 C 
ATOM     45  C   UNL A   1      39.709  27.008  28.395  1.00  0.00     0.029 A 
ATOM     46  N   UNL A   1      41.643  27.106  29.512  1.00  0.00    -0.354 N 
ATOM     47  C   UNL A   1      42.399  30.258  32.382  1.00  0.00     0.074 A 
ATOM     48  C   UNL A   1      41.231  31.101  32.537  1.00  0.00     0.031 C 
ATOM     49  C   UNL A   1      40.481  26.002  27.953  1.00  0.00     0.029 A 
ATOM     50  C   UNL A   1      41.777  26.063  28.622  1.00  0.00     0.049 A 
ATOM     51  H   UNL A   1      42.347  27.362  30.152  1.00  0.00     0.167 HD
ATOM     52  C   UNL A   1      43.557  30.413  33.071  1.00  0.00     0.034 A 
ATOM     53  C   UNL A   1      42.830  25.265  28.355  1.00  0.00     0.034 A 
ATOM     54  C   UNL A   1      44.704  29.551  32.920  1.00  0.00     0.049 A 
ATOM     55  C   UNL A   1      44.117  25.470  29.116  1.00  0.00     0.074 A 
ATOM     56  C   UNL A   1      45.910  29.593  33.599  1.00  0.00     0.029 A 
ATOM     57  N   UNL A   1      44.790  28.490  32.028  1.00  0.00    -0.354 N 
ATOM     58  N   UNL A   1      44.403  26.374  30.023  1.00  0.00    -0.248 NA
ATOM     59  C   UNL A   1      45.219  24.543  28.821  1.00  0.00     0.031 C 
ATOM     60  C   UNL A   1      46.744  28.597  33.079  1.00  0.00     0.029 A 
ATOM     61  C   UNL A   1      46.035  27.886  32.125  1.00  0.00     0.049 A 
ATOM     62  H   UNL A   1      44.073  28.208  31.416  1.00  0.00     0.167 HD
ATOM     63  C   UNL A   1      45.704  26.097  30.436  1.00  0.00     0.074 A 
ATOM     64  C   UNL A   1      46.146  24.946  29.678  1.00  0.00     0.031 C 
ATOM     65  C   UNL A   1      46.460  26.733  31.367  1.00  0.00     0.034 A 
BRANCH  52  66
ATOM     66  C   UNL A   1      43.643  31.578  34.027  1.00  0.00     0.023 A 
ATOM     67  C   UNL A   1      43.188  31.480  35.354  1.00  0.00     0.031 A 
ATOM     68  C   UNL A   1      44.156  32.815  33.598  1.00  0.00     0.131 A 
ATOM     69  C   UNL A   1      43.175  32.616  36.175  1.00  0.00     0.055 A 
ATOM     70  C   UNL A   1      44.222  33.920  34.449  1.00  0.00     0.041 A 
ATOM     71  F   UNL A   1      44.587  32.976  32.337  1.00  0.00    -0.206 F 
ATOM     72  C   UNL A   1      43.713  33.830  35.742  1.00  0.00     0.022 A 
BRANCH  69  73
ATOM     73  S   UNL A   1      42.305  32.522  37.763  1.00  0.00     0.124 S 
ATOM     74  O   UNL A   1      40.932  32.823  37.362  1.00  0.00    -0.237 OA
ATOM     75  O   UNL A   1      42.561  31.149  38.182  1.00  0.00    -0.237 OA
ATOM     76  O   UNL A   1      42.951  33.553  38.570  1.00  0.00    -0.744 OA
ENDBRANCH  69  73
ENDBRANCH  52  66
BRANCH  53  77
ATOM     77  C   UNL A   1      42.731  24.212  27.305  1.00  0.00     0.023 A 
ATOM     78  C   UNL A   1      42.143  22.968  27.585  1.00  0.00     0.031 A 
ATOM     79  C   UNL A   1      43.258  24.419  26.018  1.00  0.00     0.131 A 
ATOM     80  C   UNL A   1      42.137  21.962  26.606  1.00  0.00     0.055 A 
ATOM     81  C   UNL A   1      43.203  23.433  25.031  1.00  0.00     0.041 A 
ATOM     82  F   UNL A   1      43.825  25.593  25.697  1.00  0.00    -0.206 F 
ATOM     83  C   UNL A   1      42.651  22.190  25.327  1.00  0.00     0.022 A 
BRANCH  80  84
ATOM     84  S   UNL A   1      41.516  20.318  27.056  1.00  0.00     0.124 S 
ATOM     85  O   UNL A   1      40.598  20.038  25.959  1.00  0.00    -0.237 OA
ATOM     86  O   UNL A   1      42.744  19.530  27.084  1.00  0.00    -0.237 OA
ATOM     87  O   UNL A   1      40.888  20.537  28.357  1.00  0.00    -0.744 OA
ENDBRANCH  80  84
ENDBRANCH  53  77
BRANCH  65  88
ATOM     88  C   UNL A   1      47.817  26.149  31.670  1.00  0.00     0.023 A 
ATOM     89  C   UNL A   1      48.022  25.256  32.735  1.00  0.00     0.031 A 
ATOM     90  C   UNL A   1      48.919  26.487  30.864  1.00  0.00     0.131 A 
ATOM     91  C   UNL A   1      49.311  24.762  32.991  1.00  0.00     0.055 A 
ATOM     92  C   UNL A   1      50.187  25.954  31.094  1.00  0.00     0.041 A 
ATOM     93  F   UNL A   1      48.776  27.336  29.835  1.00  0.00    -0.206 F 
ATOM     94  C   UNL A   1      50.390  25.093  32.167  1.00  0.00     0.022 A 
BRANCH  91  95
ATOM     95  S   UNL A   1      49.575  23.721  34.454  1.00  0.00     0.124 S 
ATOM     96  O   UNL A   1      49.642  22.387  33.869  1.00  0.00    -0.237 OA
ATOM     97  O   UNL A   1      50.828  24.247  34.989  1.00  0.00    -0.237 OA
ATOM     98  O   UNL A   1      48.395  23.980  35.277  1.00  0.00    -0.744 OA
ENDBRANCH  91  95
ENDBRANCH  65  88
ENDBRANCH  39  40
ENDBRANCH  31  34
ENDBRANCH  29  30
ENDBRANCH  28  29
ENDBRANCH   1  28
TORSDOF 18
ENDMDL
MODEL 3
REMARK VINA RESULT:     -11.4      1.642      2.012
REMARK SMILES O=C(CCCc1nc(-c2ccc(Cl)c(Cl)c2)c(-c2ccccc2)o1)NCCCNC(=O)c1ccc(-c2c3nc(c(-c4cc(S(=O)(=O)[O-])ccc4F)c4ccc([nH]4)c(-c4cc(S(=O)(=O)[O-])ccc4F)c4nc(c(-c5cc(S(=O)(=O)[O-])ccc5F)c5ccc2[nH]5)C=C4)C=C3)cc1
REMARK SMILES IDX 26 1 25 2 1 3 2 4 3 6 4 7 5 8 6 9 7 10 24 11 8 12 17 13 9 14
REMARK SMILES IDX 10 15 16 16 11 17 14 18 12 19 15 20 13 21 18 22 19 23 23 24
REMARK SMILES IDX 20 25 22 26 21 27 27 28 28 29 29 30 30 31 31 33 32 34 33 35
REMARK SMILES IDX 94 36 34 37 93 38 35 39 36 40 37 41 87 42 38 43 92 44 86 45
REMARK SMILES IDX 88 46 39 47 91 48 85 49 84 50 40 52 72 53 52 54 71 55 53 56
REMARK SMILES IDX 56 57 70 58 89 59 54 60 55 61 69 63 90 64 57 65 41 66 42 67
REMARK SMILES IDX 50 68 43 69 49 70 51 71 48 72 44 73 45 74 46 75 47 76 73 77
REMARK SMILES IDX 74 78 82 79 75 80 81 81 83 82 80 83 76 84 77 85 78 86 79 87
REMARK SMILES IDX 58 88 59 89 67 90 60 91 66 92 68 93 65 94 61 95 62 96 63 97
REMARK SMILES IDX 64 98
REMARK H PARENT 25 5 29 32 88 51 56 62
REMARK Flexibility Score: inf
ROOT
ATOM      1  C   UNL A   1      32.679  28.974  24.118  1.00  0.00     0.117 C 
ENDROOT
BRANCH   1   2
ATOM      2  N   UNL A   1      31.368  28.388  24.312  1.00  0.00    -0.356 N 
ATOM      3  O   UNL A   1      31.201  27.538  22.182  1.00  0.00    -0.275 OA
ATOM      4  C   UNL A   1      30.747  27.674  23.313  1.00  0.00     0.220 C 
ATOM      5  H   UNL A   1      30.913  28.503  25.177  1.00  0.00     0.163 HD
BRANCH   4   6
ATOM      6  C   UNL A   1      29.469  26.996  23.753  1.00  0.00     0.100 C 
BRANCH   6   7
ATOM      7  C   UNL A   1      29.671  25.493  23.971  1.00  0.00     0.020 C 
BRANCH   7   8
ATOM      8  C   UNL A   1      30.471  25.075  25.213  1.00  0.00     0.098 C 
BRANCH   8   9
ATOM      9  C   UNL A   1      31.509  24.031  24.980  1.00  0.00     0.195 A 
ATOM     10  N   UNL A   1      31.327  22.770  24.638  1.00  0.00    -0.213 NA
ATOM     11  O   UNL A   1      32.821  24.402  25.091  1.00  0.00    -0.440 OA
ATOM     12  C   UNL A   1      32.602  22.264  24.564  1.00  0.00     0.117 A 
ATOM     13  C   UNL A   1      33.522  23.258  24.828  1.00  0.00     0.162 A 
BRANCH  12  14
ATOM     14  C   UNL A   1      32.915  20.880  24.287  1.00  0.00     0.006 A 
ATOM     15  C   UNL A   1      32.034  20.093  23.541  1.00  0.00     0.012 A 
ATOM     16  C   UNL A   1      34.122  20.329  24.740  1.00  0.00     0.032 A 
ATOM     17  C   UNL A   1      32.371  18.772  23.225  1.00  0.00     0.023 A 
ATOM     18  C   UNL A   1      34.454  19.006  24.435  1.00  0.00     0.060 A 
ATOM     19  C   UNL A   1      33.580  18.227  23.670  1.00  0.00     0.059 A 
ATOM     20  Cl  UNL A   1      35.958  18.402  25.037  1.00  0.00    -0.083 Cl
ATOM     21  Cl  UNL A   1      33.934  16.590  23.250  1.00  0.00    -0.083 Cl
ENDBRANCH  12  14
BRANCH  13  22
ATOM     22  C   UNL A   1      34.967  23.347  24.878  1.00  0.00     0.020 A 
ATOM     23  C   UNL A   1      35.619  23.650  26.080  1.00  0.00     0.012 A 
ATOM     24  C   UNL A   1      35.734  23.073  23.737  1.00  0.00     0.012 A 
ATOM     25  C   UNL A   1      37.014  23.660  26.144  1.00  0.00     0.001 A 
ATOM     26  C   UNL A   1      37.128  23.094  23.799  1.00  0.00     0.001 A 
ATOM     27  C   UNL A   1      37.767  23.381  25.004  1.00  0.00     0.000 A 
ENDBRANCH  13  22
ENDBRANCH   8   9
ENDBRANCH   7   8
ENDBRANCH   6   7
ENDBRANCH   4   6
ENDBRANCH   1   2
BRANCH   1  28
ATOM     28  C   UNL A   1      33.796  28.147  24.739  1.00  0.00     0.042 C 
BRANCH  28  29
ATOM     29  C   UNL A   1      34.146  28.531  26.174  1.00  0.00     0.118 C 
BRANCH  29  30
ATOM     30  N   UNL A   1      33.778  29.898  26.514  1.00  0.00    -0.352 N 
ATOM     31  C   UNL A   1      34.380  30.762  27.401  1.00  0.00     0.251 C 
ATOM     32  H   UNL A   1      32.990  30.254  26.043  1.00  0.00     0.163 HD
ATOM     33  O   UNL A   1      33.854  31.843  27.653  1.00  0.00    -0.269 OA
BRANCH  31  34
ATOM     34  C   UNL A   1      35.636  30.369  28.079  1.00  0.00     0.039 A 
ATOM     35  C   UNL A   1      35.572  29.800  29.354  1.00  0.00     0.014 A 
ATOM     36  C   UNL A   1      36.871  30.532  27.445  1.00  0.00     0.014 A 
ATOM     37  C   UNL A   1      36.735  29.308  29.955  1.00  0.00     0.010 A 
ATOM     38  C   UNL A   1      38.016  29.981  28.015  1.00  0.00     0.010 A 
ATOM     39  C   UNL A   1      37.959  29.351  29.269  1.00  0.00    -0.014 A 
BRANCH  39  40
ATOM     40  C   UNL A   1      39.196  28.739  29.826  1.00  0.00     0.031 A 
ATOM     41  C   UNL A   1      39.878  29.374  31.007  1.00  0.00     0.074 A 
ATOM     42  C   UNL A   1      39.763  27.682  29.208  1.00  0.00     0.049 A 
ATOM     43  N   UNL A   1      41.054  29.122  31.521  1.00  0.00    -0.248 NA
ATOM     44  C   UNL A   1      39.148  30.461  31.673  1.00  0.00     0.031 C 
ATOM     45  C   UNL A   1      39.213  26.987  28.042  1.00  0.00     0.029 A 
ATOM     46  N   UNL A   1      40.941  27.024  29.459  1.00  0.00    -0.354 N 
ATOM     47  C   UNL A   1      41.218  30.037  32.556  1.00  0.00     0.074 A 
ATOM     48  C   UNL A   1      40.039  30.878  32.560  1.00  0.00     0.031 C 
ATOM     49  C   UNL A   1      40.048  25.999  27.684  1.00  0.00     0.029 A 
ATOM     50  C   UNL A   1      41.219  26.022  28.556  1.00  0.00     0.049 A 
ATOM     51  H   UNL A   1      41.533  27.246  30.215  1.00  0.00     0.167 HD
ATOM     52  C   UNL A   1      42.250  30.153  33.429  1.00  0.00     0.034 A 
ATOM     53  C   UNL A   1      42.304  25.232  28.425  1.00  0.00     0.034 A 
ATOM     54  C   UNL A   1      43.408  29.293  33.425  1.00  0.00     0.049 A 
ATOM     55  C   UNL A   1      43.450  25.394  29.392  1.00  0.00     0.074 A 
ATOM     56  C   UNL A   1      44.489  29.297  34.291  1.00  0.00     0.029 A 
ATOM     57  N   UNL A   1      43.639  28.274  32.511  1.00  0.00    -0.354 N 
ATOM     58  N   UNL A   1      43.585  26.255  30.374  1.00  0.00    -0.248 NA
ATOM     59  C   UNL A   1      44.587  24.476  29.236  1.00  0.00     0.031 C 
ATOM     60  C   UNL A   1      45.398  28.322  33.866  1.00  0.00     0.029 A 
ATOM     61  C   UNL A   1      44.853  27.659  32.779  1.00  0.00     0.049 A 
ATOM     62  H   UNL A   1      43.030  28.024  31.779  1.00  0.00     0.167 HD
ATOM     63  C   UNL A   1      44.803  25.952  30.978  1.00  0.00     0.074 A 
ATOM     64  C   UNL A   1      45.364  24.835  30.248  1.00  0.00     0.031 C 
ATOM     65  C   UNL A   1      45.398  26.540  32.046  1.00  0.00     0.034 A 
BRANCH  52  66
ATOM     66  C   UNL A   1      42.178  31.273  34.439  1.00  0.00     0.023 A 
ATOM     67  C   UNL A   1      42.704  32.549  34.165  1.00  0.00     0.031 A 
ATOM     68  C   UNL A   1      41.606  31.056  35.705  1.00  0.00     0.131 A 
ATOM     69  C   UNL A   1      42.724  33.527  35.169  1.00  0.00     0.055 A 
ATOM     70  C   UNL A   1      41.552  32.063  36.671  1.00  0.00     0.041 A 
ATOM     71  F   UNL A   1      41.107  29.854  36.032  1.00  0.00    -0.206 F 
ATOM     72  C   UNL A   1      42.129  33.303  36.412  1.00  0.00     0.022 A 
BRANCH  69  73
ATOM     73  S   UNL A   1      43.678  35.042  34.877  1.00  0.00     0.124 S 
ATOM     74  O   UNL A   1      45.048  34.559  35.030  1.00  0.00    -0.237 OA
ATOM     75  O   UNL A   1      43.279  35.410  33.523  1.00  0.00    -0.237 OA
ATOM     76  O   UNL A   1      43.220  35.944  35.930  1.00  0.00    -0.744 OA
ENDBRANCH  69  73
ENDBRANCH  52  66
BRANCH  53  77
ATOM     77  C   UNL A   1      42.377  24.229  27.325  1.00  0.00     0.023 A 
ATOM     78  C   UNL A   1      41.692  23.006  27.417  1.00  0.00     0.031 A 
ATOM     79  C   UNL A   1      43.165  24.459  26.184  1.00  0.00     0.131 A 
ATOM     80  C   UNL A   1      41.843  22.043  26.408  1.00  0.00     0.055 A 
ATOM     81  C   UNL A   1      43.272  23.518  25.158  1.00  0.00     0.041 A 
ATOM     82  F   UNL A   1      43.836  25.614  26.044  1.00  0.00    -0.206 F 
ATOM     83  C   UNL A   1      42.618  22.295  25.273  1.00  0.00     0.022 A 
BRANCH  80  84
ATOM     84  S   UNL A   1      41.074  20.416  26.640  1.00  0.00     0.124 S 
ATOM     85  O   UNL A   1      42.056  19.534  26.022  1.00  0.00    -0.237 OA
ATOM     86  O   UNL A   1      40.964  20.339  28.092  1.00  0.00    -0.237 OA
ATOM     87  O   UNL A   1      39.805  20.536  25.926  1.00  0.00    -0.744 OA
ENDBRANCH  80  84
ENDBRANCH  53  77
BRANCH  65  88
ATOM     88  C   UNL A   1      46.689  25.936  32.537  1.00  0.00     0.023 A 
ATOM     89  C   UNL A   1      46.715  24.926  33.513  1.00  0.00     0.031 A 
ATOM     90  C   UNL A   1      47.913  26.376  32.002  1.00  0.00     0.131 A 
ATOM     91  C   UNL A   1      47.946  24.415  33.955  1.00  0.00     0.055 A 
ATOM     92  C   UNL A   1      49.130  25.829  32.410  1.00  0.00     0.041 A 
ATOM     93  F   UNL A   1      47.943  27.338  31.068  1.00  0.00    -0.206 F 
ATOM     94  C   UNL A   1      49.152  24.850  33.398  1.00  0.00     0.022 A 
BRANCH  91  95
ATOM     95  S   UNL A   1      47.958  23.212  35.313  1.00  0.00     0.124 S 
ATOM     96  O   UNL A   1      47.785  24.071  36.479  1.00  0.00    -0.237 OA
ATOM     97  O   UNL A   1      46.825  22.354  34.980  1.00  0.00    -0.237 OA
ATOM     98  O   UNL A   1      49.269  22.577  35.198  1.00  0.00    -0.744 OA
ENDBRANCH  91  95
ENDBRANCH  65  88
ENDBRANCH  39  40
ENDBRANCH  31  34
ENDBRANCH  29  30
ENDBRANCH  28  29
ENDBRANCH   1  28
TORSDOF 18
ENDMDL
