MODEL 1
REMARK VINA RESULT:     -11.5      0.000      0.000
REMARK SMILES C[C@H](NC(=O)c1ccncc1/C=C/C(=O)NCCCNC(=O)c1ccc(-c2c3nc(c(-c4cc(S(=O)(=O)[O-])ccc4F)c4ccc([nH]4)c(-c4cc(S(=O)(=O)[O-])ccc4F)c4nc(c(-c5cc(S(=O)(=O)[O-])ccc5F)c5ccc2[nH]5)C=C4)C=C3)cc1)c1ccco1
REMARK SMILES IDX 17 1 16 2 14 3 15 4 13 6 12 7 11 8 6 9 7 10 8 11 10 12 9 13
REMARK SMILES IDX 4 14 3 15 5 17 2 18 1 19 86 20 87 21 90 22 88 23 89 24 18 25
REMARK SMILES IDX 19 26 20 27 21 28 22 30 23 31 24 32 85 33 25 34 84 35 26 36
REMARK SMILES IDX 27 37 28 38 78 39 29 40 83 41 77 42 79 43 30 44 82 45 76 46
REMARK SMILES IDX 75 47 31 49 63 50 43 51 62 52 44 53 47 54 61 55 80 56 45 57
REMARK SMILES IDX 46 58 60 60 81 61 48 62 32 63 33 64 41 65 34 66 40 67 42 68
REMARK SMILES IDX 39 69 35 70 36 71 37 72 38 73 64 74 65 75 73 76 66 77 72 78
REMARK SMILES IDX 74 79 71 80 67 81 68 82 69 83 70 84 49 85 50 86 58 87 51 88
REMARK SMILES IDX 57 89 59 90 56 91 52 92 53 93 54 94 55 95
REMARK H PARENT 16 5 3 16 20 29 79 48 47 59
REMARK Flexibility Score: inf
ROOT
ATOM      1  C   UNL A   1      31.584  27.700  26.019  1.00  0.00     0.118 C 
ENDROOT
BRANCH   1   2
ATOM      2  N   UNL A   1      31.048  26.458  26.557  1.00  0.00    -0.352 N 
ATOM      3  C   UNL A   1      31.576  25.205  26.558  1.00  0.00     0.244 C 
ATOM      4  O   UNL A   1      31.035  24.307  27.198  1.00  0.00    -0.270 OA
ATOM      5  H   UNL A   1      30.166  26.538  26.987  1.00  0.00     0.163 HD
BRANCH   3   6
ATOM      6  C   UNL A   1      32.848  24.925  25.859  1.00  0.00     0.072 C 
ATOM      7  C   UNL A   1      33.619  23.859  26.122  1.00  0.00     0.016 C 
BRANCH   7   8
ATOM      8  C   UNL A   1      34.894  23.611  25.433  1.00  0.00     0.006 A 
ATOM      9  C   UNL A   1      34.989  22.875  24.247  1.00  0.00     0.050 A 
ATOM     10  C   UNL A   1      36.223  22.668  23.625  1.00  0.00     0.034 A 
ATOM     11  C   UNL A   1      37.349  23.172  24.244  1.00  0.00     0.112 A 
ATOM     12  C   UNL A   1      36.100  24.061  25.966  1.00  0.00     0.119 A 
ATOM     13  N   UNL A   1      37.317  23.861  25.402  1.00  0.00    -0.264 NA
BRANCH   9  14
ATOM     14  C   UNL A   1      33.785  22.366  23.562  1.00  0.00     0.252 C 
ATOM     15  N   UNL A   1      33.329  21.106  23.848  1.00  0.00    -0.342 N 
ATOM     16  H   UNL A   1      32.566  20.797  23.309  1.00  0.00     0.164 HD
ATOM     17  O   UNL A   1      33.212  23.074  22.742  1.00  0.00    -0.269 OA
BRANCH  15  18
ATOM     18  C   UNL A   1      33.825  20.163  24.844  1.00  0.00     0.145 C 
ATOM     19  C   UNL A   1      32.951  20.208  26.093  1.00  0.00     0.039 C 
BRANCH  18  20
ATOM     20  C   UNL A   1      33.845  18.788  24.261  1.00  0.00     0.125 A 
ATOM     21  C   UNL A   1      34.700  17.707  24.361  1.00  0.00     0.048 A 
ATOM     22  O   UNL A   1      32.810  18.480  23.424  1.00  0.00    -0.467 OA
ATOM     23  C   UNL A   1      34.160  16.690  23.536  1.00  0.00     0.042 A 
ATOM     24  C   UNL A   1      33.016  17.214  22.982  1.00  0.00     0.195 A 
ENDBRANCH  18  20
ENDBRANCH  15  18
ENDBRANCH   9  14
ENDBRANCH   7   8
ENDBRANCH   3   6
ENDBRANCH   1   2
BRANCH   1  25
ATOM     25  C   UNL A   1      32.389  28.470  27.063  1.00  0.00     0.042 C 
BRANCH  25  26
ATOM     26  C   UNL A   1      33.566  29.258  26.485  1.00  0.00     0.118 C 
BRANCH  26  27
ATOM     27  N   UNL A   1      33.564  30.646  26.918  1.00  0.00    -0.352 N 
ATOM     28  C   UNL A   1      34.372  31.305  27.812  1.00  0.00     0.251 C 
ATOM     29  H   UNL A   1      32.870  31.206  26.502  1.00  0.00     0.163 HD
ATOM     30  O   UNL A   1      34.047  32.432  28.179  1.00  0.00    -0.269 OA
BRANCH  28  31
ATOM     31  C   UNL A   1      35.606  30.683  28.347  1.00  0.00     0.039 A 
ATOM     32  C   UNL A   1      36.816  30.944  27.694  1.00  0.00     0.014 A 
ATOM     33  C   UNL A   1      35.581  29.798  29.429  1.00  0.00     0.014 A 
ATOM     34  C   UNL A   1      38.001  30.362  28.153  1.00  0.00     0.010 A 
ATOM     35  C   UNL A   1      36.774  29.263  29.923  1.00  0.00     0.010 A 
ATOM     36  C   UNL A   1      37.995  29.537  29.289  1.00  0.00    -0.014 A 
BRANCH  36  37
ATOM     37  C   UNL A   1      39.262  28.967  29.819  1.00  0.00     0.031 A 
ATOM     38  C   UNL A   1      39.927  29.569  31.028  1.00  0.00     0.074 A 
ATOM     39  C   UNL A   1      39.833  27.923  29.185  1.00  0.00     0.049 A 
ATOM     40  N   UNL A   1      41.053  29.236  31.605  1.00  0.00    -0.248 NA
ATOM     41  C   UNL A   1      39.246  30.711  31.654  1.00  0.00     0.031 C 
ATOM     42  C   UNL A   1      39.305  27.276  27.981  1.00  0.00     0.029 A 
ATOM     43  N   UNL A   1      40.984  27.225  29.456  1.00  0.00    -0.354 N 
ATOM     44  C   UNL A   1      41.219  30.126  32.661  1.00  0.00     0.074 A 
ATOM     45  C   UNL A   1      40.103  31.048  32.607  1.00  0.00     0.031 C 
ATOM     46  C   UNL A   1      40.120  26.270  27.627  1.00  0.00     0.029 A 
ATOM     47  C   UNL A   1      41.246  26.220  28.554  1.00  0.00     0.049 A 
ATOM     48  H   UNL A   1      41.566  27.425  30.224  1.00  0.00     0.167 HD
ATOM     49  C   UNL A   1      42.198  30.159  33.600  1.00  0.00     0.034 A 
ATOM     50  C   UNL A   1      42.282  25.361  28.474  1.00  0.00     0.034 A 
ATOM     51  C   UNL A   1      43.303  29.231  33.645  1.00  0.00     0.049 A 
ATOM     52  C   UNL A   1      43.359  25.421  29.526  1.00  0.00     0.074 A 
ATOM     53  C   UNL A   1      44.332  29.157  34.570  1.00  0.00     0.029 A 
ATOM     54  N   UNL A   1      43.530  28.217  32.723  1.00  0.00    -0.354 N 
ATOM     55  N   UNL A   1      43.478  26.247  30.541  1.00  0.00    -0.248 NA
ATOM     56  C   UNL A   1      44.433  24.424  29.430  1.00  0.00     0.031 C 
ATOM     57  C   UNL A   1      45.205  28.135  34.178  1.00  0.00     0.029 A 
ATOM     58  C   UNL A   1      44.689  27.527  33.045  1.00  0.00     0.049 A 
ATOM     59  H   UNL A   1      42.950  28.017  31.953  1.00  0.00     0.167 HD
ATOM     60  C   UNL A   1      44.630  25.852  31.215  1.00  0.00     0.074 A 
ATOM     61  C   UNL A   1      45.151  24.700  30.508  1.00  0.00     0.031 C 
ATOM     62  C   UNL A   1      45.208  26.393  32.318  1.00  0.00     0.034 A 
BRANCH  49  63
ATOM     63  C   UNL A   1      42.123  31.249  34.644  1.00  0.00     0.023 A 
ATOM     64  C   UNL A   1      42.792  32.474  34.475  1.00  0.00     0.031 A 
ATOM     65  C   UNL A   1      41.385  31.058  35.826  1.00  0.00     0.131 A 
ATOM     66  C   UNL A   1      42.766  33.433  35.499  1.00  0.00     0.055 A 
ATOM     67  C   UNL A   1      41.302  32.047  36.809  1.00  0.00     0.041 A 
ATOM     68  F   UNL A   1      40.741  29.902  36.051  1.00  0.00    -0.206 F 
ATOM     69  C   UNL A   1      42.005  33.238  36.655  1.00  0.00     0.022 A 
BRANCH  66  70
ATOM     70  S   UNL A   1      43.836  34.889  35.351  1.00  0.00     0.124 S 
ATOM     71  O   UNL A   1      44.951  34.523  36.221  1.00  0.00    -0.237 OA
ATOM     72  O   UNL A   1      44.126  34.926  33.923  1.00  0.00    -0.237 OA
ATOM     73  O   UNL A   1      43.001  35.981  35.847  1.00  0.00    -0.744 OA
ENDBRANCH  66  70
ENDBRANCH  49  63
BRANCH  50  74
ATOM     74  C   UNL A   1      42.367  24.381  27.354  1.00  0.00     0.023 A 
ATOM     75  C   UNL A   1      41.629  23.188  27.376  1.00  0.00     0.031 A 
ATOM     76  C   UNL A   1      43.229  24.605  26.265  1.00  0.00     0.131 A 
ATOM     77  C   UNL A   1      41.804  22.239  26.357  1.00  0.00     0.055 A 
ATOM     78  C   UNL A   1      43.360  23.682  25.227  1.00  0.00     0.041 A 
ATOM     79  F   UNL A   1      43.949  25.735  26.190  1.00  0.00    -0.206 F 
ATOM     80  C   UNL A   1      42.656  22.482  25.277  1.00  0.00     0.022 A 
BRANCH  77  81
ATOM     81  S   UNL A   1      40.966  20.636  26.509  1.00  0.00     0.124 S 
ATOM     82  O   UNL A   1      39.659  20.927  25.929  1.00  0.00    -0.237 OA
ATOM     83  O   UNL A   1      41.837  19.767  25.726  1.00  0.00    -0.237 OA
ATOM     84  O   UNL A   1      40.970  20.387  27.948  1.00  0.00    -0.744 OA
ENDBRANCH  77  81
ENDBRANCH  50  74
BRANCH  62  85
ATOM     85  C   UNL A   1      46.454  25.714  32.832  1.00  0.00     0.023 A 
ATOM     86  C   UNL A   1      47.712  25.952  32.251  1.00  0.00     0.031 A 
ATOM     87  C   UNL A   1      46.376  24.792  33.889  1.00  0.00     0.131 A 
ATOM     88  C   UNL A   1      48.830  25.226  32.686  1.00  0.00     0.055 A 
ATOM     89  C   UNL A   1      47.503  24.115  34.358  1.00  0.00     0.041 A 
ATOM     90  F   UNL A   1      45.198  24.526  34.479  1.00  0.00    -0.206 F 
ATOM     91  C   UNL A   1      48.736  24.319  33.745  1.00  0.00     0.022 A 
BRANCH  88  92
ATOM     92  S   UNL A   1      50.391  25.405  31.778  1.00  0.00     0.124 S 
ATOM     93  O   UNL A   1      50.785  24.014  31.575  1.00  0.00    -0.237 OA
ATOM     94  O   UNL A   1      49.974  26.131  30.583  1.00  0.00    -0.237 OA
ATOM     95  O   UNL A   1      51.238  26.161  32.699  1.00  0.00    -0.744 OA
ENDBRANCH  88  92
ENDBRANCH  62  85
ENDBRANCH  36  37
ENDBRANCH  28  31
ENDBRANCH  26  27
ENDBRANCH  25  26
ENDBRANCH   1  25
TORSDOF 17
ENDMDL
MODEL 2
REMARK VINA RESULT:     -11.5      4.193      9.453
REMARK SMILES C[C@H](NC(=O)c1ccncc1/C=C/C(=O)NCCCNC(=O)c1ccc(-c2c3nc(c(-c4cc(S(=O)(=O)[O-])ccc4F)c4ccc([nH]4)c(-c4cc(S(=O)(=O)[O-])ccc4F)c4nc(c(-c5cc(S(=O)(=O)[O-])ccc5F)c5ccc2[nH]5)C=C4)C=C3)cc1)c1ccco1
REMARK SMILES IDX 17 1 16 2 14 3 15 4 13 6 12 7 11 8 6 9 7 10 8 11 10 12 9 13
REMARK SMILES IDX 4 14 3 15 5 17 2 18 1 19 86 20 87 21 90 22 88 23 89 24 18 25
REMARK SMILES IDX 19 26 20 27 21 28 22 30 23 31 24 32 85 33 25 34 84 35 26 36
REMARK SMILES IDX 27 37 28 38 78 39 29 40 83 41 77 42 79 43 30 44 82 45 76 46
REMARK SMILES IDX 75 47 31 49 63 50 43 51 62 52 44 53 47 54 61 55 80 56 45 57
REMARK SMILES IDX 46 58 60 60 81 61 48 62 32 63 33 64 41 65 34 66 40 67 42 68
REMARK SMILES IDX 39 69 35 70 36 71 37 72 38 73 64 74 65 75 73 76 66 77 72 78
REMARK SMILES IDX 74 79 71 80 67 81 68 82 69 83 70 84 49 85 50 86 58 87 51 88
REMARK SMILES IDX 57 89 59 90 56 91 52 92 53 93 54 94 55 95
REMARK H PARENT 16 5 3 16 20 29 79 48 47 59
REMARK Flexibility Score: inf
ROOT
ATOM      1  C   UNL A   1      31.942  30.584  26.970  1.00  0.00     0.118 C 
ENDROOT
BRANCH   1   2
ATOM      2  N   UNL A   1      33.212  30.277  27.610  1.00  0.00    -0.352 N 
ATOM      3  C   UNL A   1      34.038  29.209  27.448  1.00  0.00     0.244 C 
ATOM      4  O   UNL A   1      35.149  29.202  27.973  1.00  0.00    -0.270 OA
ATOM      5  H   UNL A   1      33.521  30.947  28.261  1.00  0.00     0.163 HD
BRANCH   3   6
ATOM      6  C   UNL A   1      33.648  28.082  26.575  1.00  0.00     0.072 C 
ATOM      7  C   UNL A   1      34.049  27.957  25.302  1.00  0.00     0.016 C 
BRANCH   7   8
ATOM      8  C   UNL A   1      33.630  26.840  24.442  1.00  0.00     0.006 A 
ATOM      9  C   UNL A   1      33.137  27.020  23.145  1.00  0.00     0.050 A 
ATOM     10  C   UNL A   1      32.754  25.927  22.363  1.00  0.00     0.034 A 
ATOM     11  C   UNL A   1      32.831  24.670  22.929  1.00  0.00     0.112 A 
ATOM     12  C   UNL A   1      33.652  25.527  24.905  1.00  0.00     0.119 A 
ATOM     13  N   UNL A   1      33.268  24.445  24.184  1.00  0.00    -0.264 NA
BRANCH   9  14
ATOM     14  C   UNL A   1      33.087  28.357  22.522  1.00  0.00     0.252 C 
ATOM     15  N   UNL A   1      31.887  29.009  22.422  1.00  0.00    -0.342 N 
ATOM     16  H   UNL A   1      31.905  29.864  21.935  1.00  0.00     0.164 HD
ATOM     17  O   UNL A   1      34.118  28.864  22.097  1.00  0.00    -0.269 OA
BRANCH  15  18
ATOM     18  C   UNL A   1      30.584  28.604  22.941  1.00  0.00     0.145 C 
ATOM     19  C   UNL A   1      30.653  28.425  24.455  1.00  0.00     0.039 C 
BRANCH  18  20
ATOM     20  C   UNL A   1      29.562  29.629  22.575  1.00  0.00     0.125 A 
ATOM     21  C   UNL A   1      28.686  30.422  23.292  1.00  0.00     0.048 A 
ATOM     22  O   UNL A   1      29.410  29.869  21.239  1.00  0.00    -0.467 OA
ATOM     23  C   UNL A   1      27.959  31.179  22.341  1.00  0.00     0.042 A 
ATOM     24  C   UNL A   1      28.431  30.800  21.108  1.00  0.00     0.195 A 
ENDBRANCH  18  20
ENDBRANCH  15  18
ENDBRANCH   9  14
ENDBRANCH   7   8
ENDBRANCH   3   6
ENDBRANCH   1   2
BRANCH   1  25
ATOM     25  C   UNL A   1      31.666  32.086  26.946  1.00  0.00     0.042 C 
BRANCH  25  26
ATOM     26  C   UNL A   1      32.923  32.951  27.050  1.00  0.00     0.118 C 
BRANCH  26  27
ATOM     27  N   UNL A   1      32.662  34.224  27.704  1.00  0.00    -0.352 N 
ATOM     28  C   UNL A   1      33.186  34.764  28.852  1.00  0.00     0.251 C 
ATOM     29  H   UNL A   1      32.000  34.793  27.248  1.00  0.00     0.163 HD
ATOM     30  O   UNL A   1      32.657  35.766  29.326  1.00  0.00    -0.269 OA
BRANCH  28  31
ATOM     31  C   UNL A   1      34.356  34.157  29.530  1.00  0.00     0.039 A 
ATOM     32  C   UNL A   1      34.126  33.328  30.633  1.00  0.00     0.014 A 
ATOM     33  C   UNL A   1      35.669  34.446  29.144  1.00  0.00     0.014 A 
ATOM     34  C   UNL A   1      35.202  32.752  31.314  1.00  0.00     0.010 A 
ATOM     35  C   UNL A   1      36.741  33.824  29.789  1.00  0.00     0.010 A 
ATOM     36  C   UNL A   1      36.520  32.973  30.881  1.00  0.00    -0.014 A 
BRANCH  36  37
ATOM     37  C   UNL A   1      37.664  32.312  31.564  1.00  0.00     0.031 A 
ATOM     38  C   UNL A   1      38.398  31.177  30.901  1.00  0.00     0.074 A 
ATOM     39  C   UNL A   1      38.018  32.714  32.800  1.00  0.00     0.049 A 
ATOM     40  N   UNL A   1      39.388  30.453  31.358  1.00  0.00    -0.248 NA
ATOM     41  C   UNL A   1      37.944  30.793  29.557  1.00  0.00     0.031 C 
ATOM     42  C   UNL A   1      37.358  33.777  33.562  1.00  0.00     0.029 A 
ATOM     43  N   UNL A   1      39.012  32.276  33.639  1.00  0.00    -0.354 N 
ATOM     44  C   UNL A   1      39.675  29.525  30.361  1.00  0.00     0.074 A 
ATOM     45  C   UNL A   1      38.715  29.746  29.299  1.00  0.00     0.031 C 
ATOM     46  C   UNL A   1      37.973  33.917  34.747  1.00  0.00     0.029 A 
ATOM     47  C   UNL A   1      39.046  32.934  34.847  1.00  0.00     0.049 A 
ATOM     48  H   UNL A   1      39.642  31.558  33.399  1.00  0.00     0.167 HD
ATOM     49  C   UNL A   1      40.660  28.593  30.326  1.00  0.00     0.034 A 
ATOM     50  C   UNL A   1      39.845  32.759  35.919  1.00  0.00     0.034 A 
ATOM     51  C   UNL A   1      41.613  28.385  31.391  1.00  0.00     0.049 A 
ATOM     52  C   UNL A   1      40.927  31.712  35.857  1.00  0.00     0.074 A 
ATOM     53  C   UNL A   1      42.668  27.489  31.443  1.00  0.00     0.029 A 
ATOM     54  N   UNL A   1      41.626  29.080  32.594  1.00  0.00    -0.354 N 
ATOM     55  N   UNL A   1      41.207  30.870  34.889  1.00  0.00    -0.248 NA
ATOM     56  C   UNL A   1      41.809  31.604  37.025  1.00  0.00     0.031 C 
ATOM     57  C   UNL A   1      43.284  27.606  32.696  1.00  0.00     0.029 A 
ATOM     58  C   UNL A   1      42.656  28.620  33.401  1.00  0.00     0.049 A 
ATOM     59  H   UNL A   1      40.996  29.796  32.837  1.00  0.00     0.167 HD
ATOM     60  C   UNL A   1      42.313  30.147  35.326  1.00  0.00     0.074 A 
ATOM     61  C   UNL A   1      42.663  30.672  36.631  1.00  0.00     0.031 C 
ATOM     62  C   UNL A   1      42.980  29.138  34.708  1.00  0.00     0.034 A 
BRANCH  49  63
ATOM     63  C   UNL A   1      40.738  27.713  29.101  1.00  0.00     0.023 A 
ATOM     64  C   UNL A   1      41.677  27.954  28.082  1.00  0.00     0.031 A 
ATOM     65  C   UNL A   1      39.858  26.628  28.941  1.00  0.00     0.131 A 
ATOM     66  C   UNL A   1      41.671  27.166  26.921  1.00  0.00     0.055 A 
ATOM     67  C   UNL A   1      39.906  25.801  27.816  1.00  0.00     0.041 A 
ATOM     68  F   UNL A   1      38.928  26.359  29.871  1.00  0.00    -0.206 F 
ATOM     69  C   UNL A   1      40.807  26.075  26.792  1.00  0.00     0.022 A 
BRANCH  66  70
ATOM     70  S   UNL A   1      42.725  27.660  25.532  1.00  0.00     0.124 S 
ATOM     71  O   UNL A   1      43.984  27.959  26.211  1.00  0.00    -0.237 OA
ATOM     72  O   UNL A   1      42.721  26.469  24.691  1.00  0.00    -0.237 OA
ATOM     73  O   UNL A   1      42.036  28.821  24.973  1.00  0.00    -0.744 OA
ENDBRANCH  66  70
ENDBRANCH  49  63
BRANCH  50  74
ATOM     74  C   UNL A   1      39.648  33.576  37.149  1.00  0.00     0.023 A 
ATOM     75  C   UNL A   1      40.415  34.727  37.388  1.00  0.00     0.031 A 
ATOM     76  C   UNL A   1      38.718  33.188  38.131  1.00  0.00     0.131 A 
ATOM     77  C   UNL A   1      40.277  35.421  38.600  1.00  0.00     0.055 A 
ATOM     78  C   UNL A   1      38.547  33.910  39.312  1.00  0.00     0.041 A 
ATOM     79  F   UNL A   1      37.951  32.101  37.948  1.00  0.00    -0.206 F 
ATOM     80  C   UNL A   1      39.341  35.027  39.559  1.00  0.00     0.022 A 
BRANCH  77  81
ATOM     81  S   UNL A   1      41.406  36.798  38.946  1.00  0.00     0.124 S 
ATOM     82  O   UNL A   1      42.115  36.928  37.678  1.00  0.00    -0.237 OA
ATOM     83  O   UNL A   1      40.476  37.873  39.275  1.00  0.00    -0.237 OA
ATOM     84  O   UNL A   1      42.208  36.306  40.063  1.00  0.00    -0.744 OA
ENDBRANCH  77  81
ENDBRANCH  50  74
BRANCH  62  85
ATOM     85  C   UNL A   1      44.170  28.566  35.438  1.00  0.00     0.023 A 
ATOM     86  C   UNL A   1      44.029  27.522  36.369  1.00  0.00     0.031 A 
ATOM     87  C   UNL A   1      45.454  29.097  35.228  1.00  0.00     0.131 A 
ATOM     88  C   UNL A   1      45.141  27.086  37.104  1.00  0.00     0.055 A 
ATOM     89  C   UNL A   1      46.568  28.619  35.919  1.00  0.00     0.041 A 
ATOM     90  F   UNL A   1      45.646  30.096  34.351  1.00  0.00    -0.206 F 
ATOM     91  C   UNL A   1      46.413  27.619  36.875  1.00  0.00     0.022 A 
BRANCH  88  92
ATOM     92  S   UNL A   1      44.885  25.886  38.440  1.00  0.00     0.124 S 
ATOM     93  O   UNL A   1      44.007  26.622  39.345  1.00  0.00    -0.237 OA
ATOM     94  O   UNL A   1      44.277  24.762  37.737  1.00  0.00    -0.237 OA
ATOM     95  O   UNL A   1      46.234  25.644  38.947  1.00  0.00    -0.744 OA
ENDBRANCH  88  92
ENDBRANCH  62  85
ENDBRANCH  36  37
ENDBRANCH  28  31
ENDBRANCH  26  27
ENDBRANCH  25  26
ENDBRANCH   1  25
TORSDOF 17
ENDMDL
MODEL 3
REMARK VINA RESULT:     -11.5      2.990      7.942
REMARK SMILES C[C@H](NC(=O)c1ccncc1/C=C/C(=O)NCCCNC(=O)c1ccc(-c2c3nc(c(-c4cc(S(=O)(=O)[O-])ccc4F)c4ccc([nH]4)c(-c4cc(S(=O)(=O)[O-])ccc4F)c4nc(c(-c5cc(S(=O)(=O)[O-])ccc5F)c5ccc2[nH]5)C=C4)C=C3)cc1)c1ccco1
REMARK SMILES IDX 17 1 16 2 14 3 15 4 13 6 12 7 11 8 6 9 7 10 8 11 10 12 9 13
REMARK SMILES IDX 4 14 3 15 5 17 2 18 1 19 86 20 87 21 90 22 88 23 89 24 18 25
REMARK SMILES IDX 19 26 20 27 21 28 22 30 23 31 24 32 85 33 25 34 84 35 26 36
REMARK SMILES IDX 27 37 28 38 78 39 29 40 83 41 77 42 79 43 30 44 82 45 76 46
REMARK SMILES IDX 75 47 31 49 63 50 43 51 62 52 44 53 47 54 61 55 80 56 45 57
REMARK SMILES IDX 46 58 60 60 81 61 48 62 32 63 33 64 41 65 34 66 40 67 42 68
REMARK SMILES IDX 39 69 35 70 36 71 37 72 38 73 64 74 65 75 73 76 66 77 72 78
REMARK SMILES IDX 74 79 71 80 67 81 68 82 69 83 70 84 49 85 50 86 58 87 51 88
REMARK SMILES IDX 57 89 59 90 56 91 52 92 53 93 54 94 55 95
REMARK H PARENT 16 5 3 16 20 29 79 48 47 59
REMARK Flexibility Score: inf
ROOT
ATOM      1  C   UNL A   1      31.847  27.718  26.768  1.00  0.00     0.118 C 
ENDROOT
BRANCH   1   2
ATOM      2  N   UNL A   1      30.964  26.562  26.761  1.00  0.00    -0.352 N 
ATOM      3  C   UNL A   1      31.255  25.239  26.651  1.00  0.00     0.244 C 
ATOM      4  O   UNL A   1      30.376  24.396  26.818  1.00  0.00    -0.270 OA
ATOM      5  H   UNL A   1      30.006  26.771  26.849  1.00  0.00     0.163 HD
BRANCH   3   6
ATOM      6  C   UNL A   1      32.644  24.792  26.413  1.00  0.00     0.072 C 
ATOM      7  C   UNL A   1      33.154  24.576  25.192  1.00  0.00     0.016 C 
BRANCH   7   8
ATOM      8  C   UNL A   1      34.531  24.107  24.977  1.00  0.00     0.006 A 
ATOM      9  C   UNL A   1      34.883  23.214  23.959  1.00  0.00     0.050 A 
ATOM     10  C   UNL A   1      36.206  22.800  23.791  1.00  0.00     0.034 A 
ATOM     11  C   UNL A   1      37.146  23.260  24.691  1.00  0.00     0.112 A 
ATOM     12  C   UNL A   1      35.564  24.495  25.827  1.00  0.00     0.119 A 
ATOM     13  N   UNL A   1      36.855  24.096  25.708  1.00  0.00    -0.264 NA
BRANCH   9  14
ATOM     14  C   UNL A   1      33.890  22.748  22.972  1.00  0.00     0.252 C 
ATOM     15  N   UNL A   1      33.134  21.639  23.248  1.00  0.00    -0.342 N 
ATOM     16  H   UNL A   1      32.541  21.336  22.524  1.00  0.00     0.164 HD
ATOM     17  O   UNL A   1      33.759  23.353  21.915  1.00  0.00    -0.269 OA
BRANCH  15  18
ATOM     18  C   UNL A   1      33.092  20.849  24.475  1.00  0.00     0.145 C 
ATOM     19  C   UNL A   1      31.772  21.078  25.204  1.00  0.00     0.039 C 
BRANCH  18  20
ATOM     20  C   UNL A   1      33.269  19.404  24.142  1.00  0.00     0.125 A 
ATOM     21  C   UNL A   1      32.525  18.474  23.441  1.00  0.00     0.048 A 
ATOM     22  O   UNL A   1      34.404  18.816  24.623  1.00  0.00    -0.467 OA
ATOM     23  C   UNL A   1      33.241  17.254  23.506  1.00  0.00     0.042 A 
ATOM     24  C   UNL A   1      34.372  17.513  24.242  1.00  0.00     0.195 A 
ENDBRANCH  18  20
ENDBRANCH  15  18
ENDBRANCH   9  14
ENDBRANCH   7   8
ENDBRANCH   3   6
ENDBRANCH   1   2
BRANCH   1  25
ATOM     25  C   UNL A   1      31.969  28.348  25.381  1.00  0.00     0.042 C 
BRANCH  25  26
ATOM     26  C   UNL A   1      33.028  29.449  25.289  1.00  0.00     0.118 C 
BRANCH  26  27
ATOM     27  N   UNL A   1      32.527  30.734  25.749  1.00  0.00    -0.352 N 
ATOM     28  C   UNL A   1      32.894  31.505  26.824  1.00  0.00     0.251 C 
ATOM     29  H   UNL A   1      31.805  31.115  25.198  1.00  0.00     0.163 HD
ATOM     30  O   UNL A   1      32.182  32.457  27.136  1.00  0.00    -0.269 OA
BRANCH  28  31
ATOM     31  C   UNL A   1      34.111  31.204  27.615  1.00  0.00     0.039 A 
ATOM     32  C   UNL A   1      34.241  29.925  28.169  1.00  0.00     0.014 A 
ATOM     33  C   UNL A   1      35.084  32.173  27.876  1.00  0.00     0.014 A 
ATOM     34  C   UNL A   1      35.363  29.606  28.938  1.00  0.00     0.010 A 
ATOM     35  C   UNL A   1      36.233  31.836  28.596  1.00  0.00     0.010 A 
ATOM     36  C   UNL A   1      36.384  30.550  29.136  1.00  0.00    -0.014 A 
BRANCH  36  37
ATOM     37  C   UNL A   1      37.609  30.194  29.900  1.00  0.00     0.031 A 
ATOM     38  C   UNL A   1      38.638  29.268  29.309  1.00  0.00     0.074 A 
ATOM     39  C   UNL A   1      37.775  30.681  31.146  1.00  0.00     0.049 A 
ATOM     40  N   UNL A   1      39.744  28.812  29.841  1.00  0.00    -0.248 NA
ATOM     41  C   UNL A   1      38.377  28.773  27.950  1.00  0.00     0.031 C 
ATOM     42  C   UNL A   1      36.830  31.556  31.843  1.00  0.00     0.029 A 
ATOM     43  N   UNL A   1      38.792  30.506  32.053  1.00  0.00    -0.354 N 
ATOM     44  C   UNL A   1      40.311  27.975  28.884  1.00  0.00     0.074 A 
ATOM     45  C   UNL A   1      39.394  27.945  27.763  1.00  0.00     0.031 C 
ATOM     46  C   UNL A   1      37.316  31.852  33.058  1.00  0.00     0.029 A 
ATOM     47  C   UNL A   1      38.588  31.162  33.245  1.00  0.00     0.049 A 
ATOM     48  H   UNL A   1      39.591  29.962  31.867  1.00  0.00     0.167 HD
ATOM     49  C   UNL A   1      41.493  27.311  28.929  1.00  0.00     0.034 A 
ATOM     50  C   UNL A   1      39.336  31.196  34.365  1.00  0.00     0.034 A 
ATOM     51  C   UNL A   1      42.399  27.352  30.053  1.00  0.00     0.049 A 
ATOM     52  C   UNL A   1      40.642  30.446  34.392  1.00  0.00     0.074 A 
ATOM     53  C   UNL A   1      43.635  26.742  30.188  1.00  0.00     0.029 A 
ATOM     54  N   UNL A   1      42.167  28.038  31.238  1.00  0.00    -0.354 N 
ATOM     55  N   UNL A   1      41.180  29.691  33.462  1.00  0.00    -0.248 NA
ATOM     56  C   UNL A   1      41.449  30.566  35.613  1.00  0.00     0.031 C 
ATOM     57  C   UNL A   1      44.123  27.016  31.472  1.00  0.00     0.029 A 
ATOM     58  C   UNL A   1      43.224  27.851  32.115  1.00  0.00     0.049 A 
ATOM     59  H   UNL A   1      41.367  28.581  31.427  1.00  0.00     0.167 HD
ATOM     60  C   UNL A   1      42.399  29.263  33.981  1.00  0.00     0.074 A 
ATOM     61  C   UNL A   1      42.527  29.868  35.291  1.00  0.00     0.031 C 
ATOM     62  C   UNL A   1      43.329  28.443  33.427  1.00  0.00     0.034 A 
BRANCH  49  63
ATOM     63  C   UNL A   1      41.861  26.467  27.731  1.00  0.00     0.023 A 
ATOM     64  C   UNL A   1      41.489  25.114  27.644  1.00  0.00     0.031 A 
ATOM     65  C   UNL A   1      42.602  27.016  26.670  1.00  0.00     0.131 A 
ATOM     66  C   UNL A   1      41.915  24.339  26.555  1.00  0.00     0.055 A 
ATOM     67  C   UNL A   1      42.959  26.258  25.552  1.00  0.00     0.041 A 
ATOM     68  F   UNL A   1      43.001  28.297  26.705  1.00  0.00    -0.206 F 
ATOM     69  C   UNL A   1      42.627  24.907  25.496  1.00  0.00     0.022 A 
BRANCH  66  70
ATOM     70  S   UNL A   1      41.628  22.549  26.599  1.00  0.00     0.124 S 
ATOM     71  O   UNL A   1      42.311  22.113  25.384  1.00  0.00    -0.237 OA
ATOM     72  O   UNL A   1      42.251  22.158  27.858  1.00  0.00    -0.237 OA
ATOM     73  O   UNL A   1      40.171  22.434  26.561  1.00  0.00    -0.744 OA
ENDBRANCH  66  70
ENDBRANCH  49  63
BRANCH  50  74
ATOM     74  C   UNL A   1      38.868  31.951  35.563  1.00  0.00     0.023 A 
ATOM     75  C   UNL A   1      38.277  31.292  36.651  1.00  0.00     0.031 A 
ATOM     76  C   UNL A   1      38.964  33.354  35.613  1.00  0.00     0.131 A 
ATOM     77  C   UNL A   1      37.756  32.037  37.721  1.00  0.00     0.055 A 
ATOM     78  C   UNL A   1      38.492  34.087  36.702  1.00  0.00     0.041 A 
ATOM     79  F   UNL A   1      39.531  34.032  34.602  1.00  0.00    -0.206 F 
ATOM     80  C   UNL A   1      37.869  33.429  37.759  1.00  0.00     0.022 A 
BRANCH  77  81
ATOM     81  S   UNL A   1      36.845  31.164  39.025  1.00  0.00     0.124 S 
ATOM     82  O   UNL A   1      36.802  29.804  38.499  1.00  0.00    -0.237 OA
ATOM     83  O   UNL A   1      37.703  31.378  40.184  1.00  0.00    -0.237 OA
ATOM     84  O   UNL A   1      35.561  31.860  39.064  1.00  0.00    -0.744 OA
ENDBRANCH  77  81
ENDBRANCH  50  74
BRANCH  62  85
ATOM     85  C   UNL A   1      44.574  28.186  34.239  1.00  0.00     0.023 A 
ATOM     86  C   UNL A   1      44.660  27.101  35.129  1.00  0.00     0.031 A 
ATOM     87  C   UNL A   1      45.673  29.058  34.150  1.00  0.00     0.131 A 
ATOM     88  C   UNL A   1      45.792  26.952  35.943  1.00  0.00     0.055 A 
ATOM     89  C   UNL A   1      46.822  28.872  34.920  1.00  0.00     0.041 A 
ATOM     90  F   UNL A   1      45.643  30.112  33.317  1.00  0.00    -0.206 F 
ATOM     91  C   UNL A   1      46.880  27.824  35.834  1.00  0.00     0.022 A 
BRANCH  88  92
ATOM     92  S   UNL A   1      45.782  25.666  37.222  1.00  0.00     0.124 S 
ATOM     93  O   UNL A   1      44.395  25.211  37.184  1.00  0.00    -0.237 OA
ATOM     94  O   UNL A   1      46.776  24.722  36.723  1.00  0.00    -0.237 OA
ATOM     95  O   UNL A   1      46.164  26.386  38.435  1.00  0.00    -0.744 OA
ENDBRANCH  88  92
ENDBRANCH  62  85
ENDBRANCH  36  37
ENDBRANCH  28  31
ENDBRANCH  26  27
ENDBRANCH  25  26
ENDBRANCH   1  25
TORSDOF 17
ENDMDL
