MODEL 1
REMARK VINA RESULT:     -11.8      0.000      0.000
REMARK SMILES COc1cccc(N2CCN(c3ccc(NC(=O)c4ccc(F)cc4)c(C(=O)NCCCNC(=O)c4ccc(-c5c6nc(c(-c7cc(S(=O)(=O)[O-])ccc7F)c7ccc([nH]7)c(-c7cc(S(=O)(=O)[O-])ccc7F)c7nc(c(-c8cc(S(=O)(=O)[O-])ccc8F)c8ccc5[nH]8)C=C7)C=C6)cc4)c3)CC2)c1
REMARK SMILES IDX 31 1 30 2 29 3 27 4 28 5 26 7 12 8 13 9 99 10 14 11 15 12
REMARK SMILES IDX 11 13 8 14 9 15 101 16 10 17 100 18 7 19 3 20 4 21 102 22
REMARK SMILES IDX 5 23 6 24 2 25 1 26 16 27 17 28 18 30 19 31 20 32 25 33
REMARK SMILES IDX 21 34 24 35 22 36 23 37 32 38 33 39 34 40 35 42 36 43 37 44
REMARK SMILES IDX 98 45 38 46 97 47 39 48 40 49 41 50 91 51 42 52 96 53 90 54
REMARK SMILES IDX 92 55 43 56 95 57 89 58 88 59 44 61 76 62 56 63 75 64 57 65
REMARK SMILES IDX 60 66 74 67 93 68 58 69 59 70 73 72 94 73 61 74 45 75 46 76
REMARK SMILES IDX 54 77 47 78 53 79 55 80 52 81 48 82 49 83 50 84 51 85 77 86
REMARK SMILES IDX 78 87 86 88 79 89 85 90 87 91 84 92 80 93 81 94 82 95 83 96
REMARK SMILES IDX 62 97 63 98 71 99 64 100 70 101 72 102 69 103 65 104 66 105
REMARK SMILES IDX 67 106 68 107
REMARK H PARENT 29 6 16 29 33 41 92 60 60 71
REMARK Flexibility Score: inf
ROOT
ATOM      1  C   UNL A   1      36.255  23.478  24.723  1.00  0.00     0.042 C 
ENDROOT
BRANCH   1   2
ATOM      2  C   UNL A   1      34.980  24.299  24.650  1.00  0.00     0.118 C 
BRANCH   2   3
ATOM      3  N   UNL A   1      34.506  24.593  23.300  1.00  0.00    -0.352 N 
ATOM      4  C   UNL A   1      33.389  25.225  22.793  1.00  0.00     0.253 C 
ATOM      5  O   UNL A   1      33.313  25.342  21.568  1.00  0.00    -0.269 OA
ATOM      6  H   UNL A   1      35.118  24.271  22.599  1.00  0.00     0.163 HD
BRANCH   4   7
ATOM      7  C   UNL A   1      32.239  25.667  23.640  1.00  0.00     0.065 A 
ATOM      8  C   UNL A   1      31.409  27.279  25.296  1.00  0.00     0.038 A 
ATOM      9  C   UNL A   1      30.486  26.309  25.688  1.00  0.00     0.028 A 
ATOM     10  C   UNL A   1      32.211  26.953  24.200  1.00  0.00     0.042 A 
ATOM     11  C   UNL A   1      30.354  25.098  25.006  1.00  0.00     0.029 A 
ATOM     12  C   UNL A   1      31.170  24.795  23.917  1.00  0.00     0.054 A 
BRANCH   8  13
ATOM     13  N   UNL A   1      31.532  28.470  25.985  1.00  0.00    -0.368 N 
ATOM     14  N   UNL A   1      33.534  30.313  26.905  1.00  0.00    -0.368 N 
ATOM     15  C   UNL A   1      33.422  28.999  27.550  1.00  0.00     0.138 C 
ATOM     16  C   UNL A   1      33.094  30.378  25.507  1.00  0.00     0.138 C 
ATOM     17  C   UNL A   1      31.979  28.452  27.404  1.00  0.00     0.138 C 
ATOM     18  C   UNL A   1      31.672  29.794  25.338  1.00  0.00     0.138 C 
BRANCH  14  19
ATOM     19  C   UNL A   1      33.764  31.440  27.664  1.00  0.00     0.040 A 
ATOM     20  C   UNL A   1      33.211  33.715  28.345  1.00  0.00     0.120 A 
ATOM     21  C   UNL A   1      34.317  33.747  29.190  1.00  0.00     0.046 A 
ATOM     22  C   UNL A   1      32.955  32.580  27.569  1.00  0.00     0.072 A 
ATOM     23  C   UNL A   1      35.131  32.623  29.306  1.00  0.00     0.006 A 
ATOM     24  C   UNL A   1      34.842  31.477  28.560  1.00  0.00     0.026 A 
BRANCH  20  25
ATOM     25  O   UNL A   1      32.461  34.860  28.280  1.00  0.00    -0.497 OA
ATOM     26  C   UNL A   1      32.882  35.865  29.198  1.00  0.00     0.278 C 
ENDBRANCH  20  25
ENDBRANCH  14  19
ENDBRANCH   8  13
BRANCH  12  27
ATOM     27  N   UNL A   1      30.917  23.679  23.081  1.00  0.00    -0.321 N 
ATOM     28  C   UNL A   1      31.384  22.378  23.124  1.00  0.00     0.255 C 
ATOM     29  H   UNL A   1      30.298  23.862  22.336  1.00  0.00     0.170 HD
ATOM     30  O   UNL A   1      31.134  21.580  22.222  1.00  0.00    -0.269 OA
BRANCH  28  31
ATOM     31  C   UNL A   1      32.156  21.879  24.287  1.00  0.00     0.040 A 
ATOM     32  C   UNL A   1      33.257  21.048  24.046  1.00  0.00     0.017 A 
ATOM     33  C   UNL A   1      31.831  22.260  25.598  1.00  0.00     0.017 A 
ATOM     34  C   UNL A   1      34.090  20.682  25.104  1.00  0.00     0.040 A 
ATOM     35  C   UNL A   1      32.677  21.904  26.650  1.00  0.00     0.040 A 
ATOM     36  C   UNL A   1      33.806  21.133  26.390  1.00  0.00     0.123 A 
ATOM     37  F   UNL A   1      34.639  20.827  27.394  1.00  0.00    -0.207 F 
ENDBRANCH  28  31
ENDBRANCH  12  27
ENDBRANCH   4   7
ENDBRANCH   2   3
ENDBRANCH   1   2
BRANCH   1  38
ATOM     38  C   UNL A   1      36.740  23.190  26.131  1.00  0.00     0.118 C 
BRANCH  38  39
ATOM     39  N   UNL A   1      37.678  22.075  26.191  1.00  0.00    -0.352 N 
ATOM     40  C   UNL A   1      39.040  22.042  26.386  1.00  0.00     0.251 C 
ATOM     41  H   UNL A   1      37.265  21.190  26.068  1.00  0.00     0.163 HD
ATOM     42  O   UNL A   1      39.645  20.998  26.170  1.00  0.00    -0.269 OA
BRANCH  40  43
ATOM     43  C   UNL A   1      39.775  23.251  26.827  1.00  0.00     0.039 A 
ATOM     44  C   UNL A   1      40.718  23.142  27.854  1.00  0.00     0.014 A 
ATOM     45  C   UNL A   1      39.523  24.497  26.253  1.00  0.00     0.014 A 
ATOM     46  C   UNL A   1      41.464  24.262  28.236  1.00  0.00     0.010 A 
ATOM     47  C   UNL A   1      40.339  25.581  26.554  1.00  0.00     0.010 A 
ATOM     48  C   UNL A   1      41.317  25.480  27.554  1.00  0.00    -0.014 A 
BRANCH  48  49
ATOM     49  C   UNL A   1      42.156  26.667  27.872  1.00  0.00     0.031 A 
ATOM     50  C   UNL A   1      41.586  27.788  28.702  1.00  0.00     0.074 A 
ATOM     51  C   UNL A   1      43.396  26.771  27.354  1.00  0.00     0.049 A 
ATOM     52  N   UNL A   1      42.105  28.954  28.989  1.00  0.00    -0.248 NA
ATOM     53  C   UNL A   1      40.237  27.582  29.253  1.00  0.00     0.031 C 
ATOM     54  C   UNL A   1      44.047  25.767  26.508  1.00  0.00     0.029 A 
ATOM     55  N   UNL A   1      44.330  27.773  27.452  1.00  0.00    -0.354 N 
ATOM     56  C   UNL A   1      41.144  29.621  29.742  1.00  0.00     0.074 A 
ATOM     57  C   UNL A   1      39.984  28.761  29.798  1.00  0.00     0.031 C 
ATOM     58  C   UNL A   1      45.283  26.187  26.196  1.00  0.00     0.029 A 
ATOM     59  C   UNL A   1      45.494  27.515  26.763  1.00  0.00     0.049 A 
ATOM     60  H   UNL A   1      44.180  28.598  27.966  1.00  0.00     0.167 HD
ATOM     61  C   UNL A   1      41.233  30.828  30.356  1.00  0.00     0.034 A 
ATOM     62  C   UNL A   1      46.599  28.269  26.595  1.00  0.00     0.034 A 
ATOM     63  C   UNL A   1      42.402  31.670  30.298  1.00  0.00     0.049 A 
ATOM     64  C   UNL A   1      46.652  29.632  27.242  1.00  0.00     0.074 A 
ATOM     65  C   UNL A   1      42.614  32.893  30.910  1.00  0.00     0.029 A 
ATOM     66  N   UNL A   1      43.557  31.380  29.583  1.00  0.00    -0.354 N 
ATOM     67  N   UNL A   1      45.748  30.232  27.982  1.00  0.00    -0.248 NA
ATOM     68  C   UNL A   1      47.878  30.414  27.039  1.00  0.00     0.031 C 
ATOM     69  C   UNL A   1      43.864  33.374  30.507  1.00  0.00     0.029 A 
ATOM     70  C   UNL A   1      44.471  32.413  29.714  1.00  0.00     0.049 A 
ATOM     71  H   UNL A   1      43.704  30.559  29.059  1.00  0.00     0.167 HD
ATOM     72  C   UNL A   1      46.315  31.445  28.365  1.00  0.00     0.074 A 
ATOM     73  C   UNL A   1      47.642  31.483  27.786  1.00  0.00     0.031 C 
ATOM     74  C   UNL A   1      45.791  32.437  29.129  1.00  0.00     0.034 A 
BRANCH  61  75
ATOM     75  C   UNL A   1      40.025  31.307  31.127  1.00  0.00     0.023 A 
ATOM     76  C   UNL A   1      39.990  31.279  32.533  1.00  0.00     0.031 A 
ATOM     77  C   UNL A   1      38.883  31.774  30.452  1.00  0.00     0.131 A 
ATOM     78  C   UNL A   1      38.815  31.632  33.213  1.00  0.00     0.055 A 
ATOM     79  C   UNL A   1      37.748  32.210  31.140  1.00  0.00     0.041 A 
ATOM     80  F   UNL A   1      38.845  31.804  29.111  1.00  0.00    -0.206 F 
ATOM     81  C   UNL A   1      37.703  32.125  32.527  1.00  0.00     0.022 A 
BRANCH  78  82
ATOM     82  S   UNL A   1      38.713  31.292  34.992  1.00  0.00     0.124 S 
ATOM     83  O   UNL A   1      39.884  32.005  35.494  1.00  0.00    -0.237 OA
ATOM     84  O   UNL A   1      37.417  31.859  35.347  1.00  0.00    -0.237 OA
ATOM     85  O   UNL A   1      38.799  29.835  35.066  1.00  0.00    -0.744 OA
ENDBRANCH  78  82
ENDBRANCH  61  75
BRANCH  62  86
ATOM     86  C   UNL A   1      47.745  27.773  25.778  1.00  0.00     0.023 A 
ATOM     87  C   UNL A   1      47.779  27.976  24.388  1.00  0.00     0.031 A 
ATOM     88  C   UNL A   1      48.791  27.035  26.359  1.00  0.00     0.131 A 
ATOM     89  C   UNL A   1      48.799  27.396  23.620  1.00  0.00     0.055 A 
ATOM     90  C   UNL A   1      49.840  26.516  25.598  1.00  0.00     0.041 A 
ATOM     91  F   UNL A   1      48.813  26.811  27.683  1.00  0.00    -0.206 F 
ATOM     92  C   UNL A   1      49.839  26.679  24.216  1.00  0.00     0.022 A 
BRANCH  89  93
ATOM     93  S   UNL A   1      48.684  27.493  21.812  1.00  0.00     0.124 S 
ATOM     94  O   UNL A   1      47.380  28.119  21.633  1.00  0.00    -0.237 OA
ATOM     95  O   UNL A   1      49.843  28.314  21.479  1.00  0.00    -0.237 OA
ATOM     96  O   UNL A   1      48.769  26.096  21.392  1.00  0.00    -0.744 OA
ENDBRANCH  89  93
ENDBRANCH  62  86
BRANCH  74  97
ATOM     97  C   UNL A   1      46.681  33.619  29.432  1.00  0.00     0.023 A 
ATOM     98  C   UNL A   1      47.504  33.658  30.571  1.00  0.00     0.031 A 
ATOM     99  C   UNL A   1      46.701  34.726  28.563  1.00  0.00     0.131 A 
ATOM    100  C   UNL A   1      48.269  34.802  30.840  1.00  0.00     0.055 A 
ATOM    101  C   UNL A   1      47.516  35.833  28.801  1.00  0.00     0.041 A 
ATOM    102  F   UNL A   1      45.933  34.745  27.462  1.00  0.00    -0.206 F 
ATOM    103  C   UNL A   1      48.295  35.881  29.953  1.00  0.00     0.022 A 
BRANCH 100 104
ATOM    104  S   UNL A   1      49.159  34.902  32.417  1.00  0.00     0.124 S 
ATOM    105  O   UNL A   1      48.618  36.130  32.992  1.00  0.00    -0.237 OA
ATOM    106  O   UNL A   1      48.763  33.663  33.078  1.00  0.00    -0.237 OA
ATOM    107  O   UNL A   1      50.562  34.970  32.017  1.00  0.00    -0.744 OA
ENDBRANCH 100 104
ENDBRANCH  74  97
ENDBRANCH  48  49
ENDBRANCH  40  43
ENDBRANCH  38  39
ENDBRANCH   1  38
TORSDOF 18
ENDMDL
MODEL 2
REMARK VINA RESULT:     -11.6      8.081     14.770
REMARK SMILES COc1cccc(N2CCN(c3ccc(NC(=O)c4ccc(F)cc4)c(C(=O)NCCCNC(=O)c4ccc(-c5c6nc(c(-c7cc(S(=O)(=O)[O-])ccc7F)c7ccc([nH]7)c(-c7cc(S(=O)(=O)[O-])ccc7F)c7nc(c(-c8cc(S(=O)(=O)[O-])ccc8F)c8ccc5[nH]8)C=C7)C=C6)cc4)c3)CC2)c1
REMARK SMILES IDX 31 1 30 2 29 3 27 4 28 5 26 7 12 8 13 9 99 10 14 11 15 12
REMARK SMILES IDX 11 13 8 14 9 15 101 16 10 17 100 18 7 19 3 20 4 21 102 22
REMARK SMILES IDX 5 23 6 24 2 25 1 26 16 27 17 28 18 30 19 31 20 32 25 33
REMARK SMILES IDX 21 34 24 35 22 36 23 37 32 38 33 39 34 40 35 42 36 43 37 44
REMARK SMILES IDX 98 45 38 46 97 47 39 48 40 49 41 50 91 51 42 52 96 53 90 54
REMARK SMILES IDX 92 55 43 56 95 57 89 58 88 59 44 61 76 62 56 63 75 64 57 65
REMARK SMILES IDX 60 66 74 67 93 68 58 69 59 70 73 72 94 73 61 74 45 75 46 76
REMARK SMILES IDX 54 77 47 78 53 79 55 80 52 81 48 82 49 83 50 84 51 85 77 86
REMARK SMILES IDX 78 87 86 88 79 89 85 90 87 91 84 92 80 93 81 94 82 95 83 96
REMARK SMILES IDX 62 97 63 98 71 99 64 100 70 101 72 102 69 103 65 104 66 105
REMARK SMILES IDX 67 106 68 107
REMARK H PARENT 29 6 16 29 33 41 92 60 60 71
REMARK Flexibility Score: inf
ROOT
ATOM      1  C   UNL A   1      46.206  37.382  26.511  1.00  0.00     0.042 C 
ENDROOT
BRANCH   1   2
ATOM      2  C   UNL A   1      46.875  38.599  25.895  1.00  0.00     0.118 C 
BRANCH   2   3
ATOM      3  N   UNL A   1      46.841  39.808  26.714  1.00  0.00    -0.352 N 
ATOM      4  C   UNL A   1      45.865  40.738  27.008  1.00  0.00     0.253 C 
ATOM      5  O   UNL A   1      46.165  41.644  27.789  1.00  0.00    -0.269 OA
ATOM      6  H   UNL A   1      47.701  40.001  27.151  1.00  0.00     0.163 HD
BRANCH   4   7
ATOM      7  C   UNL A   1      44.521  40.756  26.351  1.00  0.00     0.065 A 
ATOM      8  C   UNL A   1      43.028  41.883  24.760  1.00  0.00     0.038 A 
ATOM      9  C   UNL A   1      41.959  41.327  25.464  1.00  0.00     0.028 A 
ATOM     10  C   UNL A   1      44.303  41.498  25.180  1.00  0.00     0.042 A 
ATOM     11  C   UNL A   1      42.155  40.416  26.504  1.00  0.00     0.029 A 
ATOM     12  C   UNL A   1      43.438  40.051  26.906  1.00  0.00     0.054 A 
BRANCH   8  13
ATOM     13  N   UNL A   1      42.819  42.787  23.738  1.00  0.00    -0.368 N 
ATOM     14  N   UNL A   1      42.707  42.918  20.870  1.00  0.00    -0.368 N 
ATOM     15  C   UNL A   1      44.004  42.707  21.525  1.00  0.00     0.138 C 
ATOM     16  C   UNL A   1      41.533  42.442  21.608  1.00  0.00     0.138 C 
ATOM     17  C   UNL A   1      43.981  43.295  22.960  1.00  0.00     0.138 C 
ATOM     18  C   UNL A   1      41.520  42.985  23.056  1.00  0.00     0.138 C 
BRANCH  14  19
ATOM     19  C   UNL A   1      42.611  43.761  19.784  1.00  0.00     0.040 A 
ATOM     20  C   UNL A   1      43.536  45.462  18.302  1.00  0.00     0.120 A 
ATOM     21  C   UNL A   1      42.339  45.519  17.595  1.00  0.00     0.046 A 
ATOM     22  C   UNL A   1      43.659  44.610  19.405  1.00  0.00     0.072 A 
ATOM     23  C   UNL A   1      41.287  44.679  17.949  1.00  0.00     0.006 A 
ATOM     24  C   UNL A   1      41.432  43.798  19.024  1.00  0.00     0.026 A 
BRANCH  20  25
ATOM     25  O   UNL A   1      44.523  46.323  17.898  1.00  0.00    -0.497 OA
ATOM     26  C   UNL A   1      44.303  47.669  18.309  1.00  0.00     0.278 C 
ENDBRANCH  20  25
ENDBRANCH  14  19
ENDBRANCH   8  13
BRANCH  12  27
ATOM     27  N   UNL A   1      43.663  38.978  27.805  1.00  0.00    -0.321 N 
ATOM     28  C   UNL A   1      43.700  38.934  29.187  1.00  0.00     0.255 C 
ATOM     29  H   UNL A   1      43.821  38.109  27.369  1.00  0.00     0.170 HD
ATOM     30  O   UNL A   1      44.034  37.912  29.784  1.00  0.00    -0.269 OA
BRANCH  28  31
ATOM     31  C   UNL A   1      43.284  40.099  30.002  1.00  0.00     0.040 A 
ATOM     32  C   UNL A   1      44.268  40.800  30.711  1.00  0.00     0.017 A 
ATOM     33  C   UNL A   1      41.948  40.529  30.035  1.00  0.00     0.017 A 
ATOM     34  C   UNL A   1      43.934  41.985  31.367  1.00  0.00     0.040 A 
ATOM     35  C   UNL A   1      41.623  41.723  30.681  1.00  0.00     0.040 A 
ATOM     36  C   UNL A   1      42.621  42.448  31.326  1.00  0.00     0.123 A 
ATOM     37  F   UNL A   1      42.315  43.614  31.908  1.00  0.00    -0.207 F 
ENDBRANCH  28  31
ENDBRANCH  12  27
ENDBRANCH   4   7
ENDBRANCH   2   3
ENDBRANCH   1   2
BRANCH   1  38
ATOM     38  C   UNL A   1      46.767  36.052  26.045  1.00  0.00     0.118 C 
BRANCH  38  39
ATOM     39  N   UNL A   1      45.912  35.389  25.067  1.00  0.00    -0.352 N 
ATOM     40  C   UNL A   1      44.803  34.588  25.223  1.00  0.00     0.251 C 
ATOM     41  H   UNL A   1      46.175  35.538  24.130  1.00  0.00     0.163 HD
ATOM     42  O   UNL A   1      44.385  33.960  24.256  1.00  0.00    -0.269 OA
BRANCH  40  43
ATOM     43  C   UNL A   1      44.133  34.465  26.539  1.00  0.00     0.039 A 
ATOM     44  C   UNL A   1      44.346  33.317  27.309  1.00  0.00     0.014 A 
ATOM     45  C   UNL A   1      43.278  35.461  27.008  1.00  0.00     0.014 A 
ATOM     46  C   UNL A   1      43.771  33.215  28.580  1.00  0.00     0.010 A 
ATOM     47  C   UNL A   1      42.799  35.411  28.312  1.00  0.00     0.010 A 
ATOM     48  C   UNL A   1      43.034  34.285  29.114  1.00  0.00    -0.014 A 
BRANCH  48  49
ATOM     49  C   UNL A   1      42.484  34.249  30.496  1.00  0.00     0.031 A 
ATOM     50  C   UNL A   1      40.997  34.129  30.709  1.00  0.00     0.074 A 
ATOM     51  C   UNL A   1      43.309  34.401  31.551  1.00  0.00     0.049 A 
ATOM     52  N   UNL A   1      40.311  34.200  31.821  1.00  0.00    -0.248 NA
ATOM     53  C   UNL A   1      40.171  33.937  29.507  1.00  0.00     0.031 C 
ATOM     54  C   UNL A   1      44.764  34.560  31.473  1.00  0.00     0.029 A 
ATOM     55  N   UNL A   1      43.046  34.458  32.898  1.00  0.00    -0.354 N 
ATOM     56  C   UNL A   1      38.976  34.075  31.450  1.00  0.00     0.074 A 
ATOM     57  C   UNL A   1      38.947  34.001  30.005  1.00  0.00     0.031 C 
ATOM     58  C   UNL A   1      45.264  34.659  32.713  1.00  0.00     0.029 A 
ATOM     59  C   UNL A   1      44.168  34.636  33.675  1.00  0.00     0.049 A 
ATOM     60  H   UNL A   1      42.139  34.380  33.271  1.00  0.00     0.167 HD
ATOM     61  C   UNL A   1      37.877  33.995  32.242  1.00  0.00     0.034 A 
ATOM     62  C   UNL A   1      44.296  34.780  35.010  1.00  0.00     0.034 A 
ATOM     63  C   UNL A   1      37.924  34.060  33.681  1.00  0.00     0.049 A 
ATOM     64  C   UNL A   1      43.054  34.744  35.866  1.00  0.00     0.074 A 
ATOM     65  C   UNL A   1      36.879  33.955  34.583  1.00  0.00     0.029 A 
ATOM     66  N   UNL A   1      39.077  34.250  34.432  1.00  0.00    -0.354 N 
ATOM     67  N   UNL A   1      41.802  34.587  35.501  1.00  0.00    -0.248 NA
ATOM     68  C   UNL A   1      43.242  34.895  37.314  1.00  0.00     0.031 C 
ATOM     69  C   UNL A   1      37.389  34.155  35.870  1.00  0.00     0.029 A 
ATOM     70  C   UNL A   1      38.764  34.296  35.782  1.00  0.00     0.049 A 
ATOM     71  H   UNL A   1      39.984  34.340  34.060  1.00  0.00     0.167 HD
ATOM     72  C   UNL A   1      41.060  34.580  36.680  1.00  0.00     0.074 A 
ATOM     73  C   UNL A   1      42.007  34.735  37.765  1.00  0.00     0.031 C 
ATOM     74  C   UNL A   1      39.720  34.453  36.853  1.00  0.00     0.034 A 
BRANCH  61  75
ATOM     75  C   UNL A   1      36.537  33.846  31.560  1.00  0.00     0.023 A 
ATOM     76  C   UNL A   1      35.614  34.907  31.509  1.00  0.00     0.031 A 
ATOM     77  C   UNL A   1      36.164  32.624  30.972  1.00  0.00     0.131 A 
ATOM     78  C   UNL A   1      34.340  34.703  30.960  1.00  0.00     0.055 A 
ATOM     79  C   UNL A   1      34.927  32.456  30.346  1.00  0.00     0.041 A 
ATOM     80  F   UNL A   1      36.991  31.568  31.006  1.00  0.00    -0.206 F 
ATOM     81  C   UNL A   1      34.000  33.493  30.352  1.00  0.00     0.022 A 
BRANCH  78  82
ATOM     82  S   UNL A   1      33.085  35.992  31.191  1.00  0.00     0.124 S 
ATOM     83  O   UNL A   1      32.137  35.323  32.080  1.00  0.00    -0.237 OA
ATOM     84  O   UNL A   1      33.855  37.081  31.781  1.00  0.00    -0.237 OA
ATOM     85  O   UNL A   1      32.592  36.236  29.837  1.00  0.00    -0.744 OA
ENDBRANCH  78  82
ENDBRANCH  61  75
BRANCH  62  86
ATOM     86  C   UNL A   1      45.639  34.979  35.631  1.00  0.00     0.023 A 
ATOM     87  C   UNL A   1      46.391  33.883  36.085  1.00  0.00     0.031 A 
ATOM     88  C   UNL A   1      46.164  36.267  35.838  1.00  0.00     0.131 A 
ATOM     89  C   UNL A   1      47.592  34.097  36.777  1.00  0.00     0.055 A 
ATOM     90  C   UNL A   1      47.393  36.470  36.469  1.00  0.00     0.041 A 
ATOM     91  F   UNL A   1      45.491  37.352  35.423  1.00  0.00    -0.206 F 
ATOM     92  C   UNL A   1      48.107  35.382  36.960  1.00  0.00     0.022 A 
BRANCH  89  93
ATOM     93  S   UNL A   1      48.417  32.672  37.541  1.00  0.00     0.124 S 
ATOM     94  O   UNL A   1      49.256  33.319  38.542  1.00  0.00    -0.237 OA
ATOM     95  O   UNL A   1      47.284  31.905  38.050  1.00  0.00    -0.237 OA
ATOM     96  O   UNL A   1      49.134  32.057  36.426  1.00  0.00    -0.744 OA
ENDBRANCH  89  93
ENDBRANCH  62  86
BRANCH  74  97
ATOM     97  C   UNL A   1      39.208  34.415  38.273  1.00  0.00     0.023 A 
ATOM     98  C   UNL A   1      38.916  33.205  38.926  1.00  0.00     0.031 A 
ATOM     99  C   UNL A   1      39.007  35.614  38.981  1.00  0.00     0.131 A 
ATOM    100  C   UNL A   1      38.387  33.223  40.225  1.00  0.00     0.055 A 
ATOM    101  C   UNL A   1      38.545  35.622  40.297  1.00  0.00     0.041 A 
ATOM    102  F   UNL A   1      39.266  36.800  38.406  1.00  0.00    -0.206 F 
ATOM    103  C   UNL A   1      38.218  34.422  40.922  1.00  0.00     0.022 A 
BRANCH 100 104
ATOM    104  S   UNL A   1      37.831  31.661  40.960  1.00  0.00     0.124 S 
ATOM    105  O   UNL A   1      39.044  31.186  41.617  1.00  0.00    -0.237 OA
ATOM    106  O   UNL A   1      36.757  32.098  41.846  1.00  0.00    -0.237 OA
ATOM    107  O   UNL A   1      37.401  30.873  39.807  1.00  0.00    -0.744 OA
ENDBRANCH 100 104
ENDBRANCH  74  97
ENDBRANCH  48  49
ENDBRANCH  40  43
ENDBRANCH  38  39
ENDBRANCH   1  38
TORSDOF 18
ENDMDL
MODEL 3
REMARK VINA RESULT:     -11.5      1.869      2.098
REMARK SMILES COc1cccc(N2CCN(c3ccc(NC(=O)c4ccc(F)cc4)c(C(=O)NCCCNC(=O)c4ccc(-c5c6nc(c(-c7cc(S(=O)(=O)[O-])ccc7F)c7ccc([nH]7)c(-c7cc(S(=O)(=O)[O-])ccc7F)c7nc(c(-c8cc(S(=O)(=O)[O-])ccc8F)c8ccc5[nH]8)C=C7)C=C6)cc4)c3)CC2)c1
REMARK SMILES IDX 31 1 30 2 29 3 27 4 28 5 26 7 12 8 13 9 99 10 14 11 15 12
REMARK SMILES IDX 11 13 8 14 9 15 101 16 10 17 100 18 7 19 3 20 4 21 102 22
REMARK SMILES IDX 5 23 6 24 2 25 1 26 16 27 17 28 18 30 19 31 20 32 25 33
REMARK SMILES IDX 21 34 24 35 22 36 23 37 32 38 33 39 34 40 35 42 36 43 37 44
REMARK SMILES IDX 98 45 38 46 97 47 39 48 40 49 41 50 91 51 42 52 96 53 90 54
REMARK SMILES IDX 92 55 43 56 95 57 89 58 88 59 44 61 76 62 56 63 75 64 57 65
REMARK SMILES IDX 60 66 74 67 93 68 58 69 59 70 73 72 94 73 61 74 45 75 46 76
REMARK SMILES IDX 54 77 47 78 53 79 55 80 52 81 48 82 49 83 50 84 51 85 77 86
REMARK SMILES IDX 78 87 86 88 79 89 85 90 87 91 84 92 80 93 81 94 82 95 83 96
REMARK SMILES IDX 62 97 63 98 71 99 64 100 70 101 72 102 69 103 65 104 66 105
REMARK SMILES IDX 67 106 68 107
REMARK H PARENT 29 6 16 29 33 41 92 60 60 71
REMARK Flexibility Score: inf
ROOT
ATOM      1  C   UNL A   1      36.387  23.659  26.106  1.00  0.00     0.042 C 
ENDROOT
BRANCH   1   2
ATOM      2  C   UNL A   1      35.280  24.439  25.418  1.00  0.00     0.118 C 
BRANCH   2   3
ATOM      3  N   UNL A   1      34.975  24.014  24.055  1.00  0.00    -0.352 N 
ATOM      4  C   UNL A   1      34.034  24.396  23.120  1.00  0.00     0.253 C 
ATOM      5  O   UNL A   1      34.077  23.846  22.018  1.00  0.00    -0.269 OA
ATOM      6  H   UNL A   1      35.570  23.299  23.733  1.00  0.00     0.163 HD
BRANCH   4   7
ATOM      7  C   UNL A   1      32.922  25.351  23.416  1.00  0.00     0.065 A 
ATOM      8  C   UNL A   1      32.283  27.546  24.311  1.00  0.00     0.038 A 
ATOM      9  C   UNL A   1      31.022  27.007  24.567  1.00  0.00     0.028 A 
ATOM     10  C   UNL A   1      33.183  26.710  23.646  1.00  0.00     0.042 A 
ATOM     11  C   UNL A   1      30.673  25.720  24.155  1.00  0.00     0.029 A 
ATOM     12  C   UNL A   1      31.590  24.903  23.496  1.00  0.00     0.054 A 
BRANCH   8  13
ATOM     13  N   UNL A   1      32.616  28.819  24.731  1.00  0.00    -0.368 N 
ATOM     14  N   UNL A   1      33.753  30.195  26.982  1.00  0.00    -0.368 N 
ATOM     15  C   UNL A   1      32.409  29.616  27.103  1.00  0.00     0.138 C 
ATOM     16  C   UNL A   1      34.647  29.540  26.021  1.00  0.00     0.138 C 
ATOM     17  C   UNL A   1      31.740  29.521  25.708  1.00  0.00     0.138 C 
ATOM     18  C   UNL A   1      33.976  29.397  24.636  1.00  0.00     0.138 C 
BRANCH  14  19
ATOM     19  C   UNL A   1      34.026  31.431  27.527  1.00  0.00     0.040 A 
ATOM     20  C   UNL A   1      33.331  33.652  28.256  1.00  0.00     0.120 A 
ATOM     21  C   UNL A   1      34.645  33.973  28.580  1.00  0.00     0.046 A 
ATOM     22  C   UNL A   1      33.030  32.400  27.707  1.00  0.00     0.072 A 
ATOM     23  C   UNL A   1      35.650  33.023  28.416  1.00  0.00     0.006 A 
ATOM     24  C   UNL A   1      35.334  31.759  27.909  1.00  0.00     0.026 A 
BRANCH  20  25
ATOM     25  O   UNL A   1      32.399  34.640  28.440  1.00  0.00    -0.497 OA
ATOM     26  C   UNL A   1      32.962  35.875  28.871  1.00  0.00     0.278 C 
ENDBRANCH  20  25
ENDBRANCH  14  19
ENDBRANCH   8  13
BRANCH  12  27
ATOM     27  N   UNL A   1      31.202  23.686  22.881  1.00  0.00    -0.321 N 
ATOM     28  C   UNL A   1      31.470  22.370  23.209  1.00  0.00     0.255 C 
ATOM     29  H   UNL A   1      30.643  23.798  22.078  1.00  0.00     0.170 HD
ATOM     30  O   UNL A   1      31.134  21.447  22.468  1.00  0.00    -0.269 OA
BRANCH  28  31
ATOM     31  C   UNL A   1      32.120  22.016  24.493  1.00  0.00     0.040 A 
ATOM     32  C   UNL A   1      33.168  21.087  24.473  1.00  0.00     0.017 A 
ATOM     33  C   UNL A   1      31.737  22.624  25.699  1.00  0.00     0.017 A 
ATOM     34  C   UNL A   1      33.897  20.844  25.637  1.00  0.00     0.040 A 
ATOM     35  C   UNL A   1      32.479  22.388  26.857  1.00  0.00     0.040 A 
ATOM     36  C   UNL A   1      33.561  21.514  26.811  1.00  0.00     0.123 A 
ATOM     37  F   UNL A   1      34.298  21.321  27.913  1.00  0.00    -0.207 F 
ENDBRANCH  28  31
ENDBRANCH  12  27
ENDBRANCH   4   7
ENDBRANCH   2   3
ENDBRANCH   1   2
BRANCH   1  38
ATOM     38  C   UNL A   1      37.324  22.929  25.162  1.00  0.00     0.118 C 
BRANCH  38  39
ATOM     39  N   UNL A   1      38.016  21.814  25.799  1.00  0.00    -0.352 N 
ATOM     40  C   UNL A   1      39.210  21.757  26.483  1.00  0.00     0.251 C 
ATOM     41  H   UNL A   1      37.548  20.951  25.728  1.00  0.00     0.163 HD
ATOM     42  O   UNL A   1      39.696  20.660  26.733  1.00  0.00    -0.269 OA
BRANCH  40  43
ATOM     43  C   UNL A   1      39.913  22.996  26.891  1.00  0.00     0.039 A 
ATOM     44  C   UNL A   1      40.803  22.954  27.969  1.00  0.00     0.014 A 
ATOM     45  C   UNL A   1      39.683  24.204  26.235  1.00  0.00     0.014 A 
ATOM     46  C   UNL A   1      41.521  24.100  28.324  1.00  0.00     0.010 A 
ATOM     47  C   UNL A   1      40.475  25.312  26.514  1.00  0.00     0.010 A 
ATOM     48  C   UNL A   1      41.402  25.277  27.567  1.00  0.00    -0.014 A 
BRANCH  48  49
ATOM     49  C   UNL A   1      42.216  26.487  27.859  1.00  0.00     0.031 A 
ATOM     50  C   UNL A   1      41.615  27.623  28.646  1.00  0.00     0.074 A 
ATOM     51  C   UNL A   1      43.461  26.597  27.354  1.00  0.00     0.049 A 
ATOM     52  N   UNL A   1      42.110  28.806  28.904  1.00  0.00    -0.248 NA
ATOM     53  C   UNL A   1      40.263  27.410  29.185  1.00  0.00     0.031 C 
ATOM     54  C   UNL A   1      44.140  25.579  26.548  1.00  0.00     0.029 A 
ATOM     55  N   UNL A   1      44.376  27.617  27.433  1.00  0.00    -0.354 N 
ATOM     56  C   UNL A   1      41.128  29.479  29.623  1.00  0.00     0.074 A 
ATOM     57  C   UNL A   1      39.982  28.600  29.691  1.00  0.00     0.031 C 
ATOM     58  C   UNL A   1      45.373  26.011  26.240  1.00  0.00     0.029 A 
ATOM     59  C   UNL A   1      45.554  27.359  26.768  1.00  0.00     0.049 A 
ATOM     60  H   UNL A   1      44.205  28.456  27.920  1.00  0.00     0.167 HD
ATOM     61  C   UNL A   1      41.187  30.706  30.200  1.00  0.00     0.034 A 
ATOM     62  C   UNL A   1      46.647  28.127  26.591  1.00  0.00     0.034 A 
ATOM     63  C   UNL A   1      42.342  31.566  30.132  1.00  0.00     0.049 A 
ATOM     64  C   UNL A   1      46.669  29.510  27.196  1.00  0.00     0.074 A 
ATOM     65  C   UNL A   1      42.525  32.811  30.708  1.00  0.00     0.029 A 
ATOM     66  N   UNL A   1      43.512  31.274  29.441  1.00  0.00    -0.354 N 
ATOM     67  N   UNL A   1      45.744  30.117  27.905  1.00  0.00    -0.248 NA
ATOM     68  C   UNL A   1      47.883  30.307  26.985  1.00  0.00     0.031 C 
ATOM     69  C   UNL A   1      43.772  33.301  30.306  1.00  0.00     0.029 A 
ATOM     70  C   UNL A   1      44.406  32.327  29.552  1.00  0.00     0.049 A 
ATOM     71  H   UNL A   1      43.680  30.441  28.945  1.00  0.00     0.167 HD
ATOM     72  C   UNL A   1      46.285  31.351  28.258  1.00  0.00     0.074 A 
ATOM     73  C   UNL A   1      47.619  31.394  27.695  1.00  0.00     0.031 C 
ATOM     74  C   UNL A   1      45.734  32.356  28.984  1.00  0.00     0.034 A 
BRANCH  61  75
ATOM     75  C   UNL A   1      39.961  31.186  30.940  1.00  0.00     0.023 A 
ATOM     76  C   UNL A   1      39.908  31.204  32.346  1.00  0.00     0.031 A 
ATOM     77  C   UNL A   1      38.819  31.611  30.236  1.00  0.00     0.131 A 
ATOM     78  C   UNL A   1      38.719  31.556  32.999  1.00  0.00     0.055 A 
ATOM     79  C   UNL A   1      37.668  32.048  30.895  1.00  0.00     0.041 A 
ATOM     80  F   UNL A   1      38.799  31.596  28.894  1.00  0.00    -0.206 F 
ATOM     81  C   UNL A   1      37.607  32.006  32.284  1.00  0.00     0.022 A 
BRANCH  78  82
ATOM     82  S   UNL A   1      38.599  31.272  34.787  1.00  0.00     0.124 S 
ATOM     83  O   UNL A   1      39.855  31.847  35.260  1.00  0.00    -0.237 OA
ATOM     84  O   UNL A   1      37.387  32.001  35.142  1.00  0.00    -0.237 OA
ATOM     85  O   UNL A   1      38.508  29.817  34.896  1.00  0.00    -0.744 OA
ENDBRANCH  78  82
ENDBRANCH  61  75
BRANCH  62  86
ATOM     86  C   UNL A   1      47.813  27.626  25.805  1.00  0.00     0.023 A 
ATOM     87  C   UNL A   1      48.950  27.115  26.452  1.00  0.00     0.031 A 
ATOM     88  C   UNL A   1      47.837  27.708  24.401  1.00  0.00     0.131 A 
ATOM     89  C   UNL A   1      50.084  26.765  25.703  1.00  0.00     0.055 A 
ATOM     90  C   UNL A   1      48.944  27.296  23.657  1.00  0.00     0.041 A 
ATOM     91  F   UNL A   1      46.778  28.187  23.729  1.00  0.00    -0.206 F 
ATOM     92  C   UNL A   1      50.084  26.838  24.309  1.00  0.00     0.022 A 
BRANCH  89  93
ATOM     93  S   UNL A   1      51.604  26.323  26.590  1.00  0.00     0.124 S 
ATOM     94  O   UNL A   1      52.627  26.893  25.722  1.00  0.00    -0.237 OA
ATOM     95  O   UNL A   1      51.408  26.987  27.875  1.00  0.00    -0.237 OA
ATOM     96  O   UNL A   1      51.561  24.863  26.630  1.00  0.00    -0.744 OA
ENDBRANCH  89  93
ENDBRANCH  62  86
BRANCH  74  97
ATOM     97  C   UNL A   1      46.599  33.562  29.262  1.00  0.00     0.023 A 
ATOM     98  C   UNL A   1      46.606  34.684  28.414  1.00  0.00     0.031 A 
ATOM     99  C   UNL A   1      47.433  33.584  30.395  1.00  0.00     0.131 A 
ATOM    100  C   UNL A   1      47.470  35.756  28.682  1.00  0.00     0.055 A 
ATOM    101  C   UNL A   1      48.240  34.682  30.693  1.00  0.00     0.041 A 
ATOM    102  F   UNL A   1      47.470  32.538  31.237  1.00  0.00    -0.206 F 
ATOM    103  C   UNL A   1      48.273  35.770  29.826  1.00  0.00     0.022 A 
BRANCH 100 104
ATOM    104  S   UNL A   1      47.604  37.091  27.463  1.00  0.00     0.124 S 
ATOM    105  O   UNL A   1      46.203  37.420  27.218  1.00  0.00    -0.237 OA
ATOM    106  O   UNL A   1      48.376  38.097  28.186  1.00  0.00    -0.237 OA
ATOM    107  O   UNL A   1      48.299  36.464  26.342  1.00  0.00    -0.744 OA
ENDBRANCH 100 104
ENDBRANCH  74  97
ENDBRANCH  48  49
ENDBRANCH  40  43
ENDBRANCH  38  39
ENDBRANCH   1  38
TORSDOF 18
ENDMDL
