MODEL 1
REMARK VINA RESULT:     -12.6      0.000      0.000
REMARK SMILES O=C(NCCCNC(=O)[C@@H]1CCCC[C@@H]1NS(=O)(=O)c1ccc2ccccc2c1)c1ccc(-c2c3nc(c(-c4cc(S(=O)(=O)[O-])ccc4F)c4ccc([nH]4)c(-c4cc(S(=O)(=O)[O-])ccc4F)c4nc(c(-c5cc(S(=O)(=O)[O-])ccc5F)c5ccc2[nH]5)C=C4)C=C3)cc1
REMARK SMILES IDX 5 1 4 2 3 3 1 4 2 5 30 7 31 8 92 9 32 10 91 11 33 12 34 13
REMARK SMILES IDX 35 14 85 15 36 16 90 17 84 18 86 19 37 20 89 21 83 22 82 23
REMARK SMILES IDX 38 25 70 26 50 27 69 28 51 29 54 30 68 31 87 32 52 33 53 34
REMARK SMILES IDX 67 36 88 37 55 38 39 39 40 40 48 41 41 42 47 43 49 44 46 45
REMARK SMILES IDX 42 46 43 47 44 48 45 49 71 50 72 51 80 52 73 53 79 54 81 55
REMARK SMILES IDX 78 56 74 57 75 58 76 59 77 60 56 61 57 62 65 63 58 64 64 65
REMARK SMILES IDX 66 66 63 67 59 68 60 69 61 70 62 71 6 72 7 73 8 74 9 76
REMARK SMILES IDX 10 77 11 78 15 79 12 80 14 81 13 82 16 83 17 85 18 86 19 87
REMARK SMILES IDX 20 88 21 89 29 90 22 91 28 92 23 93 27 94 24 95 26 96 25 97
REMARK H PARENT 3 6 86 24 54 35 7 75 16 84
REMARK Flexibility Score: inf
ROOT
ATOM      1  C   UNL A   1      33.510  27.456  26.500  1.00  0.00     0.042 C 
ENDROOT
BRANCH   1   2
ATOM      2  C   UNL A   1      34.082  28.636  25.721  1.00  0.00     0.118 C 
BRANCH   2   3
ATOM      3  N   UNL A   1      33.678  29.918  26.280  1.00  0.00    -0.352 N 
ATOM      4  O   UNL A   1      33.604  31.603  27.761  1.00  0.00    -0.269 OA
ATOM      5  C   UNL A   1      34.216  30.630  27.324  1.00  0.00     0.251 C 
ATOM      6  H   UNL A   1      32.903  30.338  25.843  1.00  0.00     0.163 HD
BRANCH   5   7
ATOM      7  C   UNL A   1      35.512  30.236  27.922  1.00  0.00     0.039 A 
ATOM      8  C   UNL A   1      35.571  29.618  29.173  1.00  0.00     0.014 A 
ATOM      9  C   UNL A   1      36.685  30.430  27.184  1.00  0.00     0.014 A 
ATOM     10  C   UNL A   1      36.803  29.288  29.730  1.00  0.00     0.010 A 
ATOM     11  C   UNL A   1      37.917  30.033  27.715  1.00  0.00     0.010 A 
ATOM     12  C   UNL A   1      37.986  29.468  28.997  1.00  0.00    -0.014 A 
BRANCH  12  13
ATOM     13  C   UNL A   1      39.270  28.966  29.551  1.00  0.00     0.031 A 
ATOM     14  C   UNL A   1      39.926  29.635  30.725  1.00  0.00     0.074 A 
ATOM     15  C   UNL A   1      39.834  27.884  28.977  1.00  0.00     0.049 A 
ATOM     16  N   UNL A   1      41.041  29.319  31.332  1.00  0.00    -0.248 NA
ATOM     17  C   UNL A   1      39.252  30.815  31.286  1.00  0.00     0.031 C 
ATOM     18  C   UNL A   1      39.289  27.169  27.819  1.00  0.00     0.029 A 
ATOM     19  N   UNL A   1      40.977  27.193  29.283  1.00  0.00    -0.354 N 
ATOM     20  C   UNL A   1      41.213  30.264  32.337  1.00  0.00     0.074 A 
ATOM     21  C   UNL A   1      40.095  31.180  32.242  1.00  0.00     0.031 C 
ATOM     22  C   UNL A   1      40.083  26.126  27.531  1.00  0.00     0.029 A 
ATOM     23  C   UNL A   1      41.221  26.131  28.442  1.00  0.00     0.049 A 
ATOM     24  H   UNL A   1      41.568  27.432  30.033  1.00  0.00     0.167 HD
ATOM     25  C   UNL A   1      42.210  30.351  33.252  1.00  0.00     0.034 A 
ATOM     26  C   UNL A   1      42.259  25.274  28.389  1.00  0.00     0.034 A 
ATOM     27  C   UNL A   1      43.310  29.421  33.337  1.00  0.00     0.049 A 
ATOM     28  C   UNL A   1      43.364  25.418  29.400  1.00  0.00     0.074 A 
ATOM     29  C   UNL A   1      44.330  29.377  34.273  1.00  0.00     0.029 A 
ATOM     30  N   UNL A   1      43.545  28.381  32.447  1.00  0.00    -0.354 N 
ATOM     31  N   UNL A   1      43.478  26.286  30.378  1.00  0.00    -0.248 NA
ATOM     32  C   UNL A   1      44.478  24.467  29.302  1.00  0.00     0.031 C 
ATOM     33  C   UNL A   1      45.217  28.355  33.910  1.00  0.00     0.029 A 
ATOM     34  C   UNL A   1      44.717  27.719  32.785  1.00  0.00     0.049 A 
ATOM     35  H   UNL A   1      42.967  28.148  31.686  1.00  0.00     0.167 HD
ATOM     36  C   UNL A   1      44.674  25.978  31.018  1.00  0.00     0.074 A 
ATOM     37  C   UNL A   1      45.226  24.827  30.332  1.00  0.00     0.031 C 
ATOM     38  C   UNL A   1      45.266  26.591  32.074  1.00  0.00     0.034 A 
BRANCH  25  39
ATOM     39  C   UNL A   1      42.186  31.514  34.211  1.00  0.00     0.023 A 
ATOM     40  C   UNL A   1      41.348  31.531  35.339  1.00  0.00     0.031 A 
ATOM     41  C   UNL A   1      43.040  32.612  34.006  1.00  0.00     0.131 A 
ATOM     42  C   UNL A   1      41.353  32.642  36.197  1.00  0.00     0.055 A 
ATOM     43  C   UNL A   1      43.083  33.688  34.895  1.00  0.00     0.041 A 
ATOM     44  F   UNL A   1      43.848  32.656  32.936  1.00  0.00    -0.206 F 
ATOM     45  C   UNL A   1      42.232  33.710  35.995  1.00  0.00     0.022 A 
BRANCH  42  46
ATOM     46  S   UNL A   1      40.136  32.714  37.540  1.00  0.00     0.124 S 
ATOM     47  O   UNL A   1      40.971  32.451  38.710  1.00  0.00    -0.237 OA
ATOM     48  O   UNL A   1      39.614  34.070  37.422  1.00  0.00    -0.237 OA
ATOM     49  O   UNL A   1      39.191  31.651  37.205  1.00  0.00    -0.744 OA
ENDBRANCH  42  46
ENDBRANCH  25  39
BRANCH  26  50
ATOM     50  C   UNL A   1      42.330  24.240  27.318  1.00  0.00     0.023 A 
ATOM     51  C   UNL A   1      41.612  23.039  27.419  1.00  0.00     0.031 A 
ATOM     52  C   UNL A   1      43.160  24.422  26.197  1.00  0.00     0.131 A 
ATOM     53  C   UNL A   1      41.773  22.046  26.440  1.00  0.00     0.055 A 
ATOM     54  C   UNL A   1      43.274  23.455  25.199  1.00  0.00     0.041 A 
ATOM     55  F   UNL A   1      43.867  25.554  26.052  1.00  0.00    -0.206 F 
ATOM     56  C   UNL A   1      42.589  22.251  25.324  1.00  0.00     0.022 A 
BRANCH  53  57
ATOM     57  S   UNL A   1      40.976  20.437  26.696  1.00  0.00     0.124 S 
ATOM     58  O   UNL A   1      39.712  20.613  25.990  1.00  0.00    -0.237 OA
ATOM     59  O   UNL A   1      41.934  19.526  26.079  1.00  0.00    -0.237 OA
ATOM     60  O   UNL A   1      40.871  20.338  28.150  1.00  0.00    -0.744 OA
ENDBRANCH  53  57
ENDBRANCH  26  50
BRANCH  38  61
ATOM     61  C   UNL A   1      46.571  26.005  32.546  1.00  0.00     0.023 A 
ATOM     62  C   UNL A   1      46.605  24.979  33.507  1.00  0.00     0.031 A 
ATOM     63  C   UNL A   1      47.792  26.499  32.057  1.00  0.00     0.131 A 
ATOM     64  C   UNL A   1      47.838  24.522  33.995  1.00  0.00     0.055 A 
ATOM     65  C   UNL A   1      49.015  26.002  32.504  1.00  0.00     0.041 A 
ATOM     66  F   UNL A   1      47.813  27.480  31.140  1.00  0.00    -0.206 F 
ATOM     67  C   UNL A   1      49.043  25.016  33.488  1.00  0.00     0.022 A 
BRANCH  64  68
ATOM     68  S   UNL A   1      47.845  23.332  35.363  1.00  0.00     0.124 S 
ATOM     69  O   UNL A   1      48.961  23.809  36.173  1.00  0.00    -0.237 OA
ATOM     70  O   UNL A   1      46.517  23.509  35.939  1.00  0.00    -0.237 OA
ATOM     71  O   UNL A   1      48.065  22.048  34.700  1.00  0.00    -0.744 OA
ENDBRANCH  64  68
ENDBRANCH  38  61
ENDBRANCH  12  13
ENDBRANCH   5   7
ENDBRANCH   2   3
ENDBRANCH   1   2
BRANCH   1  72
ATOM     72  C   UNL A   1      31.987  27.439  26.552  1.00  0.00     0.117 C 
BRANCH  72  73
ATOM     73  N   UNL A   1      31.423  26.342  25.785  1.00  0.00    -0.356 N 
ATOM     74  C   UNL A   1      30.619  26.375  24.685  1.00  0.00     0.224 C 
ATOM     75  H   UNL A   1      31.658  25.441  26.106  1.00  0.00     0.163 HD
ATOM     76  O   UNL A   1      30.253  25.305  24.195  1.00  0.00    -0.275 OA
BRANCH  74  77
ATOM     77  C   UNL A   1      30.295  27.708  24.032  1.00  0.00     0.096 C 
ATOM     78  C   UNL A   1      28.913  27.705  23.366  1.00  0.00     0.015 C 
ATOM     79  C   UNL A   1      31.410  28.095  23.031  1.00  0.00     0.082 C 
ATOM     80  C   UNL A   1      28.608  29.075  22.766  1.00  0.00     0.001 C 
ATOM     81  C   UNL A   1      31.083  29.449  22.396  1.00  0.00     0.021 C 
ATOM     82  C   UNL A   1      29.687  29.503  21.776  1.00  0.00     0.002 C 
BRANCH  79  83
ATOM     83  N   UNL A   1      31.665  27.009  22.063  1.00  0.00    -0.207 NA
ATOM     84  H   UNL A   1      31.315  27.374  21.178  1.00  0.00     0.141 HD
BRANCH  83  85
ATOM     85  S   UNL A   1      33.099  26.260  21.658  1.00  0.00     0.240 S 
ATOM     86  O   UNL A   1      32.847  25.684  20.352  1.00  0.00    -0.207 OA
ATOM     87  O   UNL A   1      34.204  27.168  21.861  1.00  0.00    -0.207 OA
BRANCH  85  88
ATOM     88  C   UNL A   1      33.364  24.883  22.751  1.00  0.00     0.083 A 
ATOM     89  C   UNL A   1      34.220  24.928  23.845  1.00  0.00     0.022 A 
ATOM     90  C   UNL A   1      32.692  23.690  22.444  1.00  0.00     0.030 A 
ATOM     91  C   UNL A   1      34.426  23.784  24.622  1.00  0.00     0.010 A 
ATOM     92  C   UNL A   1      32.898  22.532  23.210  1.00  0.00    -0.017 A 
ATOM     93  C   UNL A   1      33.782  22.579  24.312  1.00  0.00    -0.018 A 
ATOM     94  C   UNL A   1      32.259  21.320  22.901  1.00  0.00     0.009 A 
ATOM     95  C   UNL A   1      34.006  21.422  25.071  1.00  0.00     0.009 A 
ATOM     96  C   UNL A   1      32.494  20.174  23.662  1.00  0.00     0.001 A 
ATOM     97  C   UNL A   1      33.368  20.224  24.745  1.00  0.00     0.001 A 
ENDBRANCH  85  88
ENDBRANCH  83  85
ENDBRANCH  79  83
ENDBRANCH  74  77
ENDBRANCH  72  73
ENDBRANCH   1  72
TORSDOF 16
ENDMDL
MODEL 2
REMARK VINA RESULT:     -12.4      5.438      8.490
REMARK SMILES O=C(NCCCNC(=O)[C@@H]1CCCC[C@@H]1NS(=O)(=O)c1ccc2ccccc2c1)c1ccc(-c2c3nc(c(-c4cc(S(=O)(=O)[O-])ccc4F)c4ccc([nH]4)c(-c4cc(S(=O)(=O)[O-])ccc4F)c4nc(c(-c5cc(S(=O)(=O)[O-])ccc5F)c5ccc2[nH]5)C=C4)C=C3)cc1
REMARK SMILES IDX 5 1 4 2 3 3 1 4 2 5 30 7 31 8 92 9 32 10 91 11 33 12 34 13
REMARK SMILES IDX 35 14 85 15 36 16 90 17 84 18 86 19 37 20 89 21 83 22 82 23
REMARK SMILES IDX 38 25 70 26 50 27 69 28 51 29 54 30 68 31 87 32 52 33 53 34
REMARK SMILES IDX 67 36 88 37 55 38 39 39 40 40 48 41 41 42 47 43 49 44 46 45
REMARK SMILES IDX 42 46 43 47 44 48 45 49 71 50 72 51 80 52 73 53 79 54 81 55
REMARK SMILES IDX 78 56 74 57 75 58 76 59 77 60 56 61 57 62 65 63 58 64 64 65
REMARK SMILES IDX 66 66 63 67 59 68 60 69 61 70 62 71 6 72 7 73 8 74 9 76
REMARK SMILES IDX 10 77 11 78 15 79 12 80 14 81 13 82 16 83 17 85 18 86 19 87
REMARK SMILES IDX 20 88 21 89 29 90 22 91 28 92 23 93 27 94 24 95 26 96 25 97
REMARK H PARENT 3 6 86 24 54 35 7 75 16 84
REMARK Flexibility Score: inf
ROOT
ATOM      1  C   UNL A   1      37.869  19.961  24.924  1.00  0.00     0.042 C 
ENDROOT
BRANCH   1   2
ATOM      2  C   UNL A   1      39.030  20.463  25.777  1.00  0.00     0.118 C 
BRANCH   2   3
ATOM      3  N   UNL A   1      40.068  19.456  25.948  1.00  0.00    -0.352 N 
ATOM      4  O   UNL A   1      42.149  18.622  26.061  1.00  0.00    -0.269 OA
ATOM      5  C   UNL A   1      41.420  19.610  26.131  1.00  0.00     0.251 C 
ATOM      6  H   UNL A   1      39.752  18.524  25.930  1.00  0.00     0.163 HD
BRANCH   5   7
ATOM      7  C   UNL A   1      42.001  20.945  26.406  1.00  0.00     0.039 A 
ATOM      8  C   UNL A   1      42.150  21.889  25.387  1.00  0.00     0.014 A 
ATOM      9  C   UNL A   1      42.339  21.279  27.722  1.00  0.00     0.014 A 
ATOM     10  C   UNL A   1      42.730  23.124  25.663  1.00  0.00     0.010 A 
ATOM     11  C   UNL A   1      42.856  22.546  28.009  1.00  0.00     0.010 A 
ATOM     12  C   UNL A   1      43.065  23.475  26.979  1.00  0.00    -0.014 A 
BRANCH  12  13
ATOM     13  C   UNL A   1      43.537  24.854  27.268  1.00  0.00     0.031 A 
ATOM     14  C   UNL A   1      42.603  25.900  27.806  1.00  0.00     0.074 A 
ATOM     15  C   UNL A   1      44.834  25.147  27.040  1.00  0.00     0.049 A 
ATOM     16  N   UNL A   1      42.857  27.146  28.117  1.00  0.00    -0.248 NA
ATOM     17  C   UNL A   1      41.204  25.503  28.017  1.00  0.00     0.031 C 
ATOM     18  C   UNL A   1      45.823  24.210  26.499  1.00  0.00     0.029 A 
ATOM     19  N   UNL A   1      45.545  26.302  27.234  1.00  0.00    -0.354 N 
ATOM     20  C   UNL A   1      41.651  27.688  28.546  1.00  0.00     0.074 A 
ATOM     21  C   UNL A   1      40.659  26.638  28.436  1.00  0.00     0.031 C 
ATOM     22  C   UNL A   1      47.017  24.818  26.432  1.00  0.00     0.029 A 
ATOM     23  C   UNL A   1      46.868  26.203  26.866  1.00  0.00     0.049 A 
ATOM     24  H   UNL A   1      45.150  27.125  27.602  1.00  0.00     0.167 HD
ATOM     25  C   UNL A   1      41.402  28.943  28.994  1.00  0.00     0.034 A 
ATOM     26  C   UNL A   1      47.846  27.128  26.850  1.00  0.00     0.034 A 
ATOM     27  C   UNL A   1      42.407  29.973  29.108  1.00  0.00     0.049 A 
ATOM     28  C   UNL A   1      47.529  28.520  27.325  1.00  0.00     0.074 A 
ATOM     29  C   UNL A   1      42.273  31.253  29.620  1.00  0.00     0.029 A 
ATOM     30  N   UNL A   1      43.725  29.849  28.691  1.00  0.00    -0.354 N 
ATOM     31  N   UNL A   1      46.393  28.996  27.780  1.00  0.00    -0.248 NA
ATOM     32  C   UNL A   1      48.623  29.498  27.285  1.00  0.00     0.031 C 
ATOM     33  C   UNL A   1      43.491  31.923  29.451  1.00  0.00     0.029 A 
ATOM     34  C   UNL A   1      44.404  31.042  28.893  1.00  0.00     0.049 A 
ATOM     35  H   UNL A   1      44.121  29.034  28.308  1.00  0.00     0.167 HD
ATOM     36  C   UNL A   1      46.641  30.330  28.090  1.00  0.00     0.074 A 
ATOM     37  C   UNL A   1      48.039  30.570  27.798  1.00  0.00     0.031 C 
ATOM     38  C   UNL A   1      45.791  31.272  28.570  1.00  0.00     0.034 A 
BRANCH  25  39
ATOM     39  C   UNL A   1      39.980  29.293  29.357  1.00  0.00     0.023 A 
ATOM     40  C   UNL A   1      39.539  29.330  30.690  1.00  0.00     0.031 A 
ATOM     41  C   UNL A   1      39.059  29.623  28.347  1.00  0.00     0.131 A 
ATOM     42  C   UNL A   1      38.203  29.650  30.976  1.00  0.00     0.055 A 
ATOM     43  C   UNL A   1      37.747  29.998  28.640  1.00  0.00     0.041 A 
ATOM     44  F   UNL A   1      39.422  29.587  27.055  1.00  0.00    -0.206 F 
ATOM     45  C   UNL A   1      37.310  30.007  29.961  1.00  0.00     0.022 A 
BRANCH  42  46
ATOM     46  S   UNL A   1      37.620  29.515  32.688  1.00  0.00     0.124 S 
ATOM     47  O   UNL A   1      38.621  30.303  33.404  1.00  0.00    -0.237 OA
ATOM     48  O   UNL A   1      36.285  30.097  32.614  1.00  0.00    -0.237 OA
ATOM     49  O   UNL A   1      37.660  28.078  32.953  1.00  0.00    -0.744 OA
ENDBRANCH  42  46
ENDBRANCH  25  39
BRANCH  26  50
ATOM     50  C   UNL A   1      49.199  26.787  26.326  1.00  0.00     0.023 A 
ATOM     51  C   UNL A   1      49.650  27.291  25.097  1.00  0.00     0.031 A 
ATOM     52  C   UNL A   1      50.043  25.910  27.031  1.00  0.00     0.131 A 
ATOM     53  C   UNL A   1      50.891  26.877  24.587  1.00  0.00     0.055 A 
ATOM     54  C   UNL A   1      51.299  25.546  26.546  1.00  0.00     0.041 A 
ATOM     55  F   UNL A   1      49.660  25.402  28.214  1.00  0.00    -0.206 F 
ATOM     56  C   UNL A   1      51.724  26.018  25.309  1.00  0.00     0.022 A 
BRANCH  53  57
ATOM     57  S   UNL A   1      51.359  27.399  22.915  1.00  0.00     0.124 S 
ATOM     58  O   UNL A   1      51.265  28.852  23.018  1.00  0.00    -0.237 OA
ATOM     59  O   UNL A   1      52.706  26.851  22.795  1.00  0.00    -0.237 OA
ATOM     60  O   UNL A   1      50.352  26.767  22.067  1.00  0.00    -0.744 OA
ENDBRANCH  53  57
ENDBRANCH  26  50
BRANCH  38  61
ATOM     61  C   UNL A   1      46.373  32.639  28.815  1.00  0.00     0.023 A 
ATOM     62  C   UNL A   1      46.333  33.638  27.827  1.00  0.00     0.031 A 
ATOM     63  C   UNL A   1      47.004  32.936  30.035  1.00  0.00     0.131 A 
ATOM     64  C   UNL A   1      46.968  34.868  28.052  1.00  0.00     0.055 A 
ATOM     65  C   UNL A   1      47.585  34.181  30.276  1.00  0.00     0.041 A 
ATOM     66  F   UNL A   1      47.070  32.015  31.011  1.00  0.00    -0.206 F 
ATOM     67  C   UNL A   1      47.580  35.151  29.276  1.00  0.00     0.022 A 
BRANCH  64  68
ATOM     68  S   UNL A   1      47.057  36.063  26.692  1.00  0.00     0.124 S 
ATOM     69  O   UNL A   1      48.470  36.431  26.704  1.00  0.00    -0.237 OA
ATOM     70  O   UNL A   1      46.614  35.272  25.550  1.00  0.00    -0.237 OA
ATOM     71  O   UNL A   1      46.137  37.122  27.104  1.00  0.00    -0.744 OA
ENDBRANCH  64  68
ENDBRANCH  38  61
ENDBRANCH  12  13
ENDBRANCH   5   7
ENDBRANCH   2   3
ENDBRANCH   1   2
BRANCH   1  72
ATOM     72  C   UNL A   1      36.583  20.754  25.115  1.00  0.00     0.117 C 
BRANCH  72  73
ATOM     73  N   UNL A   1      36.408  21.772  24.095  1.00  0.00    -0.356 N 
ATOM     74  C   UNL A   1      35.322  22.548  23.818  1.00  0.00     0.224 C 
ATOM     75  H   UNL A   1      37.191  21.926  23.517  1.00  0.00     0.163 HD
ATOM     76  O   UNL A   1      35.399  23.355  22.890  1.00  0.00    -0.275 OA
BRANCH  74  77
ATOM     77  C   UNL A   1      34.103  22.482  24.723  1.00  0.00     0.096 C 
ATOM     78  C   UNL A   1      33.087  21.435  24.250  1.00  0.00     0.015 C 
ATOM     79  C   UNL A   1      33.460  23.884  24.853  1.00  0.00     0.082 C 
ATOM     80  C   UNL A   1      31.904  21.367  25.211  1.00  0.00     0.001 C 
ATOM     81  C   UNL A   1      32.247  23.808  25.783  1.00  0.00     0.021 C 
ATOM     82  C   UNL A   1      31.240  22.731  25.377  1.00  0.00     0.002 C 
BRANCH  79  83
ATOM     83  N   UNL A   1      33.181  24.472  23.528  1.00  0.00    -0.207 NA
ATOM     84  H   UNL A   1      32.226  24.181  23.320  1.00  0.00     0.141 HD
BRANCH  83  85
ATOM     85  S   UNL A   1      33.239  26.065  23.038  1.00  0.00     0.240 S 
ATOM     86  O   UNL A   1      34.023  26.728  24.061  1.00  0.00    -0.207 OA
ATOM     87  O   UNL A   1      33.627  26.140  21.649  1.00  0.00    -0.207 OA
BRANCH  85  88
ATOM     88  C   UNL A   1      31.608  26.766  23.149  1.00  0.00     0.083 A 
ATOM     89  C   UNL A   1      30.524  26.098  23.704  1.00  0.00     0.022 A 
ATOM     90  C   UNL A   1      31.430  28.046  22.603  1.00  0.00     0.030 A 
ATOM     91  C   UNL A   1      29.258  26.688  23.698  1.00  0.00     0.010 A 
ATOM     92  C   UNL A   1      30.161  28.647  22.582  1.00  0.00    -0.017 A 
ATOM     93  C   UNL A   1      29.058  27.955  23.134  1.00  0.00    -0.018 A 
ATOM     94  C   UNL A   1      29.954  29.914  22.012  1.00  0.00     0.009 A 
ATOM     95  C   UNL A   1      27.785  28.542  23.100  1.00  0.00     0.009 A 
ATOM     96  C   UNL A   1      28.681  30.485  21.982  1.00  0.00     0.001 A 
ATOM     97  C   UNL A   1      27.597  29.799  22.524  1.00  0.00     0.001 A 
ENDBRANCH  85  88
ENDBRANCH  83  85
ENDBRANCH  79  83
ENDBRANCH  74  77
ENDBRANCH  72  73
ENDBRANCH   1  72
TORSDOF 16
ENDMDL
MODEL 3
REMARK VINA RESULT:     -12.3      4.257      9.441
REMARK SMILES O=C(NCCCNC(=O)[C@@H]1CCCC[C@@H]1NS(=O)(=O)c1ccc2ccccc2c1)c1ccc(-c2c3nc(c(-c4cc(S(=O)(=O)[O-])ccc4F)c4ccc([nH]4)c(-c4cc(S(=O)(=O)[O-])ccc4F)c4nc(c(-c5cc(S(=O)(=O)[O-])ccc5F)c5ccc2[nH]5)C=C4)C=C3)cc1
REMARK SMILES IDX 5 1 4 2 3 3 1 4 2 5 30 7 31 8 92 9 32 10 91 11 33 12 34 13
REMARK SMILES IDX 35 14 85 15 36 16 90 17 84 18 86 19 37 20 89 21 83 22 82 23
REMARK SMILES IDX 38 25 70 26 50 27 69 28 51 29 54 30 68 31 87 32 52 33 53 34
REMARK SMILES IDX 67 36 88 37 55 38 39 39 40 40 48 41 41 42 47 43 49 44 46 45
REMARK SMILES IDX 42 46 43 47 44 48 45 49 71 50 72 51 80 52 73 53 79 54 81 55
REMARK SMILES IDX 78 56 74 57 75 58 76 59 77 60 56 61 57 62 65 63 58 64 64 65
REMARK SMILES IDX 66 66 63 67 59 68 60 69 61 70 62 71 6 72 7 73 8 74 9 76
REMARK SMILES IDX 10 77 11 78 15 79 12 80 14 81 13 82 16 83 17 85 18 86 19 87
REMARK SMILES IDX 20 88 21 89 29 90 22 91 28 92 23 93 27 94 24 95 26 96 25 97
REMARK H PARENT 3 6 86 24 54 35 7 75 16 84
REMARK Flexibility Score: inf
ROOT
ATOM      1  C   UNL A   1      35.689  24.419  25.038  1.00  0.00     0.042 C 
ENDROOT
BRANCH   1   2
ATOM      2  C   UNL A   1      35.963  23.570  26.275  1.00  0.00     0.118 C 
BRANCH   2   3
ATOM      3  N   UNL A   1      37.016  22.589  26.052  1.00  0.00    -0.352 N 
ATOM      4  O   UNL A   1      39.095  21.827  25.681  1.00  0.00    -0.269 OA
ATOM      5  C   UNL A   1      38.381  22.740  26.090  1.00  0.00     0.251 C 
ATOM      6  H   UNL A   1      36.702  21.680  25.843  1.00  0.00     0.163 HD
BRANCH   5   7
ATOM      7  C   UNL A   1      38.991  23.985  26.611  1.00  0.00     0.039 A 
ATOM      8  C   UNL A   1      39.679  24.859  25.766  1.00  0.00     0.014 A 
ATOM      9  C   UNL A   1      38.812  24.314  27.959  1.00  0.00     0.014 A 
ATOM     10  C   UNL A   1      40.274  26.006  26.285  1.00  0.00     0.010 A 
ATOM     11  C   UNL A   1      39.349  25.502  28.464  1.00  0.00     0.010 A 
ATOM     12  C   UNL A   1      40.094  26.352  27.634  1.00  0.00    -0.014 A 
BRANCH  12  13
ATOM     13  C   UNL A   1      40.607  27.657  28.125  1.00  0.00     0.031 A 
ATOM     14  C   UNL A   1      42.076  27.973  28.106  1.00  0.00     0.074 A 
ATOM     15  C   UNL A   1      39.719  28.562  28.585  1.00  0.00     0.049 A 
ATOM     16  N   UNL A   1      42.686  29.065  28.491  1.00  0.00    -0.248 NA
ATOM     17  C   UNL A   1      42.978  26.929  27.598  1.00  0.00     0.031 C 
ATOM     18  C   UNL A   1      38.271  28.349  28.665  1.00  0.00     0.029 A 
ATOM     19  N   UNL A   1      39.893  29.833  29.065  1.00  0.00    -0.354 N 
ATOM     20  C   UNL A   1      44.042  28.839  28.287  1.00  0.00     0.074 A 
ATOM     21  C   UNL A   1      44.167  27.495  27.763  1.00  0.00     0.031 C 
ATOM     22  C   UNL A   1      37.687  29.461  29.138  1.00  0.00     0.029 A 
ATOM     23  C   UNL A   1      38.719  30.442  29.450  1.00  0.00     0.049 A 
ATOM     24  H   UNL A   1      40.772  30.271  29.129  1.00  0.00     0.167 HD
ATOM     25  C   UNL A   1      45.081  29.681  28.514  1.00  0.00     0.034 A 
ATOM     26  C   UNL A   1      38.500  31.642  30.018  1.00  0.00     0.034 A 
ATOM     27  C   UNL A   1      44.935  31.022  29.027  1.00  0.00     0.049 A 
ATOM     28  C   UNL A   1      39.678  32.540  30.286  1.00  0.00     0.074 A 
ATOM     29  C   UNL A   1      45.915  31.980  29.221  1.00  0.00     0.029 A 
ATOM     30  N   UNL A   1      43.738  31.591  29.441  1.00  0.00    -0.354 N 
ATOM     31  N   UNL A   1      40.949  32.328  30.033  1.00  0.00    -0.248 NA
ATOM     32  C   UNL A   1      39.393  33.836  30.911  1.00  0.00     0.031 C 
ATOM     33  C   UNL A   1      45.323  33.102  29.815  1.00  0.00     0.029 A 
ATOM     34  C   UNL A   1      43.962  32.870  29.931  1.00  0.00     0.049 A 
ATOM     35  H   UNL A   1      42.859  31.151  29.394  1.00  0.00     0.167 HD
ATOM     36  C   UNL A   1      41.614  33.472  30.462  1.00  0.00     0.074 A 
ATOM     37  C   UNL A   1      40.600  34.379  30.960  1.00  0.00     0.031 C 
ATOM     38  C   UNL A   1      42.942  33.748  30.449  1.00  0.00     0.034 A 
BRANCH  25  39
ATOM     39  C   UNL A   1      46.474  29.167  28.252  1.00  0.00     0.023 A 
ATOM     40  C   UNL A   1      47.199  28.453  29.221  1.00  0.00     0.031 A 
ATOM     41  C   UNL A   1      47.073  29.371  26.996  1.00  0.00     0.131 A 
ATOM     42  C   UNL A   1      48.498  28.005  28.933  1.00  0.00     0.055 A 
ATOM     43  C   UNL A   1      48.342  28.872  26.695  1.00  0.00     0.041 A 
ATOM     44  F   UNL A   1      46.433  30.061  26.039  1.00  0.00    -0.206 F 
ATOM     45  C   UNL A   1      49.065  28.190  27.668  1.00  0.00     0.022 A 
BRANCH  42  46
ATOM     46  S   UNL A   1      49.474  27.246  30.260  1.00  0.00     0.124 S 
ATOM     47  O   UNL A   1      50.800  27.809  30.010  1.00  0.00    -0.237 OA
ATOM     48  O   UNL A   1      48.797  27.719  31.461  1.00  0.00    -0.237 OA
ATOM     49  O   UNL A   1      49.354  25.813  29.999  1.00  0.00    -0.744 OA
ENDBRANCH  42  46
ENDBRANCH  25  39
BRANCH  26  50
ATOM     50  C   UNL A   1      37.122  32.047  30.419  1.00  0.00     0.023 A 
ATOM     51  C   UNL A   1      36.245  32.644  29.501  1.00  0.00     0.031 A 
ATOM     52  C   UNL A   1      36.682  31.885  31.745  1.00  0.00     0.131 A 
ATOM     53  C   UNL A   1      34.988  33.099  29.932  1.00  0.00     0.055 A 
ATOM     54  C   UNL A   1      35.412  32.288  32.155  1.00  0.00     0.041 A 
ATOM     55  F   UNL A   1      37.483  31.317  32.662  1.00  0.00    -0.206 F 
ATOM     56  C   UNL A   1      34.561  32.914  31.250  1.00  0.00     0.022 A 
BRANCH  53  57
ATOM     57  S   UNL A   1      33.957  34.030  28.768  1.00  0.00     0.124 S 
ATOM     58  O   UNL A   1      34.892  35.037  28.278  1.00  0.00    -0.237 OA
ATOM     59  O   UNL A   1      33.572  32.996  27.813  1.00  0.00    -0.237 OA
ATOM     60  O   UNL A   1      32.874  34.539  29.605  1.00  0.00    -0.744 OA
ENDBRANCH  53  57
ENDBRANCH  26  50
BRANCH  38  61
ATOM     61  C   UNL A   1      43.353  35.096  30.981  1.00  0.00     0.023 A 
ATOM     62  C   UNL A   1      43.462  36.213  30.134  1.00  0.00     0.031 A 
ATOM     63  C   UNL A   1      43.672  35.259  32.340  1.00  0.00     0.131 A 
ATOM     64  C   UNL A   1      43.938  37.430  30.643  1.00  0.00     0.055 A 
ATOM     65  C   UNL A   1      44.091  36.486  32.853  1.00  0.00     0.041 A 
ATOM     66  F   UNL A   1      43.585  34.222  33.190  1.00  0.00    -0.206 F 
ATOM     67  C   UNL A   1      44.238  37.577  32.000  1.00  0.00     0.022 A 
BRANCH  64  68
ATOM     68  S   UNL A   1      44.241  38.796  29.490  1.00  0.00     0.124 S 
ATOM     69  O   UNL A   1      43.001  39.559  29.593  1.00  0.00    -0.237 OA
ATOM     70  O   UNL A   1      45.428  39.427  30.056  1.00  0.00    -0.237 OA
ATOM     71  O   UNL A   1      44.451  38.123  28.209  1.00  0.00    -0.744 OA
ENDBRANCH  64  68
ENDBRANCH  38  61
ENDBRANCH  12  13
ENDBRANCH   5   7
ENDBRANCH   2   3
ENDBRANCH   1   2
BRANCH   1  72
ATOM     72  C   UNL A   1      35.313  23.603  23.808  1.00  0.00     0.117 C 
BRANCH  72  73
ATOM     73  N   UNL A   1      33.930  23.807  23.415  1.00  0.00    -0.356 N 
ATOM     74  C   UNL A   1      32.911  22.906  23.323  1.00  0.00     0.224 C 
ATOM     75  H   UNL A   1      33.693  24.733  23.181  1.00  0.00     0.163 HD
ATOM     76  O   UNL A   1      31.805  23.308  22.960  1.00  0.00    -0.275 OA
BRANCH  74  77
ATOM     77  C   UNL A   1      33.134  21.473  23.779  1.00  0.00     0.096 C 
ATOM     78  C   UNL A   1      32.256  20.479  23.008  1.00  0.00     0.015 C 
ATOM     79  C   UNL A   1      32.917  21.361  25.307  1.00  0.00     0.082 C 
ATOM     80  C   UNL A   1      32.545  19.050  23.461  1.00  0.00     0.001 C 
ATOM     81  C   UNL A   1      33.164  19.919  25.756  1.00  0.00     0.021 C 
ATOM     82  C   UNL A   1      32.352  18.892  24.966  1.00  0.00     0.002 C 
BRANCH  79  83
ATOM     83  N   UNL A   1      31.606  21.911  25.706  1.00  0.00    -0.207 NA
ATOM     84  H   UNL A   1      31.055  21.091  25.958  1.00  0.00     0.141 HD
BRANCH  83  85
ATOM     85  S   UNL A   1      31.237  23.030  26.886  1.00  0.00     0.240 S 
ATOM     86  O   UNL A   1      29.850  22.763  27.214  1.00  0.00    -0.207 OA
ATOM     87  O   UNL A   1      32.252  23.016  27.914  1.00  0.00    -0.207 OA
BRANCH  85  88
ATOM     88  C   UNL A   1      31.259  24.658  26.171  1.00  0.00     0.083 A 
ATOM     89  C   UNL A   1      30.211  25.178  25.420  1.00  0.00     0.022 A 
ATOM     90  C   UNL A   1      32.423  25.417  26.358  1.00  0.00     0.030 A 
ATOM     91  C   UNL A   1      30.327  26.442  24.836  1.00  0.00     0.010 A 
ATOM     92  C   UNL A   1      32.556  26.685  25.768  1.00  0.00    -0.017 A 
ATOM     93  C   UNL A   1      31.494  27.202  24.992  1.00  0.00    -0.018 A 
ATOM     94  C   UNL A   1      33.725  27.448  25.917  1.00  0.00     0.009 A 
ATOM     95  C   UNL A   1      31.627  28.459  24.386  1.00  0.00     0.009 A 
ATOM     96  C   UNL A   1      33.846  28.697  25.305  1.00  0.00     0.001 A 
ATOM     97  C   UNL A   1      32.799  29.201  24.539  1.00  0.00     0.001 A 
ENDBRANCH  85  88
ENDBRANCH  83  85
ENDBRANCH  79  83
ENDBRANCH  74  77
ENDBRANCH  72  73
ENDBRANCH   1  72
TORSDOF 16
ENDMDL
