MODEL 1
REMARK VINA RESULT:     -11.7      0.000      0.000
REMARK SMILES Cc1nc(Nc2ccc(F)cc2)nc(OCC(=O)NCCCNC(=O)c2ccc(-c3c4nc(c(-c5cc(S(=O)(=O)[O-])ccc5F)c5ccc([nH]5)c(-c5cc(S(=O)(=O)[O-])ccc5F)c5nc(c(-c6cc(S(=O)(=O)[O-])ccc6F)c6ccc3[nH]6)C=C5)C=C4)cc2)c1CCO
REMARK SMILES IDX 20 1 19 2 17 3 18 4 16 6 15 7 14 8 1 9 2 10 3 11 89 12 4 13
REMARK SMILES IDX 13 14 90 15 91 16 92 17 5 19 6 21 7 22 12 23 8 24 11 25 9 26
REMARK SMILES IDX 10 27 21 28 22 29 23 30 24 31 25 33 26 34 27 35 88 36 28 37
REMARK SMILES IDX 87 38 29 39 30 40 31 41 81 42 32 43 86 44 80 45 82 46 33 47
REMARK SMILES IDX 85 48 79 49 78 50 34 52 66 53 46 54 65 55 47 56 50 57 64 58
REMARK SMILES IDX 83 59 48 60 49 61 63 63 84 64 51 65 35 66 36 67 44 68 37 69
REMARK SMILES IDX 43 70 45 71 42 72 38 73 39 74 40 75 41 76 67 77 68 78 76 79
REMARK SMILES IDX 69 80 75 81 77 82 74 83 70 84 71 85 72 86 73 87 52 88 53 89
REMARK SMILES IDX 61 90 54 91 60 92 62 93 59 94 55 95 56 96 57 97 58 98
REMARK H PARENT 19 5 92 18 5 20 23 32 82 51 50 62
REMARK Flexibility Score: inf
ROOT
ATOM      1  C   UNL A   1      31.625  30.779  25.898  1.00  0.00     0.117 C 
ENDROOT
BRANCH   1   2
ATOM      2  N   UNL A   1      32.388  29.814  26.661  1.00  0.00    -0.353 N 
ATOM      3  C   UNL A   1      33.319  28.928  26.224  1.00  0.00     0.258 C 
ATOM      4  O   UNL A   1      33.873  28.218  27.066  1.00  0.00    -0.271 OA
ATOM      5  H   UNL A   1      32.206  29.798  27.629  1.00  0.00     0.163 HD
BRANCH   3   6
ATOM      6  C   UNL A   1      33.707  28.897  24.739  1.00  0.00     0.331 C 
BRANCH   6   7
ATOM      7  O   UNL A   1      32.816  28.447  23.743  1.00  0.00    -0.467 OA
BRANCH   7   8
ATOM      8  C   UNL A   1      31.788  27.585  23.965  1.00  0.00     0.222 A 
ATOM      9  C   UNL A   1      28.149  26.606  23.832  1.00  0.00     0.067 C 
ATOM     10  C   UNL A   1      29.636  26.671  24.022  1.00  0.00     0.050 A 
ATOM     11  N   UNL A   1      30.135  25.536  24.540  1.00  0.00    -0.218 NA
ATOM     12  C   UNL A   1      30.424  27.798  23.789  1.00  0.00     0.038 A 
ATOM     13  C   UNL A   1      31.427  25.476  24.850  1.00  0.00     0.230 A 
ATOM     14  N   UNL A   1      32.275  26.458  24.542  1.00  0.00    -0.177 NA
BRANCH  12  15
ATOM     15  C   UNL A   1      29.779  29.127  23.499  1.00  0.00     0.071 C 
BRANCH  15  16
ATOM     16  C   UNL A   1      29.844  29.570  22.033  1.00  0.00     0.161 C 
BRANCH  16  17
ATOM     17  O   UNL A   1      31.137  29.980  21.611  1.00  0.00    -0.396 OA
ATOM     18  H   UNL A   1      31.422  29.432  20.864  1.00  0.00     0.210 HD
ENDBRANCH  16  17
ENDBRANCH  15  16
ENDBRANCH  12  15
BRANCH  13  19
ATOM     19  N   UNL A   1      31.880  24.420  25.644  1.00  0.00    -0.324 N 
ATOM     20  H   UNL A   1      31.827  24.551  26.617  1.00  0.00     0.170 HD
BRANCH  19  21
ATOM     21  C   UNL A   1      32.403  23.194  25.206  1.00  0.00     0.041 A 
ATOM     22  C   UNL A   1      31.712  21.992  25.425  1.00  0.00     0.029 A 
ATOM     23  C   UNL A   1      33.698  23.128  24.667  1.00  0.00     0.029 A 
ATOM     24  C   UNL A   1      32.286  20.758  25.114  1.00  0.00     0.041 A 
ATOM     25  C   UNL A   1      34.286  21.891  24.375  1.00  0.00     0.041 A 
ATOM     26  C   UNL A   1      33.575  20.718  24.604  1.00  0.00     0.123 A 
ATOM     27  F   UNL A   1      34.151  19.535  24.348  1.00  0.00    -0.207 F 
ENDBRANCH  19  21
ENDBRANCH  13  19
ENDBRANCH   7   8
ENDBRANCH   6   7
ENDBRANCH   3   6
ENDBRANCH   1   2
BRANCH   1  28
ATOM     28  C   UNL A   1      31.381  32.058  26.683  1.00  0.00     0.042 C 
BRANCH  28  29
ATOM     29  C   UNL A   1      32.635  32.645  27.323  1.00  0.00     0.118 C 
BRANCH  29  30
ATOM     30  N   UNL A   1      32.509  34.069  27.613  1.00  0.00    -0.352 N 
ATOM     31  C   UNL A   1      33.123  34.840  28.566  1.00  0.00     0.251 C 
ATOM     32  H   UNL A   1      31.882  34.555  27.030  1.00  0.00     0.163 HD
ATOM     33  O   UNL A   1      32.708  35.980  28.776  1.00  0.00    -0.269 OA
BRANCH  31  34
ATOM     34  C   UNL A   1      34.255  34.301  29.345  1.00  0.00     0.039 A 
ATOM     35  C   UNL A   1      33.990  33.532  30.479  1.00  0.00     0.014 A 
ATOM     36  C   UNL A   1      35.574  34.565  28.968  1.00  0.00     0.014 A 
ATOM     37  C   UNL A   1      35.050  32.972  31.195  1.00  0.00     0.010 A 
ATOM     38  C   UNL A   1      36.624  33.929  29.624  1.00  0.00     0.010 A 
ATOM     39  C   UNL A   1      36.373  33.133  30.750  1.00  0.00    -0.014 A 
BRANCH  39  40
ATOM     40  C   UNL A   1      37.505  32.490  31.465  1.00  0.00     0.031 A 
ATOM     41  C   UNL A   1      38.259  31.360  30.817  1.00  0.00     0.074 A 
ATOM     42  C   UNL A   1      37.831  32.906  32.704  1.00  0.00     0.049 A 
ATOM     43  N   UNL A   1      39.247  30.650  31.296  1.00  0.00    -0.248 NA
ATOM     44  C   UNL A   1      37.833  30.957  29.465  1.00  0.00     0.031 C 
ATOM     45  C   UNL A   1      37.147  33.970  33.445  1.00  0.00     0.029 A 
ATOM     46  N   UNL A   1      38.822  32.495  33.560  1.00  0.00    -0.354 N 
ATOM     47  C   UNL A   1      39.556  29.719  30.312  1.00  0.00     0.074 A 
ATOM     48  C   UNL A   1      38.612  29.910  29.235  1.00  0.00     0.031 C 
ATOM     49  C   UNL A   1      37.770  34.160  34.619  1.00  0.00     0.029 A 
ATOM     50  C   UNL A   1      38.864  33.201  34.740  1.00  0.00     0.049 A 
ATOM     51  H   UNL A   1      39.445  31.763  33.349  1.00  0.00     0.167 HD
ATOM     52  C   UNL A   1      40.558  28.809  30.296  1.00  0.00     0.034 A 
ATOM     53  C   UNL A   1      39.685  33.087  35.803  1.00  0.00     0.034 A 
ATOM     54  C   UNL A   1      41.512  28.650  31.361  1.00  0.00     0.049 A 
ATOM     55  C   UNL A   1      40.767  32.041  35.776  1.00  0.00     0.074 A 
ATOM     56  C   UNL A   1      42.598  27.796  31.418  1.00  0.00     0.029 A 
ATOM     57  N   UNL A   1      41.495  29.357  32.555  1.00  0.00    -0.354 N 
ATOM     58  N   UNL A   1      41.060  31.186  34.824  1.00  0.00    -0.248 NA
ATOM     59  C   UNL A   1      41.628  31.938  36.963  1.00  0.00     0.031 C 
ATOM     60  C   UNL A   1      43.200  27.939  32.669  1.00  0.00     0.029 A 
ATOM     61  C   UNL A   1      42.532  28.933  33.368  1.00  0.00     0.049 A 
ATOM     62  H   UNL A   1      40.843  30.057  32.788  1.00  0.00     0.167 HD
ATOM     63  C   UNL A   1      42.148  30.456  35.290  1.00  0.00     0.074 A 
ATOM     64  C   UNL A   1      42.466  30.973  36.606  1.00  0.00     0.031 C 
ATOM     65  C   UNL A   1      42.827  29.453  34.680  1.00  0.00     0.034 A 
BRANCH  52  66
ATOM     66  C   UNL A   1      40.679  27.914  29.091  1.00  0.00     0.023 A 
ATOM     67  C   UNL A   1      41.617  28.173  28.077  1.00  0.00     0.031 A 
ATOM     68  C   UNL A   1      39.876  26.767  28.975  1.00  0.00     0.131 A 
ATOM     69  C   UNL A   1      41.705  27.314  26.973  1.00  0.00     0.055 A 
ATOM     70  C   UNL A   1      40.012  25.881  27.905  1.00  0.00     0.041 A 
ATOM     71  F   UNL A   1      38.952  26.483  29.906  1.00  0.00    -0.206 F 
ATOM     72  C   UNL A   1      40.928  26.156  26.892  1.00  0.00     0.022 A 
BRANCH  69  73
ATOM     73  S   UNL A   1      42.806  27.766  25.606  1.00  0.00     0.124 S 
ATOM     74  O   UNL A   1      43.126  26.458  25.040  1.00  0.00    -0.237 OA
ATOM     75  O   UNL A   1      41.959  28.626  24.786  1.00  0.00    -0.237 OA
ATOM     76  O   UNL A   1      43.919  28.441  26.270  1.00  0.00    -0.744 OA
ENDBRANCH  69  73
ENDBRANCH  52  66
BRANCH  53  77
ATOM     77  C   UNL A   1      39.511  33.985  36.979  1.00  0.00     0.023 A 
ATOM     78  C   UNL A   1      38.904  33.525  38.156  1.00  0.00     0.031 A 
ATOM     79  C   UNL A   1      39.964  35.316  36.944  1.00  0.00     0.131 A 
ATOM     80  C   UNL A   1      38.746  34.394  39.247  1.00  0.00     0.055 A 
ATOM     81  C   UNL A   1      39.841  36.166  38.046  1.00  0.00     0.041 A 
ATOM     82  F   UNL A   1      40.559  35.802  35.844  1.00  0.00    -0.206 F 
ATOM     83  C   UNL A   1      39.223  35.707  39.205  1.00  0.00     0.022 A 
BRANCH  80  84
ATOM     84  S   UNL A   1      37.878  33.795  40.723  1.00  0.00     0.124 S 
ATOM     85  O   UNL A   1      37.586  35.042  41.422  1.00  0.00    -0.237 OA
ATOM     86  O   UNL A   1      36.734  33.100  40.143  1.00  0.00    -0.237 OA
ATOM     87  O   UNL A   1      38.864  32.931  41.371  1.00  0.00    -0.744 OA
ENDBRANCH  80  84
ENDBRANCH  53  77
BRANCH  65  88
ATOM     88  C   UNL A   1      43.997  28.853  35.408  1.00  0.00     0.023 A 
ATOM     89  C   UNL A   1      43.828  27.786  36.305  1.00  0.00     0.031 A 
ATOM     90  C   UNL A   1      45.303  29.292  35.127  1.00  0.00     0.131 A 
ATOM     91  C   UNL A   1      44.953  27.195  36.900  1.00  0.00     0.055 A 
ATOM     92  C   UNL A   1      46.419  28.673  35.688  1.00  0.00     0.041 A 
ATOM     93  F   UNL A   1      45.512  30.304  34.271  1.00  0.00    -0.206 F 
ATOM     94  C   UNL A   1      46.247  27.618  36.581  1.00  0.00     0.022 A 
BRANCH  91  95
ATOM     95  S   UNL A   1      44.706  25.862  38.102  1.00  0.00     0.124 S 
ATOM     96  O   UNL A   1      43.829  26.498  39.082  1.00  0.00    -0.237 OA
ATOM     97  O   UNL A   1      44.099  24.811  37.292  1.00  0.00    -0.237 OA
ATOM     98  O   UNL A   1      46.058  25.572  38.576  1.00  0.00    -0.744 OA
ENDBRANCH  91  95
ENDBRANCH  65  88
ENDBRANCH  39  40
ENDBRANCH  31  34
ENDBRANCH  29  30
ENDBRANCH  28  29
ENDBRANCH   1  28
TORSDOF 20
ENDMDL
MODEL 2
REMARK VINA RESULT:     -11.6      2.442      8.174
REMARK SMILES Cc1nc(Nc2ccc(F)cc2)nc(OCC(=O)NCCCNC(=O)c2ccc(-c3c4nc(c(-c5cc(S(=O)(=O)[O-])ccc5F)c5ccc([nH]5)c(-c5cc(S(=O)(=O)[O-])ccc5F)c5nc(c(-c6cc(S(=O)(=O)[O-])ccc6F)c6ccc3[nH]6)C=C5)C=C4)cc2)c1CCO
REMARK SMILES IDX 20 1 19 2 17 3 18 4 16 6 15 7 14 8 1 9 2 10 3 11 89 12 4 13
REMARK SMILES IDX 13 14 90 15 91 16 92 17 5 19 6 21 7 22 12 23 8 24 11 25 9 26
REMARK SMILES IDX 10 27 21 28 22 29 23 30 24 31 25 33 26 34 27 35 88 36 28 37
REMARK SMILES IDX 87 38 29 39 30 40 31 41 81 42 32 43 86 44 80 45 82 46 33 47
REMARK SMILES IDX 85 48 79 49 78 50 34 52 66 53 46 54 65 55 47 56 50 57 64 58
REMARK SMILES IDX 83 59 48 60 49 61 63 63 84 64 51 65 35 66 36 67 44 68 37 69
REMARK SMILES IDX 43 70 45 71 42 72 38 73 39 74 40 75 41 76 67 77 68 78 76 79
REMARK SMILES IDX 69 80 75 81 77 82 74 83 70 84 71 85 72 86 73 87 52 88 53 89
REMARK SMILES IDX 61 90 54 91 60 92 62 93 59 94 55 95 56 96 57 97 58 98
REMARK H PARENT 19 5 92 18 5 20 23 32 82 51 50 62
REMARK Flexibility Score: inf
ROOT
ATOM      1  C   UNL A   1      32.222  27.023  26.181  1.00  0.00     0.117 C 
ENDROOT
BRANCH   1   2
ATOM      2  N   UNL A   1      31.083  26.311  26.720  1.00  0.00    -0.353 N 
ATOM      3  C   UNL A   1      30.093  25.663  26.057  1.00  0.00     0.258 C 
ATOM      4  O   UNL A   1      29.232  25.090  26.730  1.00  0.00    -0.271 OA
ATOM      5  H   UNL A   1      31.017  26.298  27.703  1.00  0.00     0.163 HD
BRANCH   3   6
ATOM      6  C   UNL A   1      30.120  25.589  24.524  1.00  0.00     0.331 C 
BRANCH   6   7
ATOM      7  O   UNL A   1      30.586  24.447  23.839  1.00  0.00    -0.467 OA
BRANCH   7   8
ATOM      8  C   UNL A   1      31.739  23.793  24.134  1.00  0.00     0.222 A 
ATOM      9  C   UNL A   1      35.498  23.507  24.230  1.00  0.00     0.067 C 
ATOM     10  C   UNL A   1      34.017  23.306  24.354  1.00  0.00     0.050 A 
ATOM     11  N   UNL A   1      33.708  22.150  24.964  1.00  0.00    -0.218 NA
ATOM     12  C   UNL A   1      33.047  24.153  23.820  1.00  0.00     0.038 A 
ATOM     13  C   UNL A   1      32.431  21.789  25.066  1.00  0.00     0.230 A 
ATOM     14  N   UNL A   1      31.436  22.598  24.700  1.00  0.00    -0.177 NA
BRANCH  12  15
ATOM     15  C   UNL A   1      33.444  25.269  22.890  1.00  0.00     0.071 C 
BRANCH  15  16
ATOM     16  C   UNL A   1      32.935  25.122  21.451  1.00  0.00     0.161 C 
BRANCH  16  17
ATOM     17  O   UNL A   1      33.089  26.293  20.662  1.00  0.00    -0.396 OA
ATOM     18  H   UNL A   1      33.727  26.887  21.087  1.00  0.00     0.210 HD
ENDBRANCH  16  17
ENDBRANCH  15  16
ENDBRANCH  12  15
BRANCH  13  19
ATOM     19  N   UNL A   1      32.130  20.476  25.433  1.00  0.00    -0.324 N 
ATOM     20  H   UNL A   1      31.565  20.362  26.230  1.00  0.00     0.170 HD
BRANCH  19  21
ATOM     21  C   UNL A   1      32.547  19.300  24.790  1.00  0.00     0.041 A 
ATOM     22  C   UNL A   1      33.260  18.309  25.484  1.00  0.00     0.029 A 
ATOM     23  C   UNL A   1      32.386  19.155  23.404  1.00  0.00     0.029 A 
ATOM     24  C   UNL A   1      33.795  17.202  24.822  1.00  0.00     0.041 A 
ATOM     25  C   UNL A   1      32.941  18.058  22.732  1.00  0.00     0.041 A 
ATOM     26  C   UNL A   1      33.642  17.094  23.448  1.00  0.00     0.123 A 
ATOM     27  F   UNL A   1      34.193  16.059  22.799  1.00  0.00    -0.207 F 
ENDBRANCH  19  21
ENDBRANCH  13  19
ENDBRANCH   7   8
ENDBRANCH   6   7
ENDBRANCH   3   6
ENDBRANCH   1   2
BRANCH   1  28
ATOM     28  C   UNL A   1      31.820  28.350  25.557  1.00  0.00     0.042 C 
BRANCH  28  29
ATOM     29  C   UNL A   1      32.957  29.363  25.463  1.00  0.00     0.118 C 
BRANCH  29  30
ATOM     30  N   UNL A   1      32.539  30.717  25.809  1.00  0.00    -0.352 N 
ATOM     31  C   UNL A   1      32.943  31.538  26.830  1.00  0.00     0.251 C 
ATOM     32  H   UNL A   1      31.857  31.104  25.213  1.00  0.00     0.163 HD
ATOM     33  O   UNL A   1      32.302  32.562  27.066  1.00  0.00    -0.269 OA
BRANCH  31  34
ATOM     34  C   UNL A   1      34.120  31.187  27.647  1.00  0.00     0.039 A 
ATOM     35  C   UNL A   1      34.321  29.853  28.006  1.00  0.00     0.014 A 
ATOM     36  C   UNL A   1      35.017  32.171  28.073  1.00  0.00     0.014 A 
ATOM     37  C   UNL A   1      35.458  29.499  28.734  1.00  0.00     0.010 A 
ATOM     38  C   UNL A   1      36.195  31.806  28.714  1.00  0.00     0.010 A 
ATOM     39  C   UNL A   1      36.425  30.467  29.060  1.00  0.00    -0.014 A 
BRANCH  39  40
ATOM     40  C   UNL A   1      37.670  30.094  29.778  1.00  0.00     0.031 A 
ATOM     41  C   UNL A   1      37.894  30.566  31.189  1.00  0.00     0.074 A 
ATOM     42  C   UNL A   1      38.605  29.356  29.148  1.00  0.00     0.049 A 
ATOM     43  N   UNL A   1      38.930  30.377  31.965  1.00  0.00    -0.248 NA
ATOM     44  C   UNL A   1      36.829  31.377  31.803  1.00  0.00     0.031 C 
ATOM     45  C   UNL A   1      38.511  28.871  27.768  1.00  0.00     0.029 A 
ATOM     46  N   UNL A   1      39.815  28.875  29.583  1.00  0.00    -0.354 N 
ATOM     47  C   UNL A   1      38.644  31.045  33.149  1.00  0.00     0.074 A 
ATOM     48  C   UNL A   1      37.368  31.699  32.970  1.00  0.00     0.031 C 
ATOM     49  C   UNL A   1      39.589  28.123  27.489  1.00  0.00     0.029 A 
ATOM     50  C   UNL A   1      40.478  28.115  28.647  1.00  0.00     0.049 A 
ATOM     51  H   UNL A   1      40.176  29.058  30.481  1.00  0.00     0.167 HD
ATOM     52  C   UNL A   1      39.367  31.083  34.293  1.00  0.00     0.034 A 
ATOM     53  C   UNL A   1      41.668  27.485  28.711  1.00  0.00     0.034 A 
ATOM     54  C   UNL A   1      40.622  30.402  34.469  1.00  0.00     0.049 A 
ATOM     55  C   UNL A   1      42.470  27.575  29.981  1.00  0.00     0.074 A 
ATOM     56  C   UNL A   1      41.405  30.330  35.606  1.00  0.00     0.029 A 
ATOM     57  N   UNL A   1      41.277  29.675  33.485  1.00  0.00    -0.354 N 
ATOM     58  N   UNL A   1      42.171  28.192  31.100  1.00  0.00    -0.248 NA
ATOM     59  C   UNL A   1      43.770  26.890  30.001  1.00  0.00     0.031 C 
ATOM     60  C   UNL A   1      42.564  29.617  35.293  1.00  0.00     0.029 A 
ATOM     61  C   UNL A   1      42.472  29.182  33.980  1.00  0.00     0.049 A 
ATOM     62  H   UNL A   1      40.941  29.531  32.571  1.00  0.00     0.167 HD
ATOM     63  C   UNL A   1      43.236  27.955  31.962  1.00  0.00     0.074 A 
ATOM     64  C   UNL A   1      44.185  27.133  31.238  1.00  0.00     0.031 C 
ATOM     65  C   UNL A   1      43.409  28.374  33.240  1.00  0.00     0.034 A 
BRANCH  52  66
ATOM     66  C   UNL A   1      38.823  31.885  35.445  1.00  0.00     0.023 A 
ATOM     67  C   UNL A   1      38.254  31.260  36.568  1.00  0.00     0.031 A 
ATOM     68  C   UNL A   1      38.912  33.287  35.440  1.00  0.00     0.131 A 
ATOM     69  C   UNL A   1      37.763  32.039  37.625  1.00  0.00     0.055 A 
ATOM     70  C   UNL A   1      38.478  34.054  36.522  1.00  0.00     0.041 A 
ATOM     71  F   UNL A   1      39.430  33.934  34.384  1.00  0.00    -0.206 F 
ATOM     72  C   UNL A   1      37.895  33.430  37.622  1.00  0.00     0.022 A 
BRANCH  69  73
ATOM     73  S   UNL A   1      36.886  31.213  38.979  1.00  0.00     0.124 S 
ATOM     74  O   UNL A   1      35.694  32.046  39.110  1.00  0.00    -0.237 OA
ATOM     75  O   UNL A   1      36.672  29.871  38.448  1.00  0.00    -0.237 OA
ATOM     76  O   UNL A   1      37.824  31.298  40.097  1.00  0.00    -0.744 OA
ENDBRANCH  69  73
ENDBRANCH  52  66
BRANCH  53  77
ATOM     77  C   UNL A   1      42.170  26.720  27.535  1.00  0.00     0.023 A 
ATOM     78  C   UNL A   1      41.949  25.339  27.423  1.00  0.00     0.031 A 
ATOM     79  C   UNL A   1      42.869  27.365  26.499  1.00  0.00     0.131 A 
ATOM     80  C   UNL A   1      42.440  24.642  26.308  1.00  0.00     0.055 A 
ATOM     81  C   UNL A   1      43.320  26.675  25.372  1.00  0.00     0.041 A 
ATOM     82  F   UNL A   1      43.097  28.686  26.555  1.00  0.00    -0.206 F 
ATOM     83  C   UNL A   1      43.111  25.302  25.276  1.00  0.00     0.022 A 
BRANCH  80  84
ATOM     84  S   UNL A   1      42.215  22.843  26.236  1.00  0.00     0.124 S 
ATOM     85  O   UNL A   1      43.052  22.395  27.344  1.00  0.00    -0.237 OA
ATOM     86  O   UNL A   1      40.775  22.707  26.422  1.00  0.00    -0.237 OA
ATOM     87  O   UNL A   1      42.703  22.493  24.903  1.00  0.00    -0.744 OA
ENDBRANCH  80  84
ENDBRANCH  53  77
BRANCH  65  88
ATOM     88  C   UNL A   1      44.657  27.942  33.958  1.00  0.00     0.023 A 
ATOM     89  C   UNL A   1      44.710  26.730  34.664  1.00  0.00     0.031 A 
ATOM     90  C   UNL A   1      45.833  28.707  33.852  1.00  0.00     0.131 A 
ATOM     91  C   UNL A   1      45.917  26.318  35.248  1.00  0.00     0.055 A 
ATOM     92  C   UNL A   1      47.039  28.273  34.398  1.00  0.00     0.041 A 
ATOM     93  F   UNL A   1      45.831  29.869  33.180  1.00  0.00    -0.206 F 
ATOM     94  C   UNL A   1      47.086  27.072  35.102  1.00  0.00     0.022 A 
BRANCH  91  95
ATOM     95  S   UNL A   1      45.943  24.782  36.209  1.00  0.00     0.124 S 
ATOM     96  O   UNL A   1      45.541  23.795  35.212  1.00  0.00    -0.237 OA
ATOM     97  O   UNL A   1      47.332  24.709  36.654  1.00  0.00    -0.237 OA
ATOM     98  O   UNL A   1      44.968  25.024  37.271  1.00  0.00    -0.744 OA
ENDBRANCH  91  95
ENDBRANCH  65  88
ENDBRANCH  39  40
ENDBRANCH  31  34
ENDBRANCH  29  30
ENDBRANCH  28  29
ENDBRANCH   1  28
TORSDOF 20
ENDMDL
MODEL 3
REMARK VINA RESULT:     -11.5      2.896      8.703
REMARK SMILES Cc1nc(Nc2ccc(F)cc2)nc(OCC(=O)NCCCNC(=O)c2ccc(-c3c4nc(c(-c5cc(S(=O)(=O)[O-])ccc5F)c5ccc([nH]5)c(-c5cc(S(=O)(=O)[O-])ccc5F)c5nc(c(-c6cc(S(=O)(=O)[O-])ccc6F)c6ccc3[nH]6)C=C5)C=C4)cc2)c1CCO
REMARK SMILES IDX 20 1 19 2 17 3 18 4 16 6 15 7 14 8 1 9 2 10 3 11 89 12 4 13
REMARK SMILES IDX 13 14 90 15 91 16 92 17 5 19 6 21 7 22 12 23 8 24 11 25 9 26
REMARK SMILES IDX 10 27 21 28 22 29 23 30 24 31 25 33 26 34 27 35 88 36 28 37
REMARK SMILES IDX 87 38 29 39 30 40 31 41 81 42 32 43 86 44 80 45 82 46 33 47
REMARK SMILES IDX 85 48 79 49 78 50 34 52 66 53 46 54 65 55 47 56 50 57 64 58
REMARK SMILES IDX 83 59 48 60 49 61 63 63 84 64 51 65 35 66 36 67 44 68 37 69
REMARK SMILES IDX 43 70 45 71 42 72 38 73 39 74 40 75 41 76 67 77 68 78 76 79
REMARK SMILES IDX 69 80 75 81 77 82 74 83 70 84 71 85 72 86 73 87 52 88 53 89
REMARK SMILES IDX 61 90 54 91 60 92 62 93 59 94 55 95 56 96 57 97 58 98
REMARK H PARENT 19 5 92 18 5 20 23 32 82 51 50 62
REMARK Flexibility Score: inf
ROOT
ATOM      1  C   UNL A   1      31.846  27.004  26.533  1.00  0.00     0.117 C 
ENDROOT
BRANCH   1   2
ATOM      2  N   UNL A   1      30.609  26.329  26.863  1.00  0.00    -0.353 N 
ATOM      3  C   UNL A   1      30.166  25.115  26.448  1.00  0.00     0.258 C 
ATOM      4  O   UNL A   1      29.084  24.719  26.888  1.00  0.00    -0.271 OA
ATOM      5  H   UNL A   1      30.006  26.818  27.469  1.00  0.00     0.163 HD
BRANCH   3   6
ATOM      6  C   UNL A   1      31.045  24.252  25.532  1.00  0.00     0.331 C 
BRANCH   6   7
ATOM      7  O   UNL A   1      31.084  24.445  24.135  1.00  0.00    -0.467 OA
BRANCH   7   8
ATOM      8  C   UNL A   1      31.380  25.626  23.532  1.00  0.00     0.222 A 
ATOM      9  C   UNL A   1      33.790  28.122  22.054  1.00  0.00     0.067 C 
ATOM     10  C   UNL A   1      32.588  27.366  22.542  1.00  0.00     0.050 A 
ATOM     11  N   UNL A   1      31.441  28.019  22.294  1.00  0.00    -0.218 NA
ATOM     12  C   UNL A   1      32.631  26.172  23.259  1.00  0.00     0.038 A 
ATOM     13  C   UNL A   1      30.296  27.517  22.749  1.00  0.00     0.230 A 
ATOM     14  N   UNL A   1      30.231  26.318  23.330  1.00  0.00    -0.177 NA
BRANCH  12  15
ATOM     15  C   UNL A   1      33.944  25.640  23.770  1.00  0.00     0.071 C 
BRANCH  15  16
ATOM     16  C   UNL A   1      34.422  24.347  23.100  1.00  0.00     0.161 C 
BRANCH  16  17
ATOM     17  O   UNL A   1      33.619  23.213  23.396  1.00  0.00    -0.396 OA
ATOM     18  H   UNL A   1      33.939  22.449  22.892  1.00  0.00     0.210 HD
ENDBRANCH  16  17
ENDBRANCH  15  16
ENDBRANCH  12  15
BRANCH  13  19
ATOM     19  N   UNL A   1      29.157  28.326  22.746  1.00  0.00    -0.324 N 
ATOM     20  H   UNL A   1      28.291  27.862  22.766  1.00  0.00     0.170 HD
BRANCH  19  21
ATOM     21  C   UNL A   1      29.115  29.728  22.717  1.00  0.00     0.041 A 
ATOM     22  C   UNL A   1      29.417  30.486  23.860  1.00  0.00     0.029 A 
ATOM     23  C   UNL A   1      28.629  30.399  21.584  1.00  0.00     0.029 A 
ATOM     24  C   UNL A   1      29.246  31.871  23.878  1.00  0.00     0.041 A 
ATOM     25  C   UNL A   1      28.435  31.786  21.605  1.00  0.00     0.041 A 
ATOM     26  C   UNL A   1      28.743  32.507  22.753  1.00  0.00     0.123 A 
ATOM     27  F   UNL A   1      28.531  33.831  22.779  1.00  0.00    -0.207 F 
ENDBRANCH  19  21
ENDBRANCH  13  19
ENDBRANCH   7   8
ENDBRANCH   6   7
ENDBRANCH   3   6
ENDBRANCH   1   2
BRANCH   1  28
ATOM     28  C   UNL A   1      31.602  28.406  25.997  1.00  0.00     0.042 C 
BRANCH  28  29
ATOM     29  C   UNL A   1      32.869  29.244  25.847  1.00  0.00     0.118 C 
BRANCH  29  30
ATOM     30  N   UNL A   1      32.652  30.655  26.145  1.00  0.00    -0.352 N 
ATOM     31  C   UNL A   1      33.290  31.484  27.031  1.00  0.00     0.251 C 
ATOM     32  H   UNL A   1      31.933  31.081  25.625  1.00  0.00     0.163 HD
ATOM     33  O   UNL A   1      32.803  32.588  27.278  1.00  0.00    -0.269 OA
BRANCH  31  34
ATOM     34  C   UNL A   1      34.534  31.051  27.695  1.00  0.00     0.039 A 
ATOM     35  C   UNL A   1      35.500  32.007  28.013  1.00  0.00     0.014 A 
ATOM     36  C   UNL A   1      34.756  29.703  27.993  1.00  0.00     0.014 A 
ATOM     37  C   UNL A   1      36.658  31.619  28.689  1.00  0.00     0.010 A 
ATOM     38  C   UNL A   1      35.862  29.333  28.750  1.00  0.00     0.010 A 
ATOM     39  C   UNL A   1      36.830  30.285  29.098  1.00  0.00    -0.014 A 
BRANCH  39  40
ATOM     40  C   UNL A   1      38.026  29.870  29.874  1.00  0.00     0.031 A 
ATOM     41  C   UNL A   1      38.232  30.389  31.272  1.00  0.00     0.074 A 
ATOM     42  C   UNL A   1      38.936  29.053  29.308  1.00  0.00     0.049 A 
ATOM     43  N   UNL A   1      39.230  30.173  32.090  1.00  0.00    -0.248 NA
ATOM     44  C   UNL A   1      37.198  31.287  31.815  1.00  0.00     0.031 C 
ATOM     45  C   UNL A   1      38.857  28.516  27.947  1.00  0.00     0.029 A 
ATOM     46  N   UNL A   1      40.100  28.521  29.804  1.00  0.00    -0.354 N 
ATOM     47  C   UNL A   1      38.946  30.906  33.236  1.00  0.00     0.074 A 
ATOM     48  C   UNL A   1      37.718  31.626  32.985  1.00  0.00     0.031 C 
ATOM     49  C   UNL A   1      39.897  27.695  27.736  1.00  0.00     0.029 A 
ATOM     50  C   UNL A   1      40.746  27.684  28.924  1.00  0.00     0.049 A 
ATOM     51  H   UNL A   1      40.441  28.721  30.706  1.00  0.00     0.167 HD
ATOM     52  C   UNL A   1      39.632  30.951  34.402  1.00  0.00     0.034 A 
ATOM     53  C   UNL A   1      41.893  26.988  29.055  1.00  0.00     0.034 A 
ATOM     54  C   UNL A   1      40.837  30.205  34.649  1.00  0.00     0.049 A 
ATOM     55  C   UNL A   1      42.658  27.085  30.348  1.00  0.00     0.074 A 
ATOM     56  C   UNL A   1      41.578  30.137  35.815  1.00  0.00     0.029 A 
ATOM     57  N   UNL A   1      41.479  29.400  33.719  1.00  0.00    -0.354 N 
ATOM     58  N   UNL A   1      42.360  27.766  31.430  1.00  0.00    -0.248 NA
ATOM     59  C   UNL A   1      43.913  26.327  30.442  1.00  0.00     0.031 C 
ATOM     60  C   UNL A   1      42.701  29.345  35.572  1.00  0.00     0.029 A 
ATOM     61  C   UNL A   1      42.625  28.859  34.275  1.00  0.00     0.049 A 
ATOM     62  H   UNL A   1      41.165  29.237  32.800  1.00  0.00     0.167 HD
ATOM     63  C   UNL A   1      43.380  27.504  32.337  1.00  0.00     0.074 A 
ATOM     64  C   UNL A   1      44.301  26.599  31.681  1.00  0.00     0.031 C 
ATOM     65  C   UNL A   1      43.537  27.967  33.602  1.00  0.00     0.034 A 
BRANCH  52  66
ATOM     66  C   UNL A   1      39.100  31.832  35.500  1.00  0.00     0.023 A 
ATOM     67  C   UNL A   1      38.412  31.294  36.602  1.00  0.00     0.031 A 
ATOM     68  C   UNL A   1      39.318  33.219  35.467  1.00  0.00     0.131 A 
ATOM     69  C   UNL A   1      37.936  32.145  37.610  1.00  0.00     0.055 A 
ATOM     70  C   UNL A   1      38.897  34.054  36.504  1.00  0.00     0.041 A 
ATOM     71  F   UNL A   1      39.954  33.786  34.430  1.00  0.00    -0.206 F 
ATOM     72  C   UNL A   1      38.197  33.517  37.582  1.00  0.00     0.022 A 
BRANCH  69  73
ATOM     73  S   UNL A   1      36.911  31.441  38.928  1.00  0.00     0.124 S 
ATOM     74  O   UNL A   1      37.776  31.608  40.094  1.00  0.00    -0.237 OA
ATOM     75  O   UNL A   1      35.721  32.283  38.891  1.00  0.00    -0.237 OA
ATOM     76  O   UNL A   1      36.709  30.058  38.503  1.00  0.00    -0.744 OA
ENDBRANCH  69  73
ENDBRANCH  52  66
BRANCH  53  77
ATOM     77  C   UNL A   1      42.386  26.146  27.930  1.00  0.00     0.023 A 
ATOM     78  C   UNL A   1      41.922  24.835  27.751  1.00  0.00     0.031 A 
ATOM     79  C   UNL A   1      43.323  26.648  27.008  1.00  0.00     0.131 A 
ATOM     80  C   UNL A   1      42.409  24.060  26.687  1.00  0.00     0.055 A 
ATOM     81  C   UNL A   1      43.775  25.888  25.927  1.00  0.00     0.041 A 
ATOM     82  F   UNL A   1      43.791  27.900  27.131  1.00  0.00    -0.206 F 
ATOM     83  C   UNL A   1      43.321  24.583  25.766  1.00  0.00     0.022 A 
BRANCH  80  84
ATOM     84  S   UNL A   1      41.855  22.339  26.534  1.00  0.00     0.124 S 
ATOM     85  O   UNL A   1      40.404  22.492  26.557  1.00  0.00    -0.237 OA
ATOM     86  O   UNL A   1      42.440  21.942  25.259  1.00  0.00    -0.237 OA
ATOM     87  O   UNL A   1      42.434  21.691  27.710  1.00  0.00    -0.744 OA
ENDBRANCH  80  84
ENDBRANCH  53  77
BRANCH  65  88
ATOM     88  C   UNL A   1      44.733  27.494  34.380  1.00  0.00     0.023 A 
ATOM     89  C   UNL A   1      44.725  26.259  35.049  1.00  0.00     0.031 A 
ATOM     90  C   UNL A   1      45.922  28.244  34.371  1.00  0.00     0.131 A 
ATOM     91  C   UNL A   1      45.889  25.811  35.692  1.00  0.00     0.055 A 
ATOM     92  C   UNL A   1      47.087  27.774  34.975  1.00  0.00     0.041 A 
ATOM     93  F   UNL A   1      45.977  29.426  33.738  1.00  0.00    -0.206 F 
ATOM     94  C   UNL A   1      47.075  26.551  35.642  1.00  0.00     0.022 A 
BRANCH  91  95
ATOM     95  S   UNL A   1      45.836  24.246  36.603  1.00  0.00     0.124 S 
ATOM     96  O   UNL A   1      44.635  23.620  36.057  1.00  0.00    -0.237 OA
ATOM     97  O   UNL A   1      47.103  23.621  36.235  1.00  0.00    -0.237 OA
ATOM     98  O   UNL A   1      45.737  24.664  38.000  1.00  0.00    -0.744 OA
ENDBRANCH  91  95
ENDBRANCH  65  88
ENDBRANCH  39  40
ENDBRANCH  31  34
ENDBRANCH  29  30
ENDBRANCH  28  29
ENDBRANCH   1  28
TORSDOF 20
ENDMDL
