MODEL 1
REMARK VINA RESULT:     -13.1      0.000      0.000
REMARK SMILES Cc1ccc(NC(=O)[C@H]2CC=CC[C@H]2C(=O)NCCCNC(=O)c2ccc(-c3c4nc(c(-c5cc(S(=O)(=O)[O-])ccc5F)c5ccc([nH]5)c(-c5cc(S(=O)(=O)[O-])ccc5F)c5nc(c(-c6cc(S(=O)(=O)[O-])ccc6F)c6ccc3[nH]6)C=C5)C=C4)cc2)cc1F
REMARK SMILES IDX 19 1 18 2 17 3 15 4 16 5 14 7 9 8 10 9 11 10 13 11 12 12
REMARK SMILES IDX 7 13 6 14 8 16 5 17 1 18 2 19 3 20 88 21 4 22 87 23 89 24
REMARK SMILES IDX 20 25 21 26 22 27 23 29 24 30 25 31 86 32 26 33 85 34 27 35
REMARK SMILES IDX 28 36 29 37 79 38 30 39 84 40 78 41 80 42 31 43 83 44 77 45
REMARK SMILES IDX 76 46 32 48 64 49 44 50 63 51 45 52 48 53 62 54 81 55 46 56
REMARK SMILES IDX 47 57 61 59 82 60 49 61 33 62 34 63 42 64 35 65 41 66 43 67
REMARK SMILES IDX 40 68 36 69 37 70 38 71 39 72 65 73 66 74 74 75 67 76 73 77
REMARK SMILES IDX 75 78 72 79 68 80 69 81 70 82 71 83 50 84 51 85 59 86 52 87
REMARK SMILES IDX 58 88 60 89 57 90 53 91 54 92 55 93 56 94
REMARK H PARENT 17 6 6 15 21 28 80 47 48 58
REMARK Flexibility Score: inf
ROOT
ATOM      1  C   UNL A   1      33.697  28.161  25.873  1.00  0.00     0.042 C 
ENDROOT
BRANCH   1   2
ATOM      2  C   UNL A   1      32.893  26.911  26.201  1.00  0.00     0.117 C 
BRANCH   2   3
ATOM      3  N   UNL A   1      32.466  26.156  25.034  1.00  0.00    -0.356 N 
ATOM      4  C   UNL A   1      32.963  25.023  24.475  1.00  0.00     0.224 C 
ATOM      5  O   UNL A   1      32.295  24.481  23.590  1.00  0.00    -0.275 OA
ATOM      6  H   UNL A   1      31.684  26.531  24.568  1.00  0.00     0.163 HD
BRANCH   4   7
ATOM      7  C   UNL A   1      34.258  24.382  24.956  1.00  0.00     0.095 C 
ATOM      8  C   UNL A   1      34.172  23.437  26.189  1.00  0.00     0.095 C 
ATOM      9  C   UNL A   1      35.107  22.199  26.145  1.00  0.00     0.041 C 
ATOM     10  C   UNL A   1      35.692  21.812  24.830  1.00  0.00    -0.030 C 
ATOM     11  C   UNL A   1      35.055  23.939  23.709  1.00  0.00     0.041 C 
ATOM     12  C   UNL A   1      35.677  22.588  23.747  1.00  0.00    -0.030 C 
BRANCH   8  13
ATOM     13  C   UNL A   1      32.774  23.032  26.683  1.00  0.00     0.228 C 
ATOM     14  N   UNL A   1      32.109  21.915  26.275  1.00  0.00    -0.326 N 
ATOM     15  H   UNL A   1      31.361  21.682  26.872  1.00  0.00     0.169 HD
ATOM     16  O   UNL A   1      32.187  23.727  27.522  1.00  0.00    -0.274 OA
BRANCH  14  17
ATOM     17  C   UNL A   1      32.243  21.019  25.202  1.00  0.00     0.044 A 
ATOM     18  C   UNL A   1      32.617  18.047  22.087  1.00  0.00     0.047 C 
ATOM     19  C   UNL A   1      32.493  19.057  23.184  1.00  0.00    -0.015 A 
ATOM     20  C   UNL A   1      32.681  18.714  24.525  1.00  0.00     0.008 A 
ATOM     21  C   UNL A   1      32.168  20.377  22.879  1.00  0.00     0.128 A 
ATOM     22  C   UNL A   1      32.543  19.686  25.523  1.00  0.00     0.026 A 
ATOM     23  C   UNL A   1      32.036  21.350  23.869  1.00  0.00     0.065 A 
ATOM     24  F   UNL A   1      31.947  20.731  21.604  1.00  0.00    -0.207 F 
ENDBRANCH  14  17
ENDBRANCH   8  13
ENDBRANCH   4   7
ENDBRANCH   2   3
ENDBRANCH   1   2
BRANCH   1  25
ATOM     25  C   UNL A   1      34.754  28.497  26.895  1.00  0.00     0.118 C 
BRANCH  25  26
ATOM     26  N   UNL A   1      34.689  29.894  27.281  1.00  0.00    -0.352 N 
ATOM     27  C   UNL A   1      35.598  30.557  28.077  1.00  0.00     0.251 C 
ATOM     28  H   UNL A   1      33.927  30.416  26.943  1.00  0.00     0.163 HD
ATOM     29  O   UNL A   1      35.293  31.622  28.594  1.00  0.00    -0.269 OA
BRANCH  27  30
ATOM     30  C   UNL A   1      36.943  29.964  28.215  1.00  0.00     0.039 A 
ATOM     31  C   UNL A   1      37.876  29.980  27.173  1.00  0.00     0.014 A 
ATOM     32  C   UNL A   1      37.239  29.348  29.430  1.00  0.00     0.014 A 
ATOM     33  C   UNL A   1      39.118  29.360  27.351  1.00  0.00     0.010 A 
ATOM     34  C   UNL A   1      38.491  28.838  29.641  1.00  0.00     0.010 A 
ATOM     35  C   UNL A   1      39.408  28.775  28.582  1.00  0.00    -0.014 A 
BRANCH  35  36
ATOM     36  C   UNL A   1      40.546  27.917  28.874  1.00  0.00     0.031 A 
ATOM     37  C   UNL A   1      40.565  26.468  28.631  1.00  0.00     0.074 A 
ATOM     38  C   UNL A   1      41.701  28.587  29.092  1.00  0.00     0.049 A 
ATOM     39  N   UNL A   1      41.537  25.713  29.013  1.00  0.00    -0.248 NA
ATOM     40  C   UNL A   1      39.507  25.746  27.941  1.00  0.00     0.031 C 
ATOM     41  C   UNL A   1      43.066  28.150  28.864  1.00  0.00     0.029 A 
ATOM     42  N   UNL A   1      41.839  29.848  29.680  1.00  0.00    -0.354 N 
ATOM     43  C   UNL A   1      41.399  24.504  28.374  1.00  0.00     0.074 A 
ATOM     44  C   UNL A   1      40.065  24.534  27.811  1.00  0.00     0.031 C 
ATOM     45  C   UNL A   1      43.892  28.981  29.521  1.00  0.00     0.029 A 
ATOM     46  C   UNL A   1      43.061  29.830  30.359  1.00  0.00     0.049 A 
ATOM     47  H   UNL A   1      41.202  30.598  29.627  1.00  0.00     0.167 HD
ATOM     48  C   UNL A   1      42.490  23.688  28.269  1.00  0.00     0.034 A 
ATOM     49  C   UNL A   1      43.142  29.938  31.719  1.00  0.00     0.034 A 
ATOM     50  C   UNL A   1      43.657  24.268  28.947  1.00  0.00     0.049 A 
ATOM     51  C   UNL A   1      43.794  28.733  32.375  1.00  0.00     0.074 A 
ATOM     52  C   UNL A   1      44.798  24.926  28.512  1.00  0.00     0.029 A 
ATOM     53  N   UNL A   1      43.611  24.461  30.317  1.00  0.00    -0.354 N 
ATOM     54  N   UNL A   1      44.228  27.687  31.730  1.00  0.00    -0.248 NA
ATOM     55  C   UNL A   1      43.905  28.567  33.822  1.00  0.00     0.031 C 
ATOM     56  C   UNL A   1      45.449  25.495  29.644  1.00  0.00     0.029 A 
ATOM     57  C   UNL A   1      44.712  25.171  30.768  1.00  0.00     0.049 A 
ATOM     58  H   UNL A   1      42.887  24.134  30.897  1.00  0.00     0.167 HD
ATOM     59  C   UNL A   1      44.537  26.688  32.614  1.00  0.00     0.074 A 
ATOM     60  C   UNL A   1      44.357  27.303  33.916  1.00  0.00     0.031 C 
ATOM     61  C   UNL A   1      44.841  25.421  32.200  1.00  0.00     0.034 A 
BRANCH  48  62
ATOM     62  C   UNL A   1      42.575  22.471  27.364  1.00  0.00     0.023 A 
ATOM     63  C   UNL A   1      43.486  22.345  26.294  1.00  0.00     0.031 A 
ATOM     64  C   UNL A   1      41.745  21.347  27.578  1.00  0.00     0.131 A 
ATOM     65  C   UNL A   1      43.634  21.135  25.585  1.00  0.00     0.055 A 
ATOM     66  C   UNL A   1      41.853  20.163  26.837  1.00  0.00     0.041 A 
ATOM     67  F   UNL A   1      40.813  21.327  28.541  1.00  0.00    -0.206 F 
ATOM     68  C   UNL A   1      42.818  20.041  25.850  1.00  0.00     0.022 A 
BRANCH  65  69
ATOM     69  S   UNL A   1      44.960  20.920  24.362  1.00  0.00     0.124 S 
ATOM     70  O   UNL A   1      44.649  19.606  23.797  1.00  0.00    -0.237 OA
ATOM     71  O   UNL A   1      44.750  22.049  23.461  1.00  0.00    -0.237 OA
ATOM     72  O   UNL A   1      46.183  20.966  25.159  1.00  0.00    -0.744 OA
ENDBRANCH  65  69
ENDBRANCH  48  62
BRANCH  49  73
ATOM     73  C   UNL A   1      42.020  30.721  32.317  1.00  0.00     0.023 A 
ATOM     74  C   UNL A   1      40.902  30.064  32.858  1.00  0.00     0.031 A 
ATOM     75  C   UNL A   1      41.882  32.077  31.951  1.00  0.00     0.131 A 
ATOM     76  C   UNL A   1      39.667  30.733  32.921  1.00  0.00     0.055 A 
ATOM     77  C   UNL A   1      40.649  32.732  32.004  1.00  0.00     0.041 A 
ATOM     78  F   UNL A   1      42.921  32.744  31.419  1.00  0.00    -0.206 F 
ATOM     79  C   UNL A   1      39.527  32.048  32.461  1.00  0.00     0.022 A 
BRANCH  76  80
ATOM     80  S   UNL A   1      38.173  29.847  33.455  1.00  0.00     0.124 S 
ATOM     81  O   UNL A   1      38.501  28.477  33.077  1.00  0.00    -0.237 OA
ATOM     82  O   UNL A   1      38.135  30.111  34.891  1.00  0.00    -0.237 OA
ATOM     83  O   UNL A   1      37.115  30.490  32.686  1.00  0.00    -0.744 OA
ENDBRANCH  76  80
ENDBRANCH  49  73
BRANCH  61  84
ATOM     84  C   UNL A   1      45.207  24.263  33.100  1.00  0.00     0.023 A 
ATOM     85  C   UNL A   1      46.514  24.191  33.641  1.00  0.00     0.031 A 
ATOM     86  C   UNL A   1      44.307  23.288  33.552  1.00  0.00     0.131 A 
ATOM     87  C   UNL A   1      46.902  23.169  34.512  1.00  0.00     0.055 A 
ATOM     88  C   UNL A   1      44.702  22.239  34.397  1.00  0.00     0.041 A 
ATOM     89  F   UNL A   1      43.002  23.348  33.249  1.00  0.00    -0.206 F 
ATOM     90  C   UNL A   1      46.007  22.170  34.873  1.00  0.00     0.022 A 
BRANCH  87  91
ATOM     91  S   UNL A   1      48.566  23.146  35.236  1.00  0.00     0.124 S 
ATOM     92  O   UNL A   1      48.530  24.325  36.099  1.00  0.00    -0.237 OA
ATOM     93  O   UNL A   1      48.571  21.862  35.932  1.00  0.00    -0.237 OA
ATOM     94  O   UNL A   1      49.452  23.238  34.082  1.00  0.00    -0.744 OA
ENDBRANCH  87  91
ENDBRANCH  61  84
ENDBRANCH  35  36
ENDBRANCH  27  30
ENDBRANCH  25  26
ENDBRANCH   1  25
TORSDOF 15
ENDMDL
MODEL 2
REMARK VINA RESULT:     -13.0      4.541     10.348
REMARK SMILES Cc1ccc(NC(=O)[C@H]2CC=CC[C@H]2C(=O)NCCCNC(=O)c2ccc(-c3c4nc(c(-c5cc(S(=O)(=O)[O-])ccc5F)c5ccc([nH]5)c(-c5cc(S(=O)(=O)[O-])ccc5F)c5nc(c(-c6cc(S(=O)(=O)[O-])ccc6F)c6ccc3[nH]6)C=C5)C=C4)cc2)cc1F
REMARK SMILES IDX 19 1 18 2 17 3 15 4 16 5 14 7 9 8 10 9 11 10 13 11 12 12
REMARK SMILES IDX 7 13 6 14 8 16 5 17 1 18 2 19 3 20 88 21 4 22 87 23 89 24
REMARK SMILES IDX 20 25 21 26 22 27 23 29 24 30 25 31 86 32 26 33 85 34 27 35
REMARK SMILES IDX 28 36 29 37 79 38 30 39 84 40 78 41 80 42 31 43 83 44 77 45
REMARK SMILES IDX 76 46 32 48 64 49 44 50 63 51 45 52 48 53 62 54 81 55 46 56
REMARK SMILES IDX 47 57 61 59 82 60 49 61 33 62 34 63 42 64 35 65 41 66 43 67
REMARK SMILES IDX 40 68 36 69 37 70 38 71 39 72 65 73 66 74 74 75 67 76 73 77
REMARK SMILES IDX 75 78 72 79 68 80 69 81 70 82 71 83 50 84 51 85 59 86 52 87
REMARK SMILES IDX 58 88 60 89 57 90 53 91 54 92 55 93 56 94
REMARK H PARENT 17 6 6 15 21 28 80 47 48 58
REMARK Flexibility Score: inf
ROOT
ATOM      1  C   UNL A   1      35.634  23.489  25.889  1.00  0.00     0.042 C 
ENDROOT
BRANCH   1   2
ATOM      2  C   UNL A   1      34.966  23.812  24.560  1.00  0.00     0.117 C 
BRANCH   2   3
ATOM      3  N   UNL A   1      33.514  23.872  24.624  1.00  0.00    -0.356 N 
ATOM      4  C   UNL A   1      32.675  24.913  24.857  1.00  0.00     0.224 C 
ATOM      5  O   UNL A   1      31.469  24.729  24.670  1.00  0.00    -0.275 OA
ATOM      6  H   UNL A   1      33.063  23.010  24.472  1.00  0.00     0.163 HD
BRANCH   4   7
ATOM      7  C   UNL A   1      33.184  26.289  25.265  1.00  0.00     0.095 C 
ATOM      8  C   UNL A   1      33.611  27.258  24.125  1.00  0.00     0.095 C 
ATOM      9  C   UNL A   1      33.273  28.755  24.363  1.00  0.00     0.041 C 
ATOM     10  C   UNL A   1      32.269  29.085  25.415  1.00  0.00    -0.030 C 
ATOM     11  C   UNL A   1      32.282  26.805  26.408  1.00  0.00     0.041 C 
ATOM     12  C   UNL A   1      31.833  28.221  26.331  1.00  0.00    -0.030 C 
BRANCH   8  13
ATOM     13  C   UNL A   1      33.272  26.857  22.681  1.00  0.00     0.228 C 
ATOM     14  N   UNL A   1      32.173  27.292  22.001  1.00  0.00    -0.326 N 
ATOM     15  H   UNL A   1      32.250  27.149  21.030  1.00  0.00     0.169 HD
ATOM     16  O   UNL A   1      34.029  26.109  22.051  1.00  0.00    -0.274 OA
BRANCH  14  17
ATOM     17  C   UNL A   1      30.960  27.898  22.364  1.00  0.00     0.044 A 
ATOM     18  C   UNL A   1      27.278  29.966  23.284  1.00  0.00     0.047 C 
ATOM     19  C   UNL A   1      28.563  29.272  22.954  1.00  0.00    -0.015 A 
ATOM     20  C   UNL A   1      29.608  29.931  22.304  1.00  0.00     0.008 A 
ATOM     21  C   UNL A   1      28.732  27.930  23.285  1.00  0.00     0.128 A 
ATOM     22  C   UNL A   1      30.790  29.243  22.001  1.00  0.00     0.026 A 
ATOM     23  C   UNL A   1      29.909  27.242  22.992  1.00  0.00     0.065 A 
ATOM     24  F   UNL A   1      27.733  27.259  23.879  1.00  0.00    -0.207 F 
ENDBRANCH  14  17
ENDBRANCH   8  13
ENDBRANCH   4   7
ENDBRANCH   2   3
ENDBRANCH   1   2
BRANCH   1  25
ATOM     25  C   UNL A   1      36.926  24.230  26.122  1.00  0.00     0.118 C 
BRANCH  25  26
ATOM     26  N   UNL A   1      38.035  23.312  26.304  1.00  0.00    -0.352 N 
ATOM     27  C   UNL A   1      39.299  23.645  26.739  1.00  0.00     0.251 C 
ATOM     28  H   UNL A   1      37.869  22.365  26.098  1.00  0.00     0.163 HD
ATOM     29  O   UNL A   1      40.230  22.874  26.558  1.00  0.00    -0.269 OA
BRANCH  27  30
ATOM     30  C   UNL A   1      39.453  24.916  27.474  1.00  0.00     0.039 A 
ATOM     31  C   UNL A   1      38.917  25.110  28.751  1.00  0.00     0.014 A 
ATOM     32  C   UNL A   1      40.136  25.943  26.823  1.00  0.00     0.014 A 
ATOM     33  C   UNL A   1      39.058  26.354  29.377  1.00  0.00     0.010 A 
ATOM     34  C   UNL A   1      40.367  27.122  27.477  1.00  0.00     0.010 A 
ATOM     35  C   UNL A   1      39.768  27.359  28.722  1.00  0.00    -0.014 A 
BRANCH  35  36
ATOM     36  C   UNL A   1      39.835  28.757  29.122  1.00  0.00     0.031 A 
ATOM     37  C   UNL A   1      38.814  29.756  28.782  1.00  0.00     0.074 A 
ATOM     38  C   UNL A   1      40.741  29.010  30.093  1.00  0.00     0.049 A 
ATOM     39  N   UNL A   1      38.957  31.011  29.040  1.00  0.00    -0.248 NA
ATOM     40  C   UNL A   1      37.551  29.440  28.132  1.00  0.00     0.031 C 
ATOM     41  C   UNL A   1      40.730  30.056  31.100  1.00  0.00     0.029 A 
ATOM     42  N   UNL A   1      41.961  28.357  30.292  1.00  0.00    -0.354 N 
ATOM     43  C   UNL A   1      37.729  31.609  28.888  1.00  0.00     0.074 A 
ATOM     44  C   UNL A   1      36.917  30.618  28.214  1.00  0.00     0.031 C 
ATOM     45  C   UNL A   1      41.961  30.146  31.631  1.00  0.00     0.029 A 
ATOM     46  C   UNL A   1      42.835  29.312  30.820  1.00  0.00     0.049 A 
ATOM     47  H   UNL A   1      42.164  27.412  30.098  1.00  0.00     0.167 HD
ATOM     48  C   UNL A   1      37.507  32.816  29.490  1.00  0.00     0.034 A 
ATOM     49  C   UNL A   1      43.947  29.735  30.148  1.00  0.00     0.034 A 
ATOM     50  C   UNL A   1      38.711  33.297  30.180  1.00  0.00     0.049 A 
ATOM     51  C   UNL A   1      43.937  31.226  29.857  1.00  0.00     0.074 A 
ATOM     52  C   UNL A   1      39.114  33.333  31.506  1.00  0.00     0.029 A 
ATOM     53  N   UNL A   1      39.842  33.586  29.435  1.00  0.00    -0.354 N 
ATOM     54  N   UNL A   1      42.974  32.037  30.194  1.00  0.00    -0.248 NA
ATOM     55  C   UNL A   1      44.965  31.898  29.066  1.00  0.00     0.031 C 
ATOM     56  C   UNL A   1      40.497  33.673  31.547  1.00  0.00     0.029 A 
ATOM     57  C   UNL A   1      40.931  33.857  30.248  1.00  0.00     0.049 A 
ATOM     58  H   UNL A   1      39.868  33.598  28.452  1.00  0.00     0.167 HD
ATOM     59  C   UNL A   1      43.153  33.251  29.587  1.00  0.00     0.074 A 
ATOM     60  C   UNL A   1      44.437  33.127  28.923  1.00  0.00     0.031 C 
ATOM     61  C   UNL A   1      42.195  34.226  29.619  1.00  0.00     0.034 A 
BRANCH  48  62
ATOM     62  C   UNL A   1      36.142  33.462  29.653  1.00  0.00     0.023 A 
ATOM     63  C   UNL A   1      35.577  33.811  30.898  1.00  0.00     0.031 A 
ATOM     64  C   UNL A   1      35.356  33.794  28.526  1.00  0.00     0.131 A 
ATOM     65  C   UNL A   1      34.381  34.550  30.988  1.00  0.00     0.055 A 
ATOM     66  C   UNL A   1      34.138  34.480  28.617  1.00  0.00     0.041 A 
ATOM     67  F   UNL A   1      35.748  33.503  27.278  1.00  0.00    -0.206 F 
ATOM     68  C   UNL A   1      33.655  34.886  29.850  1.00  0.00     0.022 A 
BRANCH  65  69
ATOM     69  S   UNL A   1      33.784  35.181  32.584  1.00  0.00     0.124 S 
ATOM     70  O   UNL A   1      34.195  36.584  32.534  1.00  0.00    -0.237 OA
ATOM     71  O   UNL A   1      32.345  34.952  32.500  1.00  0.00    -0.237 OA
ATOM     72  O   UNL A   1      34.497  34.372  33.570  1.00  0.00    -0.744 OA
ENDBRANCH  65  69
ENDBRANCH  48  62
BRANCH  49  73
ATOM     73  C   UNL A   1      44.512  28.700  29.232  1.00  0.00     0.023 A 
ATOM     74  C   UNL A   1      44.211  28.722  27.860  1.00  0.00     0.031 A 
ATOM     75  C   UNL A   1      44.966  27.487  29.793  1.00  0.00     0.131 A 
ATOM     76  C   UNL A   1      44.269  27.531  27.117  1.00  0.00     0.055 A 
ATOM     77  C   UNL A   1      45.009  26.303  29.052  1.00  0.00     0.041 A 
ATOM     78  F   UNL A   1      45.255  27.414  31.104  1.00  0.00    -0.206 F 
ATOM     79  C   UNL A   1      44.628  26.317  27.714  1.00  0.00     0.022 A 
BRANCH  76  80
ATOM     80  S   UNL A   1      43.719  27.505  25.385  1.00  0.00     0.124 S 
ATOM     81  O   UNL A   1      42.697  28.545  25.392  1.00  0.00    -0.237 OA
ATOM     82  O   UNL A   1      44.939  27.827  24.651  1.00  0.00    -0.237 OA
ATOM     83  O   UNL A   1      43.242  26.138  25.210  1.00  0.00    -0.744 OA
ENDBRANCH  76  80
ENDBRANCH  49  73
BRANCH  61  84
ATOM     84  C   UNL A   1      42.310  35.597  28.992  1.00  0.00     0.023 A 
ATOM     85  C   UNL A   1      42.993  36.624  29.690  1.00  0.00     0.031 A 
ATOM     86  C   UNL A   1      41.889  35.919  27.694  1.00  0.00     0.131 A 
ATOM     87  C   UNL A   1      43.169  37.900  29.146  1.00  0.00     0.055 A 
ATOM     88  C   UNL A   1      42.031  37.208  27.160  1.00  0.00     0.041 A 
ATOM     89  F   UNL A   1      41.385  34.986  26.872  1.00  0.00    -0.206 F 
ATOM     90  C   UNL A   1      42.664  38.209  27.889  1.00  0.00     0.022 A 
BRANCH  87  91
ATOM     91  S   UNL A   1      44.106  39.170  30.041  1.00  0.00     0.124 S 
ATOM     92  O   UNL A   1      45.238  39.392  29.143  1.00  0.00    -0.237 OA
ATOM     93  O   UNL A   1      43.138  40.262  30.110  1.00  0.00    -0.237 OA
ATOM     94  O   UNL A   1      44.430  38.536  31.314  1.00  0.00    -0.744 OA
ENDBRANCH  87  91
ENDBRANCH  61  84
ENDBRANCH  35  36
ENDBRANCH  27  30
ENDBRANCH  25  26
ENDBRANCH   1  25
TORSDOF 15
ENDMDL
MODEL 3
REMARK VINA RESULT:     -12.9      2.162      2.620
REMARK SMILES Cc1ccc(NC(=O)[C@H]2CC=CC[C@H]2C(=O)NCCCNC(=O)c2ccc(-c3c4nc(c(-c5cc(S(=O)(=O)[O-])ccc5F)c5ccc([nH]5)c(-c5cc(S(=O)(=O)[O-])ccc5F)c5nc(c(-c6cc(S(=O)(=O)[O-])ccc6F)c6ccc3[nH]6)C=C5)C=C4)cc2)cc1F
REMARK SMILES IDX 19 1 18 2 17 3 15 4 16 5 14 7 9 8 10 9 11 10 13 11 12 12
REMARK SMILES IDX 7 13 6 14 8 16 5 17 1 18 2 19 3 20 88 21 4 22 87 23 89 24
REMARK SMILES IDX 20 25 21 26 22 27 23 29 24 30 25 31 86 32 26 33 85 34 27 35
REMARK SMILES IDX 28 36 29 37 79 38 30 39 84 40 78 41 80 42 31 43 83 44 77 45
REMARK SMILES IDX 76 46 32 48 64 49 44 50 63 51 45 52 48 53 62 54 81 55 46 56
REMARK SMILES IDX 47 57 61 59 82 60 49 61 33 62 34 63 42 64 35 65 41 66 43 67
REMARK SMILES IDX 40 68 36 69 37 70 38 71 39 72 65 73 66 74 74 75 67 76 73 77
REMARK SMILES IDX 75 78 72 79 68 80 69 81 70 82 71 83 50 84 51 85 59 86 52 87
REMARK SMILES IDX 58 88 60 89 57 90 53 91 54 92 55 93 56 94
REMARK H PARENT 17 6 6 15 21 28 80 47 48 58
REMARK Flexibility Score: inf
ROOT
ATOM      1  C   UNL A   1      32.386  28.497  26.343  1.00  0.00     0.042 C 
ENDROOT
BRANCH   1   2
ATOM      2  C   UNL A   1      31.986  27.042  26.537  1.00  0.00     0.117 C 
BRANCH   2   3
ATOM      3  N   UNL A   1      31.586  26.367  25.312  1.00  0.00    -0.356 N 
ATOM      4  C   UNL A   1      32.183  25.375  24.605  1.00  0.00     0.224 C 
ATOM      5  O   UNL A   1      31.536  24.850  23.696  1.00  0.00    -0.275 OA
ATOM      6  H   UNL A   1      30.736  26.685  24.930  1.00  0.00     0.163 HD
BRANCH   4   7
ATOM      7  C   UNL A   1      33.575  24.859  24.949  1.00  0.00     0.095 C 
ATOM      8  C   UNL A   1      33.689  23.832  26.112  1.00  0.00     0.095 C 
ATOM      9  C   UNL A   1      34.750  22.717  25.913  1.00  0.00     0.041 C 
ATOM     10  C   UNL A   1      35.273  22.488  24.536  1.00  0.00    -0.030 C 
ATOM     11  C   UNL A   1      34.320  24.595  23.621  1.00  0.00     0.041 C 
ATOM     12  C   UNL A   1      35.089  23.327  23.517  1.00  0.00    -0.030 C 
BRANCH   8  13
ATOM     13  C   UNL A   1      32.386  23.236  26.668  1.00  0.00     0.228 C 
ATOM     14  N   UNL A   1      31.863  22.038  26.282  1.00  0.00    -0.326 N 
ATOM     15  H   UNL A   1      31.185  21.702  26.912  1.00  0.00     0.169 HD
ATOM     16  O   UNL A   1      31.750  23.840  27.541  1.00  0.00    -0.274 OA
BRANCH  14  17
ATOM     17  C   UNL A   1      32.067  21.173  25.195  1.00  0.00     0.044 A 
ATOM     18  C   UNL A   1      32.673  18.288  22.034  1.00  0.00     0.047 C 
ATOM     19  C   UNL A   1      32.470  19.269  23.147  1.00  0.00    -0.015 A 
ATOM     20  C   UNL A   1      32.677  18.918  24.483  1.00  0.00     0.008 A 
ATOM     21  C   UNL A   1      32.050  20.566  22.862  1.00  0.00     0.128 A 
ATOM     22  C   UNL A   1      32.464  19.861  25.496  1.00  0.00     0.026 A 
ATOM     23  C   UNL A   1      31.842  21.510  23.867  1.00  0.00     0.065 A 
ATOM     24  F   UNL A   1      31.809  20.924  21.592  1.00  0.00    -0.207 F 
ENDBRANCH  14  17
ENDBRANCH   8  13
ENDBRANCH   4   7
ENDBRANCH   2   3
ENDBRANCH   1   2
BRANCH   1  25
ATOM     25  C   UNL A   1      33.716  28.855  26.955  1.00  0.00     0.118 C 
BRANCH  25  26
ATOM     26  N   UNL A   1      33.845  30.288  27.139  1.00  0.00    -0.352 N 
ATOM     27  C   UNL A   1      34.768  30.923  27.941  1.00  0.00     0.251 C 
ATOM     28  H   UNL A   1      33.216  30.860  26.644  1.00  0.00     0.163 HD
ATOM     29  O   UNL A   1      34.594  32.088  28.269  1.00  0.00    -0.269 OA
BRANCH  27  30
ATOM     30  C   UNL A   1      35.978  30.164  28.319  1.00  0.00     0.039 A 
ATOM     31  C   UNL A   1      36.176  29.673  29.613  1.00  0.00     0.014 A 
ATOM     32  C   UNL A   1      36.943  29.983  27.330  1.00  0.00     0.014 A 
ATOM     33  C   UNL A   1      37.364  29.000  29.920  1.00  0.00     0.010 A 
ATOM     34  C   UNL A   1      38.055  29.233  27.601  1.00  0.00     0.010 A 
ATOM     35  C   UNL A   1      38.306  28.803  28.911  1.00  0.00    -0.014 A 
BRANCH  35  36
ATOM     36  C   UNL A   1      39.666  28.319  29.094  1.00  0.00     0.031 A 
ATOM     37  C   UNL A   1      40.103  26.957  28.764  1.00  0.00     0.074 A 
ATOM     38  C   UNL A   1      40.577  29.298  29.295  1.00  0.00     0.049 A 
ATOM     39  N   UNL A   1      41.280  26.516  29.051  1.00  0.00    -0.248 NA
ATOM     40  C   UNL A   1      39.267  25.977  28.086  1.00  0.00     0.031 C 
ATOM     41  C   UNL A   1      41.993  29.306  28.974  1.00  0.00     0.029 A 
ATOM     42  N   UNL A   1      40.368  30.515  29.950  1.00  0.00    -0.354 N 
ATOM     43  C   UNL A   1      41.469  25.350  28.349  1.00  0.00     0.074 A 
ATOM     44  C   UNL A   1      40.154  24.998  27.856  1.00  0.00     0.031 C 
ATOM     45  C   UNL A   1      42.572  30.319  29.637  1.00  0.00     0.029 A 
ATOM     46  C   UNL A   1      41.581  30.841  30.566  1.00  0.00     0.049 A 
ATOM     47  H   UNL A   1      39.534  31.039  29.973  1.00  0.00     0.167 HD
ATOM     48  C   UNL A   1      42.746  24.908  28.141  1.00  0.00     0.034 A 
ATOM     49  C   UNL A   1      41.715  30.910  31.924  1.00  0.00     0.034 A 
ATOM     50  C   UNL A   1      43.726  25.786  28.794  1.00  0.00     0.049 A 
ATOM     51  C   UNL A   1      42.740  29.933  32.473  1.00  0.00     0.074 A 
ATOM     52  C   UNL A   1      44.586  26.776  28.344  1.00  0.00     0.029 A 
ATOM     53  N   UNL A   1      43.714  25.898  30.174  1.00  0.00    -0.354 N 
ATOM     54  N   UNL A   1      43.425  29.096  31.746  1.00  0.00    -0.248 NA
ATOM     55  C   UNL A   1      42.990  29.748  33.901  1.00  0.00     0.031 C 
ATOM     56  C   UNL A   1      45.108  27.468  29.475  1.00  0.00     0.029 A 
ATOM     57  C   UNL A   1      44.578  26.888  30.612  1.00  0.00     0.049 A 
ATOM     58  H   UNL A   1      43.161  25.342  30.769  1.00  0.00     0.167 HD
ATOM     59  C   UNL A   1      44.077  28.202  32.553  1.00  0.00     0.074 A 
ATOM     60  C   UNL A   1      43.805  28.678  33.896  1.00  0.00     0.031 C 
ATOM     61  C   UNL A   1      44.719  27.105  32.048  1.00  0.00     0.034 A 
BRANCH  48  62
ATOM     62  C   UNL A   1      43.133  23.814  27.162  1.00  0.00     0.023 A 
ATOM     63  C   UNL A   1      42.680  22.481  27.248  1.00  0.00     0.031 A 
ATOM     64  C   UNL A   1      43.966  24.092  26.054  1.00  0.00     0.131 A 
ATOM     65  C   UNL A   1      42.939  21.542  26.229  1.00  0.00     0.055 A 
ATOM     66  C   UNL A   1      44.271  23.144  25.069  1.00  0.00     0.041 A 
ATOM     67  F   UNL A   1      44.494  25.307  25.852  1.00  0.00    -0.206 F 
ATOM     68  C   UNL A   1      43.737  21.867  25.137  1.00  0.00     0.022 A 
BRANCH  65  69
ATOM     69  S   UNL A   1      42.165  19.899  26.246  1.00  0.00     0.124 S 
ATOM     70  O   UNL A   1      40.740  20.228  26.186  1.00  0.00    -0.237 OA
ATOM     71  O   UNL A   1      42.710  19.277  25.043  1.00  0.00    -0.237 OA
ATOM     72  O   UNL A   1      42.604  19.317  27.512  1.00  0.00    -0.744 OA
ENDBRANCH  65  69
ENDBRANCH  48  62
BRANCH  49  73
ATOM     73  C   UNL A   1      40.451  31.291  32.622  1.00  0.00     0.023 A 
ATOM     74  C   UNL A   1      40.307  32.569  33.187  1.00  0.00     0.031 A 
ATOM     75  C   UNL A   1      39.607  30.259  33.088  1.00  0.00     0.131 A 
ATOM     76  C   UNL A   1      39.414  32.759  34.256  1.00  0.00     0.055 A 
ATOM     77  C   UNL A   1      38.732  30.452  34.159  1.00  0.00     0.041 A 
ATOM     78  F   UNL A   1      39.717  29.017  32.585  1.00  0.00    -0.206 F 
ATOM     79  C   UNL A   1      38.657  31.700  34.769  1.00  0.00     0.022 A 
BRANCH  76  80
ATOM     80  S   UNL A   1      39.340  34.361  35.112  1.00  0.00     0.124 S 
ATOM     81  O   UNL A   1      38.505  35.135  34.201  1.00  0.00    -0.237 OA
ATOM     82  O   UNL A   1      38.724  34.017  36.391  1.00  0.00    -0.237 OA
ATOM     83  O   UNL A   1      40.740  34.757  35.194  1.00  0.00    -0.744 OA
ENDBRANCH  76  80
ENDBRANCH  49  73
BRANCH  61  84
ATOM     84  C   UNL A   1      45.474  26.075  32.858  1.00  0.00     0.023 A 
ATOM     85  C   UNL A   1      44.751  25.141  33.640  1.00  0.00     0.031 A 
ATOM     86  C   UNL A   1      46.862  25.885  32.812  1.00  0.00     0.131 A 
ATOM     87  C   UNL A   1      45.388  24.139  34.377  1.00  0.00     0.055 A 
ATOM     88  C   UNL A   1      47.509  24.905  33.579  1.00  0.00     0.041 A 
ATOM     89  F   UNL A   1      47.637  26.594  31.977  1.00  0.00    -0.206 F 
ATOM     90  C   UNL A   1      46.773  24.033  34.375  1.00  0.00     0.022 A 
BRANCH  87  91
ATOM     91  S   UNL A   1      44.426  22.920  35.315  1.00  0.00     0.124 S 
ATOM     92  O   UNL A   1      43.057  23.371  35.072  1.00  0.00    -0.237 OA
ATOM     93  O   UNL A   1      44.799  21.672  34.653  1.00  0.00    -0.237 OA
ATOM     94  O   UNL A   1      44.904  23.072  36.684  1.00  0.00    -0.744 OA
ENDBRANCH  87  91
ENDBRANCH  61  84
ENDBRANCH  35  36
ENDBRANCH  27  30
ENDBRANCH  25  26
ENDBRANCH   1  25
TORSDOF 15
ENDMDL
