MODEL 1
REMARK VINA RESULT:     -12.3      0.000      0.000
REMARK SMILES O=C(NCCCNC(=O)[C@H]1CC=CC[C@@H]1C(=O)NC1CCCCC1)c1ccc(-c2c3nc(c(-c4cc(S(=O)(=O)[O-])ccc4F)c4ccc([nH]4)c(-c4cc(S(=O)(=O)[O-])ccc4F)c4nc(c(-c5cc(S(=O)(=O)[O-])ccc5F)c5ccc2[nH]5)C=C4)C=C3)cc1
REMARK SMILES IDX 4 1 3 2 1 3 2 4 25 6 26 7 87 8 27 9 86 10 28 11 29 12 30 13
REMARK SMILES IDX 80 14 31 15 85 16 79 17 81 18 32 19 84 20 78 21 77 22 33 24
REMARK SMILES IDX 65 25 45 26 64 27 46 28 49 29 63 30 82 31 47 32 48 33 62 35
REMARK SMILES IDX 83 36 50 37 34 38 35 39 43 40 36 41 42 42 44 43 41 44 37 45
REMARK SMILES IDX 38 46 39 47 40 48 66 49 67 50 75 51 68 52 74 53 76 54 73 55
REMARK SMILES IDX 69 56 70 57 71 58 72 59 51 60 52 61 60 62 53 63 59 64 61 65
REMARK SMILES IDX 58 66 54 67 55 68 56 69 57 70 5 71 6 72 7 73 8 74 9 76 10 77
REMARK SMILES IDX 11 78 15 79 12 80 14 81 13 82 16 83 17 84 18 85 19 87 20 88
REMARK SMILES IDX 24 89 21 90 23 91 22 92
REMARK H PARENT 3 5 81 23 49 34 7 75 18 86
REMARK Flexibility Score: inf
ROOT
ATOM      1  C   UNL A   1      39.207  20.108  25.985  1.00  0.00     0.118 C 
ENDROOT
BRANCH   1   2
ATOM      2  N   UNL A   1      40.366  19.226  25.952  1.00  0.00    -0.352 N 
ATOM      3  O   UNL A   1      42.519  18.595  25.873  1.00  0.00    -0.269 OA
ATOM      4  C   UNL A   1      41.711  19.498  26.052  1.00  0.00     0.251 C 
ATOM      5  H   UNL A   1      40.150  18.273  25.838  1.00  0.00     0.163 HD
BRANCH   4   6
ATOM      6  C   UNL A   1      42.187  20.867  26.350  1.00  0.00     0.039 A 
ATOM      7  C   UNL A   1      42.368  21.300  27.663  1.00  0.00     0.014 A 
ATOM      8  C   UNL A   1      42.501  21.721  25.287  1.00  0.00     0.014 A 
ATOM      9  C   UNL A   1      42.711  22.625  27.918  1.00  0.00     0.010 A 
ATOM     10  C   UNL A   1      42.937  23.026  25.544  1.00  0.00     0.010 A 
ATOM     11  C   UNL A   1      43.020  23.499  26.863  1.00  0.00    -0.014 A 
BRANCH  11  12
ATOM     12  C   UNL A   1      43.501  24.872  27.166  1.00  0.00     0.031 A 
ATOM     13  C   UNL A   1      42.575  25.916  27.731  1.00  0.00     0.074 A 
ATOM     14  C   UNL A   1      44.796  25.169  26.934  1.00  0.00     0.049 A 
ATOM     15  N   UNL A   1      42.827  27.164  28.031  1.00  0.00    -0.248 NA
ATOM     16  C   UNL A   1      41.186  25.506  27.984  1.00  0.00     0.031 C 
ATOM     17  C   UNL A   1      45.785  24.235  26.388  1.00  0.00     0.029 A 
ATOM     18  N   UNL A   1      45.508  26.324  27.130  1.00  0.00    -0.354 N 
ATOM     19  C   UNL A   1      41.628  27.698  28.493  1.00  0.00     0.074 A 
ATOM     20  C   UNL A   1      40.642  26.640  28.403  1.00  0.00     0.031 C 
ATOM     21  C   UNL A   1      46.978  24.842  26.327  1.00  0.00     0.029 A 
ATOM     22  C   UNL A   1      46.827  26.230  26.748  1.00  0.00     0.049 A 
ATOM     23  H   UNL A   1      45.113  27.144  27.509  1.00  0.00     0.167 HD
ATOM     24  C   UNL A   1      41.381  28.951  28.951  1.00  0.00     0.034 A 
ATOM     25  C   UNL A   1      47.798  27.162  26.703  1.00  0.00     0.034 A 
ATOM     26  C   UNL A   1      42.382  29.990  29.028  1.00  0.00     0.049 A 
ATOM     27  C   UNL A   1      47.477  28.561  27.154  1.00  0.00     0.074 A 
ATOM     28  C   UNL A   1      42.249  31.278  29.521  1.00  0.00     0.029 A 
ATOM     29  N   UNL A   1      43.694  29.872  28.586  1.00  0.00    -0.354 N 
ATOM     30  N   UNL A   1      46.347  29.038  27.622  1.00  0.00    -0.248 NA
ATOM     31  C   UNL A   1      48.561  29.548  27.071  1.00  0.00     0.031 C 
ATOM     32  C   UNL A   1      43.448  31.961  29.297  1.00  0.00     0.029 A 
ATOM     33  C   UNL A   1      44.364  31.077  28.749  1.00  0.00     0.049 A 
ATOM     34  H   UNL A   1      44.090  29.053  28.210  1.00  0.00     0.167 HD
ATOM     35  C   UNL A   1      46.593  30.376  27.912  1.00  0.00     0.074 A 
ATOM     36  C   UNL A   1      47.982  30.623  27.585  1.00  0.00     0.031 C 
ATOM     37  C   UNL A   1      45.746  31.316  28.405  1.00  0.00     0.034 A 
BRANCH  24  38
ATOM     38  C   UNL A   1      39.964  29.286  29.357  1.00  0.00     0.023 A 
ATOM     39  C   UNL A   1      39.570  29.353  30.704  1.00  0.00     0.031 A 
ATOM     40  C   UNL A   1      38.990  29.545  28.375  1.00  0.00     0.131 A 
ATOM     41  C   UNL A   1      38.228  29.609  31.030  1.00  0.00     0.055 A 
ATOM     42  C   UNL A   1      37.675  29.877  28.707  1.00  0.00     0.041 A 
ATOM     43  F   UNL A   1      39.299  29.475  27.071  1.00  0.00    -0.206 F 
ATOM     44  C   UNL A   1      37.284  29.899  30.042  1.00  0.00     0.022 A 
BRANCH  41  45
ATOM     45  S   UNL A   1      37.705  29.426  32.757  1.00  0.00     0.124 S 
ATOM     46  O   UNL A   1      38.827  30.030  33.472  1.00  0.00    -0.237 OA
ATOM     47  O   UNL A   1      36.453  30.173  32.788  1.00  0.00    -0.237 OA
ATOM     48  O   UNL A   1      37.575  27.981  32.926  1.00  0.00    -0.744 OA
ENDBRANCH  41  45
ENDBRANCH  24  38
BRANCH  25  49
ATOM     49  C   UNL A   1      49.145  26.817  26.163  1.00  0.00     0.023 A 
ATOM     50  C   UNL A   1      49.571  27.291  24.913  1.00  0.00     0.031 A 
ATOM     51  C   UNL A   1      50.014  25.971  26.877  1.00  0.00     0.131 A 
ATOM     52  C   UNL A   1      50.808  26.878  24.395  1.00  0.00     0.055 A 
ATOM     53  C   UNL A   1      51.271  25.616  26.386  1.00  0.00     0.041 A 
ATOM     54  F   UNL A   1      49.658  25.487  28.078  1.00  0.00    -0.206 F 
ATOM     55  C   UNL A   1      51.667  26.058  25.129  1.00  0.00     0.022 A 
BRANCH  52  56
ATOM     56  S   UNL A   1      51.233  27.346  22.695  1.00  0.00     0.124 S 
ATOM     57  O   UNL A   1      50.139  26.744  21.940  1.00  0.00    -0.237 OA
ATOM     58  O   UNL A   1      51.232  28.802  22.772  1.00  0.00    -0.237 OA
ATOM     59  O   UNL A   1      52.544  26.734  22.491  1.00  0.00    -0.744 OA
ENDBRANCH  52  56
ENDBRANCH  25  49
BRANCH  37  60
ATOM     60  C   UNL A   1      46.320  32.689  28.656  1.00  0.00     0.023 A 
ATOM     61  C   UNL A   1      46.392  33.660  27.642  1.00  0.00     0.031 A 
ATOM     62  C   UNL A   1      46.810  33.027  29.930  1.00  0.00     0.131 A 
ATOM     63  C   UNL A   1      46.988  34.902  27.905  1.00  0.00     0.055 A 
ATOM     64  C   UNL A   1      47.343  34.288  30.203  1.00  0.00     0.041 A 
ATOM     65  F   UNL A   1      46.774  32.136  30.935  1.00  0.00    -0.206 F 
ATOM     66  C   UNL A   1      47.445  35.230  29.185  1.00  0.00     0.022 A 
BRANCH  63  67
ATOM     67  S   UNL A   1      47.241  36.057  26.530  1.00  0.00     0.124 S 
ATOM     68  O   UNL A   1      46.070  36.922  26.642  1.00  0.00    -0.237 OA
ATOM     69  O   UNL A   1      48.521  36.670  26.868  1.00  0.00    -0.237 OA
ATOM     70  O   UNL A   1      47.262  35.191  25.353  1.00  0.00    -0.744 OA
ENDBRANCH  63  67
ENDBRANCH  37  60
ENDBRANCH  11  12
ENDBRANCH   4   6
ENDBRANCH   1   2
BRANCH   1  71
ATOM     71  C   UNL A   1      38.049  19.645  25.104  1.00  0.00     0.042 C 
BRANCH  71  72
ATOM     72  C   UNL A   1      36.845  20.576  25.048  1.00  0.00     0.117 C 
BRANCH  72  73
ATOM     73  N   UNL A   1      36.840  21.467  23.909  1.00  0.00    -0.356 N 
ATOM     74  C   UNL A   1      36.149  22.610  23.669  1.00  0.00     0.224 C 
ATOM     75  H   UNL A   1      37.443  21.198  23.179  1.00  0.00     0.163 HD
ATOM     76  O   UNL A   1      36.514  23.262  22.686  1.00  0.00    -0.275 OA
BRANCH  74  77
ATOM     77  C   UNL A   1      34.950  23.024  24.537  1.00  0.00     0.095 C 
ATOM     78  C   UNL A   1      34.745  24.540  24.542  1.00  0.00     0.041 C 
ATOM     79  C   UNL A   1      33.739  22.224  24.016  1.00  0.00     0.095 C 
ATOM     80  C   UNL A   1      33.863  25.071  23.453  1.00  0.00    -0.030 C 
ATOM     81  C   UNL A   1      33.017  22.811  22.798  1.00  0.00     0.041 C 
ATOM     82  C   UNL A   1      33.100  24.300  22.670  1.00  0.00    -0.030 C 
BRANCH  79  83
ATOM     83  C   UNL A   1      32.751  21.773  25.066  1.00  0.00     0.224 C 
ATOM     84  O   UNL A   1      32.049  22.584  25.674  1.00  0.00    -0.275 OA
ATOM     85  N   UNL A   1      32.582  20.442  25.345  1.00  0.00    -0.353 N 
ATOM     86  H   UNL A   1      31.886  20.300  26.026  1.00  0.00     0.163 HD
BRANCH  85  87
ATOM     87  C   UNL A   1      33.171  19.158  24.891  1.00  0.00     0.082 C 
ATOM     88  C   UNL A   1      32.874  18.036  25.899  1.00  0.00     0.025 C 
ATOM     89  C   UNL A   1      32.873  18.689  23.461  1.00  0.00     0.025 C 
ATOM     90  C   UNL A   1      33.527  16.708  25.497  1.00  0.00     0.002 C 
ATOM     91  C   UNL A   1      33.557  17.383  23.087  1.00  0.00     0.002 C 
ATOM     92  C   UNL A   1      33.163  16.294  24.075  1.00  0.00     0.000 C 
ENDBRANCH  85  87
ENDBRANCH  79  83
ENDBRANCH  74  77
ENDBRANCH  72  73
ENDBRANCH  71  72
ENDBRANCH   1  71
TORSDOF 15
ENDMDL
MODEL 2
REMARK VINA RESULT:     -12.3      6.219     12.100
REMARK SMILES O=C(NCCCNC(=O)[C@H]1CC=CC[C@@H]1C(=O)NC1CCCCC1)c1ccc(-c2c3nc(c(-c4cc(S(=O)(=O)[O-])ccc4F)c4ccc([nH]4)c(-c4cc(S(=O)(=O)[O-])ccc4F)c4nc(c(-c5cc(S(=O)(=O)[O-])ccc5F)c5ccc2[nH]5)C=C4)C=C3)cc1
REMARK SMILES IDX 4 1 3 2 1 3 2 4 25 6 26 7 87 8 27 9 86 10 28 11 29 12 30 13
REMARK SMILES IDX 80 14 31 15 85 16 79 17 81 18 32 19 84 20 78 21 77 22 33 24
REMARK SMILES IDX 65 25 45 26 64 27 46 28 49 29 63 30 82 31 47 32 48 33 62 35
REMARK SMILES IDX 83 36 50 37 34 38 35 39 43 40 36 41 42 42 44 43 41 44 37 45
REMARK SMILES IDX 38 46 39 47 40 48 66 49 67 50 75 51 68 52 74 53 76 54 73 55
REMARK SMILES IDX 69 56 70 57 71 58 72 59 51 60 52 61 60 62 53 63 59 64 61 65
REMARK SMILES IDX 58 66 54 67 55 68 56 69 57 70 5 71 6 72 7 73 8 74 9 76 10 77
REMARK SMILES IDX 11 78 15 79 12 80 14 81 13 82 16 83 17 84 18 85 19 87 20 88
REMARK SMILES IDX 24 89 21 90 23 91 22 92
REMARK H PARENT 3 5 81 23 49 34 7 75 18 86
REMARK Flexibility Score: inf
ROOT
ATOM      1  C   UNL A   1      32.541  32.410  27.203  1.00  0.00     0.118 C 
ENDROOT
BRANCH   1   2
ATOM      2  N   UNL A   1      32.447  33.798  27.634  1.00  0.00    -0.352 N 
ATOM      3  O   UNL A   1      32.826  35.645  28.854  1.00  0.00    -0.269 OA
ATOM      4  C   UNL A   1      33.168  34.504  28.570  1.00  0.00     0.251 C 
ATOM      5  H   UNL A   1      31.748  34.320  27.180  1.00  0.00     0.163 HD
BRANCH   4   6
ATOM      6  C   UNL A   1      34.333  33.892  29.248  1.00  0.00     0.039 A 
ATOM      7  C   UNL A   1      34.173  32.852  30.163  1.00  0.00     0.014 A 
ATOM      8  C   UNL A   1      35.618  34.342  28.924  1.00  0.00     0.014 A 
ATOM      9  C   UNL A   1      35.273  32.369  30.866  1.00  0.00     0.010 A 
ATOM     10  C   UNL A   1      36.733  33.790  29.564  1.00  0.00     0.010 A 
ATOM     11  C   UNL A   1      36.569  32.816  30.561  1.00  0.00    -0.014 A 
BRANCH  11  12
ATOM     12  C   UNL A   1      37.737  32.197  31.240  1.00  0.00     0.031 A 
ATOM     13  C   UNL A   1      38.500  31.067  30.603  1.00  0.00     0.074 A 
ATOM     14  C   UNL A   1      38.113  32.674  32.444  1.00  0.00     0.049 A 
ATOM     15  N   UNL A   1      39.527  30.401  31.067  1.00  0.00    -0.248 NA
ATOM     16  C   UNL A   1      38.048  30.624  29.277  1.00  0.00     0.031 C 
ATOM     17  C   UNL A   1      37.446  33.767  33.158  1.00  0.00     0.029 A 
ATOM     18  N   UNL A   1      39.141  32.316  33.278  1.00  0.00    -0.354 N 
ATOM     19  C   UNL A   1      39.836  29.449  30.102  1.00  0.00     0.074 A 
ATOM     20  C   UNL A   1      38.865  29.606  29.038  1.00  0.00     0.031 C 
ATOM     21  C   UNL A   1      38.102  34.013  34.301  1.00  0.00     0.029 A 
ATOM     22  C   UNL A   1      39.183  33.045  34.445  1.00  0.00     0.049 A 
ATOM     23  H   UNL A   1      39.789  31.606  33.063  1.00  0.00     0.167 HD
ATOM     24  C   UNL A   1      40.839  28.534  30.107  1.00  0.00     0.034 A 
ATOM     25  C   UNL A   1      39.973  32.926  35.529  1.00  0.00     0.034 A 
ATOM     26  C   UNL A   1      41.794  28.395  31.182  1.00  0.00     0.049 A 
ATOM     27  C   UNL A   1      41.034  31.858  35.534  1.00  0.00     0.074 A 
ATOM     28  C   UNL A   1      42.877  27.535  31.264  1.00  0.00     0.029 A 
ATOM     29  N   UNL A   1      41.774  29.117  32.369  1.00  0.00    -0.354 N 
ATOM     30  N   UNL A   1      41.335  30.991  34.596  1.00  0.00    -0.248 NA
ATOM     31  C   UNL A   1      41.861  31.754  36.742  1.00  0.00     0.031 C 
ATOM     32  C   UNL A   1      43.454  27.674  32.530  1.00  0.00     0.029 A 
ATOM     33  C   UNL A   1      42.793  28.687  33.207  1.00  0.00     0.049 A 
ATOM     34  H   UNL A   1      41.129  29.829  32.585  1.00  0.00     0.167 HD
ATOM     35  C   UNL A   1      42.404  30.252  35.094  1.00  0.00     0.074 A 
ATOM     36  C   UNL A   1      42.706  30.791  36.404  1.00  0.00     0.031 C 
ATOM     37  C   UNL A   1      43.075  29.221  34.519  1.00  0.00     0.034 A 
BRANCH  24  38
ATOM     38  C   UNL A   1      40.926  27.579  28.939  1.00  0.00     0.023 A 
ATOM     39  C   UNL A   1      41.882  27.731  27.920  1.00  0.00     0.031 A 
ATOM     40  C   UNL A   1      40.036  26.494  28.845  1.00  0.00     0.131 A 
ATOM     41  C   UNL A   1      41.886  26.853  26.824  1.00  0.00     0.055 A 
ATOM     42  C   UNL A   1      40.096  25.577  27.794  1.00  0.00     0.041 A 
ATOM     43  F   UNL A   1      39.087  26.307  29.775  1.00  0.00    -0.206 F 
ATOM     44  C   UNL A   1      41.017  25.760  26.767  1.00  0.00     0.022 A 
BRANCH  41  45
ATOM     45  S   UNL A   1      42.952  27.236  25.408  1.00  0.00     0.124 S 
ATOM     46  O   UNL A   1      42.208  28.313  24.759  1.00  0.00    -0.237 OA
ATOM     47  O   UNL A   1      44.203  27.623  26.051  1.00  0.00    -0.237 OA
ATOM     48  O   UNL A   1      42.995  25.982  24.660  1.00  0.00    -0.744 OA
ENDBRANCH  41  45
ENDBRANCH  24  38
BRANCH  25  49
ATOM     49  C   UNL A   1      39.758  33.803  36.716  1.00  0.00     0.023 A 
ATOM     50  C   UNL A   1      39.171  33.307  37.889  1.00  0.00     0.031 A 
ATOM     51  C   UNL A   1      40.103  35.167  36.678  1.00  0.00     0.131 A 
ATOM     52  C   UNL A   1      38.901  34.177  38.956  1.00  0.00     0.055 A 
ATOM     53  C   UNL A   1      39.893  36.014  37.767  1.00  0.00     0.041 A 
ATOM     54  F   UNL A   1      40.667  35.696  35.580  1.00  0.00    -0.206 F 
ATOM     55  C   UNL A   1      39.274  35.522  38.910  1.00  0.00     0.022 A 
BRANCH  52  56
ATOM     56  S   UNL A   1      37.959  33.545  40.372  1.00  0.00     0.124 S 
ATOM     57  O   UNL A   1      37.759  34.757  41.159  1.00  0.00    -0.237 OA
ATOM     58  O   UNL A   1      36.772  32.997  39.725  1.00  0.00    -0.237 OA
ATOM     59  O   UNL A   1      38.858  32.556  40.964  1.00  0.00    -0.744 OA
ENDBRANCH  52  56
ENDBRANCH  25  49
BRANCH  37  60
ATOM     60  C   UNL A   1      44.231  28.640  35.296  1.00  0.00     0.023 A 
ATOM     61  C   UNL A   1      44.048  27.623  36.249  1.00  0.00     0.031 A 
ATOM     62  C   UNL A   1      45.537  29.120  35.084  1.00  0.00     0.131 A 
ATOM     63  C   UNL A   1      45.142  27.155  36.991  1.00  0.00     0.055 A 
ATOM     64  C   UNL A   1      46.632  28.604  35.779  1.00  0.00     0.041 A 
ATOM     65  F   UNL A   1      45.770  30.096  34.191  1.00  0.00    -0.206 F 
ATOM     66  C   UNL A   1      46.436  27.624  36.747  1.00  0.00     0.022 A 
BRANCH  63  67
ATOM     67  S   UNL A   1      44.843  25.985  38.345  1.00  0.00     0.124 S 
ATOM     68  O   UNL A   1      43.624  26.522  38.942  1.00  0.00    -0.237 OA
ATOM     69  O   UNL A   1      44.702  24.717  37.638  1.00  0.00    -0.237 OA
ATOM     70  O   UNL A   1      46.042  26.103  39.171  1.00  0.00    -0.744 OA
ENDBRANCH  63  67
ENDBRANCH  37  60
ENDBRANCH  11  12
ENDBRANCH   4   6
ENDBRANCH   1   2
BRANCH   1  71
ATOM     71  C   UNL A   1      31.403  31.966  26.287  1.00  0.00     0.042 C 
BRANCH  71  72
ATOM     72  C   UNL A   1      31.531  30.566  25.700  1.00  0.00     0.117 C 
BRANCH  72  73
ATOM     73  N   UNL A   1      31.391  29.503  26.672  1.00  0.00    -0.356 N 
ATOM     74  C   UNL A   1      31.848  28.226  26.674  1.00  0.00     0.224 C 
ATOM     75  H   UNL A   1      30.873  29.750  27.471  1.00  0.00     0.163 HD
ATOM     76  O   UNL A   1      31.742  27.620  27.744  1.00  0.00    -0.275 OA
BRANCH  74  77
ATOM     77  C   UNL A   1      32.404  27.567  25.402  1.00  0.00     0.095 C 
ATOM     78  C   UNL A   1      33.667  26.750  25.686  1.00  0.00     0.041 C 
ATOM     79  C   UNL A   1      31.247  26.751  24.793  1.00  0.00     0.095 C 
ATOM     80  C   UNL A   1      33.431  25.319  26.064  1.00  0.00    -0.030 C 
ATOM     81  C   UNL A   1      31.027  25.352  25.380  1.00  0.00     0.041 C 
ATOM     82  C   UNL A   1      32.253  24.699  25.936  1.00  0.00    -0.030 C 
BRANCH  79  83
ATOM     83  C   UNL A   1      31.189  26.719  23.283  1.00  0.00     0.224 C 
ATOM     84  O   UNL A   1      31.790  25.856  22.639  1.00  0.00    -0.275 OA
ATOM     85  N   UNL A   1      30.436  27.629  22.591  1.00  0.00    -0.353 N 
ATOM     86  H   UNL A   1      30.472  27.466  21.621  1.00  0.00     0.163 HD
BRANCH  85  87
ATOM     87  C   UNL A   1      29.579  28.796  22.917  1.00  0.00     0.082 C 
ATOM     88  C   UNL A   1      29.939  30.001  22.031  1.00  0.00     0.025 C 
ATOM     89  C   UNL A   1      28.059  28.593  22.954  1.00  0.00     0.025 C 
ATOM     90  C   UNL A   1      29.121  31.247  22.387  1.00  0.00     0.002 C 
ATOM     91  C   UNL A   1      27.280  29.841  23.336  1.00  0.00     0.002 C 
ATOM     92  C   UNL A   1      27.620  30.974  22.378  1.00  0.00     0.000 C 
ENDBRANCH  85  87
ENDBRANCH  79  83
ENDBRANCH  74  77
ENDBRANCH  72  73
ENDBRANCH  71  72
ENDBRANCH   1  71
TORSDOF 15
ENDMDL
MODEL 3
REMARK VINA RESULT:     -12.2      5.849     11.649
REMARK SMILES O=C(NCCCNC(=O)[C@H]1CC=CC[C@@H]1C(=O)NC1CCCCC1)c1ccc(-c2c3nc(c(-c4cc(S(=O)(=O)[O-])ccc4F)c4ccc([nH]4)c(-c4cc(S(=O)(=O)[O-])ccc4F)c4nc(c(-c5cc(S(=O)(=O)[O-])ccc5F)c5ccc2[nH]5)C=C4)C=C3)cc1
REMARK SMILES IDX 4 1 3 2 1 3 2 4 25 6 26 7 87 8 27 9 86 10 28 11 29 12 30 13
REMARK SMILES IDX 80 14 31 15 85 16 79 17 81 18 32 19 84 20 78 21 77 22 33 24
REMARK SMILES IDX 65 25 45 26 64 27 46 28 49 29 63 30 82 31 47 32 48 33 62 35
REMARK SMILES IDX 83 36 50 37 34 38 35 39 43 40 36 41 42 42 44 43 41 44 37 45
REMARK SMILES IDX 38 46 39 47 40 48 66 49 67 50 75 51 68 52 74 53 76 54 73 55
REMARK SMILES IDX 69 56 70 57 71 58 72 59 51 60 52 61 60 62 53 63 59 64 61 65
REMARK SMILES IDX 58 66 54 67 55 68 56 69 57 70 5 71 6 72 7 73 8 74 9 76 10 77
REMARK SMILES IDX 11 78 15 79 12 80 14 81 13 82 16 83 17 84 18 85 19 87 20 88
REMARK SMILES IDX 24 89 21 90 23 91 22 92
REMARK H PARENT 3 5 81 23 49 34 7 75 18 86
REMARK Flexibility Score: inf
ROOT
ATOM      1  C   UNL A   1      32.728  32.502  27.054  1.00  0.00     0.118 C 
ENDROOT
BRANCH   1   2
ATOM      2  N   UNL A   1      32.571  33.850  27.582  1.00  0.00    -0.352 N 
ATOM      3  O   UNL A   1      32.840  35.612  28.948  1.00  0.00    -0.269 OA
ATOM      4  C   UNL A   1      33.232  34.507  28.595  1.00  0.00     0.251 C 
ATOM      5  H   UNL A   1      31.872  34.382  27.139  1.00  0.00     0.163 HD
BRANCH   4   6
ATOM      6  C   UNL A   1      34.391  33.883  29.272  1.00  0.00     0.039 A 
ATOM      7  C   UNL A   1      34.224  32.818  30.157  1.00  0.00     0.014 A 
ATOM      8  C   UNL A   1      35.678  34.347  28.978  1.00  0.00     0.014 A 
ATOM      9  C   UNL A   1      35.317  32.322  30.862  1.00  0.00     0.010 A 
ATOM     10  C   UNL A   1      36.787  33.783  29.617  1.00  0.00     0.010 A 
ATOM     11  C   UNL A   1      36.614  32.783  30.587  1.00  0.00    -0.014 A 
BRANCH  11  12
ATOM     12  C   UNL A   1      37.776  32.152  31.265  1.00  0.00     0.031 A 
ATOM     13  C   UNL A   1      38.544  31.033  30.615  1.00  0.00     0.074 A 
ATOM     14  C   UNL A   1      38.142  32.608  32.480  1.00  0.00     0.049 A 
ATOM     15  N   UNL A   1      39.566  30.358  31.077  1.00  0.00    -0.248 NA
ATOM     16  C   UNL A   1      38.103  30.612  29.277  1.00  0.00     0.031 C 
ATOM     17  C   UNL A   1      37.470  33.690  33.207  1.00  0.00     0.029 A 
ATOM     18  N   UNL A   1      39.163  32.236  33.316  1.00  0.00    -0.354 N 
ATOM     19  C   UNL A   1      39.883  29.422  30.098  1.00  0.00     0.074 A 
ATOM     20  C   UNL A   1      38.922  29.598  29.029  1.00  0.00     0.031 C 
ATOM     21  C   UNL A   1      38.116  33.916  34.358  1.00  0.00     0.029 A 
ATOM     22  C   UNL A   1      39.195  32.944  34.496  1.00  0.00     0.049 A 
ATOM     23  H   UNL A   1      39.812  31.529  33.094  1.00  0.00     0.167 HD
ATOM     24  C   UNL A   1      40.885  28.507  30.095  1.00  0.00     0.034 A 
ATOM     25  C   UNL A   1      39.977  32.807  35.584  1.00  0.00     0.034 A 
ATOM     26  C   UNL A   1      41.832  28.349  31.176  1.00  0.00     0.049 A 
ATOM     27  C   UNL A   1      41.037  31.739  35.580  1.00  0.00     0.074 A 
ATOM     28  C   UNL A   1      42.913  27.487  31.253  1.00  0.00     0.029 A 
ATOM     29  N   UNL A   1      41.802  29.051  32.375  1.00  0.00    -0.354 N 
ATOM     30  N   UNL A   1      41.345  30.887  34.630  1.00  0.00    -0.248 NA
ATOM     31  C   UNL A   1      41.854  31.613  36.793  1.00  0.00     0.031 C 
ATOM     32  C   UNL A   1      43.480  27.605  32.526  1.00  0.00     0.029 A 
ATOM     33  C   UNL A   1      42.814  28.606  33.214  1.00  0.00     0.049 A 
ATOM     34  H   UNL A   1      41.156  29.759  32.597  1.00  0.00     0.167 HD
ATOM     35  C   UNL A   1      42.410  30.139  35.124  1.00  0.00     0.074 A 
ATOM     36  C   UNL A   1      42.702  30.656  36.446  1.00  0.00     0.031 C 
ATOM     37  C   UNL A   1      43.085  29.118  34.537  1.00  0.00     0.034 A 
BRANCH  24  38
ATOM     38  C   UNL A   1      40.982  27.571  28.912  1.00  0.00     0.023 A 
ATOM     39  C   UNL A   1      41.971  27.717  27.924  1.00  0.00     0.031 A 
ATOM     40  C   UNL A   1      40.068  26.512  28.773  1.00  0.00     0.131 A 
ATOM     41  C   UNL A   1      41.984  26.860  26.812  1.00  0.00     0.055 A 
ATOM     42  C   UNL A   1      40.134  25.613  27.706  1.00  0.00     0.041 A 
ATOM     43  F   UNL A   1      39.087  26.332  29.671  1.00  0.00    -0.206 F 
ATOM     44  C   UNL A   1      41.089  25.792  26.710  1.00  0.00     0.022 A 
BRANCH  41  45
ATOM     45  S   UNL A   1      43.100  27.241  25.435  1.00  0.00     0.124 S 
ATOM     46  O   UNL A   1      43.302  25.921  24.842  1.00  0.00    -0.237 OA
ATOM     47  O   UNL A   1      42.316  28.183  24.644  1.00  0.00    -0.237 OA
ATOM     48  O   UNL A   1      44.277  27.806  26.092  1.00  0.00    -0.744 OA
ENDBRANCH  41  45
ENDBRANCH  24  38
BRANCH  25  49
ATOM     49  C   UNL A   1      39.752  33.664  36.784  1.00  0.00     0.023 A 
ATOM     50  C   UNL A   1      39.162  33.146  37.946  1.00  0.00     0.031 A 
ATOM     51  C   UNL A   1      40.090  35.030  36.769  1.00  0.00     0.131 A 
ATOM     52  C   UNL A   1      38.884  33.998  39.026  1.00  0.00     0.055 A 
ATOM     53  C   UNL A   1      39.871  35.859  37.870  1.00  0.00     0.041 A 
ATOM     54  F   UNL A   1      40.656  35.579  35.682  1.00  0.00    -0.206 F 
ATOM     55  C   UNL A   1      39.250  35.346  39.003  1.00  0.00     0.022 A 
BRANCH  52  56
ATOM     56  S   UNL A   1      37.939  33.339  40.427  1.00  0.00     0.124 S 
ATOM     57  O   UNL A   1      38.767  32.209  40.836  1.00  0.00    -0.237 OA
ATOM     58  O   UNL A   1      37.914  34.477  41.338  1.00  0.00    -0.237 OA
ATOM     59  O   UNL A   1      36.651  32.988  39.833  1.00  0.00    -0.744 OA
ENDBRANCH  52  56
ENDBRANCH  25  49
BRANCH  37  60
ATOM     60  C   UNL A   1      44.235  28.523  35.314  1.00  0.00     0.023 A 
ATOM     61  C   UNL A   1      44.044  27.485  36.243  1.00  0.00     0.031 A 
ATOM     62  C   UNL A   1      45.541  29.010  35.127  1.00  0.00     0.131 A 
ATOM     63  C   UNL A   1      45.131  27.004  36.986  1.00  0.00     0.055 A 
ATOM     64  C   UNL A   1      46.630  28.482  35.822  1.00  0.00     0.041 A 
ATOM     65  F   UNL A   1      45.781  30.005  34.257  1.00  0.00    -0.206 F 
ATOM     66  C   UNL A   1      46.427  27.481  36.767  1.00  0.00     0.022 A 
BRANCH  63  67
ATOM     67  S   UNL A   1      44.820  25.805  38.312  1.00  0.00     0.124 S 
ATOM     68  O   UNL A   1      46.150  25.647  38.893  1.00  0.00    -0.237 OA
ATOM     69  O   UNL A   1      43.841  26.500  39.139  1.00  0.00    -0.237 OA
ATOM     70  O   UNL A   1      44.311  24.633  37.602  1.00  0.00    -0.744 OA
ENDBRANCH  63  67
ENDBRANCH  37  60
ENDBRANCH  11  12
ENDBRANCH   4   6
ENDBRANCH   1   2
BRANCH   1  71
ATOM     71  C   UNL A   1      31.440  31.896  26.504  1.00  0.00     0.042 C 
BRANCH  71  72
ATOM     72  C   UNL A   1      31.484  30.404  26.200  1.00  0.00     0.117 C 
BRANCH  72  73
ATOM     73  N   UNL A   1      32.543  30.018  25.293  1.00  0.00    -0.356 N 
ATOM     74  C   UNL A   1      32.693  28.924  24.506  1.00  0.00     0.224 C 
ATOM     75  H   UNL A   1      33.286  30.662  25.238  1.00  0.00     0.163 HD
ATOM     76  O   UNL A   1      33.613  28.976  23.683  1.00  0.00    -0.275 OA
BRANCH  74  77
ATOM     77  C   UNL A   1      31.808  27.679  24.678  1.00  0.00     0.095 C 
ATOM     78  C   UNL A   1      30.537  27.760  23.828  1.00  0.00     0.041 C 
ATOM     79  C   UNL A   1      32.701  26.463  24.365  1.00  0.00     0.095 C 
ATOM     80  C   UNL A   1      30.661  27.213  22.439  1.00  0.00    -0.030 C 
ATOM     81  C   UNL A   1      32.857  26.104  22.882  1.00  0.00     0.041 C 
ATOM     82  C   UNL A   1      31.698  26.483  22.015  1.00  0.00    -0.030 C 
BRANCH  79  83
ATOM     83  C   UNL A   1      32.442  25.227  25.196  1.00  0.00     0.224 C 
ATOM     84  O   UNL A   1      31.356  25.047  25.751  1.00  0.00    -0.275 OA
ATOM     85  N   UNL A   1      33.399  24.256  25.325  1.00  0.00    -0.353 N 
ATOM     86  H   UNL A   1      33.077  23.501  25.869  1.00  0.00     0.163 HD
BRANCH  85  87
ATOM     87  C   UNL A   1      34.792  24.040  24.861  1.00  0.00     0.082 C 
ATOM     88  C   UNL A   1      35.706  23.663  26.040  1.00  0.00     0.025 C 
ATOM     89  C   UNL A   1      35.024  23.091  23.678  1.00  0.00     0.025 C 
ATOM     90  C   UNL A   1      37.168  23.500  25.610  1.00  0.00     0.002 C 
ATOM     91  C   UNL A   1      36.481  22.973  23.261  1.00  0.00     0.002 C 
ATOM     92  C   UNL A   1      37.322  22.524  24.448  1.00  0.00     0.000 C 
ENDBRANCH  85  87
ENDBRANCH  79  83
ENDBRANCH  74  77
ENDBRANCH  72  73
ENDBRANCH  71  72
ENDBRANCH   1  71
TORSDOF 15
ENDMDL
