MODEL 1
REMARK VINA RESULT:     -13.3      0.000      0.000
REMARK SMILES Cc1ccc([C@@H](CC(=O)NCCCNC(=O)c2ccc(-c3c4nc(c(-c5cc(S(=O)(=O)[O-])ccc5F)c5ccc([nH]5)c(-c5cc(S(=O)(=O)[O-])ccc5F)c5nc(c(-c6cc(S(=O)(=O)[O-])ccc6F)c6ccc3[nH]6)C=C5)C=C4)cc2)NC(=O)c2ccc(OC(F)F)cc2)cc1
REMARK SMILES IDX 11 1 10 2 8 3 9 4 7 6 6 7 5 8 1 9 2 10 3 11 94 12 4 13 93 14
REMARK SMILES IDX 80 15 81 16 82 18 83 19 84 20 92 21 85 22 91 23 86 24 87 25
REMARK SMILES IDX 88 26 89 27 90 28 12 29 13 30 14 31 15 32 16 34 17 35 18 36
REMARK SMILES IDX 79 37 19 38 78 39 20 40 21 41 22 42 72 43 23 44 77 45 71 46
REMARK SMILES IDX 73 47 24 48 76 49 70 50 69 51 25 53 57 54 37 55 56 56 38 57
REMARK SMILES IDX 41 58 55 59 74 60 39 61 40 62 54 64 75 65 42 66 26 67 27 68
REMARK SMILES IDX 35 69 28 70 34 71 36 72 33 73 29 74 30 75 31 76 32 77 58 78
REMARK SMILES IDX 59 79 67 80 60 81 66 82 68 83 65 84 61 85 62 86 63 87 64 88
REMARK SMILES IDX 43 89 44 90 52 91 45 92 51 93 53 94 50 95 46 96 47 97 48 98
REMARK SMILES IDX 49 99
REMARK H PARENT 10 5 80 17 14 33 73 52 41 63
REMARK Flexibility Score: inf
ROOT
ATOM      1  C   UNL A   1      33.599  30.164  27.011  1.00  0.00     0.117 C 
ENDROOT
BRANCH   1   2
ATOM      2  N   UNL A   1      32.583  29.351  27.672  1.00  0.00    -0.356 N 
ATOM      3  C   UNL A   1      32.054  28.140  27.375  1.00  0.00     0.222 C 
ATOM      4  O   UNL A   1      31.105  27.736  28.052  1.00  0.00    -0.275 OA
ATOM      5  H   UNL A   1      32.213  29.761  28.486  1.00  0.00     0.163 HD
BRANCH   3   6
ATOM      6  C   UNL A   1      32.660  27.261  26.310  1.00  0.00     0.129 C 
BRANCH   6   7
ATOM      7  C   UNL A   1      31.746  26.177  25.702  1.00  0.00     0.122 C 
BRANCH   7   8
ATOM      8  C   UNL A   1      30.805  26.829  24.691  1.00  0.00    -0.025 A 
ATOM      9  C   UNL A   1      28.004  29.238  22.455  1.00  0.00     0.044 C 
ATOM     10  C   UNL A   1      29.004  28.350  23.132  1.00  0.00    -0.051 A 
ATOM     11  C   UNL A   1      28.616  27.123  23.676  1.00  0.00     0.004 A 
ATOM     12  C   UNL A   1      30.315  28.788  23.320  1.00  0.00     0.004 A 
ATOM     13  C   UNL A   1      29.509  26.365  24.440  1.00  0.00     0.006 A 
ATOM     14  C   UNL A   1      31.207  28.034  24.083  1.00  0.00     0.006 A 
ENDBRANCH   7   8
BRANCH   7  15
ATOM     15  N   UNL A   1      31.048  25.304  26.641  1.00  0.00    -0.345 N 
ATOM     16  C   UNL A   1      31.084  23.938  26.769  1.00  0.00     0.251 C 
ATOM     17  H   UNL A   1      30.460  25.766  27.281  1.00  0.00     0.164 HD
ATOM     18  O   UNL A   1      30.179  23.350  27.357  1.00  0.00    -0.269 OA
BRANCH  16  19
ATOM     19  C   UNL A   1      32.196  23.148  26.202  1.00  0.00     0.040 A 
ATOM     20  C   UNL A   1      33.362  22.970  26.950  1.00  0.00     0.017 A 
ATOM     21  C   UNL A   1      32.149  22.687  24.886  1.00  0.00     0.017 A 
ATOM     22  C   UNL A   1      34.446  22.282  26.397  1.00  0.00     0.047 A 
ATOM     23  C   UNL A   1      33.225  21.981  24.342  1.00  0.00     0.047 A 
ATOM     24  C   UNL A   1      34.378  21.767  25.096  1.00  0.00     0.126 A 
BRANCH  24  25
ATOM     25  O   UNL A   1      35.502  21.111  24.679  1.00  0.00    -0.435 OA
BRANCH  25  26
ATOM     26  C   UNL A   1      36.652  21.889  24.370  1.00  0.00     0.542 C 
ATOM     27  F   UNL A   1      37.716  21.082  24.148  1.00  0.00    -0.167 F 
ATOM     28  F   UNL A   1      36.434  22.630  23.257  1.00  0.00    -0.167 F 
ENDBRANCH  25  26
ENDBRANCH  24  25
ENDBRANCH  16  19
ENDBRANCH   7  15
ENDBRANCH   6   7
ENDBRANCH   3   6
ENDBRANCH   1   2
BRANCH   1  29
ATOM     29  C   UNL A   1      33.568  31.572  27.592  1.00  0.00     0.042 C 
BRANCH  29  30
ATOM     30  C   UNL A   1      34.949  32.194  27.756  1.00  0.00     0.118 C 
BRANCH  30  31
ATOM     31  N   UNL A   1      35.331  32.491  29.141  1.00  0.00    -0.352 N 
ATOM     32  C   UNL A   1      36.227  31.788  29.932  1.00  0.00     0.251 C 
ATOM     33  H   UNL A   1      34.904  33.276  29.555  1.00  0.00     0.163 HD
ATOM     34  O   UNL A   1      36.641  32.194  31.010  1.00  0.00    -0.269 OA
BRANCH  32  35
ATOM     35  C   UNL A   1      36.656  30.476  29.425  1.00  0.00     0.039 A 
ATOM     36  C   UNL A   1      36.842  29.449  30.357  1.00  0.00     0.014 A 
ATOM     37  C   UNL A   1      37.286  30.477  28.180  1.00  0.00     0.014 A 
ATOM     38  C   UNL A   1      37.864  28.531  30.136  1.00  0.00     0.010 A 
ATOM     39  C   UNL A   1      38.330  29.593  27.991  1.00  0.00     0.010 A 
ATOM     40  C   UNL A   1      38.685  28.693  29.017  1.00  0.00    -0.014 A 
BRANCH  40  41
ATOM     41  C   UNL A   1      40.067  28.204  28.970  1.00  0.00     0.031 A 
ATOM     42  C   UNL A   1      40.365  26.763  28.827  1.00  0.00     0.074 A 
ATOM     43  C   UNL A   1      41.091  29.088  28.889  1.00  0.00     0.049 A 
ATOM     44  N   UNL A   1      41.545  26.254  28.932  1.00  0.00    -0.248 NA
ATOM     45  C   UNL A   1      39.329  25.754  28.643  1.00  0.00     0.031 C 
ATOM     46  C   UNL A   1      42.444  28.826  28.406  1.00  0.00     0.029 A 
ATOM     47  N   UNL A   1      41.178  30.352  29.478  1.00  0.00    -0.354 N 
ATOM     48  C   UNL A   1      41.483  24.935  28.561  1.00  0.00     0.074 A 
ATOM     49  C   UNL A   1      40.071  24.651  28.505  1.00  0.00     0.031 C 
ATOM     50  C   UNL A   1      43.279  29.737  28.922  1.00  0.00     0.029 A 
ATOM     51  C   UNL A   1      42.524  30.535  29.863  1.00  0.00     0.049 A 
ATOM     52  H   UNL A   1      40.440  30.993  29.599  1.00  0.00     0.167 HD
ATOM     53  C   UNL A   1      42.643  24.285  28.252  1.00  0.00     0.034 A 
ATOM     54  C   UNL A   1      42.871  30.772  31.162  1.00  0.00     0.034 A 
ATOM     55  C   UNL A   1      43.819  25.056  28.681  1.00  0.00     0.049 A 
ATOM     56  C   UNL A   1      43.780  29.725  31.772  1.00  0.00     0.074 A 
ATOM     57  C   UNL A   1      44.813  25.792  28.059  1.00  0.00     0.029 A 
ATOM     58  N   UNL A   1      43.968  25.296  30.036  1.00  0.00    -0.354 N 
ATOM     59  N   UNL A   1      44.244  28.686  31.132  1.00  0.00    -0.248 NA
ATOM     60  C   UNL A   1      44.155  29.711  33.188  1.00  0.00     0.031 C 
ATOM     61  C   UNL A   1      45.539  26.498  29.070  1.00  0.00     0.029 A 
ATOM     62  C   UNL A   1      45.001  26.169  30.301  1.00  0.00     0.049 A 
ATOM     63  H   UNL A   1      43.401  24.891  30.730  1.00  0.00     0.167 HD
ATOM     64  C   UNL A   1      44.830  27.827  32.026  1.00  0.00     0.074 A 
ATOM     65  C   UNL A   1      44.785  28.528  33.296  1.00  0.00     0.031 C 
ATOM     66  C   UNL A   1      45.233  26.569  31.683  1.00  0.00     0.034 A 
BRANCH  53  67
ATOM     67  C   UNL A   1      42.766  23.008  27.438  1.00  0.00     0.023 A 
ATOM     68  C   UNL A   1      43.798  22.922  26.476  1.00  0.00     0.031 A 
ATOM     69  C   UNL A   1      41.901  21.894  27.470  1.00  0.00     0.131 A 
ATOM     70  C   UNL A   1      43.905  21.828  25.594  1.00  0.00     0.055 A 
ATOM     71  C   UNL A   1      42.013  20.800  26.603  1.00  0.00     0.041 A 
ATOM     72  F   UNL A   1      40.885  21.784  28.327  1.00  0.00    -0.206 F 
ATOM     73  C   UNL A   1      43.012  20.765  25.650  1.00  0.00     0.022 A 
BRANCH  70  74
ATOM     74  S   UNL A   1      45.203  21.832  24.330  1.00  0.00     0.124 S 
ATOM     75  O   UNL A   1      44.826  20.695  23.498  1.00  0.00    -0.237 OA
ATOM     76  O   UNL A   1      45.049  23.153  23.735  1.00  0.00    -0.237 OA
ATOM     77  O   UNL A   1      46.430  21.645  25.106  1.00  0.00    -0.744 OA
ENDBRANCH  70  74
ENDBRANCH  53  67
BRANCH  54  78
ATOM     78  C   UNL A   1      41.836  31.561  31.885  1.00  0.00     0.023 A 
ATOM     79  C   UNL A   1      40.971  30.842  32.736  1.00  0.00     0.031 A 
ATOM     80  C   UNL A   1      41.970  32.941  32.090  1.00  0.00     0.131 A 
ATOM     81  C   UNL A   1      40.413  31.466  33.857  1.00  0.00     0.055 A 
ATOM     82  C   UNL A   1      41.349  33.575  33.172  1.00  0.00     0.041 A 
ATOM     83  F   UNL A   1      42.812  33.667  31.338  1.00  0.00    -0.206 F 
ATOM     84  C   UNL A   1      40.603  32.830  34.086  1.00  0.00     0.022 A 
BRANCH  81  85
ATOM     85  S   UNL A   1      39.697  30.413  35.155  1.00  0.00     0.124 S 
ATOM     86  O   UNL A   1      38.414  30.041  34.574  1.00  0.00    -0.237 OA
ATOM     87  O   UNL A   1      40.685  29.340  35.273  1.00  0.00    -0.237 OA
ATOM     88  O   UNL A   1      39.636  31.301  36.314  1.00  0.00    -0.744 OA
ENDBRANCH  81  85
ENDBRANCH  54  78
BRANCH  66  89
ATOM     89  C   UNL A   1      45.822  25.595  32.672  1.00  0.00     0.023 A 
ATOM     90  C   UNL A   1      45.015  24.802  33.503  1.00  0.00     0.031 A 
ATOM     91  C   UNL A   1      47.218  25.486  32.865  1.00  0.00     0.131 A 
ATOM     92  C   UNL A   1      45.595  23.921  34.435  1.00  0.00     0.055 A 
ATOM     93  C   UNL A   1      47.786  24.678  33.852  1.00  0.00     0.041 A 
ATOM     94  F   UNL A   1      48.090  26.117  32.065  1.00  0.00    -0.206 F 
ATOM     95  C   UNL A   1      46.974  23.882  34.641  1.00  0.00     0.022 A 
BRANCH  92  96
ATOM     96  S   UNL A   1      44.524  22.759  35.322  1.00  0.00     0.124 S 
ATOM     97  O   UNL A   1      44.781  21.497  34.637  1.00  0.00    -0.237 OA
ATOM     98  O   UNL A   1      45.044  22.861  36.683  1.00  0.00    -0.237 OA
ATOM     99  O   UNL A   1      43.183  23.310  35.131  1.00  0.00    -0.744 OA
ENDBRANCH  92  96
ENDBRANCH  66  89
ENDBRANCH  40  41
ENDBRANCH  32  35
ENDBRANCH  30  31
ENDBRANCH  29  30
ENDBRANCH   1  29
TORSDOF 19
ENDMDL
MODEL 2
REMARK VINA RESULT:     -13.2      2.618      3.571
REMARK SMILES Cc1ccc([C@@H](CC(=O)NCCCNC(=O)c2ccc(-c3c4nc(c(-c5cc(S(=O)(=O)[O-])ccc5F)c5ccc([nH]5)c(-c5cc(S(=O)(=O)[O-])ccc5F)c5nc(c(-c6cc(S(=O)(=O)[O-])ccc6F)c6ccc3[nH]6)C=C5)C=C4)cc2)NC(=O)c2ccc(OC(F)F)cc2)cc1
REMARK SMILES IDX 11 1 10 2 8 3 9 4 7 6 6 7 5 8 1 9 2 10 3 11 94 12 4 13 93 14
REMARK SMILES IDX 80 15 81 16 82 18 83 19 84 20 92 21 85 22 91 23 86 24 87 25
REMARK SMILES IDX 88 26 89 27 90 28 12 29 13 30 14 31 15 32 16 34 17 35 18 36
REMARK SMILES IDX 79 37 19 38 78 39 20 40 21 41 22 42 72 43 23 44 77 45 71 46
REMARK SMILES IDX 73 47 24 48 76 49 70 50 69 51 25 53 57 54 37 55 56 56 38 57
REMARK SMILES IDX 41 58 55 59 74 60 39 61 40 62 54 64 75 65 42 66 26 67 27 68
REMARK SMILES IDX 35 69 28 70 34 71 36 72 33 73 29 74 30 75 31 76 32 77 58 78
REMARK SMILES IDX 59 79 67 80 60 81 66 82 68 83 65 84 61 85 62 86 63 87 64 88
REMARK SMILES IDX 43 89 44 90 52 91 45 92 51 93 53 94 50 95 46 96 47 97 48 98
REMARK SMILES IDX 49 99
REMARK H PARENT 10 5 80 17 14 33 73 52 41 63
REMARK Flexibility Score: inf
ROOT
ATOM      1  C   UNL A   1      32.242  30.791  26.546  1.00  0.00     0.117 C 
ENDROOT
BRANCH   1   2
ATOM      2  N   UNL A   1      31.776  29.590  27.231  1.00  0.00    -0.356 N 
ATOM      3  C   UNL A   1      32.049  28.276  27.047  1.00  0.00     0.222 C 
ATOM      4  O   UNL A   1      31.410  27.450  27.704  1.00  0.00    -0.275 OA
ATOM      5  H   UNL A   1      31.144  29.769  27.963  1.00  0.00     0.163 HD
BRANCH   3   6
ATOM      6  C   UNL A   1      33.167  27.829  26.139  1.00  0.00     0.129 C 
BRANCH   6   7
ATOM      7  C   UNL A   1      32.855  26.665  25.175  1.00  0.00     0.122 C 
BRANCH   7   8
ATOM      8  C   UNL A   1      33.611  25.421  25.636  1.00  0.00    -0.025 A 
ATOM      9  C   UNL A   1      35.755  21.701  26.110  1.00  0.00     0.044 C 
ATOM     10  C   UNL A   1      35.039  23.018  26.054  1.00  0.00    -0.051 A 
ATOM     11  C   UNL A   1      33.686  23.110  26.386  1.00  0.00     0.004 A 
ATOM     12  C   UNL A   1      35.694  24.149  25.566  1.00  0.00     0.004 A 
ATOM     13  C   UNL A   1      32.980  24.301  26.189  1.00  0.00     0.006 A 
ATOM     14  C   UNL A   1      34.991  25.338  25.367  1.00  0.00     0.006 A 
ENDBRANCH   7   8
BRANCH   7  15
ATOM     15  N   UNL A   1      33.022  26.931  23.749  1.00  0.00    -0.345 N 
ATOM     16  C   UNL A   1      33.205  26.059  22.706  1.00  0.00     0.251 C 
ATOM     17  H   UNL A   1      32.999  27.882  23.497  1.00  0.00     0.164 HD
ATOM     18  O   UNL A   1      33.680  26.458  21.645  1.00  0.00    -0.269 OA
BRANCH  16  19
ATOM     19  C   UNL A   1      32.845  24.631  22.832  1.00  0.00     0.040 A 
ATOM     20  C   UNL A   1      33.818  23.656  22.599  1.00  0.00     0.017 A 
ATOM     21  C   UNL A   1      31.524  24.243  23.055  1.00  0.00     0.017 A 
ATOM     22  C   UNL A   1      33.472  22.302  22.651  1.00  0.00     0.047 A 
ATOM     23  C   UNL A   1      31.185  22.889  23.127  1.00  0.00     0.047 A 
ATOM     24  C   UNL A   1      32.158  21.910  22.932  1.00  0.00     0.126 A 
BRANCH  24  25
ATOM     25  O   UNL A   1      31.956  20.558  22.958  1.00  0.00    -0.435 OA
BRANCH  25  26
ATOM     26  C   UNL A   1      32.288  19.858  24.151  1.00  0.00     0.542 C 
ATOM     27  F   UNL A   1      33.617  19.601  24.187  1.00  0.00    -0.167 F 
ATOM     28  F   UNL A   1      31.963  20.598  25.237  1.00  0.00    -0.167 F 
ENDBRANCH  25  26
ENDBRANCH  24  25
ENDBRANCH  16  19
ENDBRANCH   7  15
ENDBRANCH   6   7
ENDBRANCH   3   6
ENDBRANCH   1   2
BRANCH   1  29
ATOM     29  C   UNL A   1      33.085  31.619  27.508  1.00  0.00     0.042 C 
BRANCH  29  30
ATOM     30  C   UNL A   1      34.503  31.091  27.685  1.00  0.00     0.118 C 
BRANCH  30  31
ATOM     31  N   UNL A   1      35.338  31.863  28.612  1.00  0.00    -0.352 N 
ATOM     32  C   UNL A   1      36.598  31.528  29.083  1.00  0.00     0.251 C 
ATOM     33  H   UNL A   1      34.962  32.714  28.937  1.00  0.00     0.163 HD
ATOM     34  O   UNL A   1      37.317  32.300  29.706  1.00  0.00    -0.269 OA
BRANCH  32  35
ATOM     35  C   UNL A   1      37.046  30.151  28.826  1.00  0.00     0.039 A 
ATOM     36  C   UNL A   1      37.082  29.266  29.909  1.00  0.00     0.014 A 
ATOM     37  C   UNL A   1      37.828  29.965  27.686  1.00  0.00     0.014 A 
ATOM     38  C   UNL A   1      38.094  28.313  29.953  1.00  0.00     0.010 A 
ATOM     39  C   UNL A   1      38.860  29.050  27.760  1.00  0.00     0.010 A 
ATOM     40  C   UNL A   1      39.055  28.303  28.939  1.00  0.00    -0.014 A 
BRANCH  40  41
ATOM     41  C   UNL A   1      40.415  27.794  29.139  1.00  0.00     0.031 A 
ATOM     42  C   UNL A   1      40.797  26.433  28.706  1.00  0.00     0.074 A 
ATOM     43  C   UNL A   1      41.388  28.630  29.578  1.00  0.00     0.049 A 
ATOM     44  N   UNL A   1      41.924  25.873  28.988  1.00  0.00    -0.248 NA
ATOM     45  C   UNL A   1      39.890  25.547  27.987  1.00  0.00     0.031 C 
ATOM     46  C   UNL A   1      42.830  28.458  29.427  1.00  0.00     0.029 A 
ATOM     47  N   UNL A   1      41.263  29.688  30.481  1.00  0.00    -0.354 N 
ATOM     48  C   UNL A   1      42.016  24.702  28.277  1.00  0.00     0.074 A 
ATOM     49  C   UNL A   1      40.683  24.495  27.767  1.00  0.00     0.031 C 
ATOM     50  C   UNL A   1      43.459  29.168  30.373  1.00  0.00     0.029 A 
ATOM     51  C   UNL A   1      42.447  29.714  31.251  1.00  0.00     0.049 A 
ATOM     52  H   UNL A   1      40.496  30.300  30.564  1.00  0.00     0.167 HD
ATOM     53  C   UNL A   1      43.240  24.117  28.133  1.00  0.00     0.034 A 
ATOM     54  C   UNL A   1      42.420  29.585  32.610  1.00  0.00     0.034 A 
ATOM     55  C   UNL A   1      44.225  24.703  29.054  1.00  0.00     0.049 A 
ATOM     56  C   UNL A   1      43.170  28.380  33.142  1.00  0.00     0.074 A 
ATOM     57  C   UNL A   1      45.321  25.542  28.943  1.00  0.00     0.029 A 
ATOM     58  N   UNL A   1      43.993  24.569  30.411  1.00  0.00    -0.354 N 
ATOM     59  N   UNL A   1      43.830  27.534  32.400  1.00  0.00    -0.248 NA
ATOM     60  C   UNL A   1      43.147  27.977  34.551  1.00  0.00     0.031 C 
ATOM     61  C   UNL A   1      45.718  25.928  30.263  1.00  0.00     0.029 A 
ATOM     62  C   UNL A   1      44.880  25.303  31.169  1.00  0.00     0.049 A 
ATOM     63  H   UNL A   1      43.275  24.015  30.793  1.00  0.00     0.167 HD
ATOM     64  C   UNL A   1      44.184  26.448  33.158  1.00  0.00     0.074 A 
ATOM     65  C   UNL A   1      43.770  26.787  34.507  1.00  0.00     0.031 C 
ATOM     66  C   UNL A   1      44.714  25.312  32.616  1.00  0.00     0.034 A 
BRANCH  53  67
ATOM     67  C   UNL A   1      43.629  23.098  27.075  1.00  0.00     0.023 A 
ATOM     68  C   UNL A   1      42.968  21.848  27.072  1.00  0.00     0.031 A 
ATOM     69  C   UNL A   1      44.657  23.221  26.117  1.00  0.00     0.131 A 
ATOM     70  C   UNL A   1      43.356  20.804  26.209  1.00  0.00     0.055 A 
ATOM     71  C   UNL A   1      45.034  22.188  25.249  1.00  0.00     0.041 A 
ATOM     72  F   UNL A   1      45.373  24.333  25.954  1.00  0.00    -0.206 F 
ATOM     73  C   UNL A   1      44.391  20.967  25.297  1.00  0.00     0.022 A 
BRANCH  70  74
ATOM     74  S   UNL A   1      42.517  19.202  26.324  1.00  0.00     0.124 S 
ATOM     75  O   UNL A   1      43.518  18.291  25.780  1.00  0.00    -0.237 OA
ATOM     76  O   UNL A   1      42.251  19.097  27.753  1.00  0.00    -0.237 OA
ATOM     77  O   UNL A   1      41.330  19.381  25.487  1.00  0.00    -0.744 OA
ENDBRANCH  70  74
ENDBRANCH  53  67
BRANCH  54  78
ATOM     78  C   UNL A   1      41.198  30.190  33.208  1.00  0.00     0.023 A 
ATOM     79  C   UNL A   1      41.179  31.596  33.323  1.00  0.00     0.031 A 
ATOM     80  C   UNL A   1      39.975  29.507  33.236  1.00  0.00     0.131 A 
ATOM     81  C   UNL A   1      39.962  32.286  33.284  1.00  0.00     0.055 A 
ATOM     82  C   UNL A   1      38.760  30.200  33.273  1.00  0.00     0.041 A 
ATOM     83  F   UNL A   1      39.930  28.174  33.087  1.00  0.00    -0.206 F 
ATOM     84  C   UNL A   1      38.749  31.596  33.251  1.00  0.00     0.022 A 
BRANCH  81  85
ATOM     85  S   UNL A   1      40.003  34.077  32.974  1.00  0.00     0.124 S 
ATOM     86  O   UNL A   1      40.688  34.150  31.690  1.00  0.00    -0.237 OA
ATOM     87  O   UNL A   1      38.582  34.428  32.965  1.00  0.00    -0.237 OA
ATOM     88  O   UNL A   1      40.742  34.601  34.120  1.00  0.00    -0.744 OA
ENDBRANCH  81  85
ENDBRANCH  54  78
BRANCH  66  89
ATOM     89  C   UNL A   1      45.050  24.089  33.432  1.00  0.00     0.023 A 
ATOM     90  C   UNL A   1      46.374  23.755  33.758  1.00  0.00     0.031 A 
ATOM     91  C   UNL A   1      44.053  23.177  33.846  1.00  0.00     0.131 A 
ATOM     92  C   UNL A   1      46.657  22.592  34.500  1.00  0.00     0.055 A 
ATOM     93  C   UNL A   1      44.346  21.979  34.502  1.00  0.00     0.041 A 
ATOM     94  F   UNL A   1      42.748  23.437  33.681  1.00  0.00    -0.206 F 
ATOM     95  C   UNL A   1      45.656  21.683  34.840  1.00  0.00     0.022 A 
BRANCH  92  96
ATOM     96  S   UNL A   1      48.349  22.323  35.088  1.00  0.00     0.124 S 
ATOM     97  O   UNL A   1      48.786  21.177  34.298  1.00  0.00    -0.237 OA
ATOM     98  O   UNL A   1      48.981  23.598  34.759  1.00  0.00    -0.237 OA
ATOM     99  O   UNL A   1      48.182  22.067  36.517  1.00  0.00    -0.744 OA
ENDBRANCH  92  96
ENDBRANCH  66  89
ENDBRANCH  40  41
ENDBRANCH  32  35
ENDBRANCH  30  31
ENDBRANCH  29  30
ENDBRANCH   1  29
TORSDOF 19
ENDMDL
MODEL 3
REMARK VINA RESULT:     -13.1      2.394      3.411
REMARK SMILES Cc1ccc([C@@H](CC(=O)NCCCNC(=O)c2ccc(-c3c4nc(c(-c5cc(S(=O)(=O)[O-])ccc5F)c5ccc([nH]5)c(-c5cc(S(=O)(=O)[O-])ccc5F)c5nc(c(-c6cc(S(=O)(=O)[O-])ccc6F)c6ccc3[nH]6)C=C5)C=C4)cc2)NC(=O)c2ccc(OC(F)F)cc2)cc1
REMARK SMILES IDX 11 1 10 2 8 3 9 4 7 6 6 7 5 8 1 9 2 10 3 11 94 12 4 13 93 14
REMARK SMILES IDX 80 15 81 16 82 18 83 19 84 20 92 21 85 22 91 23 86 24 87 25
REMARK SMILES IDX 88 26 89 27 90 28 12 29 13 30 14 31 15 32 16 34 17 35 18 36
REMARK SMILES IDX 79 37 19 38 78 39 20 40 21 41 22 42 72 43 23 44 77 45 71 46
REMARK SMILES IDX 73 47 24 48 76 49 70 50 69 51 25 53 57 54 37 55 56 56 38 57
REMARK SMILES IDX 41 58 55 59 74 60 39 61 40 62 54 64 75 65 42 66 26 67 27 68
REMARK SMILES IDX 35 69 28 70 34 71 36 72 33 73 29 74 30 75 31 76 32 77 58 78
REMARK SMILES IDX 59 79 67 80 60 81 66 82 68 83 65 84 61 85 62 86 63 87 64 88
REMARK SMILES IDX 43 89 44 90 52 91 45 92 51 93 53 94 50 95 46 96 47 97 48 98
REMARK SMILES IDX 49 99
REMARK H PARENT 10 5 80 17 14 33 73 52 41 63
REMARK Flexibility Score: inf
ROOT
ATOM      1  C   UNL A   1      33.912  30.144  27.055  1.00  0.00     0.117 C 
ENDROOT
BRANCH   1   2
ATOM      2  N   UNL A   1      32.865  29.332  27.667  1.00  0.00    -0.356 N 
ATOM      3  C   UNL A   1      32.274  28.175  27.287  1.00  0.00     0.222 C 
ATOM      4  O   UNL A   1      31.315  27.765  27.946  1.00  0.00    -0.275 OA
ATOM      5  H   UNL A   1      32.526  29.695  28.516  1.00  0.00     0.163 HD
BRANCH   3   6
ATOM      6  C   UNL A   1      32.824  27.353  26.148  1.00  0.00     0.129 C 
BRANCH   6   7
ATOM      7  C   UNL A   1      31.933  26.206  25.626  1.00  0.00     0.122 C 
BRANCH   7   8
ATOM      8  C   UNL A   1      30.867  26.786  24.699  1.00  0.00    -0.025 A 
ATOM      9  C   UNL A   1      27.679  28.941  22.737  1.00  0.00     0.044 C 
ATOM     10  C   UNL A   1      28.814  28.150  23.316  1.00  0.00    -0.051 A 
ATOM     11  C   UNL A   1      28.605  26.860  23.811  1.00  0.00     0.004 A 
ATOM     12  C   UNL A   1      30.072  28.734  23.462  1.00  0.00     0.004 A 
ATOM     13  C   UNL A   1      29.623  26.181  24.488  1.00  0.00     0.006 A 
ATOM     14  C   UNL A   1      31.088  28.058  24.138  1.00  0.00     0.006 A 
ENDBRANCH   7   8
BRANCH   7  15
ATOM     15  N   UNL A   1      31.378  25.298  26.626  1.00  0.00    -0.345 N 
ATOM     16  C   UNL A   1      31.593  23.957  26.815  1.00  0.00     0.251 C 
ATOM     17  H   UNL A   1      30.753  25.713  27.264  1.00  0.00     0.164 HD
ATOM     18  O   UNL A   1      30.788  23.287  27.458  1.00  0.00    -0.269 OA
BRANCH  16  19
ATOM     19  C   UNL A   1      32.782  23.288  26.248  1.00  0.00     0.040 A 
ATOM     20  C   UNL A   1      32.700  22.694  24.986  1.00  0.00     0.017 A 
ATOM     21  C   UNL A   1      33.944  23.130  27.005  1.00  0.00     0.017 A 
ATOM     22  C   UNL A   1      33.798  22.001  24.469  1.00  0.00     0.047 A 
ATOM     23  C   UNL A   1      35.048  22.455  26.479  1.00  0.00     0.047 A 
ATOM     24  C   UNL A   1      34.985  21.892  25.204  1.00  0.00     0.126 A 
BRANCH  24  25
ATOM     25  O   UNL A   1      35.983  21.194  24.583  1.00  0.00    -0.435 OA
BRANCH  25  26
ATOM     26  C   UNL A   1      37.102  21.924  24.096  1.00  0.00     0.542 C 
ATOM     27  F   UNL A   1      36.742  23.200  23.819  1.00  0.00    -0.167 F 
ATOM     28  F   UNL A   1      38.089  21.946  25.022  1.00  0.00    -0.167 F 
ENDBRANCH  25  26
ENDBRANCH  24  25
ENDBRANCH  16  19
ENDBRANCH   7  15
ENDBRANCH   6   7
ENDBRANCH   3   6
ENDBRANCH   1   2
BRANCH   1  29
ATOM     29  C   UNL A   1      35.238  29.855  27.746  1.00  0.00     0.042 C 
BRANCH  29  30
ATOM     30  C   UNL A   1      35.569  30.833  28.866  1.00  0.00     0.118 C 
BRANCH  30  31
ATOM     31  N   UNL A   1      34.497  31.777  29.198  1.00  0.00    -0.352 N 
ATOM     32  C   UNL A   1      34.638  33.071  29.676  1.00  0.00     0.251 C 
ATOM     33  H   UNL A   1      33.575  31.458  29.068  1.00  0.00     0.163 HD
ATOM     34  O   UNL A   1      33.713  33.869  29.756  1.00  0.00    -0.269 OA
BRANCH  32  35
ATOM     35  C   UNL A   1      35.984  33.457  30.128  1.00  0.00     0.039 A 
ATOM     36  C   UNL A   1      36.925  33.795  29.150  1.00  0.00     0.014 A 
ATOM     37  C   UNL A   1      36.353  33.013  31.397  1.00  0.00     0.014 A 
ATOM     38  C   UNL A   1      38.256  33.452  29.365  1.00  0.00     0.010 A 
ATOM     39  C   UNL A   1      37.667  32.630  31.583  1.00  0.00     0.010 A 
ATOM     40  C   UNL A   1      38.592  32.751  30.527  1.00  0.00    -0.014 A 
BRANCH  40  41
ATOM     41  C   UNL A   1      39.755  31.862  30.608  1.00  0.00     0.031 A 
ATOM     42  C   UNL A   1      39.708  30.486  30.069  1.00  0.00     0.074 A 
ATOM     43  C   UNL A   1      40.946  32.349  31.033  1.00  0.00     0.049 A 
ATOM     44  N   UNL A   1      40.636  29.608  30.243  1.00  0.00    -0.248 NA
ATOM     45  C   UNL A   1      38.553  29.954  29.357  1.00  0.00     0.031 C 
ATOM     46  C   UNL A   1      42.269  31.786  30.781  1.00  0.00     0.029 A 
ATOM     47  N   UNL A   1      41.172  33.327  32.006  1.00  0.00    -0.354 N 
ATOM     48  C   UNL A   1      40.355  28.518  29.458  1.00  0.00     0.074 A 
ATOM     49  C   UNL A   1      38.998  28.739  29.023  1.00  0.00     0.031 C 
ATOM     50  C   UNL A   1      43.117  32.212  31.726  1.00  0.00     0.029 A 
ATOM     51  C   UNL A   1      42.345  32.955  32.699  1.00  0.00     0.049 A 
ATOM     52  H   UNL A   1      40.618  34.124  32.175  1.00  0.00     0.167 HD
ATOM     53  C   UNL A   1      41.350  27.621  29.200  1.00  0.00     0.034 A 
ATOM     54  C   UNL A   1      42.341  32.735  34.046  1.00  0.00     0.034 A 
ATOM     55  C   UNL A   1      42.502  27.829  30.090  1.00  0.00     0.049 A 
ATOM     56  C   UNL A   1      42.734  31.329  34.455  1.00  0.00     0.074 A 
ATOM     57  C   UNL A   1      43.788  28.327  29.961  1.00  0.00     0.029 A 
ATOM     58  N   UNL A   1      42.301  27.664  31.449  1.00  0.00    -0.354 N 
ATOM     59  N   UNL A   1      43.088  30.389  33.622  1.00  0.00    -0.248 NA
ATOM     60  C   UNL A   1      42.658  30.842  35.835  1.00  0.00     0.031 C 
ATOM     61  C   UNL A   1      44.337  28.481  31.273  1.00  0.00     0.029 A 
ATOM     62  C   UNL A   1      43.395  28.053  32.191  1.00  0.00     0.049 A 
ATOM     63  H   UNL A   1      41.471  27.309  31.841  1.00  0.00     0.167 HD
ATOM     64  C   UNL A   1      43.147  29.192  34.288  1.00  0.00     0.074 A 
ATOM     65  C   UNL A   1      42.908  29.530  35.678  1.00  0.00     0.031 C 
ATOM     66  C   UNL A   1      43.302  27.998  33.644  1.00  0.00     0.034 A 
BRANCH  53  67
ATOM     67  C   UNL A   1      41.382  26.619  28.059  1.00  0.00     0.023 A 
ATOM     68  C   UNL A   1      41.599  25.256  28.369  1.00  0.00     0.031 A 
ATOM     69  C   UNL A   1      41.300  26.901  26.679  1.00  0.00     0.131 A 
ATOM     70  C   UNL A   1      41.768  24.283  27.364  1.00  0.00     0.055 A 
ATOM     71  C   UNL A   1      41.455  25.931  25.680  1.00  0.00     0.041 A 
ATOM     72  F   UNL A   1      41.075  28.123  26.197  1.00  0.00    -0.206 F 
ATOM     73  C   UNL A   1      41.702  24.615  26.017  1.00  0.00     0.022 A 
BRANCH  70  74
ATOM     74  S   UNL A   1      42.128  22.572  27.839  1.00  0.00     0.124 S 
ATOM     75  O   UNL A   1      42.877  22.747  29.079  1.00  0.00    -0.237 OA
ATOM     76  O   UNL A   1      40.793  22.000  27.961  1.00  0.00    -0.237 OA
ATOM     77  O   UNL A   1      42.913  22.067  26.713  1.00  0.00    -0.744 OA
ENDBRANCH  70  74
ENDBRANCH  53  67
BRANCH  54  78
ATOM     78  C   UNL A   1      41.374  33.615  34.757  1.00  0.00     0.023 A 
ATOM     79  C   UNL A   1      40.087  33.084  34.989  1.00  0.00     0.031 A 
ATOM     80  C   UNL A   1      41.799  34.692  35.547  1.00  0.00     0.131 A 
ATOM     81  C   UNL A   1      39.343  33.509  36.096  1.00  0.00     0.055 A 
ATOM     82  C   UNL A   1      41.016  35.163  36.607  1.00  0.00     0.041 A 
ATOM     83  F   UNL A   1      43.028  35.207  35.398  1.00  0.00    -0.206 F 
ATOM     84  C   UNL A   1      39.804  34.543  36.914  1.00  0.00     0.022 A 
BRANCH  81  85
ATOM     85  S   UNL A   1      37.927  32.496  36.616  1.00  0.00     0.124 S 
ATOM     86  O   UNL A   1      37.338  33.313  37.670  1.00  0.00    -0.237 OA
ATOM     87  O   UNL A   1      37.149  32.382  35.382  1.00  0.00    -0.237 OA
ATOM     88  O   UNL A   1      38.546  31.248  37.052  1.00  0.00    -0.744 OA
ENDBRANCH  81  85
ENDBRANCH  54  78
BRANCH  66  89
ATOM     89  C   UNL A   1      43.306  26.671  34.361  1.00  0.00     0.023 A 
ATOM     90  C   UNL A   1      44.473  25.902  34.492  1.00  0.00     0.031 A 
ATOM     91  C   UNL A   1      42.118  26.100  34.871  1.00  0.00     0.131 A 
ATOM     92  C   UNL A   1      44.439  24.654  35.144  1.00  0.00     0.055 A 
ATOM     93  C   UNL A   1      42.072  24.823  35.436  1.00  0.00     0.041 A 
ATOM     94  F   UNL A   1      40.962  26.781  34.893  1.00  0.00    -0.206 F 
ATOM     95  C   UNL A   1      43.239  24.094  35.583  1.00  0.00     0.022 A 
BRANCH  92  96
ATOM     96  S   UNL A   1      46.002  23.806  35.488  1.00  0.00     0.124 S 
ATOM     97  O   UNL A   1      46.862  24.262  34.402  1.00  0.00    -0.237 OA
ATOM     98  O   UNL A   1      46.330  24.321  36.816  1.00  0.00    -0.237 OA
ATOM     99  O   UNL A   1      45.644  22.390  35.447  1.00  0.00    -0.744 OA
ENDBRANCH  92  96
ENDBRANCH  66  89
ENDBRANCH  40  41
ENDBRANCH  32  35
ENDBRANCH  30  31
ENDBRANCH  29  30
ENDBRANCH   1  29
TORSDOF 19
ENDMDL
