MODEL 1
REMARK VINA RESULT:     -12.1      0.000      0.000
REMARK SMILES COc1ccc(-c2nc(C(C)C)cc3nn(CC(=O)NCCCNC(=O)c4ccc(-c5c6nc(c(-c7cc(S(=O)(=O)[O-])ccc7F)c7ccc([nH]7)c(-c7cc(S(=O)(=O)[O-])ccc7F)c7nc(c(-c8cc(S(=O)(=O)[O-])ccc8F)c8ccc5[nH]8)C=C7)C=C6)cc4)c(=O)n23)cc1
REMARK SMILES IDX 22 1 21 2 20 3 18 4 19 5 17 7 16 8 7 9 8 10 92 11 9 12 14 13
REMARK SMILES IDX 90 14 13 15 15 16 91 17 6 18 3 19 4 20 94 21 5 22 93 23 2 24
REMARK SMILES IDX 1 25 10 26 11 27 12 28 23 29 24 30 25 31 26 33 27 34 28 35
REMARK SMILES IDX 89 36 29 37 88 38 30 39 31 40 32 41 82 42 33 43 87 44 81 45
REMARK SMILES IDX 83 46 34 47 86 48 80 49 79 50 35 52 67 53 47 54 66 55 48 56
REMARK SMILES IDX 51 57 65 58 84 59 49 60 50 61 64 63 85 64 52 65 36 66 37 67
REMARK SMILES IDX 45 68 38 69 44 70 46 71 43 72 39 73 40 74 41 75 42 76 68 77
REMARK SMILES IDX 69 78 77 79 70 80 76 81 78 82 75 83 71 84 72 85 73 86 74 87
REMARK SMILES IDX 53 88 54 89 62 90 55 91 61 92 63 93 60 94 56 95 57 96 58 97
REMARK SMILES IDX 59 98
REMARK H PARENT 20 6 24 32 83 51 51 62
REMARK Flexibility Score: inf
ROOT
ATOM      1  C   UNL A   1      41.350  20.885  25.796  1.00  0.00     0.042 C 
ENDROOT
BRANCH   1   2
ATOM      2  C   UNL A   1      40.284  20.981  26.891  1.00  0.00     0.117 C 
BRANCH   2   3
ATOM      3  N   UNL A   1      39.655  22.290  26.971  1.00  0.00    -0.354 N 
ATOM      4  C   UNL A   1      38.609  22.790  26.245  1.00  0.00     0.241 C 
ATOM      5  O   UNL A   1      38.056  23.810  26.665  1.00  0.00    -0.273 OA
ATOM      6  H   UNL A   1      40.036  22.902  27.641  1.00  0.00     0.163 HD
BRANCH   4   7
ATOM      7  C   UNL A   1      38.044  22.030  25.049  1.00  0.00     0.249 C 
BRANCH   7   8
ATOM      8  N   UNL A   1      36.604  22.094  25.011  1.00  0.00    -0.203 N 
ATOM      9  C   UNL A   1      33.194  20.980  24.853  1.00  0.00     0.150 A 
ATOM     10  N   UNL A   1      32.128  21.725  24.791  1.00  0.00    -0.234 NA
ATOM     11  N   UNL A   1      34.469  21.525  24.923  1.00  0.00    -0.226 N 
ATOM     12  C   UNL A   1      32.280  23.098  24.828  1.00  0.00     0.049 A 
ATOM     13  C   UNL A   1      34.655  22.861  24.927  1.00  0.00     0.165 A 
ATOM     14  C   UNL A   1      35.753  20.980  24.937  1.00  0.00     0.352 A 
ATOM     15  C   UNL A   1      33.474  23.711  24.891  1.00  0.00     0.073 A 
ATOM     16  N   UNL A   1      35.888  23.265  24.964  1.00  0.00    -0.149 NA
ATOM     17  O   UNL A   1      36.098  19.817  24.880  1.00  0.00    -0.245 OA
BRANCH   9  18
ATOM     18  C   UNL A   1      33.075  19.510  24.770  1.00  0.00     0.018 A 
ATOM     19  C   UNL A   1      33.020  16.734  24.521  1.00  0.00     0.118 A 
ATOM     20  C   UNL A   1      32.907  17.326  25.782  1.00  0.00     0.047 A 
ATOM     21  C   UNL A   1      33.097  17.533  23.380  1.00  0.00     0.047 A 
ATOM     22  C   UNL A   1      32.938  18.717  25.913  1.00  0.00     0.016 A 
ATOM     23  C   UNL A   1      33.121  18.923  23.502  1.00  0.00     0.016 A 
BRANCH  19  24
ATOM     24  O   UNL A   1      32.982  15.367  24.483  1.00  0.00    -0.497 OA
ATOM     25  C   UNL A   1      32.482  14.773  25.678  1.00  0.00     0.278 C 
ENDBRANCH  19  24
ENDBRANCH   9  18
BRANCH  12  26
ATOM     26  C   UNL A   1      30.987  23.901  24.768  1.00  0.00     0.032 C 
ATOM     27  C   UNL A   1      31.117  25.262  25.460  1.00  0.00     0.014 C 
ATOM     28  C   UNL A   1      30.511  24.075  23.322  1.00  0.00     0.014 C 
ENDBRANCH  12  26
ENDBRANCH   7   8
ENDBRANCH   4   7
ENDBRANCH   2   3
ENDBRANCH   1   2
BRANCH   1  29
ATOM     29  C   UNL A   1      42.556  20.063  26.222  1.00  0.00     0.118 C 
BRANCH  29  30
ATOM     30  N   UNL A   1      43.576  19.954  25.180  1.00  0.00    -0.352 N 
ATOM     31  C   UNL A   1      44.298  20.973  24.583  1.00  0.00     0.251 C 
ATOM     32  H   UNL A   1      43.775  19.043  24.864  1.00  0.00     0.163 HD
ATOM     33  O   UNL A   1      44.859  20.780  23.510  1.00  0.00    -0.269 OA
BRANCH  31  34
ATOM     34  C   UNL A   1      44.379  22.286  25.255  1.00  0.00     0.039 A 
ATOM     35  C   UNL A   1      43.639  23.386  24.809  1.00  0.00     0.014 A 
ATOM     36  C   UNL A   1      45.209  22.402  26.366  1.00  0.00     0.014 A 
ATOM     37  C   UNL A   1      43.683  24.574  25.543  1.00  0.00     0.010 A 
ATOM     38  C   UNL A   1      45.133  23.509  27.168  1.00  0.00     0.010 A 
ATOM     39  C   UNL A   1      44.420  24.622  26.737  1.00  0.00    -0.014 A 
BRANCH  39  40
ATOM     40  C   UNL A   1      44.317  25.751  27.666  1.00  0.00     0.031 A 
ATOM     41  C   UNL A   1      45.440  26.723  27.523  1.00  0.00     0.074 A 
ATOM     42  C   UNL A   1      43.175  26.022  28.345  1.00  0.00     0.049 A 
ATOM     43  N   UNL A   1      46.353  27.024  28.385  1.00  0.00    -0.248 NA
ATOM     44  C   UNL A   1      45.700  27.286  26.181  1.00  0.00     0.031 C 
ATOM     45  C   UNL A   1      41.914  25.267  28.297  1.00  0.00     0.029 A 
ATOM     46  N   UNL A   1      42.833  27.093  29.117  1.00  0.00    -0.354 N 
ATOM     47  C   UNL A   1      47.112  28.032  27.791  1.00  0.00     0.074 A 
ATOM     48  C   UNL A   1      46.842  27.943  26.386  1.00  0.00     0.031 C 
ATOM     49  C   UNL A   1      40.904  26.024  28.782  1.00  0.00     0.029 A 
ATOM     50  C   UNL A   1      41.457  27.251  29.328  1.00  0.00     0.049 A 
ATOM     51  H   UNL A   1      43.501  27.709  29.497  1.00  0.00     0.167 HD
ATOM     52  C   UNL A   1      47.628  29.047  28.542  1.00  0.00     0.034 A 
ATOM     53  C   UNL A   1      40.807  28.315  29.884  1.00  0.00     0.034 A 
ATOM     54  C   UNL A   1      47.637  28.678  29.945  1.00  0.00     0.049 A 
ATOM     55  C   UNL A   1      41.826  29.065  30.656  1.00  0.00     0.074 A 
ATOM     56  C   UNL A   1      48.197  27.650  30.679  1.00  0.00     0.029 A 
ATOM     57  N   UNL A   1      46.649  29.207  30.747  1.00  0.00    -0.354 N 
ATOM     58  N   UNL A   1      42.440  28.573  31.696  1.00  0.00    -0.248 NA
ATOM     59  C   UNL A   1      42.521  30.149  29.981  1.00  0.00     0.031 C 
ATOM     60  C   UNL A   1      47.210  27.310  31.652  1.00  0.00     0.029 A 
ATOM     61  C   UNL A   1      46.145  28.206  31.535  1.00  0.00     0.049 A 
ATOM     62  H   UNL A   1      46.357  30.147  30.752  1.00  0.00     0.167 HD
ATOM     63  C   UNL A   1      43.764  28.952  31.539  1.00  0.00     0.074 A 
ATOM     64  C   UNL A   1      43.733  30.007  30.524  1.00  0.00     0.031 C 
ATOM     65  C   UNL A   1      44.778  28.173  32.023  1.00  0.00     0.034 A 
BRANCH  52  66
ATOM     66  C   UNL A   1      47.673  30.507  28.103  1.00  0.00     0.023 A 
ATOM     67  C   UNL A   1      46.439  31.099  27.773  1.00  0.00     0.031 A 
ATOM     68  C   UNL A   1      48.816  31.233  27.692  1.00  0.00     0.131 A 
ATOM     69  C   UNL A   1      46.371  32.225  26.935  1.00  0.00     0.055 A 
ATOM     70  C   UNL A   1      48.743  32.391  26.908  1.00  0.00     0.041 A 
ATOM     71  F   UNL A   1      50.068  30.847  27.955  1.00  0.00    -0.206 F 
ATOM     72  C   UNL A   1      47.517  32.869  26.486  1.00  0.00     0.022 A 
BRANCH  69  73
ATOM     73  S   UNL A   1      44.752  32.697  26.275  1.00  0.00     0.124 S 
ATOM     74  O   UNL A   1      45.133  33.338  25.021  1.00  0.00    -0.237 OA
ATOM     75  O   UNL A   1      44.089  31.402  26.164  1.00  0.00    -0.237 OA
ATOM     76  O   UNL A   1      44.217  33.588  27.299  1.00  0.00    -0.744 OA
ENDBRANCH  69  73
ENDBRANCH  52  66
BRANCH  53  77
ATOM     77  C   UNL A   1      39.476  28.899  29.518  1.00  0.00     0.023 A 
ATOM     78  C   UNL A   1      38.624  29.555  30.441  1.00  0.00     0.031 A 
ATOM     79  C   UNL A   1      39.143  29.042  28.152  1.00  0.00     0.131 A 
ATOM     80  C   UNL A   1      37.509  30.310  29.984  1.00  0.00     0.055 A 
ATOM     81  C   UNL A   1      38.049  29.792  27.708  1.00  0.00     0.041 A 
ATOM     82  F   UNL A   1      39.926  28.529  27.190  1.00  0.00    -0.206 F 
ATOM     83  C   UNL A   1      37.233  30.438  28.623  1.00  0.00     0.022 A 
BRANCH  80  84
ATOM     84  S   UNL A   1      36.430  31.212  31.153  1.00  0.00     0.124 S 
ATOM     85  O   UNL A   1      35.358  31.687  30.286  1.00  0.00    -0.237 OA
ATOM     86  O   UNL A   1      36.075  30.178  32.120  1.00  0.00    -0.237 OA
ATOM     87  O   UNL A   1      37.300  32.265  31.681  1.00  0.00    -0.744 OA
ENDBRANCH  80  84
ENDBRANCH  53  77
BRANCH  65  88
ATOM     88  C   UNL A   1      44.432  27.085  33.023  1.00  0.00     0.023 A 
ATOM     89  C   UNL A   1      44.116  27.283  34.388  1.00  0.00     0.031 A 
ATOM     90  C   UNL A   1      44.322  25.779  32.512  1.00  0.00     0.131 A 
ATOM     91  C   UNL A   1      43.716  26.188  35.183  1.00  0.00     0.055 A 
ATOM     92  C   UNL A   1      43.904  24.706  33.295  1.00  0.00     0.041 A 
ATOM     93  F   UNL A   1      44.588  25.530  31.219  1.00  0.00    -0.206 F 
ATOM     94  C   UNL A   1      43.605  24.905  34.636  1.00  0.00     0.022 A 
BRANCH  91  95
ATOM     95  S   UNL A   1      43.352  26.396  36.960  1.00  0.00     0.124 S 
ATOM     96  O   UNL A   1      42.659  27.678  37.019  1.00  0.00    -0.237 OA
ATOM     97  O   UNL A   1      42.543  25.218  37.258  1.00  0.00    -0.237 OA
ATOM     98  O   UNL A   1      44.679  26.393  37.582  1.00  0.00    -0.744 OA
ENDBRANCH  91  95
ENDBRANCH  65  88
ENDBRANCH  39  40
ENDBRANCH  31  34
ENDBRANCH  29  30
ENDBRANCH   1  29
TORSDOF 17
ENDMDL
MODEL 2
REMARK VINA RESULT:     -12.0      4.055      8.860
REMARK SMILES COc1ccc(-c2nc(C(C)C)cc3nn(CC(=O)NCCCNC(=O)c4ccc(-c5c6nc(c(-c7cc(S(=O)(=O)[O-])ccc7F)c7ccc([nH]7)c(-c7cc(S(=O)(=O)[O-])ccc7F)c7nc(c(-c8cc(S(=O)(=O)[O-])ccc8F)c8ccc5[nH]8)C=C7)C=C6)cc4)c(=O)n23)cc1
REMARK SMILES IDX 22 1 21 2 20 3 18 4 19 5 17 7 16 8 7 9 8 10 92 11 9 12 14 13
REMARK SMILES IDX 90 14 13 15 15 16 91 17 6 18 3 19 4 20 94 21 5 22 93 23 2 24
REMARK SMILES IDX 1 25 10 26 11 27 12 28 23 29 24 30 25 31 26 33 27 34 28 35
REMARK SMILES IDX 89 36 29 37 88 38 30 39 31 40 32 41 82 42 33 43 87 44 81 45
REMARK SMILES IDX 83 46 34 47 86 48 80 49 79 50 35 52 67 53 47 54 66 55 48 56
REMARK SMILES IDX 51 57 65 58 84 59 49 60 50 61 64 63 85 64 52 65 36 66 37 67
REMARK SMILES IDX 45 68 38 69 44 70 46 71 43 72 39 73 40 74 41 75 42 76 68 77
REMARK SMILES IDX 69 78 77 79 70 80 76 81 78 82 75 83 71 84 72 85 73 86 74 87
REMARK SMILES IDX 53 88 54 89 62 90 55 91 61 92 63 93 60 94 56 95 57 96 58 97
REMARK SMILES IDX 59 98
REMARK H PARENT 20 6 24 32 83 51 51 62
REMARK Flexibility Score: inf
ROOT
ATOM      1  C   UNL A   1      36.002  32.825  30.170  1.00  0.00     0.042 C 
ENDROOT
BRANCH   1   2
ATOM      2  C   UNL A   1      34.483  32.905  30.346  1.00  0.00     0.117 C 
BRANCH   2   3
ATOM      3  N   UNL A   1      33.811  33.589  29.253  1.00  0.00    -0.354 N 
ATOM      4  C   UNL A   1      33.188  33.061  28.157  1.00  0.00     0.241 C 
ATOM      5  O   UNL A   1      32.443  33.800  27.508  1.00  0.00    -0.273 OA
ATOM      6  H   UNL A   1      33.802  34.572  29.311  1.00  0.00     0.163 HD
BRANCH   4   7
ATOM      7  C   UNL A   1      33.283  31.572  27.838  1.00  0.00     0.249 C 
BRANCH   7   8
ATOM      8  N   UNL A   1      32.393  31.200  26.766  1.00  0.00    -0.203 N 
ATOM      9  C   UNL A   1      31.051  29.334  24.007  1.00  0.00     0.150 A 
ATOM     10  N   UNL A   1      30.008  29.637  23.288  1.00  0.00    -0.234 NA
ATOM     11  N   UNL A   1      31.473  30.129  25.065  1.00  0.00    -0.226 N 
ATOM     12  C   UNL A   1      29.290  30.771  23.616  1.00  0.00     0.049 A 
ATOM     13  C   UNL A   1      30.814  31.261  25.388  1.00  0.00     0.165 A 
ATOM     14  C   UNL A   1      32.558  30.078  25.938  1.00  0.00     0.352 A 
ATOM     15  C   UNL A   1      29.628  31.600  24.617  1.00  0.00     0.073 A 
ATOM     16  N   UNL A   1      31.309  31.947  26.373  1.00  0.00    -0.149 NA
ATOM     17  O   UNL A   1      33.468  29.277  25.991  1.00  0.00    -0.245 OA
BRANCH   9  18
ATOM     18  C   UNL A   1      31.870  28.155  23.661  1.00  0.00     0.018 A 
ATOM     19  C   UNL A   1      33.254  25.836  22.965  1.00  0.00     0.118 A 
ATOM     20  C   UNL A   1      33.571  27.051  22.352  1.00  0.00     0.047 A 
ATOM     21  C   UNL A   1      32.288  25.794  23.971  1.00  0.00     0.047 A 
ATOM     22  C   UNL A   1      32.878  28.216  22.695  1.00  0.00     0.016 A 
ATOM     23  C   UNL A   1      31.597  26.954  24.324  1.00  0.00     0.016 A 
BRANCH  19  24
ATOM     24  O   UNL A   1      33.979  24.746  22.570  1.00  0.00    -0.497 OA
ATOM     25  C   UNL A   1      33.201  23.741  21.926  1.00  0.00     0.278 C 
ENDBRANCH  19  24
ENDBRANCH   9  18
BRANCH  12  26
ATOM     26  C   UNL A   1      28.076  31.051  22.739  1.00  0.00     0.032 C 
ATOM     27  C   UNL A   1      28.069  32.485  22.198  1.00  0.00     0.014 C 
ATOM     28  C   UNL A   1      27.976  30.041  21.592  1.00  0.00     0.014 C 
ENDBRANCH  12  26
ENDBRANCH   7   8
ENDBRANCH   4   7
ENDBRANCH   2   3
ENDBRANCH   1   2
BRANCH   1  29
ATOM     29  C   UNL A   1      36.540  31.414  30.342  1.00  0.00     0.118 C 
BRANCH  29  30
ATOM     30  N   UNL A   1      35.861  30.432  29.496  1.00  0.00    -0.352 N 
ATOM     31  C   UNL A   1      36.430  29.503  28.644  1.00  0.00     0.251 C 
ATOM     32  H   UNL A   1      34.878  30.433  29.539  1.00  0.00     0.163 HD
ATOM     33  O   UNL A   1      35.755  28.987  27.760  1.00  0.00    -0.269 OA
BRANCH  31  34
ATOM     34  C   UNL A   1      37.853  29.146  28.815  1.00  0.00     0.039 A 
ATOM     35  C   UNL A   1      38.289  28.362  29.888  1.00  0.00     0.014 A 
ATOM     36  C   UNL A   1      38.760  29.601  27.864  1.00  0.00     0.014 A 
ATOM     37  C   UNL A   1      39.630  27.976  29.944  1.00  0.00     0.010 A 
ATOM     38  C   UNL A   1      40.034  29.098  27.833  1.00  0.00     0.010 A 
ATOM     39  C   UNL A   1      40.496  28.334  28.898  1.00  0.00    -0.014 A 
BRANCH  39  40
ATOM     40  C   UNL A   1      41.843  27.767  28.779  1.00  0.00     0.031 A 
ATOM     41  C   UNL A   1      41.861  26.464  28.053  1.00  0.00     0.074 A 
ATOM     42  C   UNL A   1      42.957  28.500  29.029  1.00  0.00     0.049 A 
ATOM     43  N   UNL A   1      42.188  25.299  28.505  1.00  0.00    -0.248 NA
ATOM     44  C   UNL A   1      41.248  26.413  26.709  1.00  0.00     0.031 C 
ATOM     45  C   UNL A   1      43.016  29.904  29.461  1.00  0.00     0.029 A 
ATOM     46  N   UNL A   1      44.274  28.211  28.828  1.00  0.00    -0.354 N 
ATOM     47  C   UNL A   1      42.106  24.435  27.415  1.00  0.00     0.074 A 
ATOM     48  C   UNL A   1      41.280  25.105  26.452  1.00  0.00     0.031 C 
ATOM     49  C   UNL A   1      44.253  30.403  29.241  1.00  0.00     0.029 A 
ATOM     50  C   UNL A   1      45.124  29.325  28.808  1.00  0.00     0.049 A 
ATOM     51  H   UNL A   1      44.603  27.291  28.704  1.00  0.00     0.167 HD
ATOM     52  C   UNL A   1      42.990  23.407  27.275  1.00  0.00     0.034 A 
ATOM     53  C   UNL A   1      46.438  29.374  28.442  1.00  0.00     0.034 A 
ATOM     54  C   UNL A   1      43.644  23.132  28.540  1.00  0.00     0.049 A 
ATOM     55  C   UNL A   1      46.943  27.983  28.523  1.00  0.00     0.074 A 
ATOM     56  C   UNL A   1      43.211  22.786  29.806  1.00  0.00     0.029 A 
ATOM     57  N   UNL A   1      44.929  23.602  28.706  1.00  0.00    -0.354 N 
ATOM     58  N   UNL A   1      47.018  27.314  29.640  1.00  0.00    -0.248 NA
ATOM     59  C   UNL A   1      46.887  27.173  27.317  1.00  0.00     0.031 C 
ATOM     60  C   UNL A   1      44.057  23.511  30.697  1.00  0.00     0.029 A 
ATOM     61  C   UNL A   1      45.025  24.180  29.944  1.00  0.00     0.049 A 
ATOM     62  H   UNL A   1      45.655  23.531  28.046  1.00  0.00     0.167 HD
ATOM     63  C   UNL A   1      46.564  26.043  29.324  1.00  0.00     0.074 A 
ATOM     64  C   UNL A   1      46.599  25.987  27.861  1.00  0.00     0.031 C 
ATOM     65  C   UNL A   1      45.926  25.274  30.257  1.00  0.00     0.034 A 
BRANCH  52  66
ATOM     66  C   UNL A   1      43.611  22.978  25.948  1.00  0.00     0.023 A 
ATOM     67  C   UNL A   1      43.681  21.591  25.711  1.00  0.00     0.031 A 
ATOM     68  C   UNL A   1      44.395  23.776  25.082  1.00  0.00     0.131 A 
ATOM     69  C   UNL A   1      44.610  21.053  24.805  1.00  0.00     0.055 A 
ATOM     70  C   UNL A   1      45.275  23.236  24.136  1.00  0.00     0.041 A 
ATOM     71  F   UNL A   1      44.420  25.110  25.131  1.00  0.00    -0.206 F 
ATOM     72  C   UNL A   1      45.421  21.867  24.023  1.00  0.00     0.022 A 
BRANCH  69  73
ATOM     73  S   UNL A   1      44.881  19.263  24.828  1.00  0.00     0.124 S 
ATOM     74  O   UNL A   1      43.731  18.812  25.605  1.00  0.00    -0.237 OA
ATOM     75  O   UNL A   1      44.865  18.944  23.404  1.00  0.00    -0.237 OA
ATOM     76  O   UNL A   1      46.176  19.126  25.485  1.00  0.00    -0.744 OA
ENDBRANCH  69  73
ENDBRANCH  52  66
BRANCH  53  77
ATOM     77  C   UNL A   1      47.170  30.461  27.715  1.00  0.00     0.023 A 
ATOM     78  C   UNL A   1      46.531  31.575  27.114  1.00  0.00     0.031 A 
ATOM     79  C   UNL A   1      48.576  30.540  27.836  1.00  0.00     0.131 A 
ATOM     80  C   UNL A   1      47.291  32.693  26.675  1.00  0.00     0.055 A 
ATOM     81  C   UNL A   1      49.318  31.646  27.408  1.00  0.00     0.041 A 
ATOM     82  F   UNL A   1      49.273  29.577  28.460  1.00  0.00    -0.206 F 
ATOM     83  C   UNL A   1      48.677  32.732  26.835  1.00  0.00     0.022 A 
BRANCH  80  84
ATOM     84  S   UNL A   1      46.483  34.165  25.951  1.00  0.00     0.124 S 
ATOM     85  O   UNL A   1      45.290  33.597  25.336  1.00  0.00    -0.237 OA
ATOM     86  O   UNL A   1      46.271  35.016  27.116  1.00  0.00    -0.237 OA
ATOM     87  O   UNL A   1      47.477  34.671  25.002  1.00  0.00    -0.744 OA
ENDBRANCH  80  84
ENDBRANCH  53  77
BRANCH  65  88
ATOM     88  C   UNL A   1      46.029  25.683  31.715  1.00  0.00     0.023 A 
ATOM     89  C   UNL A   1      47.140  25.455  32.563  1.00  0.00     0.031 A 
ATOM     90  C   UNL A   1      44.962  26.441  32.229  1.00  0.00     0.131 A 
ATOM     91  C   UNL A   1      47.142  25.977  33.874  1.00  0.00     0.055 A 
ATOM     92  C   UNL A   1      44.980  26.974  33.515  1.00  0.00     0.041 A 
ATOM     93  F   UNL A   1      43.890  26.709  31.467  1.00  0.00    -0.206 F 
ATOM     94  C   UNL A   1      46.067  26.739  34.346  1.00  0.00     0.022 A 
BRANCH  91  95
ATOM     95  S   UNL A   1      48.532  25.659  35.013  1.00  0.00     0.124 S 
ATOM     96  O   UNL A   1      47.942  25.848  36.334  1.00  0.00    -0.237 OA
ATOM     97  O   UNL A   1      48.915  24.291  34.673  1.00  0.00    -0.237 OA
ATOM     98  O   UNL A   1      49.519  26.675  34.638  1.00  0.00    -0.744 OA
ENDBRANCH  91  95
ENDBRANCH  65  88
ENDBRANCH  39  40
ENDBRANCH  31  34
ENDBRANCH  29  30
ENDBRANCH   1  29
TORSDOF 17
ENDMDL
MODEL 3
REMARK VINA RESULT:     -11.9      2.794      4.460
REMARK SMILES COc1ccc(-c2nc(C(C)C)cc3nn(CC(=O)NCCCNC(=O)c4ccc(-c5c6nc(c(-c7cc(S(=O)(=O)[O-])ccc7F)c7ccc([nH]7)c(-c7cc(S(=O)(=O)[O-])ccc7F)c7nc(c(-c8cc(S(=O)(=O)[O-])ccc8F)c8ccc5[nH]8)C=C7)C=C6)cc4)c(=O)n23)cc1
REMARK SMILES IDX 22 1 21 2 20 3 18 4 19 5 17 7 16 8 7 9 8 10 92 11 9 12 14 13
REMARK SMILES IDX 90 14 13 15 15 16 91 17 6 18 3 19 4 20 94 21 5 22 93 23 2 24
REMARK SMILES IDX 1 25 10 26 11 27 12 28 23 29 24 30 25 31 26 33 27 34 28 35
REMARK SMILES IDX 89 36 29 37 88 38 30 39 31 40 32 41 82 42 33 43 87 44 81 45
REMARK SMILES IDX 83 46 34 47 86 48 80 49 79 50 35 52 67 53 47 54 66 55 48 56
REMARK SMILES IDX 51 57 65 58 84 59 49 60 50 61 64 63 85 64 52 65 36 66 37 67
REMARK SMILES IDX 45 68 38 69 44 70 46 71 43 72 39 73 40 74 41 75 42 76 68 77
REMARK SMILES IDX 69 78 77 79 70 80 76 81 78 82 75 83 71 84 72 85 73 86 74 87
REMARK SMILES IDX 53 88 54 89 62 90 55 91 61 92 63 93 60 94 56 95 57 96 58 97
REMARK SMILES IDX 59 98
REMARK H PARENT 20 6 24 32 83 51 51 62
REMARK Flexibility Score: inf
ROOT
ATOM      1  C   UNL A   1      40.549  20.767  27.018  1.00  0.00     0.042 C 
ENDROOT
BRANCH   1   2
ATOM      2  C   UNL A   1      39.525  21.470  26.122  1.00  0.00     0.117 C 
BRANCH   2   3
ATOM      3  N   UNL A   1      38.996  22.695  26.701  1.00  0.00    -0.354 N 
ATOM      4  C   UNL A   1      38.070  23.562  26.189  1.00  0.00     0.241 C 
ATOM      5  O   UNL A   1      37.560  24.378  26.961  1.00  0.00    -0.273 OA
ATOM      6  H   UNL A   1      39.354  22.934  27.586  1.00  0.00     0.163 HD
BRANCH   4   7
ATOM      7  C   UNL A   1      37.570  23.424  24.754  1.00  0.00     0.249 C 
BRANCH   7   8
ATOM      8  N   UNL A   1      36.360  22.643  24.686  1.00  0.00    -0.203 N 
ATOM      9  C   UNL A   1      32.853  21.886  24.538  1.00  0.00     0.150 A 
ATOM     10  N   UNL A   1      32.304  20.705  24.550  1.00  0.00    -0.234 NA
ATOM     11  N   UNL A   1      34.230  22.058  24.587  1.00  0.00    -0.226 N 
ATOM     12  C   UNL A   1      33.128  19.597  24.582  1.00  0.00     0.049 A 
ATOM     13  C   UNL A   1      35.061  20.998  24.654  1.00  0.00     0.165 A 
ATOM     14  C   UNL A   1      35.062  23.176  24.647  1.00  0.00     0.352 A 
ATOM     15  C   UNL A   1      34.469  19.669  24.637  1.00  0.00     0.073 A 
ATOM     16  N   UNL A   1      36.328  21.270  24.728  1.00  0.00    -0.149 NA
ATOM     17  O   UNL A   1      34.770  24.354  24.682  1.00  0.00    -0.245 OA
BRANCH   9  18
ATOM     18  C   UNL A   1      32.006  23.096  24.548  1.00  0.00     0.018 A 
ATOM     19  C   UNL A   1      30.538  25.462  24.683  1.00  0.00     0.118 A 
ATOM     20  C   UNL A   1      30.899  24.932  23.441  1.00  0.00     0.047 A 
ATOM     21  C   UNL A   1      30.857  24.774  25.854  1.00  0.00     0.047 A 
ATOM     22  C   UNL A   1      31.639  23.748  23.368  1.00  0.00     0.016 A 
ATOM     23  C   UNL A   1      31.588  23.588  25.788  1.00  0.00     0.016 A 
BRANCH  19  24
ATOM     24  O   UNL A   1      29.816  26.624  24.664  1.00  0.00    -0.497 OA
ATOM     25  C   UNL A   1      28.673  26.576  23.814  1.00  0.00     0.278 C 
ENDBRANCH  19  24
ENDBRANCH   9  18
BRANCH  12  26
ATOM     26  C   UNL A   1      32.414  18.251  24.579  1.00  0.00     0.032 C 
ATOM     27  C   UNL A   1      32.725  17.432  23.321  1.00  0.00     0.014 C 
ATOM     28  C   UNL A   1      32.743  17.446  25.840  1.00  0.00     0.014 C 
ENDBRANCH  12  26
ENDBRANCH   7   8
ENDBRANCH   4   7
ENDBRANCH   2   3
ENDBRANCH   1   2
BRANCH   1  29
ATOM     29  C   UNL A   1      41.706  21.672  27.408  1.00  0.00     0.118 C 
BRANCH  29  30
ATOM     30  N   UNL A   1      42.505  22.111  26.264  1.00  0.00    -0.352 N 
ATOM     31  C   UNL A   1      42.741  23.405  25.836  1.00  0.00     0.251 C 
ATOM     32  H   UNL A   1      42.927  21.398  25.733  1.00  0.00     0.163 HD
ATOM     33  O   UNL A   1      43.135  23.611  24.693  1.00  0.00    -0.269 OA
BRANCH  31  34
ATOM     34  C   UNL A   1      42.513  24.526  26.770  1.00  0.00     0.039 A 
ATOM     35  C   UNL A   1      43.286  24.689  27.924  1.00  0.00     0.014 A 
ATOM     36  C   UNL A   1      41.505  25.436  26.466  1.00  0.00     0.014 A 
ATOM     37  C   UNL A   1      43.087  25.821  28.718  1.00  0.00     0.010 A 
ATOM     38  C   UNL A   1      41.416  26.617  27.153  1.00  0.00     0.010 A 
ATOM     39  C   UNL A   1      42.160  26.795  28.314  1.00  0.00    -0.014 A 
BRANCH  39  40
ATOM     40  C   UNL A   1      42.075  28.103  28.970  1.00  0.00     0.031 A 
ATOM     41  C   UNL A   1      43.135  29.049  28.514  1.00  0.00     0.074 A 
ATOM     42  C   UNL A   1      40.977  28.488  29.667  1.00  0.00     0.049 A 
ATOM     43  N   UNL A   1      44.097  29.566  29.204  1.00  0.00    -0.248 NA
ATOM     44  C   UNL A   1      43.263  29.298  27.063  1.00  0.00     0.031 C 
ATOM     45  C   UNL A   1      39.754  27.706  29.900  1.00  0.00     0.029 A 
ATOM     46  N   UNL A   1      40.645  29.696  30.204  1.00  0.00    -0.354 N 
ATOM     47  C   UNL A   1      44.758  30.433  28.335  1.00  0.00     0.074 A 
ATOM     48  C   UNL A   1      44.384  30.017  27.015  1.00  0.00     0.031 C 
ATOM     49  C   UNL A   1      38.750  28.523  30.288  1.00  0.00     0.029 A 
ATOM     50  C   UNL A   1      39.283  29.858  30.493  1.00  0.00     0.049 A 
ATOM     51  H   UNL A   1      41.310  30.402  30.376  1.00  0.00     0.167 HD
ATOM     52  C   UNL A   1      45.281  31.607  28.790  1.00  0.00     0.034 A 
ATOM     53  C   UNL A   1      38.628  31.002  30.848  1.00  0.00     0.034 A 
ATOM     54  C   UNL A   1      45.417  31.569  30.234  1.00  0.00     0.049 A 
ATOM     55  C   UNL A   1      39.667  31.938  31.340  1.00  0.00     0.074 A 
ATOM     56  C   UNL A   1      46.081  30.753  31.129  1.00  0.00     0.029 A 
ATOM     57  N   UNL A   1      44.470  32.239  30.978  1.00  0.00    -0.354 N 
ATOM     58  N   UNL A   1      40.383  31.715  32.407  1.00  0.00    -0.248 NA
ATOM     59  C   UNL A   1      40.254  32.859  30.381  1.00  0.00     0.031 C 
ATOM     60  C   UNL A   1      45.191  30.616  32.236  1.00  0.00     0.029 A 
ATOM     61  C   UNL A   1      44.078  31.431  32.013  1.00  0.00     0.049 A 
ATOM     62  H   UNL A   1      44.134  33.146  30.797  1.00  0.00     0.167 HD
ATOM     63  C   UNL A   1      41.671  32.087  32.055  1.00  0.00     0.074 A 
ATOM     64  C   UNL A   1      41.510  32.881  30.835  1.00  0.00     0.031 C 
ATOM     65  C   UNL A   1      42.756  31.470  32.612  1.00  0.00     0.034 A 
BRANCH  52  66
ATOM     66  C   UNL A   1      45.221  32.929  28.031  1.00  0.00     0.023 A 
ATOM     67  C   UNL A   1      44.459  33.955  28.621  1.00  0.00     0.031 A 
ATOM     68  C   UNL A   1      45.574  33.145  26.678  1.00  0.00     0.131 A 
ATOM     69  C   UNL A   1      43.938  35.011  27.853  1.00  0.00     0.055 A 
ATOM     70  C   UNL A   1      45.104  34.233  25.932  1.00  0.00     0.041 A 
ATOM     71  F   UNL A   1      46.329  32.301  25.969  1.00  0.00    -0.206 F 
ATOM     72  C   UNL A   1      44.244  35.150  26.505  1.00  0.00     0.022 A 
BRANCH  69  73
ATOM     73  S   UNL A   1      42.684  36.075  28.610  1.00  0.00     0.124 S 
ATOM     74  O   UNL A   1      41.488  35.666  27.881  1.00  0.00    -0.237 OA
ATOM     75  O   UNL A   1      42.758  35.669  30.010  1.00  0.00    -0.237 OA
ATOM     76  O   UNL A   1      43.166  37.422  28.322  1.00  0.00    -0.744 OA
ENDBRANCH  69  73
ENDBRANCH  52  66
BRANCH  53  77
ATOM     77  C   UNL A   1      37.247  31.447  30.477  1.00  0.00     0.023 A 
ATOM     78  C   UNL A   1      36.421  32.235  31.318  1.00  0.00     0.031 A 
ATOM     79  C   UNL A   1      36.818  31.307  29.137  1.00  0.00     0.131 A 
ATOM     80  C   UNL A   1      35.239  32.839  30.809  1.00  0.00     0.055 A 
ATOM     81  C   UNL A   1      35.658  31.909  28.641  1.00  0.00     0.041 A 
ATOM     82  F   UNL A   1      37.565  30.649  28.237  1.00  0.00    -0.206 F 
ATOM     83  C   UNL A   1      34.868  32.687  29.472  1.00  0.00     0.022 A 
BRANCH  80  84
ATOM     84  S   UNL A   1      34.190  33.907  31.859  1.00  0.00     0.124 S 
ATOM     85  O   UNL A   1      33.590  32.948  32.779  1.00  0.00    -0.237 OA
ATOM     86  O   UNL A   1      35.156  34.839  32.430  1.00  0.00    -0.237 OA
ATOM     87  O   UNL A   1      33.252  34.509  30.909  1.00  0.00    -0.744 OA
ENDBRANCH  80  84
ENDBRANCH  53  77
BRANCH  65  88
ATOM     88  C   UNL A   1      42.542  30.629  33.857  1.00  0.00     0.023 A 
ATOM     89  C   UNL A   1      42.450  29.217  33.898  1.00  0.00     0.031 A 
ATOM     90  C   UNL A   1      42.534  31.317  35.084  1.00  0.00     0.131 A 
ATOM     91  C   UNL A   1      42.349  28.554  35.140  1.00  0.00     0.055 A 
ATOM     92  C   UNL A   1      42.457  30.658  36.307  1.00  0.00     0.041 A 
ATOM     93  F   UNL A   1      42.638  32.656  35.112  1.00  0.00    -0.206 F 
ATOM     94  C   UNL A   1      42.358  29.273  36.340  1.00  0.00     0.022 A 
BRANCH  91  95
ATOM     95  S   UNL A   1      42.177  26.740  35.229  1.00  0.00     0.124 S 
ATOM     96  O   UNL A   1      43.155  26.255  34.262  1.00  0.00    -0.237 OA
ATOM     97  O   UNL A   1      42.471  26.461  36.632  1.00  0.00    -0.237 OA
ATOM     98  O   UNL A   1      40.780  26.511  34.848  1.00  0.00    -0.744 OA
ENDBRANCH  91  95
ENDBRANCH  65  88
ENDBRANCH  39  40
ENDBRANCH  31  34
ENDBRANCH  29  30
ENDBRANCH   1  29
TORSDOF 17
ENDMDL
