MODEL 1
REMARK VINA RESULT:     -12.1      0.000      0.000
REMARK SMILES Cc1ccn2c([C@H]3C[C@@H]3C(=O)NCCCNC(=O)c3ccc(-c4c5nc(c(-c6cc(S(=O)(=O)[O-])ccc6F)c6ccc([nH]6)c(-c6cc(S(=O)(=O)[O-])ccc6F)c6nc(c(-c7cc(S(=O)(=O)[O-])ccc7F)c7ccc4[nH]7)C=C6)C=C5)cc3)nnc2c1
REMARK SMILES IDX 15 1 14 2 13 3 12 4 10 5 11 6 9 8 7 9 8 10 6 11 1 12 2 13
REMARK SMILES IDX 3 14 85 15 4 16 84 17 5 18 83 19 82 20 16 21 17 22 18 24
REMARK SMILES IDX 19 25 20 26 81 27 21 28 80 29 22 30 23 31 24 32 74 33 25 34
REMARK SMILES IDX 79 35 73 36 75 37 26 38 78 39 72 40 71 41 27 43 59 44 39 45
REMARK SMILES IDX 58 46 40 47 43 48 57 49 76 50 41 51 42 52 56 54 77 55 44 56
REMARK SMILES IDX 28 57 29 58 37 59 30 60 36 61 38 62 35 63 31 64 32 65 33 66
REMARK SMILES IDX 34 67 60 68 61 69 69 70 62 71 68 72 70 73 67 74 63 75 64 76
REMARK SMILES IDX 65 77 66 78 45 79 46 80 54 81 47 82 53 83 55 84 52 85 48 86
REMARK SMILES IDX 49 87 50 88 51 89
REMARK H PARENT 12 7 16 23 75 42 43 53
REMARK Flexibility Score: inf
ROOT
ATOM      1  C   UNL A   1      35.051  34.538  28.298  1.00  0.00     0.118 C 
ENDROOT
BRANCH   1   2
ATOM      2  C   UNL A   1      34.146  35.763  28.452  1.00  0.00     0.042 C 
BRANCH   2   3
ATOM      3  C   UNL A   1      32.938  35.517  29.360  1.00  0.00     0.117 C 
BRANCH   3   4
ATOM      4  N   UNL A   1      32.737  36.618  30.286  1.00  0.00    -0.356 N 
ATOM      5  C   UNL A   1      33.244  36.794  31.538  1.00  0.00     0.223 C 
ATOM      6  O   UNL A   1      32.940  37.794  32.193  1.00  0.00    -0.275 OA
ATOM      7  H   UNL A   1      32.150  37.340  29.963  1.00  0.00     0.163 HD
BRANCH   5   8
ATOM      8  C   UNL A   1      34.214  35.826  32.081  1.00  0.00     0.090 C 
ATOM      9  C   UNL A   1      33.817  34.592  32.878  1.00  0.00     0.071 C 
ATOM     10  C   UNL A   1      34.445  35.776  33.566  1.00  0.00     0.026 C 
BRANCH   9  11
ATOM     11  C   UNL A   1      34.669  33.344  32.687  1.00  0.00     0.141 A 
ATOM     12  C   UNL A   1      39.298  31.257  34.997  1.00  0.00     0.044 C 
ATOM     13  C   UNL A   1      37.999  31.777  34.451  1.00  0.00    -0.046 A 
ATOM     14  C   UNL A   1      37.449  32.980  35.078  1.00  0.00     0.022 A 
ATOM     15  C   UNL A   1      37.375  31.198  33.400  1.00  0.00     0.053 A 
ATOM     16  C   UNL A   1      36.335  33.535  34.572  1.00  0.00     0.095 A 
ATOM     17  C   UNL A   1      36.200  31.791  32.862  1.00  0.00     0.161 A 
ATOM     18  N   UNL A   1      35.730  32.946  33.468  1.00  0.00    -0.286 N 
ATOM     19  N   UNL A   1      35.453  31.501  31.818  1.00  0.00    -0.130 NA
ATOM     20  N   UNL A   1      34.509  32.495  31.691  1.00  0.00    -0.134 NA
ENDBRANCH   9  11
ENDBRANCH   5   8
ENDBRANCH   3   4
ENDBRANCH   2   3
ENDBRANCH   1   2
BRANCH   1  21
ATOM     21  N   UNL A   1      34.330  33.324  27.970  1.00  0.00    -0.352 N 
ATOM     22  C   UNL A   1      34.584  31.984  28.055  1.00  0.00     0.251 C 
ATOM     23  H   UNL A   1      33.440  33.511  27.592  1.00  0.00     0.163 HD
ATOM     24  O   UNL A   1      33.649  31.251  27.719  1.00  0.00    -0.269 OA
BRANCH  22  25
ATOM     25  C   UNL A   1      35.877  31.362  28.461  1.00  0.00     0.039 A 
ATOM     26  C   UNL A   1      37.013  32.045  28.891  1.00  0.00     0.014 A 
ATOM     27  C   UNL A   1      35.946  29.959  28.343  1.00  0.00     0.014 A 
ATOM     28  C   UNL A   1      38.206  31.355  29.110  1.00  0.00     0.010 A 
ATOM     29  C   UNL A   1      37.131  29.264  28.573  1.00  0.00     0.010 A 
ATOM     30  C   UNL A   1      38.278  29.971  28.911  1.00  0.00    -0.014 A 
BRANCH  30  31
ATOM     31  C   UNL A   1      39.570  29.319  29.120  1.00  0.00     0.031 A 
ATOM     32  C   UNL A   1      39.888  28.950  30.529  1.00  0.00     0.074 A 
ATOM     33  C   UNL A   1      40.433  28.997  28.136  1.00  0.00     0.049 A 
ATOM     34  N   UNL A   1      40.787  29.461  31.306  1.00  0.00    -0.248 NA
ATOM     35  C   UNL A   1      39.025  27.959  31.182  1.00  0.00     0.031 C 
ATOM     36  C   UNL A   1      40.211  28.976  26.688  1.00  0.00     0.029 A 
ATOM     37  N   UNL A   1      41.709  28.532  28.256  1.00  0.00    -0.354 N 
ATOM     38  C   UNL A   1      40.716  28.754  32.507  1.00  0.00     0.074 A 
ATOM     39  C   UNL A   1      39.535  27.930  32.414  1.00  0.00     0.031 C 
ATOM     40  C   UNL A   1      41.233  28.318  26.090  1.00  0.00     0.029 A 
ATOM     41  C   UNL A   1      42.249  28.024  27.086  1.00  0.00     0.049 A 
ATOM     42  H   UNL A   1      42.206  28.555  29.106  1.00  0.00     0.167 HD
ATOM     43  C   UNL A   1      41.712  28.790  33.440  1.00  0.00     0.034 A 
ATOM     44  C   UNL A   1      43.422  27.356  26.957  1.00  0.00     0.034 A 
ATOM     45  C   UNL A   1      42.637  29.859  33.185  1.00  0.00     0.049 A 
ATOM     46  C   UNL A   1      44.268  27.670  28.133  1.00  0.00     0.074 A 
ATOM     47  C   UNL A   1      42.552  31.236  33.181  1.00  0.00     0.029 A 
ATOM     48  N   UNL A   1      43.810  29.556  32.540  1.00  0.00    -0.354 N 
ATOM     49  N   UNL A   1      44.815  28.831  28.356  1.00  0.00    -0.248 NA
ATOM     50  C   UNL A   1      44.164  26.795  29.291  1.00  0.00     0.031 C 
ATOM     51  C   UNL A   1      43.406  31.653  32.122  1.00  0.00     0.029 A 
ATOM     52  C   UNL A   1      44.002  30.514  31.577  1.00  0.00     0.049 A 
ATOM     53  H   UNL A   1      44.404  28.793  32.732  1.00  0.00     0.167 HD
ATOM     54  C   UNL A   1      44.699  29.012  29.725  1.00  0.00     0.074 A 
ATOM     55  C   UNL A   1      44.393  27.686  30.258  1.00  0.00     0.031 C 
ATOM     56  C   UNL A   1      44.587  30.258  30.275  1.00  0.00     0.034 A 
BRANCH  43  57
ATOM     57  C   UNL A   1      42.001  27.700  34.443  1.00  0.00     0.023 A 
ATOM     58  C   UNL A   1      42.761  26.560  34.125  1.00  0.00     0.031 A 
ATOM     59  C   UNL A   1      41.701  27.876  35.811  1.00  0.00     0.131 A 
ATOM     60  C   UNL A   1      43.166  25.649  35.109  1.00  0.00     0.055 A 
ATOM     61  C   UNL A   1      42.165  27.002  36.804  1.00  0.00     0.041 A 
ATOM     62  F   UNL A   1      40.992  28.934  36.234  1.00  0.00    -0.206 F 
ATOM     63  C   UNL A   1      42.901  25.879  36.454  1.00  0.00     0.022 A 
BRANCH  60  64
ATOM     64  S   UNL A   1      44.061  24.140  34.647  1.00  0.00     0.124 S 
ATOM     65  O   UNL A   1      44.245  24.328  33.212  1.00  0.00    -0.237 OA
ATOM     66  O   UNL A   1      45.269  24.253  35.461  1.00  0.00    -0.237 OA
ATOM     67  O   UNL A   1      43.149  23.070  35.041  1.00  0.00    -0.744 OA
ENDBRANCH  60  64
ENDBRANCH  43  57
BRANCH  44  68
ATOM     68  C   UNL A   1      43.630  26.118  26.171  1.00  0.00     0.023 A 
ATOM     69  C   UNL A   1      42.813  24.999  26.415  1.00  0.00     0.031 A 
ATOM     70  C   UNL A   1      44.812  25.911  25.439  1.00  0.00     0.131 A 
ATOM     71  C   UNL A   1      43.209  23.724  25.992  1.00  0.00     0.055 A 
ATOM     72  C   UNL A   1      45.195  24.638  24.998  1.00  0.00     0.041 A 
ATOM     73  F   UNL A   1      45.654  26.929  25.203  1.00  0.00    -0.206 F 
ATOM     74  C   UNL A   1      44.400  23.534  25.290  1.00  0.00     0.022 A 
BRANCH  71  75
ATOM     75  S   UNL A   1      42.223  22.268  26.437  1.00  0.00     0.124 S 
ATOM     76  O   UNL A   1      40.857  22.780  26.342  1.00  0.00    -0.237 OA
ATOM     77  O   UNL A   1      42.614  21.319  25.401  1.00  0.00    -0.237 OA
ATOM     78  O   UNL A   1      42.671  21.954  27.791  1.00  0.00    -0.744 OA
ENDBRANCH  71  75
ENDBRANCH  44  68
BRANCH  56  79
ATOM     79  C   UNL A   1      44.820  31.475  29.402  1.00  0.00     0.023 A 
ATOM     80  C   UNL A   1      46.066  32.120  29.511  1.00  0.00     0.031 A 
ATOM     81  C   UNL A   1      43.811  32.138  28.676  1.00  0.00     0.131 A 
ATOM     82  C   UNL A   1      46.258  33.391  28.953  1.00  0.00     0.055 A 
ATOM     83  C   UNL A   1      44.034  33.369  28.050  1.00  0.00     0.041 A 
ATOM     84  F   UNL A   1      42.558  31.668  28.623  1.00  0.00    -0.206 F 
ATOM     85  C   UNL A   1      45.256  34.009  28.202  1.00  0.00     0.022 A 
BRANCH  82  86
ATOM     86  S   UNL A   1      47.740  34.354  29.348  1.00  0.00     0.124 S 
ATOM     87  O   UNL A   1      48.751  33.727  28.502  1.00  0.00    -0.237 OA
ATOM     88  O   UNL A   1      47.344  35.705  28.949  1.00  0.00    -0.237 OA
ATOM     89  O   UNL A   1      47.916  34.163  30.784  1.00  0.00    -0.744 OA
ENDBRANCH  82  86
ENDBRANCH  56  79
ENDBRANCH  30  31
ENDBRANCH  22  25
ENDBRANCH   1  21
TORSDOF 14
ENDMDL
MODEL 2
REMARK VINA RESULT:     -11.9      3.636     11.668
REMARK SMILES Cc1ccn2c([C@H]3C[C@@H]3C(=O)NCCCNC(=O)c3ccc(-c4c5nc(c(-c6cc(S(=O)(=O)[O-])ccc6F)c6ccc([nH]6)c(-c6cc(S(=O)(=O)[O-])ccc6F)c6nc(c(-c7cc(S(=O)(=O)[O-])ccc7F)c7ccc4[nH]7)C=C6)C=C5)cc3)nnc2c1
REMARK SMILES IDX 15 1 14 2 13 3 12 4 10 5 11 6 9 8 7 9 8 10 6 11 1 12 2 13
REMARK SMILES IDX 3 14 85 15 4 16 84 17 5 18 83 19 82 20 16 21 17 22 18 24
REMARK SMILES IDX 19 25 20 26 81 27 21 28 80 29 22 30 23 31 24 32 74 33 25 34
REMARK SMILES IDX 79 35 73 36 75 37 26 38 78 39 72 40 71 41 27 43 59 44 39 45
REMARK SMILES IDX 58 46 40 47 43 48 57 49 76 50 41 51 42 52 56 54 77 55 44 56
REMARK SMILES IDX 28 57 29 58 37 59 30 60 36 61 38 62 35 63 31 64 32 65 33 66
REMARK SMILES IDX 34 67 60 68 61 69 69 70 62 71 68 72 70 73 67 74 63 75 64 76
REMARK SMILES IDX 65 77 66 78 45 79 46 80 54 81 47 82 53 83 55 84 52 85 48 86
REMARK SMILES IDX 49 87 50 88 51 89
REMARK H PARENT 12 7 16 23 75 42 43 53
REMARK Flexibility Score: inf
ROOT
ATOM      1  C   UNL A   1      41.628  20.653  27.686  1.00  0.00     0.118 C 
ENDROOT
BRANCH   1   2
ATOM      2  C   UNL A   1      42.162  19.270  27.306  1.00  0.00     0.042 C 
BRANCH   2   3
ATOM      3  C   UNL A   1      42.328  19.075  25.797  1.00  0.00     0.117 C 
BRANCH   3   4
ATOM      4  N   UNL A   1      43.552  18.358  25.485  1.00  0.00    -0.356 N 
ATOM      5  C   UNL A   1      44.797  18.848  25.229  1.00  0.00     0.223 C 
ATOM      6  O   UNL A   1      45.721  18.078  24.958  1.00  0.00    -0.275 OA
ATOM      7  H   UNL A   1      43.470  17.377  25.453  1.00  0.00     0.163 HD
BRANCH   5   8
ATOM      8  C   UNL A   1      45.055  20.295  25.350  1.00  0.00     0.090 C 
ATOM      9  C   UNL A   1      44.935  21.272  24.190  1.00  0.00     0.071 C 
ATOM     10  C   UNL A   1      46.290  20.872  24.714  1.00  0.00     0.026 C 
BRANCH   9  11
ATOM     11  C   UNL A   1      44.428  22.671  24.515  1.00  0.00     0.141 A 
ATOM     12  C   UNL A   1      46.749  27.569  25.833  1.00  0.00     0.044 C 
ATOM     13  C   UNL A   1      46.139  26.274  25.380  1.00  0.00    -0.046 A 
ATOM     14  C   UNL A   1      47.061  25.203  24.999  1.00  0.00     0.022 A 
ATOM     15  C   UNL A   1      44.802  26.073  25.362  1.00  0.00     0.053 A 
ATOM     16  C   UNL A   1      46.570  23.997  24.670  1.00  0.00     0.095 A 
ATOM     17  C   UNL A   1      44.283  24.795  25.020  1.00  0.00     0.161 A 
ATOM     18  N   UNL A   1      45.193  23.800  24.694  1.00  0.00    -0.286 N 
ATOM     19  N   UNL A   1      43.062  24.303  25.002  1.00  0.00    -0.130 NA
ATOM     20  N   UNL A   1      43.157  22.960  24.714  1.00  0.00    -0.134 NA
ENDBRANCH   9  11
ENDBRANCH   5   8
ENDBRANCH   3   4
ENDBRANCH   2   3
ENDBRANCH   1   2
BRANCH   1  21
ATOM     21  N   UNL A   1      40.389  20.998  27.019  1.00  0.00    -0.352 N 
ATOM     22  C   UNL A   1      39.738  22.158  26.707  1.00  0.00     0.251 C 
ATOM     23  H   UNL A   1      39.894  20.202  26.718  1.00  0.00     0.163 HD
ATOM     24  O   UNL A   1      38.700  22.017  26.053  1.00  0.00    -0.269 OA
BRANCH  22  25
ATOM     25  C   UNL A   1      40.145  23.530  27.125  1.00  0.00     0.039 A 
ATOM     26  C   UNL A   1      41.230  23.848  27.939  1.00  0.00     0.014 A 
ATOM     27  C   UNL A   1      39.310  24.578  26.685  1.00  0.00     0.014 A 
ATOM     28  C   UNL A   1      41.424  25.161  28.371  1.00  0.00     0.010 A 
ATOM     29  C   UNL A   1      39.507  25.893  27.103  1.00  0.00     0.010 A 
ATOM     30  C   UNL A   1      40.539  26.177  27.988  1.00  0.00    -0.014 A 
BRANCH  30  31
ATOM     31  C   UNL A   1      40.778  27.521  28.511  1.00  0.00     0.031 A 
ATOM     32  C   UNL A   1      42.041  28.175  28.062  1.00  0.00     0.074 A 
ATOM     33  C   UNL A   1      39.923  28.198  29.303  1.00  0.00     0.049 A 
ATOM     34  N   UNL A   1      43.092  28.451  28.765  1.00  0.00    -0.248 NA
ATOM     35  C   UNL A   1      42.186  28.457  26.629  1.00  0.00     0.031 C 
ATOM     36  C   UNL A   1      38.523  27.898  29.614  1.00  0.00     0.029 A 
ATOM     37  N   UNL A   1      40.134  29.379  29.950  1.00  0.00    -0.354 N 
ATOM     38  C   UNL A   1      43.984  29.088  27.902  1.00  0.00     0.074 A 
ATOM     39  C   UNL A   1      43.424  28.953  26.579  1.00  0.00     0.031 C 
ATOM     40  C   UNL A   1      37.957  28.978  30.203  1.00  0.00     0.029 A 
ATOM     41  C   UNL A   1      38.988  29.970  30.458  1.00  0.00     0.049 A 
ATOM     42  H   UNL A   1      41.028  29.780  30.049  1.00  0.00     0.167 HD
ATOM     43  C   UNL A   1      45.054  29.808  28.353  1.00  0.00     0.034 A 
ATOM     44  C   UNL A   1      38.885  31.210  30.996  1.00  0.00     0.034 A 
ATOM     45  C   UNL A   1      45.314  29.552  29.742  1.00  0.00     0.049 A 
ATOM     46  C   UNL A   1      40.238  31.651  31.411  1.00  0.00     0.074 A 
ATOM     47  C   UNL A   1      45.714  28.449  30.467  1.00  0.00     0.029 A 
ATOM     48  N   UNL A   1      44.841  30.453  30.663  1.00  0.00    -0.354 N 
ATOM     49  N   UNL A   1      40.902  31.142  32.410  1.00  0.00    -0.248 NA
ATOM     50  C   UNL A   1      41.032  32.390  30.443  1.00  0.00     0.031 C 
ATOM     51  C   UNL A   1      45.013  28.548  31.702  1.00  0.00     0.029 A 
ATOM     52  C   UNL A   1      44.269  29.729  31.679  1.00  0.00     0.049 A 
ATOM     53  H   UNL A   1      44.900  31.434  30.605  1.00  0.00     0.167 HD
ATOM     54  C   UNL A   1      42.214  31.095  31.965  1.00  0.00     0.074 A 
ATOM     55  C   UNL A   1      42.250  31.973  30.798  1.00  0.00     0.031 C 
ATOM     56  C   UNL A   1      43.086  30.141  32.409  1.00  0.00     0.034 A 
BRANCH  43  57
ATOM     57  C   UNL A   1      45.712  30.942  27.606  1.00  0.00     0.023 A 
ATOM     58  C   UNL A   1      44.979  31.986  27.013  1.00  0.00     0.031 A 
ATOM     59  C   UNL A   1      47.112  31.124  27.652  1.00  0.00     0.131 A 
ATOM     60  C   UNL A   1      45.610  33.117  26.480  1.00  0.00     0.055 A 
ATOM     61  C   UNL A   1      47.738  32.286  27.181  1.00  0.00     0.041 A 
ATOM     62  F   UNL A   1      47.912  30.199  28.205  1.00  0.00    -0.206 F 
ATOM     63  C   UNL A   1      46.985  33.291  26.589  1.00  0.00     0.022 A 
BRANCH  60  64
ATOM     64  S   UNL A   1      44.638  34.395  25.637  1.00  0.00     0.124 S 
ATOM     65  O   UNL A   1      45.511  35.558  25.748  1.00  0.00    -0.237 OA
ATOM     66  O   UNL A   1      44.506  33.828  24.297  1.00  0.00    -0.237 OA
ATOM     67  O   UNL A   1      43.401  34.447  26.410  1.00  0.00    -0.744 OA
ENDBRANCH  60  64
ENDBRANCH  43  57
BRANCH  44  68
ATOM     68  C   UNL A   1      37.812  32.191  30.709  1.00  0.00     0.023 A 
ATOM     69  C   UNL A   1      37.140  32.811  31.778  1.00  0.00     0.031 A 
ATOM     70  C   UNL A   1      37.224  32.272  29.436  1.00  0.00     0.131 A 
ATOM     71  C   UNL A   1      35.899  33.428  31.574  1.00  0.00     0.055 A 
ATOM     72  C   UNL A   1      35.992  32.908  29.230  1.00  0.00     0.041 A 
ATOM     73  F   UNL A   1      37.794  31.670  28.381  1.00  0.00    -0.206 F 
ATOM     74  C   UNL A   1      35.316  33.475  30.306  1.00  0.00     0.022 A 
BRANCH  71  75
ATOM     75  S   UNL A   1      34.971  34.097  32.980  1.00  0.00     0.124 S 
ATOM     76  O   UNL A   1      35.186  33.078  34.005  1.00  0.00    -0.237 OA
ATOM     77  O   UNL A   1      35.649  35.369  33.203  1.00  0.00    -0.237 OA
ATOM     78  O   UNL A   1      33.603  34.184  32.476  1.00  0.00    -0.744 OA
ENDBRANCH  71  75
ENDBRANCH  44  68
BRANCH  56  79
ATOM     79  C   UNL A   1      42.685  29.258  33.574  1.00  0.00     0.023 A 
ATOM     80  C   UNL A   1      43.389  29.421  34.782  1.00  0.00     0.031 A 
ATOM     81  C   UNL A   1      41.834  28.140  33.468  1.00  0.00     0.131 A 
ATOM     82  C   UNL A   1      43.271  28.472  35.805  1.00  0.00     0.055 A 
ATOM     83  C   UNL A   1      41.657  27.240  34.525  1.00  0.00     0.041 A 
ATOM     84  F   UNL A   1      41.222  27.827  32.319  1.00  0.00    -0.206 F 
ATOM     85  C   UNL A   1      42.389  27.395  35.694  1.00  0.00     0.022 A 
BRANCH  82  86
ATOM     86  S   UNL A   1      44.396  28.505  37.225  1.00  0.00     0.124 S 
ATOM     87  O   UNL A   1      43.950  27.352  38.001  1.00  0.00    -0.237 OA
ATOM     88  O   UNL A   1      45.704  28.359  36.585  1.00  0.00    -0.237 OA
ATOM     89  O   UNL A   1      44.153  29.807  37.839  1.00  0.00    -0.744 OA
ENDBRANCH  82  86
ENDBRANCH  56  79
ENDBRANCH  30  31
ENDBRANCH  22  25
ENDBRANCH   1  21
TORSDOF 14
ENDMDL
MODEL 3
REMARK VINA RESULT:     -11.8      1.754      2.150
REMARK SMILES Cc1ccn2c([C@H]3C[C@@H]3C(=O)NCCCNC(=O)c3ccc(-c4c5nc(c(-c6cc(S(=O)(=O)[O-])ccc6F)c6ccc([nH]6)c(-c6cc(S(=O)(=O)[O-])ccc6F)c6nc(c(-c7cc(S(=O)(=O)[O-])ccc7F)c7ccc4[nH]7)C=C6)C=C5)cc3)nnc2c1
REMARK SMILES IDX 15 1 14 2 13 3 12 4 10 5 11 6 9 8 7 9 8 10 6 11 1 12 2 13
REMARK SMILES IDX 3 14 85 15 4 16 84 17 5 18 83 19 82 20 16 21 17 22 18 24
REMARK SMILES IDX 19 25 20 26 81 27 21 28 80 29 22 30 23 31 24 32 74 33 25 34
REMARK SMILES IDX 79 35 73 36 75 37 26 38 78 39 72 40 71 41 27 43 59 44 39 45
REMARK SMILES IDX 58 46 40 47 43 48 57 49 76 50 41 51 42 52 56 54 77 55 44 56
REMARK SMILES IDX 28 57 29 58 37 59 30 60 36 61 38 62 35 63 31 64 32 65 33 66
REMARK SMILES IDX 34 67 60 68 61 69 69 70 62 71 68 72 70 73 67 74 63 75 64 76
REMARK SMILES IDX 65 77 66 78 45 79 46 80 54 81 47 82 53 83 55 84 52 85 48 86
REMARK SMILES IDX 49 87 50 88 51 89
REMARK H PARENT 12 7 16 23 75 42 43 53
REMARK Flexibility Score: inf
ROOT
ATOM      1  C   UNL A   1      35.156  34.147  28.659  1.00  0.00     0.118 C 
ENDROOT
BRANCH   1   2
ATOM      2  C   UNL A   1      34.435  35.489  28.502  1.00  0.00     0.042 C 
BRANCH   2   3
ATOM      3  C   UNL A   1      33.010  35.482  29.060  1.00  0.00     0.117 C 
BRANCH   3   4
ATOM      4  N   UNL A   1      32.760  36.647  29.893  1.00  0.00    -0.356 N 
ATOM      5  C   UNL A   1      33.186  36.907  31.161  1.00  0.00     0.223 C 
ATOM      6  O   UNL A   1      32.851  37.951  31.723  1.00  0.00    -0.275 OA
ATOM      7  H   UNL A   1      32.203  37.347  29.483  1.00  0.00     0.163 HD
BRANCH   5   8
ATOM      8  C   UNL A   1      34.109  35.973  31.831  1.00  0.00     0.090 C 
ATOM      9  C   UNL A   1      33.650  34.757  32.622  1.00  0.00     0.071 C 
ATOM     10  C   UNL A   1      34.185  35.973  33.333  1.00  0.00     0.026 C 
BRANCH   9  11
ATOM     11  C   UNL A   1      34.535  33.519  32.561  1.00  0.00     0.141 A 
ATOM     12  C   UNL A   1      38.952  31.606  35.379  1.00  0.00     0.044 C 
ATOM     13  C   UNL A   1      37.704  32.081  34.693  1.00  0.00    -0.046 A 
ATOM     14  C   UNL A   1      37.078  33.295  35.219  1.00  0.00     0.022 A 
ATOM     15  C   UNL A   1      37.193  31.453  33.609  1.00  0.00     0.053 A 
ATOM     16  C   UNL A   1      36.010  33.811  34.588  1.00  0.00     0.095 A 
ATOM     17  C   UNL A   1      36.066  32.003  32.940  1.00  0.00     0.161 A 
ATOM     18  N   UNL A   1      35.522  33.170  33.454  1.00  0.00    -0.286 N 
ATOM     19  N   UNL A   1      35.427  31.661  31.841  1.00  0.00    -0.130 NA
ATOM     20  N   UNL A   1      34.484  32.632  31.587  1.00  0.00    -0.134 NA
ENDBRANCH   9  11
ENDBRANCH   5   8
ENDBRANCH   3   4
ENDBRANCH   2   3
ENDBRANCH   1   2
BRANCH   1  21
ATOM     21  N   UNL A   1      34.380  33.016  28.191  1.00  0.00    -0.352 N 
ATOM     22  C   UNL A   1      34.608  31.680  28.019  1.00  0.00     0.251 C 
ATOM     23  H   UNL A   1      33.465  33.273  27.934  1.00  0.00     0.163 HD
ATOM     24  O   UNL A   1      33.629  31.025  27.647  1.00  0.00    -0.269 OA
BRANCH  22  25
ATOM     25  C   UNL A   1      35.916  30.985  28.193  1.00  0.00     0.039 A 
ATOM     26  C   UNL A   1      36.163  29.636  27.949  1.00  0.00     0.014 A 
ATOM     27  C   UNL A   1      36.969  31.777  28.696  1.00  0.00     0.014 A 
ATOM     28  C   UNL A   1      37.397  29.076  28.282  1.00  0.00     0.010 A 
ATOM     29  C   UNL A   1      38.207  31.226  29.018  1.00  0.00     0.010 A 
ATOM     30  C   UNL A   1      38.406  29.860  28.856  1.00  0.00    -0.014 A 
BRANCH  30  31
ATOM     31  C   UNL A   1      39.659  29.200  29.218  1.00  0.00     0.031 A 
ATOM     32  C   UNL A   1      40.090  29.362  30.635  1.00  0.00     0.074 A 
ATOM     33  C   UNL A   1      40.390  28.435  28.382  1.00  0.00     0.049 A 
ATOM     34  N   UNL A   1      41.100  30.029  31.093  1.00  0.00    -0.248 NA
ATOM     35  C   UNL A   1      39.224  28.794  31.676  1.00  0.00     0.031 C 
ATOM     36  C   UNL A   1      40.021  27.890  27.073  1.00  0.00     0.029 A 
ATOM     37  N   UNL A   1      41.632  27.915  28.591  1.00  0.00    -0.354 N 
ATOM     38  C   UNL A   1      41.097  29.844  32.477  1.00  0.00     0.074 A 
ATOM     39  C   UNL A   1      39.854  29.180  32.787  1.00  0.00     0.031 C 
ATOM     40  C   UNL A   1      40.924  26.947  26.713  1.00  0.00     0.029 A 
ATOM     41  C   UNL A   1      42.011  26.944  27.678  1.00  0.00     0.049 A 
ATOM     42  H   UNL A   1      42.214  28.205  29.332  1.00  0.00     0.167 HD
ATOM     43  C   UNL A   1      42.183  30.122  33.256  1.00  0.00     0.034 A 
ATOM     44  C   UNL A   1      43.110  26.153  27.743  1.00  0.00     0.034 A 
ATOM     45  C   UNL A   1      43.156  30.906  32.547  1.00  0.00     0.049 A 
ATOM     46  C   UNL A   1      44.093  26.796  28.648  1.00  0.00     0.074 A 
ATOM     47  C   UNL A   1      43.175  32.178  32.014  1.00  0.00     0.029 A 
ATOM     48  N   UNL A   1      44.231  30.254  31.996  1.00  0.00    -0.354 N 
ATOM     49  N   UNL A   1      44.747  27.887  28.367  1.00  0.00    -0.248 NA
ATOM     50  C   UNL A   1      44.041  26.444  30.058  1.00  0.00     0.031 C 
ATOM     51  C   UNL A   1      43.947  32.065  30.823  1.00  0.00     0.029 A 
ATOM     52  C   UNL A   1      44.396  30.746  30.726  1.00  0.00     0.049 A 
ATOM     53  H   UNL A   1      44.781  29.562  32.430  1.00  0.00     0.167 HD
ATOM     54  C   UNL A   1      44.785  28.586  29.563  1.00  0.00     0.074 A 
ATOM     55  C   UNL A   1      44.434  27.605  30.587  1.00  0.00     0.031 C 
ATOM     56  C   UNL A   1      44.824  29.952  29.591  1.00  0.00     0.034 A 
BRANCH  43  57
ATOM     57  C   UNL A   1      42.488  29.471  34.583  1.00  0.00     0.023 A 
ATOM     58  C   UNL A   1      41.976  28.212  34.944  1.00  0.00     0.031 A 
ATOM     59  C   UNL A   1      43.478  30.000  35.439  1.00  0.00     0.131 A 
ATOM     60  C   UNL A   1      42.409  27.546  36.098  1.00  0.00     0.055 A 
ATOM     61  C   UNL A   1      43.961  29.304  36.556  1.00  0.00     0.041 A 
ATOM     62  F   UNL A   1      44.047  31.189  35.188  1.00  0.00    -0.206 F 
ATOM     63  C   UNL A   1      43.423  28.069  36.892  1.00  0.00     0.022 A 
BRANCH  60  64
ATOM     64  S   UNL A   1      41.654  25.969  36.583  1.00  0.00     0.124 S 
ATOM     65  O   UNL A   1      42.820  25.187  36.978  1.00  0.00    -0.237 OA
ATOM     66  O   UNL A   1      40.772  26.387  37.671  1.00  0.00    -0.237 OA
ATOM     67  O   UNL A   1      40.972  25.532  35.369  1.00  0.00    -0.744 OA
ENDBRANCH  60  64
ENDBRANCH  43  57
BRANCH  44  68
ATOM     68  C   UNL A   1      43.143  24.694  27.488  1.00  0.00     0.023 A 
ATOM     69  C   UNL A   1      44.094  24.171  26.593  1.00  0.00     0.031 A 
ATOM     70  C   UNL A   1      42.061  23.870  27.841  1.00  0.00     0.131 A 
ATOM     71  C   UNL A   1      43.921  22.898  26.035  1.00  0.00     0.055 A 
ATOM     72  C   UNL A   1      41.900  22.588  27.298  1.00  0.00     0.041 A 
ATOM     73  F   UNL A   1      41.099  24.321  28.660  1.00  0.00    -0.206 F 
ATOM     74  C   UNL A   1      42.824  22.104  26.377  1.00  0.00     0.022 A 
BRANCH  71  75
ATOM     75  S   UNL A   1      45.072  22.290  24.774  1.00  0.00     0.124 S 
ATOM     76  O   UNL A   1      45.252  23.467  23.927  1.00  0.00    -0.237 OA
ATOM     77  O   UNL A   1      46.225  21.913  25.583  1.00  0.00    -0.237 OA
ATOM     78  O   UNL A   1      44.344  21.188  24.150  1.00  0.00    -0.744 OA
ENDBRANCH  71  75
ENDBRANCH  44  68
BRANCH  56  79
ATOM     79  C   UNL A   1      45.060  30.712  28.301  1.00  0.00     0.023 A 
ATOM     80  C   UNL A   1      46.362  31.188  28.058  1.00  0.00     0.031 A 
ATOM     81  C   UNL A   1      44.034  31.176  27.454  1.00  0.00     0.131 A 
ATOM     82  C   UNL A   1      46.598  32.121  27.041  1.00  0.00     0.055 A 
ATOM     83  C   UNL A   1      44.289  32.044  26.386  1.00  0.00     0.041 A 
ATOM     84  F   UNL A   1      42.747  30.885  27.681  1.00  0.00    -0.206 F 
ATOM     85  C   UNL A   1      45.573  32.533  26.186  1.00  0.00     0.022 A 
BRANCH  82  86
ATOM     86  S   UNL A   1      48.196  32.965  26.920  1.00  0.00     0.124 S 
ATOM     87  O   UNL A   1      49.108  31.862  26.634  1.00  0.00    -0.237 OA
ATOM     88  O   UNL A   1      47.970  33.892  25.810  1.00  0.00    -0.237 OA
ATOM     89  O   UNL A   1      48.363  33.597  28.225  1.00  0.00    -0.744 OA
ENDBRANCH  82  86
ENDBRANCH  56  79
ENDBRANCH  30  31
ENDBRANCH  22  25
ENDBRANCH   1  21
TORSDOF 14
ENDMDL
