MODEL 1
REMARK VINA RESULT:     -12.8      0.000      0.000
REMARK SMILES Cc1ccc(/C=C(\NC(=O)c2cccc(C)c2)C(=O)NCCCNC(=O)c2ccc(-c3c4nc(c(-c5cc(S(=O)(=O)[O-])ccc5F)c5ccc([nH]5)c(-c5cc(S(=O)(=O)[O-])ccc5F)c5nc(c(-c6cc(S(=O)(=O)[O-])ccc6F)c6ccc3[nH]6)C=C5)C=C4)cc2)cc1
REMARK SMILES IDX 22 1 21 2 20 3 18 4 19 5 7 7 6 8 5 9 1 10 2 11 3 12 91 13
REMARK SMILES IDX 4 14 90 15 8 16 9 17 10 19 11 20 12 21 17 22 13 23 15 24
REMARK SMILES IDX 14 25 16 26 23 27 24 28 25 29 26 31 27 32 28 33 89 34 29 35
REMARK SMILES IDX 88 36 30 37 31 38 32 39 82 40 33 41 87 42 81 43 83 44 34 45
REMARK SMILES IDX 86 46 80 47 79 48 35 50 67 51 47 52 66 53 48 54 51 55 65 56
REMARK SMILES IDX 84 57 49 58 50 59 64 61 85 62 52 63 36 64 37 65 45 66 38 67
REMARK SMILES IDX 44 68 46 69 43 70 39 71 40 72 41 73 42 74 68 75 69 76 77 77
REMARK SMILES IDX 70 78 76 79 78 80 75 81 71 82 72 83 73 84 74 85 53 86 54 87
REMARK SMILES IDX 62 88 55 89 61 90 63 91 60 92 56 93 57 94 58 95 59 96
REMARK H PARENT 20 6 8 18 24 30 83 49 51 60
REMARK Flexibility Score: inf
ROOT
ATOM      1  C   UNL A   1      34.343  29.785  26.733  1.00  0.00     0.042 C 
ENDROOT
BRANCH   1   2
ATOM      2  C   UNL A   1      33.129  29.797  25.813  1.00  0.00     0.118 C 
BRANCH   2   3
ATOM      3  N   UNL A   1      32.079  28.865  26.199  1.00  0.00    -0.351 N 
ATOM      4  C   UNL A   1      31.898  27.525  26.167  1.00  0.00     0.267 C 
ATOM      5  O   UNL A   1      30.926  27.110  26.814  1.00  0.00    -0.268 OA
ATOM      6  H   UNL A   1      31.298  29.330  26.580  1.00  0.00     0.163 HD
BRANCH   4   7
ATOM      7  C   UNL A   1      32.737  26.537  25.370  1.00  0.00     0.107 C 
ATOM      8  C   UNL A   1      33.516  25.720  26.121  1.00  0.00     0.040 C 
BRANCH   8   9
ATOM      9  C   UNL A   1      34.378  24.566  25.762  1.00  0.00    -0.023 A 
ATOM     10  C   UNL A   1      36.759  21.045  24.889  1.00  0.00     0.044 C 
ATOM     11  C   UNL A   1      35.954  22.263  25.222  1.00  0.00    -0.051 A 
ATOM     12  C   UNL A   1      36.022  23.387  24.397  1.00  0.00     0.004 A 
ATOM     13  C   UNL A   1      35.107  22.299  26.332  1.00  0.00     0.004 A 
ATOM     14  C   UNL A   1      35.261  24.527  24.678  1.00  0.00     0.008 A 
ATOM     15  C   UNL A   1      34.333  23.436  26.596  1.00  0.00     0.008 A 
ENDBRANCH   8   9
BRANCH   7  16
ATOM     16  N   UNL A   1      32.569  26.304  24.031  1.00  0.00    -0.317 N 
ATOM     17  C   UNL A   1      31.837  25.326  23.380  1.00  0.00     0.255 C 
ATOM     18  H   UNL A   1      33.044  26.929  23.437  1.00  0.00     0.170 HD
ATOM     19  O   UNL A   1      31.516  25.549  22.209  1.00  0.00    -0.269 OA
BRANCH  17  20
ATOM     20  C   UNL A   1      31.483  24.019  23.990  1.00  0.00     0.040 A 
ATOM     21  C   UNL A   1      32.191  22.910  23.498  1.00  0.00     0.014 A 
ATOM     22  C   UNL A   1      30.653  23.870  25.107  1.00  0.00     0.017 A 
ATOM     23  C   UNL A   1      32.154  21.698  24.181  1.00  0.00     0.001 A 
ATOM     24  C   UNL A   1      30.650  22.666  25.822  1.00  0.00    -0.050 A 
ATOM     25  C   UNL A   1      31.407  21.588  25.353  1.00  0.00     0.003 A 
ATOM     26  C   UNL A   1      29.998  22.578  27.172  1.00  0.00     0.044 C 
ENDBRANCH  17  20
ENDBRANCH   7  16
ENDBRANCH   4   7
ENDBRANCH   2   3
ENDBRANCH   1   2
BRANCH   1  27
ATOM     27  C   UNL A   1      34.107  30.624  27.979  1.00  0.00     0.118 C 
BRANCH  27  28
ATOM     28  N   UNL A   1      35.095  31.654  28.280  1.00  0.00    -0.352 N 
ATOM     29  C   UNL A   1      36.403  31.477  28.726  1.00  0.00     0.251 C 
ATOM     30  H   UNL A   1      34.802  32.585  28.150  1.00  0.00     0.163 HD
ATOM     31  O   UNL A   1      37.077  32.406  29.124  1.00  0.00    -0.269 OA
BRANCH  29  32
ATOM     32  C   UNL A   1      36.995  30.118  28.611  1.00  0.00     0.039 A 
ATOM     33  C   UNL A   1      37.106  29.366  29.787  1.00  0.00     0.014 A 
ATOM     34  C   UNL A   1      37.717  29.772  27.476  1.00  0.00     0.014 A 
ATOM     35  C   UNL A   1      38.152  28.454  29.909  1.00  0.00     0.010 A 
ATOM     36  C   UNL A   1      38.831  28.974  27.644  1.00  0.00     0.010 A 
ATOM     37  C   UNL A   1      39.096  28.379  28.886  1.00  0.00    -0.014 A 
BRANCH  37  38
ATOM     38  C   UNL A   1      40.452  27.852  29.065  1.00  0.00     0.031 A 
ATOM     39  C   UNL A   1      40.778  26.470  28.626  1.00  0.00     0.074 A 
ATOM     40  C   UNL A   1      41.444  28.665  29.506  1.00  0.00     0.049 A 
ATOM     41  N   UNL A   1      41.853  25.824  28.931  1.00  0.00    -0.248 NA
ATOM     42  C   UNL A   1      39.855  25.672  27.827  1.00  0.00     0.031 C 
ATOM     43  C   UNL A   1      42.886  28.425  29.400  1.00  0.00     0.029 A 
ATOM     44  N   UNL A   1      41.376  29.798  30.315  1.00  0.00    -0.354 N 
ATOM     45  C   UNL A   1      41.899  24.674  28.170  1.00  0.00     0.074 A 
ATOM     46  C   UNL A   1      40.599  24.599  27.551  1.00  0.00     0.031 C 
ATOM     47  C   UNL A   1      43.513  29.152  30.339  1.00  0.00     0.029 A 
ATOM     48  C   UNL A   1      42.475  29.714  31.183  1.00  0.00     0.049 A 
ATOM     49  H   UNL A   1      40.697  30.511  30.283  1.00  0.00     0.167 HD
ATOM     50  C   UNL A   1      43.073  23.986  28.066  1.00  0.00     0.034 A 
ATOM     51  C   UNL A   1      42.394  29.527  32.536  1.00  0.00     0.034 A 
ATOM     52  C   UNL A   1      44.072  24.506  29.003  1.00  0.00     0.049 A 
ATOM     53  C   UNL A   1      43.210  28.355  33.041  1.00  0.00     0.074 A 
ATOM     54  C   UNL A   1      45.160  25.353  28.864  1.00  0.00     0.029 A 
ATOM     55  N   UNL A   1      43.855  24.369  30.371  1.00  0.00    -0.354 N 
ATOM     56  N   UNL A   1      43.637  27.382  32.286  1.00  0.00    -0.248 NA
ATOM     57  C   UNL A   1      43.558  28.166  34.446  1.00  0.00     0.031 C 
ATOM     58  C   UNL A   1      45.544  25.787  30.162  1.00  0.00     0.029 A 
ATOM     59  C   UNL A   1      44.716  25.175  31.090  1.00  0.00     0.049 A 
ATOM     60  H   UNL A   1      43.178  23.779  30.772  1.00  0.00     0.167 HD
ATOM     61  C   UNL A   1      44.231  26.424  33.066  1.00  0.00     0.074 A 
ATOM     62  C   UNL A   1      44.205  26.989  34.403  1.00  0.00     0.031 C 
ATOM     63  C   UNL A   1      44.641  25.226  32.547  1.00  0.00     0.034 A 
BRANCH  50  64
ATOM     64  C   UNL A   1      43.424  23.011  26.950  1.00  0.00     0.023 A 
ATOM     65  C   UNL A   1      42.889  21.702  26.990  1.00  0.00     0.031 A 
ATOM     66  C   UNL A   1      44.307  23.250  25.878  1.00  0.00     0.131 A 
ATOM     67  C   UNL A   1      43.297  20.704  26.081  1.00  0.00     0.055 A 
ATOM     68  C   UNL A   1      44.752  22.247  25.005  1.00  0.00     0.041 A 
ATOM     69  F   UNL A   1      44.744  24.474  25.572  1.00  0.00    -0.206 F 
ATOM     70  C   UNL A   1      44.256  20.961  25.109  1.00  0.00     0.022 A 
BRANCH  67  71
ATOM     71  S   UNL A   1      42.557  19.049  26.180  1.00  0.00     0.124 S 
ATOM     72  O   UNL A   1      41.350  19.201  25.376  1.00  0.00    -0.237 OA
ATOM     73  O   UNL A   1      43.608  18.206  25.622  1.00  0.00    -0.237 OA
ATOM     74  O   UNL A   1      42.322  18.868  27.613  1.00  0.00    -0.744 OA
ENDBRANCH  67  71
ENDBRANCH  50  64
BRANCH  51  75
ATOM     75  C   UNL A   1      41.113  29.959  33.158  1.00  0.00     0.023 A 
ATOM     76  C   UNL A   1      40.954  31.332  33.409  1.00  0.00     0.031 A 
ATOM     77  C   UNL A   1      39.966  29.153  33.142  1.00  0.00     0.131 A 
ATOM     78  C   UNL A   1      39.672  31.892  33.412  1.00  0.00     0.055 A 
ATOM     79  C   UNL A   1      38.685  29.709  33.251  1.00  0.00     0.041 A 
ATOM     80  F   UNL A   1      40.054  27.840  32.888  1.00  0.00    -0.206 F 
ATOM     81  C   UNL A   1      38.530  31.092  33.339  1.00  0.00     0.022 A 
BRANCH  78  82
ATOM     82  S   UNL A   1      39.563  33.686  33.188  1.00  0.00     0.124 S 
ATOM     83  O   UNL A   1      38.310  34.010  33.861  1.00  0.00    -0.237 OA
ATOM     84  O   UNL A   1      40.783  34.124  33.862  1.00  0.00    -0.237 OA
ATOM     85  O   UNL A   1      39.558  33.855  31.740  1.00  0.00    -0.744 OA
ENDBRANCH  78  82
ENDBRANCH  51  75
BRANCH  63  86
ATOM     86  C   UNL A   1      45.042  24.015  33.365  1.00  0.00     0.023 A 
ATOM     87  C   UNL A   1      46.286  23.894  34.003  1.00  0.00     0.031 A 
ATOM     88  C   UNL A   1      44.134  22.955  33.600  1.00  0.00     0.131 A 
ATOM     89  C   UNL A   1      46.630  22.741  34.732  1.00  0.00     0.055 A 
ATOM     90  C   UNL A   1      44.442  21.851  34.402  1.00  0.00     0.041 A 
ATOM     91  F   UNL A   1      42.901  22.953  33.071  1.00  0.00    -0.206 F 
ATOM     92  C   UNL A   1      45.707  21.726  34.958  1.00  0.00     0.022 A 
BRANCH  89  93
ATOM     93  S   UNL A   1      48.340  22.572  35.303  1.00  0.00     0.124 S 
ATOM     94  O   UNL A   1      48.502  21.120  35.336  1.00  0.00    -0.237 OA
ATOM     95  O   UNL A   1      49.089  23.267  34.261  1.00  0.00    -0.237 OA
ATOM     96  O   UNL A   1      48.336  23.224  36.610  1.00  0.00    -0.744 OA
ENDBRANCH  89  93
ENDBRANCH  63  86
ENDBRANCH  37  38
ENDBRANCH  29  32
ENDBRANCH  27  28
ENDBRANCH   1  27
TORSDOF 16
ENDMDL
MODEL 2
REMARK VINA RESULT:     -12.7      4.286     10.487
REMARK SMILES Cc1ccc(/C=C(\NC(=O)c2cccc(C)c2)C(=O)NCCCNC(=O)c2ccc(-c3c4nc(c(-c5cc(S(=O)(=O)[O-])ccc5F)c5ccc([nH]5)c(-c5cc(S(=O)(=O)[O-])ccc5F)c5nc(c(-c6cc(S(=O)(=O)[O-])ccc6F)c6ccc3[nH]6)C=C5)C=C4)cc2)cc1
REMARK SMILES IDX 22 1 21 2 20 3 18 4 19 5 7 7 6 8 5 9 1 10 2 11 3 12 91 13
REMARK SMILES IDX 4 14 90 15 8 16 9 17 10 19 11 20 12 21 17 22 13 23 15 24
REMARK SMILES IDX 14 25 16 26 23 27 24 28 25 29 26 31 27 32 28 33 89 34 29 35
REMARK SMILES IDX 88 36 30 37 31 38 32 39 82 40 33 41 87 42 81 43 83 44 34 45
REMARK SMILES IDX 86 46 80 47 79 48 35 50 67 51 47 52 66 53 48 54 51 55 65 56
REMARK SMILES IDX 84 57 49 58 50 59 64 61 85 62 52 63 36 64 37 65 45 66 38 67
REMARK SMILES IDX 44 68 46 69 43 70 39 71 40 72 41 73 42 74 68 75 69 76 77 77
REMARK SMILES IDX 70 78 76 79 78 80 75 81 71 82 72 83 73 84 74 85 53 86 54 87
REMARK SMILES IDX 62 88 55 89 61 90 63 91 60 92 56 93 57 94 58 95 59 96
REMARK H PARENT 20 6 8 18 24 30 83 49 51 60
REMARK Flexibility Score: inf
ROOT
ATOM      1  C   UNL A   1      37.841  22.376  26.205  1.00  0.00     0.042 C 
ENDROOT
BRANCH   1   2
ATOM      2  C   UNL A   1      36.723  23.358  25.880  1.00  0.00     0.118 C 
BRANCH   2   3
ATOM      3  N   UNL A   1      35.599  22.768  25.167  1.00  0.00    -0.351 N 
ATOM      4  C   UNL A   1      34.323  23.120  24.886  1.00  0.00     0.267 C 
ATOM      5  O   UNL A   1      33.756  22.412  24.042  1.00  0.00    -0.268 OA
ATOM      6  H   UNL A   1      35.825  21.885  24.793  1.00  0.00     0.163 HD
BRANCH   4   7
ATOM      7  C   UNL A   1      33.546  24.242  25.559  1.00  0.00     0.107 C 
ATOM      8  C   UNL A   1      33.995  25.490  25.275  1.00  0.00     0.040 C 
BRANCH   8   9
ATOM      9  C   UNL A   1      33.469  26.835  25.618  1.00  0.00    -0.023 A 
ATOM     10  C   UNL A   1      31.933  30.825  26.361  1.00  0.00     0.044 C 
ATOM     11  C   UNL A   1      32.495  29.462  26.097  1.00  0.00    -0.051 A 
ATOM     12  C   UNL A   1      32.477  28.497  27.105  1.00  0.00     0.004 A 
ATOM     13  C   UNL A   1      33.018  29.116  24.850  1.00  0.00     0.004 A 
ATOM     14  C   UNL A   1      32.977  27.211  26.872  1.00  0.00     0.008 A 
ATOM     15  C   UNL A   1      33.499  27.821  24.618  1.00  0.00     0.008 A 
ENDBRANCH   8   9
BRANCH   7  16
ATOM     16  N   UNL A   1      32.353  24.060  26.206  1.00  0.00    -0.317 N 
ATOM     17  C   UNL A   1      31.057  24.212  25.748  1.00  0.00     0.255 C 
ATOM     18  H   UNL A   1      32.430  23.776  27.146  1.00  0.00     0.170 HD
ATOM     19  O   UNL A   1      30.168  23.621  26.367  1.00  0.00    -0.269 OA
BRANCH  17  20
ATOM     20  C   UNL A   1      30.684  25.088  24.608  1.00  0.00     0.040 A 
ATOM     21  C   UNL A   1      29.943  26.234  24.942  1.00  0.00     0.014 A 
ATOM     22  C   UNL A   1      31.169  24.934  23.304  1.00  0.00     0.017 A 
ATOM     23  C   UNL A   1      29.786  27.259  24.015  1.00  0.00     0.001 A 
ATOM     24  C   UNL A   1      31.053  25.983  22.384  1.00  0.00    -0.050 A 
ATOM     25  C   UNL A   1      30.363  27.143  22.751  1.00  0.00     0.003 A 
ATOM     26  C   UNL A   1      31.810  25.954  21.088  1.00  0.00     0.044 C 
ENDBRANCH  17  20
ENDBRANCH   7  16
ENDBRANCH   4   7
ENDBRANCH   2   3
ENDBRANCH   1   2
BRANCH   1  27
ATOM     27  C   UNL A   1      39.194  22.901  25.752  1.00  0.00     0.118 C 
BRANCH  27  28
ATOM     28  N   UNL A   1      40.286  22.834  26.716  1.00  0.00    -0.352 N 
ATOM     29  C   UNL A   1      40.865  23.885  27.425  1.00  0.00     0.251 C 
ATOM     30  H   UNL A   1      40.658  21.938  26.887  1.00  0.00     0.163 HD
ATOM     31  O   UNL A   1      41.890  23.744  28.059  1.00  0.00    -0.269 OA
BRANCH  29  32
ATOM     32  C   UNL A   1      40.132  25.178  27.463  1.00  0.00     0.039 A 
ATOM     33  C   UNL A   1      40.595  26.202  26.628  1.00  0.00     0.014 A 
ATOM     34  C   UNL A   1      39.277  25.458  28.523  1.00  0.00     0.014 A 
ATOM     35  C   UNL A   1      40.436  27.527  27.030  1.00  0.00     0.010 A 
ATOM     36  C   UNL A   1      39.241  26.756  28.990  1.00  0.00     0.010 A 
ATOM     37  C   UNL A   1      39.890  27.782  28.288  1.00  0.00    -0.014 A 
BRANCH  37  38
ATOM     38  C   UNL A   1      40.092  29.032  29.025  1.00  0.00     0.031 A 
ATOM     39  C   UNL A   1      39.043  30.085  29.007  1.00  0.00     0.074 A 
ATOM     40  C   UNL A   1      41.171  29.178  29.833  1.00  0.00     0.049 A 
ATOM     41  N   UNL A   1      39.196  31.299  29.420  1.00  0.00    -0.248 NA
ATOM     42  C   UNL A   1      37.716  29.848  28.450  1.00  0.00     0.031 C 
ATOM     43  C   UNL A   1      41.343  30.173  30.895  1.00  0.00     0.029 A 
ATOM     44  N   UNL A   1      42.430  28.585  29.756  1.00  0.00    -0.354 N 
ATOM     45  C   UNL A   1      37.958  31.906  29.448  1.00  0.00     0.074 A 
ATOM     46  C   UNL A   1      37.085  30.979  28.773  1.00  0.00     0.031 C 
ATOM     47  C   UNL A   1      42.656  30.333  31.126  1.00  0.00     0.029 A 
ATOM     48  C   UNL A   1      43.348  29.593  30.087  1.00  0.00     0.049 A 
ATOM     49  H   UNL A   1      42.634  27.650  29.519  1.00  0.00     0.167 HD
ATOM     50  C   UNL A   1      37.799  33.071  30.143  1.00  0.00     0.034 A 
ATOM     51  C   UNL A   1      44.258  30.140  29.224  1.00  0.00     0.034 A 
ATOM     52  C   UNL A   1      39.093  33.602  30.581  1.00  0.00     0.049 A 
ATOM     53  C   UNL A   1      44.190  31.652  29.141  1.00  0.00     0.074 A 
ATOM     54  C   UNL A   1      39.771  33.584  31.788  1.00  0.00     0.029 A 
ATOM     55  N   UNL A   1      40.005  34.037  29.625  1.00  0.00    -0.354 N 
ATOM     56  N   UNL A   1      43.162  32.359  29.519  1.00  0.00    -0.248 NA
ATOM     57  C   UNL A   1      45.255  32.473  28.573  1.00  0.00     0.031 C 
ATOM     58  C   UNL A   1      41.125  33.935  31.533  1.00  0.00     0.029 A 
ATOM     59  C   UNL A   1      41.259  34.205  30.180  1.00  0.00     0.049 A 
ATOM     60  H   UNL A   1      39.787  34.201  28.680  1.00  0.00     0.167 HD
ATOM     61  C   UNL A   1      43.369  33.675  29.197  1.00  0.00     0.074 A 
ATOM     62  C   UNL A   1      44.716  33.701  28.658  1.00  0.00     0.031 C 
ATOM     63  C   UNL A   1      42.388  34.617  29.352  1.00  0.00     0.034 A 
BRANCH  50  64
ATOM     64  C   UNL A   1      36.472  33.612  30.658  1.00  0.00     0.023 A 
ATOM     65  C   UNL A   1      35.570  34.202  29.742  1.00  0.00     0.031 A 
ATOM     66  C   UNL A   1      36.053  33.654  32.003  1.00  0.00     0.131 A 
ATOM     67  C   UNL A   1      34.401  34.864  30.172  1.00  0.00     0.055 A 
ATOM     68  C   UNL A   1      34.917  34.354  32.437  1.00  0.00     0.041 A 
ATOM     69  F   UNL A   1      36.676  32.974  32.968  1.00  0.00    -0.206 F 
ATOM     70  C   UNL A   1      34.089  34.975  31.521  1.00  0.00     0.022 A 
BRANCH  67  71
ATOM     71  S   UNL A   1      33.280  35.586  28.939  1.00  0.00     0.124 S 
ATOM     72  O   UNL A   1      32.438  36.452  29.757  1.00  0.00    -0.237 OA
ATOM     73  O   UNL A   1      34.207  36.251  28.031  1.00  0.00    -0.237 OA
ATOM     74  O   UNL A   1      32.600  34.420  28.376  1.00  0.00    -0.744 OA
ENDBRANCH  67  71
ENDBRANCH  50  64
BRANCH  51  75
ATOM     75  C   UNL A   1      44.638  29.276  28.074  1.00  0.00     0.023 A 
ATOM     76  C   UNL A   1      45.610  28.289  28.309  1.00  0.00     0.031 A 
ATOM     77  C   UNL A   1      43.829  29.149  26.935  1.00  0.00     0.131 A 
ATOM     78  C   UNL A   1      45.601  27.114  27.550  1.00  0.00     0.055 A 
ATOM     79  C   UNL A   1      43.899  28.015  26.116  1.00  0.00     0.041 A 
ATOM     80  F   UNL A   1      42.872  30.050  26.671  1.00  0.00    -0.206 F 
ATOM     81  C   UNL A   1      44.755  26.966  26.449  1.00  0.00     0.022 A 
BRANCH  78  82
ATOM     82  S   UNL A   1      46.484  25.690  28.238  1.00  0.00     0.124 S 
ATOM     83  O   UNL A   1      47.780  26.263  28.586  1.00  0.00    -0.237 OA
ATOM     84  O   UNL A   1      45.617  25.343  29.362  1.00  0.00    -0.237 OA
ATOM     85  O   UNL A   1      46.498  24.728  27.143  1.00  0.00    -0.744 OA
ENDBRANCH  78  82
ENDBRANCH  51  75
BRANCH  63  86
ATOM     86  C   UNL A   1      42.425  36.016  28.771  1.00  0.00     0.023 A 
ATOM     87  C   UNL A   1      43.015  37.107  29.427  1.00  0.00     0.031 A 
ATOM     88  C   UNL A   1      41.927  36.284  27.474  1.00  0.00     0.131 A 
ATOM     89  C   UNL A   1      43.005  38.396  28.864  1.00  0.00     0.055 A 
ATOM     90  C   UNL A   1      42.001  37.547  26.875  1.00  0.00     0.041 A 
ATOM     91  F   UNL A   1      41.359  35.327  26.724  1.00  0.00    -0.206 F 
ATOM     92  C   UNL A   1      42.523  38.622  27.579  1.00  0.00     0.022 A 
BRANCH  89  93
ATOM     93  S   UNL A   1      43.564  39.780  29.892  1.00  0.00     0.124 S 
ATOM     94  O   UNL A   1      42.433  40.700  29.794  1.00  0.00    -0.237 OA
ATOM     95  O   UNL A   1      43.752  39.147  31.194  1.00  0.00    -0.237 OA
ATOM     96  O   UNL A   1      44.787  40.229  29.233  1.00  0.00    -0.744 OA
ENDBRANCH  89  93
ENDBRANCH  63  86
ENDBRANCH  37  38
ENDBRANCH  29  32
ENDBRANCH  27  28
ENDBRANCH   1  27
TORSDOF 16
ENDMDL
MODEL 3
REMARK VINA RESULT:     -12.5      4.263     10.352
REMARK SMILES Cc1ccc(/C=C(\NC(=O)c2cccc(C)c2)C(=O)NCCCNC(=O)c2ccc(-c3c4nc(c(-c5cc(S(=O)(=O)[O-])ccc5F)c5ccc([nH]5)c(-c5cc(S(=O)(=O)[O-])ccc5F)c5nc(c(-c6cc(S(=O)(=O)[O-])ccc6F)c6ccc3[nH]6)C=C5)C=C4)cc2)cc1
REMARK SMILES IDX 22 1 21 2 20 3 18 4 19 5 7 7 6 8 5 9 1 10 2 11 3 12 91 13
REMARK SMILES IDX 4 14 90 15 8 16 9 17 10 19 11 20 12 21 17 22 13 23 15 24
REMARK SMILES IDX 14 25 16 26 23 27 24 28 25 29 26 31 27 32 28 33 89 34 29 35
REMARK SMILES IDX 88 36 30 37 31 38 32 39 82 40 33 41 87 42 81 43 83 44 34 45
REMARK SMILES IDX 86 46 80 47 79 48 35 50 67 51 47 52 66 53 48 54 51 55 65 56
REMARK SMILES IDX 84 57 49 58 50 59 64 61 85 62 52 63 36 64 37 65 45 66 38 67
REMARK SMILES IDX 44 68 46 69 43 70 39 71 40 72 41 73 42 74 68 75 69 76 77 77
REMARK SMILES IDX 70 78 76 79 78 80 75 81 71 82 72 83 73 84 74 85 53 86 54 87
REMARK SMILES IDX 62 88 55 89 61 90 63 91 60 92 56 93 57 94 58 95 59 96
REMARK H PARENT 20 6 8 18 24 30 83 49 51 60
REMARK Flexibility Score: inf
ROOT
ATOM      1  C   UNL A   1      38.842  21.253  25.390  1.00  0.00     0.042 C 
ENDROOT
BRANCH   1   2
ATOM      2  C   UNL A   1      37.336  21.035  25.323  1.00  0.00     0.118 C 
BRANCH   2   3
ATOM      3  N   UNL A   1      36.691  21.671  24.183  1.00  0.00    -0.351 N 
ATOM      4  C   UNL A   1      35.860  22.720  23.986  1.00  0.00     0.267 C 
ATOM      5  O   UNL A   1      35.721  23.067  22.805  1.00  0.00    -0.268 OA
ATOM      6  H   UNL A   1      36.918  21.220  23.336  1.00  0.00     0.163 HD
BRANCH   4   7
ATOM      7  C   UNL A   1      35.062  23.432  25.069  1.00  0.00     0.107 C 
ATOM      8  C   UNL A   1      34.768  24.727  24.796  1.00  0.00     0.040 C 
BRANCH   8   9
ATOM      9  C   UNL A   1      33.932  25.725  25.508  1.00  0.00    -0.023 A 
ATOM     10  C   UNL A   1      31.300  28.456  27.616  1.00  0.00     0.044 C 
ATOM     11  C   UNL A   1      32.187  27.516  26.860  1.00  0.00    -0.051 A 
ATOM     12  C   UNL A   1      33.525  27.847  26.644  1.00  0.00     0.004 A 
ATOM     13  C   UNL A   1      31.715  26.292  26.381  1.00  0.00     0.004 A 
ATOM     14  C   UNL A   1      34.376  26.972  25.959  1.00  0.00     0.008 A 
ATOM     15  C   UNL A   1      32.578  25.413  25.713  1.00  0.00     0.008 A 
ENDBRANCH   8   9
BRANCH   7  16
ATOM     16  N   UNL A   1      34.474  22.791  26.127  1.00  0.00    -0.317 N 
ATOM     17  C   UNL A   1      33.738  21.620  26.164  1.00  0.00     0.255 C 
ATOM     18  H   UNL A   1      34.594  23.233  26.998  1.00  0.00     0.170 HD
ATOM     19  O   UNL A   1      33.655  21.041  27.251  1.00  0.00    -0.269 OA
BRANCH  17  20
ATOM     20  C   UNL A   1      33.002  21.073  24.996  1.00  0.00     0.040 A 
ATOM     21  C   UNL A   1      32.501  22.027  24.095  1.00  0.00     0.014 A 
ATOM     22  C   UNL A   1      32.947  19.714  24.666  1.00  0.00     0.017 A 
ATOM     23  C   UNL A   1      32.053  21.634  22.837  1.00  0.00     0.001 A 
ATOM     24  C   UNL A   1      32.540  19.320  23.385  1.00  0.00    -0.050 A 
ATOM     25  C   UNL A   1      32.100  20.289  22.477  1.00  0.00     0.003 A 
ATOM     26  C   UNL A   1      32.745  17.908  22.916  1.00  0.00     0.044 C 
ENDBRANCH  17  20
ENDBRANCH   7  16
ENDBRANCH   4   7
ENDBRANCH   2   3
ENDBRANCH   1   2
BRANCH   1  27
ATOM     27  C   UNL A   1      39.196  22.441  26.269  1.00  0.00     0.118 C 
BRANCH  27  28
ATOM     28  N   UNL A   1      40.610  22.656  26.554  1.00  0.00    -0.352 N 
ATOM     29  C   UNL A   1      41.274  23.871  26.713  1.00  0.00     0.251 C 
ATOM     30  H   UNL A   1      41.161  21.845  26.646  1.00  0.00     0.163 HD
ATOM     31  O   UNL A   1      42.485  23.940  26.760  1.00  0.00    -0.269 OA
BRANCH  29  32
ATOM     32  C   UNL A   1      40.446  25.089  26.920  1.00  0.00     0.039 A 
ATOM     33  C   UNL A   1      40.760  26.216  26.153  1.00  0.00     0.014 A 
ATOM     34  C   UNL A   1      39.657  25.202  28.059  1.00  0.00     0.014 A 
ATOM     35  C   UNL A   1      40.528  27.483  26.685  1.00  0.00     0.010 A 
ATOM     36  C   UNL A   1      39.554  26.447  28.644  1.00  0.00     0.010 A 
ATOM     37  C   UNL A   1      40.063  27.582  27.996  1.00  0.00    -0.014 A 
BRANCH  37  38
ATOM     38  C   UNL A   1      40.221  28.777  28.828  1.00  0.00     0.031 A 
ATOM     39  C   UNL A   1      39.169  29.826  28.833  1.00  0.00     0.074 A 
ATOM     40  C   UNL A   1      41.259  28.867  29.697  1.00  0.00     0.049 A 
ATOM     41  N   UNL A   1      39.294  31.008  29.338  1.00  0.00    -0.248 NA
ATOM     42  C   UNL A   1      37.871  29.626  28.196  1.00  0.00     0.031 C 
ATOM     43  C   UNL A   1      41.373  29.785  30.834  1.00  0.00     0.029 A 
ATOM     44  N   UNL A   1      42.524  28.284  29.640  1.00  0.00    -0.354 N 
ATOM     45  C   UNL A   1      38.053  31.609  29.348  1.00  0.00     0.074 A 
ATOM     46  C   UNL A   1      37.220  30.730  28.566  1.00  0.00     0.031 C 
ATOM     47  C   UNL A   1      42.673  29.931  31.139  1.00  0.00     0.029 A 
ATOM     48  C   UNL A   1      43.419  29.268  30.086  1.00  0.00     0.049 A 
ATOM     49  H   UNL A   1      42.744  27.369  29.348  1.00  0.00     0.167 HD
ATOM     50  C   UNL A   1      37.854  32.721  30.114  1.00  0.00     0.034 A 
ATOM     51  C   UNL A   1      44.366  29.877  29.309  1.00  0.00     0.034 A 
ATOM     52  C   UNL A   1      39.121  33.223  30.652  1.00  0.00     0.049 A 
ATOM     53  C   UNL A   1      44.294  31.390  29.330  1.00  0.00     0.074 A 
ATOM     54  C   UNL A   1      39.740  33.120  31.887  1.00  0.00     0.029 A 
ATOM     55  N   UNL A   1      40.077  33.726  29.775  1.00  0.00    -0.354 N 
ATOM     56  N   UNL A   1      43.245  32.067  29.706  1.00  0.00    -0.248 NA
ATOM     57  C   UNL A   1      45.381  32.252  28.875  1.00  0.00     0.031 C 
ATOM     58  C   UNL A   1      41.103  33.492  31.724  1.00  0.00     0.029 A 
ATOM     59  C   UNL A   1      41.301  33.857  30.402  1.00  0.00     0.049 A 
ATOM     60  H   UNL A   1      39.905  33.957  28.834  1.00  0.00     0.167 HD
ATOM     61  C   UNL A   1      43.460  33.403  29.488  1.00  0.00     0.074 A 
ATOM     62  C   UNL A   1      44.832  33.470  29.020  1.00  0.00     0.031 C 
ATOM     63  C   UNL A   1      42.467  34.329  29.662  1.00  0.00     0.034 A 
BRANCH  50  64
ATOM     64  C   UNL A   1      36.500  33.221  30.601  1.00  0.00     0.023 A 
ATOM     65  C   UNL A   1      35.712  34.017  29.737  1.00  0.00     0.031 A 
ATOM     66  C   UNL A   1      35.952  33.033  31.885  1.00  0.00     0.131 A 
ATOM     67  C   UNL A   1      34.528  34.644  30.176  1.00  0.00     0.055 A 
ATOM     68  C   UNL A   1      34.802  33.694  32.340  1.00  0.00     0.041 A 
ATOM     69  F   UNL A   1      36.455  32.154  32.756  1.00  0.00    -0.206 F 
ATOM     70  C   UNL A   1      34.088  34.515  31.488  1.00  0.00     0.022 A 
BRANCH  67  71
ATOM     71  S   UNL A   1      33.557  35.638  29.008  1.00  0.00     0.124 S 
ATOM     72  O   UNL A   1      33.167  36.782  29.825  1.00  0.00    -0.237 OA
ATOM     73  O   UNL A   1      34.522  35.897  27.946  1.00  0.00    -0.237 OA
ATOM     74  O   UNL A   1      32.459  34.746  28.635  1.00  0.00    -0.744 OA
ENDBRANCH  67  71
ENDBRANCH  50  64
BRANCH  51  75
ATOM     75  C   UNL A   1      44.807  29.097  28.121  1.00  0.00     0.023 A 
ATOM     76  C   UNL A   1      45.769  28.095  28.334  1.00  0.00     0.031 A 
ATOM     77  C   UNL A   1      44.057  29.052  26.937  1.00  0.00     0.131 A 
ATOM     78  C   UNL A   1      45.802  26.978  27.494  1.00  0.00     0.055 A 
ATOM     79  C   UNL A   1      44.172  27.980  26.044  1.00  0.00     0.041 A 
ATOM     80  F   UNL A   1      43.112  29.970  26.689  1.00  0.00    -0.206 F 
ATOM     81  C   UNL A   1      45.014  26.910  26.343  1.00  0.00     0.022 A 
BRANCH  78  82
ATOM     82  S   UNL A   1      46.653  25.508  28.122  1.00  0.00     0.124 S 
ATOM     83  O   UNL A   1      47.934  26.051  28.563  1.00  0.00    -0.237 OA
ATOM     84  O   UNL A   1      45.738  25.089  29.181  1.00  0.00    -0.237 OA
ATOM     85  O   UNL A   1      46.714  24.621  26.966  1.00  0.00    -0.744 OA
ENDBRANCH  78  82
ENDBRANCH  51  75
BRANCH  63  86
ATOM     86  C   UNL A   1      42.525  35.766  29.183  1.00  0.00     0.023 A 
ATOM     87  C   UNL A   1      43.302  36.754  29.806  1.00  0.00     0.031 A 
ATOM     88  C   UNL A   1      41.847  36.176  28.011  1.00  0.00     0.131 A 
ATOM     89  C   UNL A   1      43.307  38.084  29.346  1.00  0.00     0.055 A 
ATOM     90  C   UNL A   1      41.926  37.477  27.499  1.00  0.00     0.041 A 
ATOM     91  F   UNL A   1      41.087  35.327  27.302  1.00  0.00    -0.206 F 
ATOM     92  C   UNL A   1      42.643  38.449  28.180  1.00  0.00     0.022 A 
BRANCH  89  93
ATOM     93  S   UNL A   1      44.138  39.334  30.360  1.00  0.00     0.124 S 
ATOM     94  O   UNL A   1      43.713  40.574  29.714  1.00  0.00    -0.237 OA
ATOM     95  O   UNL A   1      43.576  39.088  31.684  1.00  0.00    -0.237 OA
ATOM     96  O   UNL A   1      45.555  39.013  30.214  1.00  0.00    -0.744 OA
ENDBRANCH  89  93
ENDBRANCH  63  86
ENDBRANCH  37  38
ENDBRANCH  29  32
ENDBRANCH  27  28
ENDBRANCH   1  27
TORSDOF 16
ENDMDL
