MODEL 1
REMARK VINA RESULT:     -12.2      0.000      0.000
REMARK SMILES COc1cc(/C=C2/C(=O)N(c3ccccc3)C(=O)[NH+]=C2NCCCNC(=O)c2ccc(-c3c4nc(c(-c5cc(S(=O)(=O)[O-])ccc5F)c5ccc([nH]5)c(-c5cc(S(=O)(=O)[O-])ccc5F)c5nc(c(-c6cc(S(=O)(=O)[O-])ccc6F)c6ccc3[nH]6)C=C5)C=C4)cc2)ccc1OCC(=O)[O-]
REMARK SMILES IDX 23 1 22 2 21 3 6 4 7 5 8 6 20 7 9 8 10 9 19 10 17 11 18 14
REMARK SMILES IDX 5 15 3 16 4 17 93 18 92 19 91 20 2 21 1 22 94 23 95 24 96 25
REMARK SMILES IDX 97 26 98 27 11 28 12 29 16 30 13 31 15 32 14 33 24 34 25 35
REMARK SMILES IDX 26 36 27 38 28 39 29 40 90 41 30 42 89 43 31 44 32 45 33 46
REMARK SMILES IDX 83 47 34 48 88 49 82 50 84 51 35 52 87 53 81 54 80 55 36 57
REMARK SMILES IDX 68 58 48 59 67 60 49 61 52 62 66 63 85 64 50 65 51 66 65 68
REMARK SMILES IDX 86 69 53 70 37 71 38 72 46 73 39 74 45 75 47 76 44 77 40 78
REMARK SMILES IDX 41 79 42 80 43 81 69 82 70 83 78 84 71 85 77 86 79 87 76 88
REMARK SMILES IDX 72 89 73 90 74 91 75 92 54 93 55 94 63 95 56 96 62 97 64 98
REMARK SMILES IDX 61 99 57 100 58 101 59 102 60 103
REMARK H PARENT 19 12 21 13 25 37 84 56 52 67
REMARK Flexibility Score: inf
ROOT
ATOM      1  C   UNL A   1      48.813  23.786  37.838  1.00  0.00     0.059 C 
ENDROOT
BRANCH   1   2
ATOM      2  C   UNL A   1      48.115  21.883  38.684  1.00  0.00     0.195 C 
BRANCH   2   3
ATOM      3  N   UNL A   1      47.157  21.604  39.949  1.00  0.00    -0.305 N 
ATOM      4  C   UNL A   1      46.679  19.189  38.178  1.00  0.00     0.030 C 
ATOM      5  C   UNL A   1      46.482  19.194  39.504  1.00  0.00     0.129 C 
ATOM      6  C   UNL A   1      46.192  17.958  40.254  1.00  0.00     0.328 C 
ATOM      7  C   UNL A   1      46.459  20.459  40.284  1.00  0.00     0.236 C 
ATOM      8  O   UNL A   1      46.602  16.870  39.855  1.00  0.00    -0.249 OA
ATOM      9  N   UNL A   1      45.398  18.186  41.368  1.00  0.00    -0.155 N 
ATOM     10  N   UNL A   1      45.676  20.538  41.320  1.00  0.00    -0.209 N 
ATOM     11  C   UNL A   1      44.890  19.456  41.653  1.00  0.00     0.448 C 
ATOM     12  H   UNL A   1      45.645  21.360  41.860  1.00  0.00     0.270 HD
ATOM     13  H   UNL A   1      47.054  22.358  40.574  1.00  0.00     0.256 HD
ATOM     14  O   UNL A   1      43.804  19.635  42.199  1.00  0.00    -0.212 OA
BRANCH   4  15
ATOM     15  C   UNL A   1      47.057  20.466  37.580  1.00  0.00    -0.021 A 
ATOM     16  C   UNL A   1      48.570  21.671  35.104  1.00  0.00     0.161 A 
ATOM     17  C   UNL A   1      48.568  20.578  36.540  1.00  0.00     0.058 A 
ATOM     18  C   UNL A   1      47.187  22.770  34.801  1.00  0.00     0.161 A 
ATOM     19  C   UNL A   1      45.738  22.713  35.866  1.00  0.00     0.051 A 
ATOM     20  C   UNL A   1      45.670  21.579  37.275  1.00  0.00     0.012 A 
BRANCH  16  21
ATOM     21  O   UNL A   1      49.145  21.256  33.912  1.00  0.00    -0.493 OA
ATOM     22  C   UNL A   1      50.514  20.900  33.934  1.00  0.00     0.278 C 
ENDBRANCH  16  21
BRANCH  18  23
ATOM     23  O   UNL A   1      47.125  23.707  33.806  1.00  0.00    -0.484 OA
BRANCH  23  24
ATOM     24  C   UNL A   1      48.063  24.762  33.685  1.00  0.00     0.282 C 
BRANCH  24  25
ATOM     25  C   UNL A   1      49.598  24.673  33.524  1.00  0.00     0.079 C 
ATOM     26  O   UNL A   1      50.373  24.652  34.470  1.00  0.00    -0.546 OA
ATOM     27  O   UNL A   1      50.043  24.695  32.258  1.00  0.00    -0.546 OA
ENDBRANCH  24  25
ENDBRANCH  23  24
ENDBRANCH  18  23
ENDBRANCH   4  15
BRANCH   9  28
ATOM     28  C   UNL A   1      44.966  17.070  42.130  1.00  0.00     0.111 A 
ATOM     29  C   UNL A   1      43.801  16.366  41.807  1.00  0.00     0.044 A 
ATOM     30  C   UNL A   1      45.713  16.693  43.254  1.00  0.00     0.044 A 
ATOM     31  C   UNL A   1      43.395  15.289  42.596  1.00  0.00     0.004 A 
ATOM     32  C   UNL A   1      45.284  15.640  44.061  1.00  0.00     0.004 A 
ATOM     33  C   UNL A   1      44.129  14.934  43.727  1.00  0.00     0.000 A 
ENDBRANCH   9  28
ENDBRANCH   2   3
ENDBRANCH   1   2
BRANCH   1  34
ATOM     34  C   UNL A   1      48.158  25.212  37.211  1.00  0.00     0.119 C 
BRANCH  34  35
ATOM     35  N   UNL A   1      47.065  25.776  38.004  1.00  0.00    -0.352 N 
ATOM     36  C   UNL A   1      45.817  26.276  37.771  1.00  0.00     0.251 C 
ATOM     37  H   UNL A   1      47.289  25.801  38.962  1.00  0.00     0.163 HD
ATOM     38  O   UNL A   1      45.136  26.549  38.757  1.00  0.00    -0.269 OA
BRANCH  36  39
ATOM     39  C   UNL A   1      45.322  26.543  36.417  1.00  0.00     0.039 A 
ATOM     40  C   UNL A   1      44.171  25.835  36.055  1.00  0.00     0.014 A 
ATOM     41  C   UNL A   1      45.846  27.529  35.580  1.00  0.00     0.014 A 
ATOM     42  C   UNL A   1      43.446  26.242  34.954  1.00  0.00     0.010 A 
ATOM     43  C   UNL A   1      45.092  27.985  34.519  1.00  0.00     0.010 A 
ATOM     44  C   UNL A   1      43.860  27.384  34.258  1.00  0.00    -0.014 A 
BRANCH  44  45
ATOM     45  C   UNL A   1      42.901  28.064  33.387  1.00  0.00     0.031 A 
ATOM     46  C   UNL A   1      42.879  27.750  31.936  1.00  0.00     0.074 A 
ATOM     47  C   UNL A   1      42.089  28.962  33.977  1.00  0.00     0.049 A 
ATOM     48  N   UNL A   1      42.031  28.143  31.033  1.00  0.00    -0.248 NA
ATOM     49  C   UNL A   1      43.969  26.900  31.430  1.00  0.00     0.031 C 
ATOM     50  C   UNL A   1      42.157  29.348  35.396  1.00  0.00     0.029 A 
ATOM     51  N   UNL A   1      41.044  29.691  33.491  1.00  0.00    -0.354 N 
ATOM     52  C   UNL A   1      42.465  27.571  29.847  1.00  0.00     0.074 A 
ATOM     53  C   UNL A   1      43.698  26.870  30.134  1.00  0.00     0.031 C 
ATOM     54  C   UNL A   1      41.151  30.189  35.674  1.00  0.00     0.029 A 
ATOM     55  C   UNL A   1      40.391  30.424  34.457  1.00  0.00     0.049 A 
ATOM     56  H   UNL A   1      40.783  29.693  32.542  1.00  0.00     0.167 HD
ATOM     57  C   UNL A   1      41.854  27.619  28.641  1.00  0.00     0.034 A 
ATOM     58  C   UNL A   1      39.279  31.175  34.355  1.00  0.00     0.034 A 
ATOM     59  C   UNL A   1      40.643  28.373  28.428  1.00  0.00     0.049 A 
ATOM     60  C   UNL A   1      38.612  31.198  33.005  1.00  0.00     0.074 A 
ATOM     61  C   UNL A   1      39.909  28.537  27.271  1.00  0.00     0.029 A 
ATOM     62  N   UNL A   1      39.993  29.108  29.421  1.00  0.00    -0.354 N 
ATOM     63  N   UNL A   1      38.985  30.595  31.894  1.00  0.00    -0.248 NA
ATOM     64  C   UNL A   1      37.373  31.969  32.891  1.00  0.00     0.031 C 
ATOM     65  C   UNL A   1      38.852  29.413  27.550  1.00  0.00     0.029 A 
ATOM     66  C   UNL A   1      38.881  29.741  28.899  1.00  0.00     0.049 A 
ATOM     67  H   UNL A   1      40.285  29.166  30.360  1.00  0.00     0.167 HD
ATOM     68  C   UNL A   1      38.015  30.900  30.951  1.00  0.00     0.074 A 
ATOM     69  C   UNL A   1      37.025  31.713  31.638  1.00  0.00     0.031 C 
ATOM     70  C   UNL A   1      37.939  30.555  29.639  1.00  0.00     0.034 A 
BRANCH  57  71
ATOM     71  C   UNL A   1      42.522  26.883  27.507  1.00  0.00     0.023 A 
ATOM     72  C   UNL A   1      42.269  25.517  27.269  1.00  0.00     0.031 A 
ATOM     73  C   UNL A   1      43.489  27.516  26.710  1.00  0.00     0.131 A 
ATOM     74  C   UNL A   1      43.037  24.812  26.330  1.00  0.00     0.055 A 
ATOM     75  C   UNL A   1      44.193  26.827  25.719  1.00  0.00     0.041 A 
ATOM     76  F   UNL A   1      43.797  28.808  26.907  1.00  0.00    -0.206 F 
ATOM     77  C   UNL A   1      43.982  25.464  25.536  1.00  0.00     0.022 A 
BRANCH  74  78
ATOM     78  S   UNL A   1      42.898  23.003  26.278  1.00  0.00     0.124 S 
ATOM     79  O   UNL A   1      41.618  22.788  26.948  1.00  0.00    -0.237 OA
ATOM     80  O   UNL A   1      42.926  22.724  24.847  1.00  0.00    -0.237 OA
ATOM     81  O   UNL A   1      44.070  22.548  27.025  1.00  0.00    -0.744 OA
ENDBRANCH  74  78
ENDBRANCH  57  71
BRANCH  58  82
ATOM     82  C   UNL A   1      38.733  31.904  35.536  1.00  0.00     0.023 A 
ATOM     83  C   UNL A   1      38.176  31.218  36.627  1.00  0.00     0.031 A 
ATOM     84  C   UNL A   1      38.755  33.311  35.593  1.00  0.00     0.131 A 
ATOM     85  C   UNL A   1      37.625  31.935  37.704  1.00  0.00     0.055 A 
ATOM     86  C   UNL A   1      38.253  34.018  36.688  1.00  0.00     0.041 A 
ATOM     87  F   UNL A   1      39.289  34.023  34.587  1.00  0.00    -0.206 F 
ATOM     88  C   UNL A   1      37.670  33.329  37.745  1.00  0.00     0.022 A 
BRANCH  85  89
ATOM     89  S   UNL A   1      36.766  31.020  39.014  1.00  0.00     0.124 S 
ATOM     90  O   UNL A   1      37.705  31.135  40.124  1.00  0.00    -0.237 OA
ATOM     91  O   UNL A   1      35.524  31.773  39.143  1.00  0.00    -0.237 OA
ATOM     92  O   UNL A   1      36.626  29.677  38.454  1.00  0.00    -0.744 OA
ENDBRANCH  85  89
ENDBRANCH  58  82
BRANCH  70  93
ATOM     93  C   UNL A   1      36.731  31.054  28.897  1.00  0.00     0.023 A 
ATOM     94  C   UNL A   1      35.740  30.170  28.443  1.00  0.00     0.031 A 
ATOM     95  C   UNL A   1      36.577  32.426  28.638  1.00  0.00     0.131 A 
ATOM     96  C   UNL A   1      34.663  30.662  27.695  1.00  0.00     0.055 A 
ATOM     97  C   UNL A   1      35.468  32.918  27.952  1.00  0.00     0.041 A 
ATOM     98  F   UNL A   1      37.501  33.308  29.052  1.00  0.00    -0.206 F 
ATOM     99  C   UNL A   1      34.510  32.032  27.464  1.00  0.00     0.022 A 
BRANCH  96 100
ATOM    100  S   UNL A   1      33.520  29.472  26.945  1.00  0.00     0.124 S 
ATOM    101  O   UNL A   1      33.384  29.998  25.591  1.00  0.00    -0.237 OA
ATOM    102  O   UNL A   1      34.251  28.215  27.069  1.00  0.00    -0.237 OA
ATOM    103  O   UNL A   1      32.323  29.579  27.777  1.00  0.00    -0.744 OA
ENDBRANCH  96 100
ENDBRANCH  70  93
ENDBRANCH  44  45
ENDBRANCH  36  39
ENDBRANCH  34  35
ENDBRANCH   1  34
TORSDOF 18
ENDMDL
MODEL 2
REMARK VINA RESULT:     -12.2      5.198     11.384
REMARK SMILES COc1cc(/C=C2/C(=O)N(c3ccccc3)C(=O)[NH+]=C2NCCCNC(=O)c2ccc(-c3c4nc(c(-c5cc(S(=O)(=O)[O-])ccc5F)c5ccc([nH]5)c(-c5cc(S(=O)(=O)[O-])ccc5F)c5nc(c(-c6cc(S(=O)(=O)[O-])ccc6F)c6ccc3[nH]6)C=C5)C=C4)cc2)ccc1OCC(=O)[O-]
REMARK SMILES IDX 23 1 22 2 21 3 6 4 7 5 8 6 20 7 9 8 10 9 19 10 17 11 18 14
REMARK SMILES IDX 5 15 3 16 4 17 93 18 92 19 91 20 2 21 1 22 94 23 95 24 96 25
REMARK SMILES IDX 97 26 98 27 11 28 12 29 16 30 13 31 15 32 14 33 24 34 25 35
REMARK SMILES IDX 26 36 27 38 28 39 29 40 90 41 30 42 89 43 31 44 32 45 33 46
REMARK SMILES IDX 83 47 34 48 88 49 82 50 84 51 35 52 87 53 81 54 80 55 36 57
REMARK SMILES IDX 68 58 48 59 67 60 49 61 52 62 66 63 85 64 50 65 51 66 65 68
REMARK SMILES IDX 86 69 53 70 37 71 38 72 46 73 39 74 45 75 47 76 44 77 40 78
REMARK SMILES IDX 41 79 42 80 43 81 69 82 70 83 78 84 71 85 77 86 79 87 76 88
REMARK SMILES IDX 72 89 73 90 74 91 75 92 54 93 55 94 63 95 56 96 62 97 64 98
REMARK SMILES IDX 61 99 57 100 58 101 59 102 60 103
REMARK H PARENT 19 12 21 13 25 37 84 56 52 67
REMARK Flexibility Score: inf
ROOT
ATOM      1  C   UNL A   1      47.324  25.570  28.048  1.00  0.00     0.059 C 
ENDROOT
BRANCH   1   2
ATOM      2  C   UNL A   1      46.919  27.720  28.250  1.00  0.00     0.195 C 
BRANCH   2   3
ATOM      3  N   UNL A   1      46.270  28.538  29.477  1.00  0.00    -0.305 N 
ATOM      4  C   UNL A   1      46.136  30.516  27.182  1.00  0.00     0.030 C 
ATOM      5  C   UNL A   1      45.324  30.552  28.249  1.00  0.00     0.129 C 
ATOM      6  C   UNL A   1      44.158  31.453  28.311  1.00  0.00     0.328 C 
ATOM      7  C   UNL A   1      45.600  29.747  29.467  1.00  0.00     0.236 C 
ATOM      8  O   UNL A   1      43.583  31.809  27.284  1.00  0.00    -0.249 OA
ATOM      9  N   UNL A   1      43.863  31.852  29.606  1.00  0.00    -0.155 N 
ATOM     10  N   UNL A   1      45.260  30.234  30.625  1.00  0.00    -0.209 N 
ATOM     11  C   UNL A   1      44.666  31.475  30.685  1.00  0.00     0.448 C 
ATOM     12  H   UNL A   1      45.424  29.720  31.449  1.00  0.00     0.270 HD
ATOM     13  H   UNL A   1      46.362  28.115  30.362  1.00  0.00     0.256 HD
ATOM     14  O   UNL A   1      44.838  32.187  31.672  1.00  0.00    -0.212 OA
BRANCH   4  15
ATOM     15  C   UNL A   1      47.189  29.507  27.211  1.00  0.00    -0.021 A 
ATOM     16  C   UNL A   1      48.955  27.737  25.308  1.00  0.00     0.161 A 
ATOM     17  C   UNL A   1      47.321  28.281  25.849  1.00  0.00     0.058 A 
ATOM     18  C   UNL A   1      50.421  28.243  26.207  1.00  0.00     0.161 A 
ATOM     19  C   UNL A   1      50.283  29.385  27.590  1.00  0.00     0.051 A 
ATOM     20  C   UNL A   1      48.667  30.008  28.118  1.00  0.00     0.012 A 
BRANCH  16  21
ATOM     21  O   UNL A   1      49.228  27.586  23.957  1.00  0.00    -0.493 OA
ATOM     22  C   UNL A   1      48.848  26.370  23.343  1.00  0.00     0.278 C 
ENDBRANCH  16  21
BRANCH  18  23
ATOM     23  O   UNL A   1      51.694  27.813  25.949  1.00  0.00    -0.484 OA
BRANCH  23  24
ATOM     24  C   UNL A   1      51.977  26.549  25.377  1.00  0.00     0.282 C 
BRANCH  24  25
ATOM     25  C   UNL A   1      52.048  25.170  26.073  1.00  0.00     0.079 C 
ATOM     26  O   UNL A   1      52.896  24.328  25.812  1.00  0.00    -0.546 OA
ATOM     27  O   UNL A   1      51.060  24.919  26.946  1.00  0.00    -0.546 OA
ENDBRANCH  24  25
ENDBRANCH  23  24
ENDBRANCH  18  23
ENDBRANCH   4  15
BRANCH   9  28
ATOM     28  C   UNL A   1      42.820  32.794  29.802  1.00  0.00     0.111 A 
ATOM     29  C   UNL A   1      41.563  32.409  30.278  1.00  0.00     0.044 A 
ATOM     30  C   UNL A   1      43.055  34.136  29.474  1.00  0.00     0.044 A 
ATOM     31  C   UNL A   1      40.554  33.361  30.434  1.00  0.00     0.004 A 
ATOM     32  C   UNL A   1      42.034  35.077  29.597  1.00  0.00     0.004 A 
ATOM     33  C   UNL A   1      40.786  34.691  30.083  1.00  0.00     0.000 A 
ENDBRANCH   9  28
ENDBRANCH   2   3
ENDBRANCH   1   2
BRANCH   1  34
ATOM     34  C   UNL A   1      46.481  24.148  27.697  1.00  0.00     0.119 C 
BRANCH  34  35
ATOM     35  N   UNL A   1      45.971  24.068  26.328  1.00  0.00    -0.352 N 
ATOM     36  C   UNL A   1      44.988  24.663  25.592  1.00  0.00     0.251 C 
ATOM     37  H   UNL A   1      46.471  23.409  25.794  1.00  0.00     0.163 HD
ATOM     38  O   UNL A   1      44.957  24.399  24.392  1.00  0.00    -0.269 OA
BRANCH  36  39
ATOM     39  C   UNL A   1      43.971  25.527  26.199  1.00  0.00     0.039 A 
ATOM     40  C   UNL A   1      42.940  24.855  26.863  1.00  0.00     0.014 A 
ATOM     41  C   UNL A   1      44.068  26.918  26.255  1.00  0.00     0.014 A 
ATOM     42  C   UNL A   1      42.126  25.555  27.730  1.00  0.00     0.010 A 
ATOM     43  C   UNL A   1      43.304  27.612  27.171  1.00  0.00     0.010 A 
ATOM     44  C   UNL A   1      42.388  26.911  27.955  1.00  0.00    -0.014 A 
BRANCH  44  45
ATOM     45  C   UNL A   1      41.836  27.545  29.152  1.00  0.00     0.031 A 
ATOM     46  C   UNL A   1      42.579  27.460  30.434  1.00  0.00     0.074 A 
ATOM     47  C   UNL A   1      40.652  28.170  29.006  1.00  0.00     0.049 A 
ATOM     48  N   UNL A   1      42.325  28.058  31.561  1.00  0.00    -0.248 NA
ATOM     49  C   UNL A   1      43.749  26.568  30.460  1.00  0.00     0.031 C 
ATOM     50  C   UNL A   1      39.861  28.188  27.764  1.00  0.00     0.029 A 
ATOM     51  N   UNL A   1      39.915  28.924  29.871  1.00  0.00    -0.354 N 
ATOM     52  C   UNL A   1      43.318  27.636  32.432  1.00  0.00     0.074 A 
ATOM     53  C   UNL A   1      44.130  26.670  31.724  1.00  0.00     0.031 C 
ATOM     54  C   UNL A   1      38.789  28.973  27.934  1.00  0.00     0.029 A 
ATOM     55  C   UNL A   1      38.799  29.486  29.295  1.00  0.00     0.049 A 
ATOM     56  H   UNL A   1      40.159  29.052  30.816  1.00  0.00     0.167 HD
ATOM     57  C   UNL A   1      43.528  28.055  33.702  1.00  0.00     0.034 A 
ATOM     58  C   UNL A   1      37.907  30.347  29.818  1.00  0.00     0.034 A 
ATOM     59  C   UNL A   1      42.648  28.997  34.350  1.00  0.00     0.049 A 
ATOM     60  C   UNL A   1      38.175  30.808  31.227  1.00  0.00     0.074 A 
ATOM     61  C   UNL A   1      42.710  29.511  35.630  1.00  0.00     0.029 A 
ATOM     62  N   UNL A   1      41.521  29.560  33.748  1.00  0.00    -0.354 N 
ATOM     63  N   UNL A   1      39.158  30.462  32.032  1.00  0.00    -0.248 NA
ATOM     64  C   UNL A   1      37.242  31.785  31.792  1.00  0.00     0.031 C 
ATOM     65  C   UNL A   1      41.594  30.336  35.818  1.00  0.00     0.029 A 
ATOM     66  C   UNL A   1      40.871  30.397  34.634  1.00  0.00     0.049 A 
ATOM     67  H   UNL A   1      41.232  29.384  32.823  1.00  0.00     0.167 HD
ATOM     68  C   UNL A   1      38.975  31.194  33.195  1.00  0.00     0.074 A 
ATOM     69  C   UNL A   1      37.802  32.023  32.970  1.00  0.00     0.031 C 
ATOM     70  C   UNL A   1      39.692  31.187  34.350  1.00  0.00     0.034 A 
BRANCH  57  71
ATOM     71  C   UNL A   1      44.704  27.458  34.433  1.00  0.00     0.023 A 
ATOM     72  C   UNL A   1      44.550  26.343  35.281  1.00  0.00     0.031 A 
ATOM     73  C   UNL A   1      45.972  28.055  34.362  1.00  0.00     0.131 A 
ATOM     74  C   UNL A   1      45.617  25.923  36.091  1.00  0.00     0.055 A 
ATOM     75  C   UNL A   1      47.053  27.579  35.109  1.00  0.00     0.041 A 
ATOM     76  F   UNL A   1      46.176  29.138  33.595  1.00  0.00    -0.206 F 
ATOM     77  C   UNL A   1      46.875  26.519  35.993  1.00  0.00     0.022 A 
BRANCH  74  78
ATOM     78  S   UNL A   1      45.291  24.696  37.388  1.00  0.00     0.124 S 
ATOM     79  O   UNL A   1      46.289  25.058  38.392  1.00  0.00    -0.237 OA
ATOM     80  O   UNL A   1      43.903  24.970  37.741  1.00  0.00    -0.237 OA
ATOM     81  O   UNL A   1      45.525  23.419  36.718  1.00  0.00    -0.744 OA
ENDBRANCH  74  78
ENDBRANCH  57  71
BRANCH  58  82
ATOM     82  C   UNL A   1      36.748  30.836  29.017  1.00  0.00     0.023 A 
ATOM     83  C   UNL A   1      35.788  29.951  28.501  1.00  0.00     0.031 A 
ATOM     84  C   UNL A   1      36.581  32.209  28.747  1.00  0.00     0.131 A 
ATOM     85  C   UNL A   1      34.734  30.439  27.708  1.00  0.00     0.055 A 
ATOM     86  C   UNL A   1      35.505  32.694  28.001  1.00  0.00     0.041 A 
ATOM     87  F   UNL A   1      37.458  33.106  29.226  1.00  0.00    -0.206 F 
ATOM     88  C   UNL A   1      34.581  31.805  27.464  1.00  0.00     0.022 A 
BRANCH  85  89
ATOM     89  S   UNL A   1      33.610  29.250  26.923  1.00  0.00     0.124 S 
ATOM     90  O   UNL A   1      32.852  28.754  28.066  1.00  0.00    -0.237 OA
ATOM     91  O   UNL A   1      32.881  30.099  25.987  1.00  0.00    -0.237 OA
ATOM     92  O   UNL A   1      34.516  28.282  26.309  1.00  0.00    -0.744 OA
ENDBRANCH  85  89
ENDBRANCH  58  82
BRANCH  70  93
ATOM     93  C   UNL A   1      39.215  32.123  35.425  1.00  0.00     0.023 A 
ATOM     94  C   UNL A   1      39.675  33.448  35.492  1.00  0.00     0.031 A 
ATOM     95  C   UNL A   1      38.299  31.680  36.393  1.00  0.00     0.131 A 
ATOM     96  C   UNL A   1      39.264  34.271  36.547  1.00  0.00     0.055 A 
ATOM     97  C   UNL A   1      37.840  32.525  37.402  1.00  0.00     0.041 A 
ATOM     98  F   UNL A   1      37.834  30.420  36.369  1.00  0.00    -0.206 F 
ATOM     99  C   UNL A   1      38.334  33.825  37.491  1.00  0.00     0.022 A 
BRANCH  96 100
ATOM    100  S   UNL A   1      40.039  35.899  36.723  1.00  0.00     0.124 S 
ATOM    101  O   UNL A   1      39.675  36.542  35.465  1.00  0.00    -0.237 OA
ATOM    102  O   UNL A   1      39.391  36.426  37.919  1.00  0.00    -0.237 OA
ATOM    103  O   UNL A   1      41.459  35.586  36.873  1.00  0.00    -0.744 OA
ENDBRANCH  96 100
ENDBRANCH  70  93
ENDBRANCH  44  45
ENDBRANCH  36  39
ENDBRANCH  34  35
ENDBRANCH   1  34
TORSDOF 18
ENDMDL
MODEL 3
REMARK VINA RESULT:     -12.1      6.705     12.285
REMARK SMILES COc1cc(/C=C2/C(=O)N(c3ccccc3)C(=O)[NH+]=C2NCCCNC(=O)c2ccc(-c3c4nc(c(-c5cc(S(=O)(=O)[O-])ccc5F)c5ccc([nH]5)c(-c5cc(S(=O)(=O)[O-])ccc5F)c5nc(c(-c6cc(S(=O)(=O)[O-])ccc6F)c6ccc3[nH]6)C=C5)C=C4)cc2)ccc1OCC(=O)[O-]
REMARK SMILES IDX 23 1 22 2 21 3 6 4 7 5 8 6 20 7 9 8 10 9 19 10 17 11 18 14
REMARK SMILES IDX 5 15 3 16 4 17 93 18 92 19 91 20 2 21 1 22 94 23 95 24 96 25
REMARK SMILES IDX 97 26 98 27 11 28 12 29 16 30 13 31 15 32 14 33 24 34 25 35
REMARK SMILES IDX 26 36 27 38 28 39 29 40 90 41 30 42 89 43 31 44 32 45 33 46
REMARK SMILES IDX 83 47 34 48 88 49 82 50 84 51 35 52 87 53 81 54 80 55 36 57
REMARK SMILES IDX 68 58 48 59 67 60 49 61 52 62 66 63 85 64 50 65 51 66 65 68
REMARK SMILES IDX 86 69 53 70 37 71 38 72 46 73 39 74 45 75 47 76 44 77 40 78
REMARK SMILES IDX 41 79 42 80 43 81 69 82 70 83 78 84 71 85 77 86 79 87 76 88
REMARK SMILES IDX 72 89 73 90 74 91 75 92 54 93 55 94 63 95 56 96 62 97 64 98
REMARK SMILES IDX 61 99 57 100 58 101 59 102 60 103
REMARK H PARENT 19 12 21 13 25 37 84 56 52 67
REMARK Flexibility Score: inf
ROOT
ATOM      1  C   UNL A   1      44.042  34.854  32.964  1.00  0.00     0.059 C 
ENDROOT
BRANCH   1   2
ATOM      2  C   UNL A   1      43.988  32.659  32.892  1.00  0.00     0.195 C 
BRANCH   2   3
ATOM      3  N   UNL A   1      45.084  31.616  32.336  1.00  0.00    -0.305 N 
ATOM      4  C   UNL A   1      42.862  29.812  33.338  1.00  0.00     0.030 C 
ATOM      5  C   UNL A   1      43.747  29.455  32.396  1.00  0.00     0.129 C 
ATOM      6  C   UNL A   1      43.601  28.209  31.621  1.00  0.00     0.328 C 
ATOM      7  C   UNL A   1      44.974  30.253  32.137  1.00  0.00     0.236 C 
ATOM      8  O   UNL A   1      42.491  27.723  31.416  1.00  0.00    -0.249 OA
ATOM      9  N   UNL A   1      44.823  27.678  31.235  1.00  0.00    -0.155 N 
ATOM     10  N   UNL A   1      46.054  29.630  31.765  1.00  0.00    -0.209 N 
ATOM     11  C   UNL A   1      46.029  28.259  31.633  1.00  0.00     0.448 C 
ATOM     12  H   UNL A   1      46.880  30.134  31.579  1.00  0.00     0.270 HD
ATOM     13  H   UNL A   1      45.957  32.007  32.103  1.00  0.00     0.256 HD
ATOM     14  O   UNL A   1      47.050  27.607  31.842  1.00  0.00    -0.212 OA
BRANCH   4  15
ATOM     15  C   UNL A   1      43.072  31.118  33.955  1.00  0.00    -0.021 A 
ATOM     16  C   UNL A   1      41.506  33.473  35.323  1.00  0.00     0.161 A 
ATOM     17  C   UNL A   1      41.737  32.379  33.907  1.00  0.00     0.058 A 
ATOM     18  C   UNL A   1      42.677  33.456  36.680  1.00  0.00     0.161 A 
ATOM     19  C   UNL A   1      44.030  32.270  36.691  1.00  0.00     0.051 A 
ATOM     20  C   UNL A   1      44.252  31.108  35.321  1.00  0.00     0.012 A 
BRANCH  16  21
ATOM     21  O   UNL A   1      40.229  33.773  35.772  1.00  0.00    -0.493 OA
ATOM     22  C   UNL A   1      39.746  35.084  35.547  1.00  0.00     0.278 C 
ENDBRANCH  16  21
BRANCH  18  23
ATOM     23  O   UNL A   1      42.657  34.307  37.751  1.00  0.00    -0.484 OA
BRANCH  23  24
ATOM     24  C   UNL A   1      41.860  34.080  38.899  1.00  0.00     0.282 C 
BRANCH  24  25
ATOM     25  C   UNL A   1      41.415  32.732  39.512  1.00  0.00     0.079 C 
ATOM     26  O   UNL A   1      42.196  31.846  39.829  1.00  0.00    -0.546 OA
ATOM     27  O   UNL A   1      40.087  32.560  39.611  1.00  0.00    -0.546 OA
ENDBRANCH  24  25
ENDBRANCH  23  24
ENDBRANCH  18  23
ENDBRANCH   4  15
BRANCH   9  28
ATOM     28  C   UNL A   1      44.834  26.430  30.561  1.00  0.00     0.111 A 
ATOM     29  C   UNL A   1      43.888  25.438  30.836  1.00  0.00     0.044 A 
ATOM     30  C   UNL A   1      45.845  26.181  29.622  1.00  0.00     0.044 A 
ATOM     31  C   UNL A   1      43.948  24.212  30.170  1.00  0.00     0.004 A 
ATOM     32  C   UNL A   1      45.923  24.943  28.986  1.00  0.00     0.004 A 
ATOM     33  C   UNL A   1      44.970  23.961  29.255  1.00  0.00     0.000 A 
ENDBRANCH   9  28
ENDBRANCH   2   3
ENDBRANCH   1   2
BRANCH   1  34
ATOM     34  C   UNL A   1      43.425  36.167  32.098  1.00  0.00     0.119 C 
BRANCH  34  35
ATOM     35  N   UNL A   1      44.417  36.886  31.297  1.00  0.00    -0.352 N 
ATOM     36  C   UNL A   1      45.069  36.701  30.113  1.00  0.00     0.251 C 
ATOM     37  H   UNL A   1      44.686  37.730  31.728  1.00  0.00     0.163 HD
ATOM     38  O   UNL A   1      45.764  37.632  29.711  1.00  0.00    -0.269 OA
BRANCH  36  39
ATOM     39  C   UNL A   1      45.007  35.435  29.376  1.00  0.00     0.039 A 
ATOM     40  C   UNL A   1      45.827  34.417  29.872  1.00  0.00     0.014 A 
ATOM     41  C   UNL A   1      44.102  35.184  28.343  1.00  0.00     0.014 A 
ATOM     42  C   UNL A   1      45.609  33.116  29.467  1.00  0.00     0.010 A 
ATOM     43  C   UNL A   1      43.833  33.879  27.984  1.00  0.00     0.010 A 
ATOM     44  C   UNL A   1      44.540  32.848  28.605  1.00  0.00    -0.014 A 
BRANCH  44  45
ATOM     45  C   UNL A   1      44.038  31.477  28.511  1.00  0.00     0.031 A 
ATOM     46  C   UNL A   1      42.754  31.121  29.164  1.00  0.00     0.074 A 
ATOM     47  C   UNL A   1      44.806  30.605  27.829  1.00  0.00     0.049 A 
ATOM     48  N   UNL A   1      42.085  30.008  29.087  1.00  0.00    -0.248 NA
ATOM     49  C   UNL A   1      42.153  32.142  30.037  1.00  0.00     0.031 C 
ATOM     50  C   UNL A   1      46.122  30.921  27.251  1.00  0.00     0.029 A 
ATOM     51  N   UNL A   1      44.600  29.304  27.477  1.00  0.00    -0.354 N 
ATOM     52  C   UNL A   1      40.965  30.197  29.883  1.00  0.00     0.074 A 
ATOM     53  C   UNL A   1      41.089  31.502  30.496  1.00  0.00     0.031 C 
ATOM     54  C   UNL A   1      46.569  29.862  26.562  1.00  0.00     0.029 A 
ATOM     55  C   UNL A   1      45.592  28.790  26.673  1.00  0.00     0.049 A 
ATOM     56  H   UNL A   1      43.819  28.783  27.772  1.00  0.00     0.167 HD
ATOM     57  C   UNL A   1      39.925  29.348  30.049  1.00  0.00     0.034 A 
ATOM     58  C   UNL A   1      45.671  27.588  26.073  1.00  0.00     0.034 A 
ATOM     59  C   UNL A   1      39.895  28.046  29.430  1.00  0.00     0.049 A 
ATOM     60  C   UNL A   1      44.492  26.671  26.263  1.00  0.00     0.074 A 
ATOM     61  C   UNL A   1      38.928  27.064  29.508  1.00  0.00     0.029 A 
ATOM     62  N   UNL A   1      40.910  27.543  28.614  1.00  0.00    -0.354 N 
ATOM     63  N   UNL A   1      43.394  26.877  26.962  1.00  0.00    -0.248 NA
ATOM     64  C   UNL A   1      44.539  25.380  25.575  1.00  0.00     0.031 C 
ATOM     65  C   UNL A   1      39.383  25.952  28.789  1.00  0.00     0.029 A 
ATOM     66  C   UNL A   1      40.602  26.260  28.199  1.00  0.00     0.049 A 
ATOM     67  H   UNL A   1      41.728  28.033  28.368  1.00  0.00     0.167 HD
ATOM     68  C   UNL A   1      42.609  25.748  26.782  1.00  0.00     0.074 A 
ATOM     69  C   UNL A   1      43.351  24.880  25.882  1.00  0.00     0.031 C 
ATOM     70  C   UNL A   1      41.395  25.440  27.310  1.00  0.00     0.034 A 
BRANCH  57  71
ATOM     71  C   UNL A   1      38.808  29.806  30.953  1.00  0.00     0.023 A 
ATOM     72  C   UNL A   1      37.778  30.644  30.481  1.00  0.00     0.031 A 
ATOM     73  C   UNL A   1      38.812  29.484  32.320  1.00  0.00     0.131 A 
ATOM     74  C   UNL A   1      36.858  31.204  31.381  1.00  0.00     0.055 A 
ATOM     75  C   UNL A   1      37.843  29.978  33.197  1.00  0.00     0.041 A 
ATOM     76  F   UNL A   1      39.783  28.713  32.837  1.00  0.00    -0.206 F 
ATOM     77  C   UNL A   1      36.870  30.858  32.733  1.00  0.00     0.022 A 
BRANCH  74  78
ATOM     78  S   UNL A   1      35.753  32.516  30.787  1.00  0.00     0.124 S 
ATOM     79  O   UNL A   1      34.569  32.298  31.615  1.00  0.00    -0.237 OA
ATOM     80  O   UNL A   1      36.516  33.725  31.070  1.00  0.00    -0.237 OA
ATOM     81  O   UNL A   1      35.580  32.202  29.370  1.00  0.00    -0.744 OA
ENDBRANCH  74  78
ENDBRANCH  57  71
BRANCH  58  82
ATOM     82  C   UNL A   1      46.851  27.221  25.238  1.00  0.00     0.023 A 
ATOM     83  C   UNL A   1      47.004  27.710  23.931  1.00  0.00     0.031 A 
ATOM     84  C   UNL A   1      47.853  26.365  25.736  1.00  0.00     0.131 A 
ATOM     85  C   UNL A   1      48.104  27.306  23.152  1.00  0.00     0.055 A 
ATOM     86  C   UNL A   1      48.969  26.008  24.976  1.00  0.00     0.041 A 
ATOM     87  F   UNL A   1      47.771  25.878  26.985  1.00  0.00    -0.206 F 
ATOM     88  C   UNL A   1      49.091  26.468  23.670  1.00  0.00     0.022 A 
BRANCH  85  89
ATOM     89  S   UNL A   1      48.180  27.825  21.415  1.00  0.00     0.124 S 
ATOM     90  O   UNL A   1      46.851  28.392  21.213  1.00  0.00    -0.237 OA
ATOM     91  O   UNL A   1      49.288  28.773  21.433  1.00  0.00    -0.237 OA
ATOM     92  O   UNL A   1      48.439  26.577  20.700  1.00  0.00    -0.744 OA
ENDBRANCH  85  89
ENDBRANCH  58  82
BRANCH  70  93
ATOM     93  C   UNL A   1      40.815  24.117  26.894  1.00  0.00     0.023 A 
ATOM     94  C   UNL A   1      41.575  22.938  26.958  1.00  0.00     0.031 A 
ATOM     95  C   UNL A   1      39.494  24.040  26.425  1.00  0.00     0.131 A 
ATOM     96  C   UNL A   1      41.026  21.735  26.497  1.00  0.00     0.055 A 
ATOM     97  C   UNL A   1      38.930  22.827  26.032  1.00  0.00     0.041 A 
ATOM     98  F   UNL A   1      38.730  25.142  26.346  1.00  0.00    -0.206 F 
ATOM     99  C   UNL A   1      39.703  21.668  26.054  1.00  0.00     0.022 A 
BRANCH  96 100
ATOM    100  S   UNL A   1      42.102  20.281  26.394  1.00  0.00     0.124 S 
ATOM    101  O   UNL A   1      42.528  20.123  27.780  1.00  0.00    -0.237 OA
ATOM    102  O   UNL A   1      41.196  19.257  25.886  1.00  0.00    -0.237 OA
ATOM    103  O   UNL A   1      43.151  20.698  25.466  1.00  0.00    -0.744 OA
ENDBRANCH  96 100
ENDBRANCH  70  93
ENDBRANCH  44  45
ENDBRANCH  36  39
ENDBRANCH  34  35
ENDBRANCH   1  34
TORSDOF 18
ENDMDL
