MODEL 1
REMARK VINA RESULT:     -12.9      0.000      0.000
REMARK SMILES COc1ccc(NC(=O)c2nn(C)cc2C(=O)NCCCNC(=O)c2ccc(-c3c4nc(c(-c5cc(S(=O)(=O)[O-])ccc5F)c5ccc([nH]5)c(-c5cc(S(=O)(=O)[O-])ccc5F)c5nc(c(-c6cc(S(=O)(=O)[O-])ccc6F)c6ccc3[nH]6)C=C5)C=C4)cc2)c(C)c1
REMARK SMILES IDX 20 1 19 2 18 3 16 4 17 5 15 7 10 8 11 9 12 10 14 11 13 12
REMARK SMILES IDX 8 13 7 14 9 16 6 17 3 18 4 19 90 20 5 21 88 22 89 23 2 24
REMARK SMILES IDX 1 25 21 26 22 27 23 28 24 30 25 31 26 32 87 33 27 34 86 35
REMARK SMILES IDX 28 36 29 37 30 38 80 39 31 40 85 41 79 42 81 43 32 44 84 45
REMARK SMILES IDX 78 46 77 47 33 49 65 50 45 51 64 52 46 53 49 54 63 55 82 56
REMARK SMILES IDX 47 57 48 58 62 60 83 61 50 62 34 63 35 64 43 65 36 66 42 67
REMARK SMILES IDX 44 68 41 69 37 70 38 71 39 72 40 73 66 74 67 75 75 76 68 77
REMARK SMILES IDX 74 78 76 79 73 80 69 81 70 82 71 83 72 84 51 85 52 86 60 87
REMARK SMILES IDX 53 88 59 89 61 90 58 91 54 92 55 93 56 94 57 95
REMARK H PARENT 18 6 7 15 22 29 81 48 49 59
REMARK Flexibility Score: inf
ROOT
ATOM      1  C   UNL A   1      33.252  29.931  26.084  1.00  0.00     0.042 C 
ENDROOT
BRANCH   1   2
ATOM      2  C   UNL A   1      33.844  28.576  25.701  1.00  0.00     0.118 C 
BRANCH   2   3
ATOM      3  N   UNL A   1      34.451  28.575  24.379  1.00  0.00    -0.352 N 
ATOM      4  C   UNL A   1      33.936  28.518  23.107  1.00  0.00     0.255 C 
ATOM      5  O   UNL A   1      34.721  28.692  22.176  1.00  0.00    -0.269 OA
ATOM      6  H   UNL A   1      35.435  28.624  24.400  1.00  0.00     0.163 HD
BRANCH   4   7
ATOM      7  C   UNL A   1      32.523  28.252  22.836  1.00  0.00     0.090 A 
ATOM      8  C   UNL A   1      32.005  27.093  22.142  1.00  0.00     0.163 A 
ATOM      9  N   UNL A   1      30.661  27.146  22.026  1.00  0.00    -0.167 NA
ATOM     10  N   UNL A   1      30.323  28.284  22.635  1.00  0.00    -0.274 N 
ATOM     11  C   UNL A   1      31.382  28.969  23.149  1.00  0.00     0.123 A 
ATOM     12  C   UNL A   1      28.929  28.646  22.716  1.00  0.00     0.173 C 
BRANCH   8  13
ATOM     13  C   UNL A   1      32.733  25.933  21.608  1.00  0.00     0.277 C 
ATOM     14  N   UNL A   1      32.870  24.774  22.349  1.00  0.00    -0.320 N 
ATOM     15  H   UNL A   1      33.463  24.105  21.934  1.00  0.00     0.170 HD
ATOM     16  O   UNL A   1      33.235  25.953  20.479  1.00  0.00    -0.267 OA
BRANCH  14  17
ATOM     17  C   UNL A   1      32.329  24.364  23.584  1.00  0.00     0.044 A 
ATOM     18  C   UNL A   1      31.174  23.731  26.087  1.00  0.00     0.119 A 
ATOM     19  C   UNL A   1      30.480  23.475  24.914  1.00  0.00     0.048 A 
ATOM     20  C   UNL A   1      32.468  24.245  26.005  1.00  0.00     0.052 A 
ATOM     21  C   UNL A   1      31.065  23.769  23.678  1.00  0.00     0.030 A 
ATOM     22  C   UNL A   1      33.071  24.548  24.766  1.00  0.00    -0.024 A 
ATOM     23  C   UNL A   1      34.494  25.041  24.822  1.00  0.00     0.047 C 
BRANCH  18  24
ATOM     24  O   UNL A   1      30.713  23.520  27.355  1.00  0.00    -0.497 OA
ATOM     25  C   UNL A   1      29.547  22.721  27.486  1.00  0.00     0.278 C 
ENDBRANCH  18  24
ENDBRANCH  14  17
ENDBRANCH   8  13
ENDBRANCH   4   7
ENDBRANCH   2   3
ENDBRANCH   1   2
BRANCH   1  26
ATOM     26  C   UNL A   1      33.239  30.167  27.591  1.00  0.00     0.118 C 
BRANCH  26  27
ATOM     27  N   UNL A   1      33.903  31.402  28.008  1.00  0.00    -0.352 N 
ATOM     28  C   UNL A   1      35.186  31.593  28.510  1.00  0.00     0.251 C 
ATOM     29  H   UNL A   1      33.360  32.219  27.922  1.00  0.00     0.163 HD
ATOM     30  O   UNL A   1      35.556  32.684  28.881  1.00  0.00    -0.269 OA
BRANCH  28  31
ATOM     31  C   UNL A   1      36.128  30.447  28.499  1.00  0.00     0.039 A 
ATOM     32  C   UNL A   1      36.418  29.816  29.717  1.00  0.00     0.014 A 
ATOM     33  C   UNL A   1      36.857  30.146  27.355  1.00  0.00     0.014 A 
ATOM     34  C   UNL A   1      37.584  29.062  29.833  1.00  0.00     0.010 A 
ATOM     35  C   UNL A   1      38.063  29.499  27.496  1.00  0.00     0.010 A 
ATOM     36  C   UNL A   1      38.452  29.000  28.745  1.00  0.00    -0.014 A 
BRANCH  36  37
ATOM     37  C   UNL A   1      39.838  28.558  28.828  1.00  0.00     0.031 A 
ATOM     38  C   UNL A   1      40.188  27.133  28.644  1.00  0.00     0.074 A 
ATOM     39  C   UNL A   1      40.815  29.488  28.900  1.00  0.00     0.049 A 
ATOM     40  N   UNL A   1      41.318  26.618  28.992  1.00  0.00    -0.248 NA
ATOM     41  C   UNL A   1      39.267  26.151  28.080  1.00  0.00     0.031 C 
ATOM     42  C   UNL A   1      42.232  29.308  28.601  1.00  0.00     0.029 A 
ATOM     43  N   UNL A   1      40.742  30.754  29.480  1.00  0.00    -0.354 N 
ATOM     44  C   UNL A   1      41.390  25.355  28.455  1.00  0.00     0.074 A 
ATOM     45  C   UNL A   1      40.067  25.088  27.945  1.00  0.00     0.031 C 
ATOM     46  C   UNL A   1      42.933  30.280  29.204  1.00  0.00     0.029 A 
ATOM     47  C   UNL A   1      42.007  31.022  30.039  1.00  0.00     0.049 A 
ATOM     48  H   UNL A   1      39.956  31.347  29.497  1.00  0.00     0.167 HD
ATOM     49  C   UNL A   1      42.596  24.727  28.388  1.00  0.00     0.034 A 
ATOM     50  C   UNL A   1      42.158  31.233  31.378  1.00  0.00     0.034 A 
ATOM     51  C   UNL A   1      43.654  25.540  28.978  1.00  0.00     0.049 A 
ATOM     52  C   UNL A   1      43.070  30.231  32.050  1.00  0.00     0.074 A 
ATOM     53  C   UNL A   1      44.608  26.385  28.436  1.00  0.00     0.029 A 
ATOM     54  N   UNL A   1      43.647  25.773  30.345  1.00  0.00    -0.354 N 
ATOM     55  N   UNL A   1      43.418  29.091  31.519  1.00  0.00    -0.248 NA
ATOM     56  C   UNL A   1      43.663  30.425  33.370  1.00  0.00     0.031 C 
ATOM     57  C   UNL A   1      45.144  27.170  29.489  1.00  0.00     0.029 A 
ATOM     58  C   UNL A   1      44.539  26.775  30.670  1.00  0.00     0.049 A 
ATOM     59  H   UNL A   1      43.085  25.292  30.993  1.00  0.00     0.167 HD
ATOM     60  C   UNL A   1      44.243  28.405  32.376  1.00  0.00     0.074 A 
ATOM     61  C   UNL A   1      44.379  29.294  33.516  1.00  0.00     0.031 C 
ATOM     62  C   UNL A   1      44.728  27.165  32.060  1.00  0.00     0.034 A 
BRANCH  49  63
ATOM     63  C   UNL A   1      42.877  23.504  27.551  1.00  0.00     0.023 A 
ATOM     64  C   UNL A   1      43.823  23.592  26.507  1.00  0.00     0.031 A 
ATOM     65  C   UNL A   1      42.255  22.251  27.702  1.00  0.00     0.131 A 
ATOM     66  C   UNL A   1      44.046  22.522  25.624  1.00  0.00     0.055 A 
ATOM     67  C   UNL A   1      42.437  21.200  26.792  1.00  0.00     0.041 A 
ATOM     68  F   UNL A   1      41.483  21.974  28.763  1.00  0.00    -0.206 F 
ATOM     69  C   UNL A   1      43.329  21.336  25.739  1.00  0.00     0.022 A 
BRANCH  66  70
ATOM     70  S   UNL A   1      45.298  22.705  24.324  1.00  0.00     0.124 S 
ATOM     71  O   UNL A   1      44.557  22.329  23.125  1.00  0.00    -0.237 OA
ATOM     72  O   UNL A   1      45.665  24.111  24.443  1.00  0.00    -0.237 OA
ATOM     73  O   UNL A   1      46.341  21.760  24.724  1.00  0.00    -0.744 OA
ENDBRANCH  66  70
ENDBRANCH  49  63
BRANCH  50  74
ATOM     74  C   UNL A   1      40.974  31.904  31.988  1.00  0.00     0.023 A 
ATOM     75  C   UNL A   1      40.112  31.091  32.757  1.00  0.00     0.031 A 
ATOM     76  C   UNL A   1      40.941  33.288  32.208  1.00  0.00     0.131 A 
ATOM     77  C   UNL A   1      39.390  31.639  33.826  1.00  0.00     0.055 A 
ATOM     78  C   UNL A   1      40.158  33.840  33.231  1.00  0.00     0.041 A 
ATOM     79  F   UNL A   1      41.763  34.107  31.535  1.00  0.00    -0.206 F 
ATOM     80  C   UNL A   1      39.415  33.012  34.076  1.00  0.00     0.022 A 
BRANCH  77  81
ATOM     81  S   UNL A   1      38.664  30.500  35.044  1.00  0.00     0.124 S 
ATOM     82  O   UNL A   1      37.715  31.361  35.740  1.00  0.00    -0.237 OA
ATOM     83  O   UNL A   1      38.082  29.458  34.197  1.00  0.00    -0.237 OA
ATOM     84  O   UNL A   1      39.810  30.058  35.835  1.00  0.00    -0.744 OA
ENDBRANCH  77  81
ENDBRANCH  50  74
BRANCH  62  85
ATOM     85  C   UNL A   1      45.475  26.208  32.974  1.00  0.00     0.023 A 
ATOM     86  C   UNL A   1      44.859  25.174  33.692  1.00  0.00     0.031 A 
ATOM     87  C   UNL A   1      46.891  26.262  33.082  1.00  0.00     0.131 A 
ATOM     88  C   UNL A   1      45.611  24.301  34.503  1.00  0.00     0.055 A 
ATOM     89  C   UNL A   1      47.642  25.346  33.825  1.00  0.00     0.041 A 
ATOM     90  F   UNL A   1      47.616  27.202  32.461  1.00  0.00    -0.206 F 
ATOM     91  C   UNL A   1      47.001  24.362  34.553  1.00  0.00     0.022 A 
BRANCH  88  92
ATOM     92  S   UNL A   1      44.720  23.111  35.538  1.00  0.00     0.124 S 
ATOM     93  O   UNL A   1      44.591  21.968  34.639  1.00  0.00    -0.237 OA
ATOM     94  O   UNL A   1      45.631  22.930  36.664  1.00  0.00    -0.237 OA
ATOM     95  O   UNL A   1      43.468  23.796  35.855  1.00  0.00    -0.744 OA
ENDBRANCH  88  92
ENDBRANCH  62  85
ENDBRANCH  36  37
ENDBRANCH  28  31
ENDBRANCH  26  27
ENDBRANCH   1  26
TORSDOF 16
ENDMDL
MODEL 2
REMARK VINA RESULT:     -12.7      4.060      9.804
REMARK SMILES COc1ccc(NC(=O)c2nn(C)cc2C(=O)NCCCNC(=O)c2ccc(-c3c4nc(c(-c5cc(S(=O)(=O)[O-])ccc5F)c5ccc([nH]5)c(-c5cc(S(=O)(=O)[O-])ccc5F)c5nc(c(-c6cc(S(=O)(=O)[O-])ccc6F)c6ccc3[nH]6)C=C5)C=C4)cc2)c(C)c1
REMARK SMILES IDX 20 1 19 2 18 3 16 4 17 5 15 7 10 8 11 9 12 10 14 11 13 12
REMARK SMILES IDX 8 13 7 14 9 16 6 17 3 18 4 19 90 20 5 21 88 22 89 23 2 24
REMARK SMILES IDX 1 25 21 26 22 27 23 28 24 30 25 31 26 32 87 33 27 34 86 35
REMARK SMILES IDX 28 36 29 37 30 38 80 39 31 40 85 41 79 42 81 43 32 44 84 45
REMARK SMILES IDX 78 46 77 47 33 49 65 50 45 51 64 52 46 53 49 54 63 55 82 56
REMARK SMILES IDX 47 57 48 58 62 60 83 61 50 62 34 63 35 64 43 65 36 66 42 67
REMARK SMILES IDX 44 68 41 69 37 70 38 71 39 72 40 73 66 74 67 75 75 76 68 77
REMARK SMILES IDX 74 78 76 79 73 80 69 81 70 82 71 83 72 84 51 85 52 86 60 87
REMARK SMILES IDX 53 88 59 89 61 90 58 91 54 92 55 93 56 94 57 95
REMARK H PARENT 18 6 7 15 22 29 81 48 49 59
REMARK Flexibility Score: inf
ROOT
ATOM      1  C   UNL A   1      37.255  22.264  25.745  1.00  0.00     0.042 C 
ENDROOT
BRANCH   1   2
ATOM      2  C   UNL A   1      36.105  23.202  26.109  1.00  0.00     0.118 C 
BRANCH   2   3
ATOM      3  N   UNL A   1      35.210  22.642  27.109  1.00  0.00    -0.352 N 
ATOM      4  C   UNL A   1      33.954  22.088  27.044  1.00  0.00     0.255 C 
ATOM      5  O   UNL A   1      33.521  21.559  28.067  1.00  0.00    -0.269 OA
ATOM      6  H   UNL A   1      35.580  22.665  28.021  1.00  0.00     0.163 HD
BRANCH   4   7
ATOM      7  C   UNL A   1      33.136  22.120  25.831  1.00  0.00     0.090 A 
ATOM      8  C   UNL A   1      31.850  22.769  25.704  1.00  0.00     0.163 A 
ATOM      9  N   UNL A   1      31.332  22.601  24.468  1.00  0.00    -0.167 NA
ATOM     10  N   UNL A   1      32.254  21.889  23.819  1.00  0.00    -0.274 N 
ATOM     11  C   UNL A   1      33.350  21.593  24.570  1.00  0.00     0.123 A 
ATOM     12  C   UNL A   1      32.027  21.545  22.437  1.00  0.00     0.173 C 
BRANCH   8  13
ATOM     13  C   UNL A   1      31.108  23.556  26.699  1.00  0.00     0.277 C 
ATOM     14  N   UNL A   1      31.207  24.935  26.736  1.00  0.00    -0.320 N 
ATOM     15  H   UNL A   1      30.750  25.345  27.506  1.00  0.00     0.170 HD
ATOM     16  O   UNL A   1      30.367  23.013  27.526  1.00  0.00    -0.267 OA
BRANCH  14  17
ATOM     17  C   UNL A   1      31.835  25.867  25.887  1.00  0.00     0.044 A 
ATOM     18  C   UNL A   1      33.046  27.884  24.317  1.00  0.00     0.119 A 
ATOM     19  C   UNL A   1      33.809  27.135  25.199  1.00  0.00     0.048 A 
ATOM     20  C   UNL A   1      31.691  27.582  24.175  1.00  0.00     0.052 A 
ATOM     21  C   UNL A   1      33.210  26.124  25.956  1.00  0.00     0.030 A 
ATOM     22  C   UNL A   1      31.072  26.566  24.933  1.00  0.00    -0.024 A 
ATOM     23  C   UNL A   1      29.618  26.308  24.635  1.00  0.00     0.047 C 
BRANCH  18  24
ATOM     24  O   UNL A   1      33.494  28.914  23.541  1.00  0.00    -0.497 OA
ATOM     25  C   UNL A   1      34.055  28.568  22.283  1.00  0.00     0.278 C 
ENDBRANCH  18  24
ENDBRANCH  14  17
ENDBRANCH   8  13
ENDBRANCH   4   7
ENDBRANCH   2   3
ENDBRANCH   1   2
BRANCH   1  26
ATOM     26  C   UNL A   1      38.518  23.010  25.328  1.00  0.00     0.118 C 
BRANCH  26  27
ATOM     27  N   UNL A   1      39.694  22.692  26.138  1.00  0.00    -0.352 N 
ATOM     28  C   UNL A   1      40.451  23.516  26.964  1.00  0.00     0.251 C 
ATOM     29  H   UNL A   1      39.995  21.756  26.090  1.00  0.00     0.163 HD
ATOM     30  O   UNL A   1      41.450  23.106  27.511  1.00  0.00    -0.269 OA
BRANCH  28  31
ATOM     31  C   UNL A   1      39.959  24.890  27.235  1.00  0.00     0.039 A 
ATOM     32  C   UNL A   1      40.439  25.935  26.434  1.00  0.00     0.014 A 
ATOM     33  C   UNL A   1      39.215  25.158  28.378  1.00  0.00     0.014 A 
ATOM     34  C   UNL A   1      40.366  27.244  26.906  1.00  0.00     0.010 A 
ATOM     35  C   UNL A   1      39.243  26.432  28.896  1.00  0.00     0.010 A 
ATOM     36  C   UNL A   1      39.863  27.467  28.185  1.00  0.00    -0.014 A 
BRANCH  36  37
ATOM     37  C   UNL A   1      40.046  28.704  28.934  1.00  0.00     0.031 A 
ATOM     38  C   UNL A   1      38.984  29.732  28.965  1.00  0.00     0.074 A 
ATOM     39  C   UNL A   1      41.125  28.825  29.739  1.00  0.00     0.049 A 
ATOM     40  N   UNL A   1      39.173  30.952  29.337  1.00  0.00    -0.248 NA
ATOM     41  C   UNL A   1      37.612  29.475  28.538  1.00  0.00     0.031 C 
ATOM     42  C   UNL A   1      41.305  29.763  30.842  1.00  0.00     0.029 A 
ATOM     43  N   UNL A   1      42.381  28.246  29.567  1.00  0.00    -0.354 N 
ATOM     44  C   UNL A   1      37.941  31.546  29.477  1.00  0.00     0.074 A 
ATOM     45  C   UNL A   1      37.004  30.605  28.914  1.00  0.00     0.031 C 
ATOM     46  C   UNL A   1      42.616  29.894  31.095  1.00  0.00     0.029 A 
ATOM     47  C   UNL A   1      43.327  29.167  30.059  1.00  0.00     0.049 A 
ATOM     48  H   UNL A   1      42.572  27.362  29.177  1.00  0.00     0.167 HD
ATOM     49  C   UNL A   1      37.839  32.713  30.172  1.00  0.00     0.034 A 
ATOM     50  C   UNL A   1      44.284  29.700  29.246  1.00  0.00     0.034 A 
ATOM     51  C   UNL A   1      39.144  33.176  30.631  1.00  0.00     0.049 A 
ATOM     52  C   UNL A   1      44.209  31.207  29.130  1.00  0.00     0.074 A 
ATOM     53  C   UNL A   1      39.809  33.076  31.843  1.00  0.00     0.029 A 
ATOM     54  N   UNL A   1      40.080  33.601  29.699  1.00  0.00    -0.354 N 
ATOM     55  N   UNL A   1      43.168  31.914  29.476  1.00  0.00    -0.248 NA
ATOM     56  C   UNL A   1      45.292  32.040  28.617  1.00  0.00     0.031 C 
ATOM     57  C   UNL A   1      41.172  33.398  31.620  1.00  0.00     0.029 A 
ATOM     58  C   UNL A   1      41.324  33.726  30.284  1.00  0.00     0.049 A 
ATOM     59  H   UNL A   1      39.884  33.788  28.754  1.00  0.00     0.167 HD
ATOM     60  C   UNL A   1      43.406  33.246  29.243  1.00  0.00     0.074 A 
ATOM     61  C   UNL A   1      44.760  33.272  28.720  1.00  0.00     0.031 C 
ATOM     62  C   UNL A   1      42.457  34.197  29.501  1.00  0.00     0.034 A 
BRANCH  49  63
ATOM     63  C   UNL A   1      36.542  33.298  30.673  1.00  0.00     0.023 A 
ATOM     64  C   UNL A   1      35.714  34.000  29.771  1.00  0.00     0.031 A 
ATOM     65  C   UNL A   1      36.073  33.225  31.997  1.00  0.00     0.131 A 
ATOM     66  C   UNL A   1      34.552  34.662  30.201  1.00  0.00     0.055 A 
ATOM     67  C   UNL A   1      34.942  33.927  32.439  1.00  0.00     0.041 A 
ATOM     68  F   UNL A   1      36.658  32.434  32.908  1.00  0.00    -0.206 F 
ATOM     69  C   UNL A   1      34.180  34.660  31.541  1.00  0.00     0.022 A 
BRANCH  66  70
ATOM     70  S   UNL A   1      33.527  35.520  28.975  1.00  0.00     0.124 S 
ATOM     71  O   UNL A   1      32.628  34.462  28.527  1.00  0.00    -0.237 OA
ATOM     72  O   UNL A   1      32.926  36.587  29.766  1.00  0.00    -0.237 OA
ATOM     73  O   UNL A   1      34.499  35.967  27.976  1.00  0.00    -0.744 OA
ENDBRANCH  66  70
ENDBRANCH  49  63
BRANCH  50  74
ATOM     74  C   UNL A   1      44.728  28.750  28.186  1.00  0.00     0.023 A 
ATOM     75  C   UNL A   1      45.561  27.687  28.598  1.00  0.00     0.031 A 
ATOM     76  C   UNL A   1      44.025  28.605  26.982  1.00  0.00     0.131 A 
ATOM     77  C   UNL A   1      45.535  26.463  27.916  1.00  0.00     0.055 A 
ATOM     78  C   UNL A   1      44.061  27.402  26.263  1.00  0.00     0.041 A 
ATOM     79  F   UNL A   1      43.190  29.564  26.558  1.00  0.00    -0.206 F 
ATOM     80  C   UNL A   1      44.780  26.309  26.752  1.00  0.00     0.022 A 
BRANCH  77  81
ATOM     81  S   UNL A   1      46.264  25.009  28.733  1.00  0.00     0.124 S 
ATOM     82  O   UNL A   1      47.466  24.784  27.939  1.00  0.00    -0.237 OA
ATOM     83  O   UNL A   1      46.478  25.488  30.099  1.00  0.00    -0.237 OA
ATOM     84  O   UNL A   1      45.228  23.986  28.614  1.00  0.00    -0.744 OA
ENDBRANCH  77  81
ENDBRANCH  50  74
BRANCH  62  85
ATOM     85  C   UNL A   1      42.495  35.666  29.112  1.00  0.00     0.023 A 
ATOM     86  C   UNL A   1      43.240  36.635  29.797  1.00  0.00     0.031 A 
ATOM     87  C   UNL A   1      41.825  36.127  27.947  1.00  0.00     0.131 A 
ATOM     88  C   UNL A   1      43.256  37.978  29.370  1.00  0.00     0.055 A 
ATOM     89  C   UNL A   1      41.906  37.443  27.482  1.00  0.00     0.041 A 
ATOM     90  F   UNL A   1      41.065  35.317  27.196  1.00  0.00    -0.206 F 
ATOM     91  C   UNL A   1      42.617  38.384  28.202  1.00  0.00     0.022 A 
BRANCH  88  92
ATOM     92  S   UNL A   1      44.093  39.199  30.414  1.00  0.00     0.124 S 
ATOM     93  O   UNL A   1      43.060  40.219  30.570  1.00  0.00    -0.237 OA
ATOM     94  O   UNL A   1      44.405  38.427  31.612  1.00  0.00    -0.237 OA
ATOM     95  O   UNL A   1      45.249  39.604  29.616  1.00  0.00    -0.744 OA
ENDBRANCH  88  92
ENDBRANCH  62  85
ENDBRANCH  36  37
ENDBRANCH  28  31
ENDBRANCH  26  27
ENDBRANCH   1  26
TORSDOF 16
ENDMDL
MODEL 3
REMARK VINA RESULT:     -12.4      2.490      2.935
REMARK SMILES COc1ccc(NC(=O)c2nn(C)cc2C(=O)NCCCNC(=O)c2ccc(-c3c4nc(c(-c5cc(S(=O)(=O)[O-])ccc5F)c5ccc([nH]5)c(-c5cc(S(=O)(=O)[O-])ccc5F)c5nc(c(-c6cc(S(=O)(=O)[O-])ccc6F)c6ccc3[nH]6)C=C5)C=C4)cc2)c(C)c1
REMARK SMILES IDX 20 1 19 2 18 3 16 4 17 5 15 7 10 8 11 9 12 10 14 11 13 12
REMARK SMILES IDX 8 13 7 14 9 16 6 17 3 18 4 19 90 20 5 21 88 22 89 23 2 24
REMARK SMILES IDX 1 25 21 26 22 27 23 28 24 30 25 31 26 32 87 33 27 34 86 35
REMARK SMILES IDX 28 36 29 37 30 38 80 39 31 40 85 41 79 42 81 43 32 44 84 45
REMARK SMILES IDX 78 46 77 47 33 49 65 50 45 51 64 52 46 53 49 54 63 55 82 56
REMARK SMILES IDX 47 57 48 58 62 60 83 61 50 62 34 63 35 64 43 65 36 66 42 67
REMARK SMILES IDX 44 68 41 69 37 70 38 71 39 72 40 73 66 74 67 75 75 76 68 77
REMARK SMILES IDX 74 78 76 79 73 80 69 81 70 82 71 83 72 84 51 85 52 86 60 87
REMARK SMILES IDX 53 88 59 89 61 90 58 91 54 92 55 93 56 94 57 95
REMARK H PARENT 18 6 7 15 22 29 81 48 49 59
REMARK Flexibility Score: inf
ROOT
ATOM      1  C   UNL A   1      33.350  30.369  26.640  1.00  0.00     0.042 C 
ENDROOT
BRANCH   1   2
ATOM      2  C   UNL A   1      33.142  29.056  25.889  1.00  0.00     0.118 C 
BRANCH   2   3
ATOM      3  N   UNL A   1      33.603  29.110  24.510  1.00  0.00    -0.352 N 
ATOM      4  C   UNL A   1      33.089  28.639  23.327  1.00  0.00     0.255 C 
ATOM      5  O   UNL A   1      33.656  28.986  22.292  1.00  0.00    -0.269 OA
ATOM      6  H   UNL A   1      34.461  29.581  24.403  1.00  0.00     0.163 HD
BRANCH   4   7
ATOM      7  C   UNL A   1      31.928  27.751  23.266  1.00  0.00     0.090 A 
ATOM      8  C   UNL A   1      31.867  26.497  22.546  1.00  0.00     0.163 A 
ATOM      9  N   UNL A   1      30.651  25.920  22.659  1.00  0.00    -0.167 NA
ATOM     10  N   UNL A   1      29.961  26.758  23.435  1.00  0.00    -0.274 N 
ATOM     11  C   UNL A   1      30.672  27.848  23.838  1.00  0.00     0.123 A 
ATOM     12  C   UNL A   1      28.601  26.428  23.783  1.00  0.00     0.173 C 
BRANCH   8  13
ATOM     13  C   UNL A   1      32.921  25.819  21.777  1.00  0.00     0.277 C 
ATOM     14  N   UNL A   1      33.823  24.974  22.396  1.00  0.00    -0.320 N 
ATOM     15  H   UNL A   1      34.544  24.660  21.803  1.00  0.00     0.170 HD
ATOM     16  O   UNL A   1      33.028  25.976  20.556  1.00  0.00    -0.267 OA
BRANCH  14  17
ATOM     17  C   UNL A   1      33.913  24.475  23.710  1.00  0.00     0.044 A 
ATOM     18  C   UNL A   1      34.274  23.392  26.298  1.00  0.00     0.119 A 
ATOM     19  C   UNL A   1      34.627  24.707  26.037  1.00  0.00     0.048 A 
ATOM     20  C   UNL A   1      33.683  22.639  25.283  1.00  0.00     0.052 A 
ATOM     21  C   UNL A   1      34.426  25.244  24.762  1.00  0.00     0.030 A 
ATOM     22  C   UNL A   1      33.475  23.167  23.991  1.00  0.00    -0.024 A 
ATOM     23  C   UNL A   1      32.774  22.264  23.010  1.00  0.00     0.047 C 
BRANCH  18  24
ATOM     24  O   UNL A   1      34.441  22.735  27.484  1.00  0.00    -0.497 OA
ATOM     25  C   UNL A   1      33.671  21.557  27.674  1.00  0.00     0.278 C 
ENDBRANCH  18  24
ENDBRANCH  14  17
ENDBRANCH   8  13
ENDBRANCH   4   7
ENDBRANCH   2   3
ENDBRANCH   1   2
BRANCH   1  26
ATOM     26  C   UNL A   1      34.146  30.196  27.929  1.00  0.00     0.118 C 
BRANCH  26  27
ATOM     27  N   UNL A   1      34.955  31.359  28.293  1.00  0.00    -0.352 N 
ATOM     28  C   UNL A   1      36.279  31.423  28.713  1.00  0.00     0.251 C 
ATOM     29  H   UNL A   1      34.492  32.226  28.234  1.00  0.00     0.163 HD
ATOM     30  O   UNL A   1      36.778  32.472  29.051  1.00  0.00    -0.269 OA
BRANCH  28  31
ATOM     31  C   UNL A   1      37.100  30.188  28.654  1.00  0.00     0.039 A 
ATOM     32  C   UNL A   1      37.159  29.376  29.796  1.00  0.00     0.014 A 
ATOM     33  C   UNL A   1      37.947  29.956  27.577  1.00  0.00     0.014 A 
ATOM     34  C   UNL A   1      38.221  28.486  29.945  1.00  0.00     0.010 A 
ATOM     35  C   UNL A   1      39.054  29.163  27.770  1.00  0.00     0.010 A 
ATOM     36  C   UNL A   1      39.219  28.467  28.974  1.00  0.00    -0.014 A 
BRANCH  36  37
ATOM     37  C   UNL A   1      40.532  27.864  29.161  1.00  0.00     0.031 A 
ATOM     38  C   UNL A   1      40.810  26.494  28.679  1.00  0.00     0.074 A 
ATOM     39  C   UNL A   1      41.542  28.632  29.625  1.00  0.00     0.049 A 
ATOM     40  N   UNL A   1      41.818  25.786  29.060  1.00  0.00    -0.248 NA
ATOM     41  C   UNL A   1      39.942  25.787  27.742  1.00  0.00     0.031 C 
ATOM     42  C   UNL A   1      42.974  28.369  29.520  1.00  0.00     0.029 A 
ATOM     43  N   UNL A   1      41.453  29.722  30.489  1.00  0.00    -0.354 N 
ATOM     44  C   UNL A   1      41.898  24.688  28.236  1.00  0.00     0.074 A 
ATOM     45  C   UNL A   1      40.676  24.703  27.470  1.00  0.00     0.031 C 
ATOM     46  C   UNL A   1      43.619  29.083  30.455  1.00  0.00     0.029 A 
ATOM     47  C   UNL A   1      42.609  29.703  31.293  1.00  0.00     0.049 A 
ATOM     48  H   UNL A   1      40.720  30.379  30.531  1.00  0.00     0.167 HD
ATOM     49  C   UNL A   1      43.049  23.961  28.205  1.00  0.00     0.034 A 
ATOM     50  C   UNL A   1      42.527  29.570  32.648  1.00  0.00     0.034 A 
ATOM     51  C   UNL A   1      44.036  24.484  29.144  1.00  0.00     0.049 A 
ATOM     52  C   UNL A   1      43.228  28.338  33.178  1.00  0.00     0.074 A 
ATOM     53  C   UNL A   1      45.130  25.321  28.996  1.00  0.00     0.029 A 
ATOM     54  N   UNL A   1      43.795  24.383  30.506  1.00  0.00    -0.354 N 
ATOM     55  N   UNL A   1      43.587  27.327  32.436  1.00  0.00    -0.248 NA
ATOM     56  C   UNL A   1      43.582  28.142  34.581  1.00  0.00     0.031 C 
ATOM     57  C   UNL A   1      45.517  25.765  30.287  1.00  0.00     0.029 A 
ATOM     58  C   UNL A   1      44.680  25.170  31.215  1.00  0.00     0.049 A 
ATOM     59  H   UNL A   1      43.091  23.827  30.912  1.00  0.00     0.167 HD
ATOM     60  C   UNL A   1      44.191  26.367  33.210  1.00  0.00     0.074 A 
ATOM     61  C   UNL A   1      44.177  26.935  34.546  1.00  0.00     0.031 C 
ATOM     62  C   UNL A   1      44.638  25.191  32.670  1.00  0.00     0.034 A 
BRANCH  49  63
ATOM     63  C   UNL A   1      43.393  22.950  27.139  1.00  0.00     0.023 A 
ATOM     64  C   UNL A   1      42.773  21.682  27.175  1.00  0.00     0.031 A 
ATOM     65  C   UNL A   1      44.311  23.148  26.093  1.00  0.00     0.131 A 
ATOM     66  C   UNL A   1      43.133  20.662  26.278  1.00  0.00     0.055 A 
ATOM     67  C   UNL A   1      44.710  22.117  25.230  1.00  0.00     0.041 A 
ATOM     68  F   UNL A   1      44.826  24.358  25.828  1.00  0.00    -0.206 F 
ATOM     69  C   UNL A   1      44.128  20.862  25.327  1.00  0.00     0.022 A 
BRANCH  66  70
ATOM     70  S   UNL A   1      42.272  19.068  26.372  1.00  0.00     0.124 S 
ATOM     71  O   UNL A   1      43.084  18.225  25.501  1.00  0.00    -0.237 OA
ATOM     72  O   UNL A   1      42.328  18.769  27.797  1.00  0.00    -0.237 OA
ATOM     73  O   UNL A   1      40.936  19.376  25.859  1.00  0.00    -0.744 OA
ENDBRANCH  66  70
ENDBRANCH  49  63
BRANCH  50  74
ATOM     74  C   UNL A   1      41.301  30.204  33.211  1.00  0.00     0.023 A 
ATOM     75  C   UNL A   1      41.309  31.613  33.316  1.00  0.00     0.031 A 
ATOM     76  C   UNL A   1      40.060  29.554  33.200  1.00  0.00     0.131 A 
ATOM     77  C   UNL A   1      40.111  32.335  33.224  1.00  0.00     0.055 A 
ATOM     78  C   UNL A   1      38.861  30.280  33.183  1.00  0.00     0.041 A 
ATOM     79  F   UNL A   1      39.988  28.222  33.065  1.00  0.00    -0.206 F 
ATOM     80  C   UNL A   1      38.883  31.676  33.148  1.00  0.00     0.022 A 
BRANCH  77  81
ATOM     81  S   UNL A   1      40.211  34.125  32.912  1.00  0.00     0.124 S 
ATOM     82  O   UNL A   1      38.813  34.474  32.690  1.00  0.00    -0.237 OA
ATOM     83  O   UNL A   1      40.809  34.630  34.148  1.00  0.00    -0.237 OA
ATOM     84  O   UNL A   1      41.079  34.227  31.742  1.00  0.00    -0.744 OA
ENDBRANCH  77  81
ENDBRANCH  50  74
BRANCH  62  85
ATOM     85  C   UNL A   1      45.135  23.965  33.417  1.00  0.00     0.023 A 
ATOM     86  C   UNL A   1      46.457  23.798  33.850  1.00  0.00     0.031 A 
ATOM     87  C   UNL A   1      44.236  22.934  33.801  1.00  0.00     0.131 A 
ATOM     88  C   UNL A   1      46.851  22.648  34.564  1.00  0.00     0.055 A 
ATOM     89  C   UNL A   1      44.612  21.833  34.575  1.00  0.00     0.041 A 
ATOM     90  F   UNL A   1      42.942  22.952  33.449  1.00  0.00    -0.206 F 
ATOM     91  C   UNL A   1      45.932  21.677  34.954  1.00  0.00     0.022 A 
BRANCH  88  92
ATOM     92  S   UNL A   1      48.611  22.425  34.926  1.00  0.00     0.124 S 
ATOM     93  O   UNL A   1      48.591  22.154  36.361  1.00  0.00    -0.237 OA
ATOM     94  O   UNL A   1      48.966  21.294  34.074  1.00  0.00    -0.237 OA
ATOM     95  O   UNL A   1      49.210  23.703  34.544  1.00  0.00    -0.744 OA
ENDBRANCH  88  92
ENDBRANCH  62  85
ENDBRANCH  36  37
ENDBRANCH  28  31
ENDBRANCH  26  27
ENDBRANCH   1  26
TORSDOF 16
ENDMDL
