MODEL 1
REMARK VINA RESULT:     -12.0      0.000      0.000
REMARK SMILES O=C(C[C@H]1CC[C@@H](C(=O)NCCCNC(=O)c2ccc(-c3c4nc(c(-c5cc(S(=O)(=O)[O-])ccc5F)c5ccc([nH]5)c(-c5cc(S(=O)(=O)[O-])ccc5F)c5nc(c(-c6cc(S(=O)(=O)[O-])ccc6F)c6ccc3[nH]6)C=C5)C=C4)cc2)C1)c1ccc(Cl)cc1
REMARK SMILES IDX 12 1 11 2 10 3 8 4 9 5 7 7 4 8 5 9 80 10 6 11 3 12 2 13 1 14
REMARK SMILES IDX 81 15 82 16 87 17 83 18 86 19 84 20 85 21 13 22 14 23 15 24
REMARK SMILES IDX 16 26 17 27 18 28 79 29 19 30 78 31 20 32 21 33 22 34 72 35
REMARK SMILES IDX 23 36 77 37 71 38 73 39 24 40 76 41 70 42 69 43 25 45 57 46
REMARK SMILES IDX 37 47 56 48 38 49 41 50 55 51 74 52 39 53 40 54 54 56 75 57
REMARK SMILES IDX 42 58 26 59 27 60 35 61 28 62 34 63 36 64 33 65 29 66 30 67
REMARK SMILES IDX 31 68 32 69 58 70 59 71 67 72 60 73 66 74 68 75 65 76 61 77
REMARK SMILES IDX 62 78 63 79 64 80 43 81 44 82 52 83 45 84 51 85 53 86 50 87
REMARK SMILES IDX 46 88 47 89 48 90 49 91
REMARK H PARENT 10 6 14 25 73 44 41 55
REMARK Flexibility Score: inf
ROOT
ATOM      1  C   UNL A   1      35.717  22.656  24.452  1.00  0.00     0.042 C 
ENDROOT
BRANCH   1   2
ATOM      2  C   UNL A   1      35.215  24.081  24.594  1.00  0.00     0.117 C 
BRANCH   2   3
ATOM      3  N   UNL A   1      34.280  24.524  23.581  1.00  0.00    -0.356 N 
ATOM      4  C   UNL A   1      33.763  25.759  23.333  1.00  0.00     0.223 C 
ATOM      5  O   UNL A   1      33.100  25.880  22.300  1.00  0.00    -0.275 OA
ATOM      6  H   UNL A   1      33.966  23.816  22.972  1.00  0.00     0.163 HD
BRANCH   4   7
ATOM      7  C   UNL A   1      33.861  26.898  24.357  1.00  0.00     0.079 C 
ATOM      8  C   UNL A   1      31.731  27.773  25.210  1.00  0.00    -0.003 C 
ATOM      9  C   UNL A   1      32.492  27.178  26.401  1.00  0.00     0.005 C 
ATOM     10  C   UNL A   1      32.874  28.053  24.245  1.00  0.00     0.017 C 
ATOM     11  C   UNL A   1      33.668  26.397  25.804  1.00  0.00     0.014 C 
BRANCH   8  12
ATOM     12  C   UNL A   1      30.595  26.853  24.732  1.00  0.00     0.084 C 
BRANCH  12  13
ATOM     13  C   UNL A   1      30.232  25.545  25.429  1.00  0.00     0.163 C 
ATOM     14  O   UNL A   1      29.476  25.589  26.406  1.00  0.00    -0.294 OA
BRANCH  13  15
ATOM     15  C   UNL A   1      30.695  24.187  24.986  1.00  0.00     0.018 A 
ATOM     16  C   UNL A   1      30.717  23.756  23.656  1.00  0.00     0.013 A 
ATOM     17  C   UNL A   1      31.280  23.362  25.964  1.00  0.00     0.013 A 
ATOM     18  C   UNL A   1      31.442  22.608  23.299  1.00  0.00     0.021 A 
ATOM     19  C   UNL A   1      31.964  22.195  25.612  1.00  0.00     0.021 A 
ATOM     20  C   UNL A   1      32.080  21.846  24.274  1.00  0.00     0.041 A 
ATOM     21  Cl  UNL A   1      33.035  20.492  23.821  1.00  0.00    -0.084 Cl
ENDBRANCH  13  15
ENDBRANCH  12  13
ENDBRANCH   8  12
ENDBRANCH   4   7
ENDBRANCH   2   3
ENDBRANCH   1   2
BRANCH   1  22
ATOM     22  C   UNL A   1      36.239  22.010  25.728  1.00  0.00     0.118 C 
BRANCH  22  23
ATOM     23  N   UNL A   1      37.269  20.998  25.530  1.00  0.00    -0.352 N 
ATOM     24  C   UNL A   1      38.620  21.015  25.802  1.00  0.00     0.251 C 
ATOM     25  H   UNL A   1      36.943  20.157  25.134  1.00  0.00     0.163 HD
ATOM     26  O   UNL A   1      39.309  20.036  25.521  1.00  0.00    -0.269 OA
BRANCH  24  27
ATOM     27  C   UNL A   1      39.265  22.217  26.377  1.00  0.00     0.039 A 
ATOM     28  C   UNL A   1      40.349  22.063  27.248  1.00  0.00     0.014 A 
ATOM     29  C   UNL A   1      38.812  23.496  26.065  1.00  0.00     0.014 A 
ATOM     30  C   UNL A   1      41.036  23.190  27.715  1.00  0.00     0.010 A 
ATOM     31  C   UNL A   1      39.567  24.605  26.425  1.00  0.00     0.010 A 
ATOM     32  C   UNL A   1      40.687  24.471  27.260  1.00  0.00    -0.014 A 
BRANCH  32  33
ATOM     33  C   UNL A   1      41.435  25.698  27.654  1.00  0.00     0.031 A 
ATOM     34  C   UNL A   1      40.740  26.757  28.473  1.00  0.00     0.074 A 
ATOM     35  C   UNL A   1      42.681  25.917  27.187  1.00  0.00     0.049 A 
ATOM     36  N   UNL A   1      41.110  27.983  28.737  1.00  0.00    -0.248 NA
ATOM     37  C   UNL A   1      39.423  26.396  29.022  1.00  0.00     0.031 C 
ATOM     38  C   UNL A   1      43.453  24.991  26.357  1.00  0.00     0.029 A 
ATOM     39  N   UNL A   1      43.512  27.002  27.327  1.00  0.00    -0.354 N 
ATOM     40  C   UNL A   1      40.053  28.553  29.442  1.00  0.00     0.074 A 
ATOM     41  C   UNL A   1      39.006  27.556  29.504  1.00  0.00     0.031 C 
ATOM     42  C   UNL A   1      44.648  25.537  26.081  1.00  0.00     0.029 A 
ATOM     43  C   UNL A   1      44.709  26.874  26.661  1.00  0.00     0.049 A 
ATOM     44  H   UNL A   1      43.272  27.798  27.856  1.00  0.00     0.167 HD
ATOM     45  C   UNL A   1      39.973  29.783  30.007  1.00  0.00     0.034 A 
ATOM     46  C   UNL A   1      45.730  27.743  26.514  1.00  0.00     0.034 A 
ATOM     47  C   UNL A   1      41.045  30.747  29.975  1.00  0.00     0.049 A 
ATOM     48  C   UNL A   1      45.623  29.105  27.155  1.00  0.00     0.074 A 
ATOM     49  C   UNL A   1      41.102  31.997  30.566  1.00  0.00     0.029 A 
ATOM     50  N   UNL A   1      42.257  30.564  29.320  1.00  0.00    -0.354 N 
ATOM     51  N   UNL A   1      44.627  29.620  27.839  1.00  0.00    -0.248 NA
ATOM     52  C   UNL A   1      46.779  29.997  27.009  1.00  0.00     0.031 C 
ATOM     53  C   UNL A   1      42.321  32.592  30.221  1.00  0.00     0.029 A 
ATOM     54  C   UNL A   1      43.057  31.685  29.475  1.00  0.00     0.049 A 
ATOM     55  H   UNL A   1      42.510  29.756  28.818  1.00  0.00     0.167 HD
ATOM     56  C   UNL A   1      45.053  30.886  28.233  1.00  0.00     0.074 A 
ATOM     57  C   UNL A   1      46.400  31.048  27.721  1.00  0.00     0.031 C 
ATOM     58  C   UNL A   1      44.396  31.830  28.954  1.00  0.00     0.034 A 
BRANCH  45  59
ATOM     59  C   UNL A   1      38.674  30.153  30.689  1.00  0.00     0.023 A 
ATOM     60  C   UNL A   1      37.643  30.819  30.003  1.00  0.00     0.031 A 
ATOM     61  C   UNL A   1      38.480  29.875  32.054  1.00  0.00     0.131 A 
ATOM     62  C   UNL A   1      36.511  31.267  30.702  1.00  0.00     0.055 A 
ATOM     63  C   UNL A   1      37.310  30.242  32.723  1.00  0.00     0.041 A 
ATOM     64  F   UNL A   1      39.435  29.259  32.770  1.00  0.00    -0.206 F 
ATOM     65  C   UNL A   1      36.324  30.959  32.051  1.00  0.00     0.022 A 
BRANCH  62  66
ATOM     66  S   UNL A   1      35.368  32.394  29.858  1.00  0.00     0.124 S 
ATOM     67  O   UNL A   1      34.381  32.648  30.906  1.00  0.00    -0.237 OA
ATOM     68  O   UNL A   1      36.230  33.517  29.508  1.00  0.00    -0.237 OA
ATOM     69  O   UNL A   1      34.880  31.605  28.730  1.00  0.00    -0.744 OA
ENDBRANCH  62  66
ENDBRANCH  45  59
BRANCH  46  70
ATOM     70  C   UNL A   1      46.937  27.369  25.723  1.00  0.00     0.023 A 
ATOM     71  C   UNL A   1      47.081  27.785  24.390  1.00  0.00     0.031 A 
ATOM     72  C   UNL A   1      47.945  26.554  26.269  1.00  0.00     0.131 A 
ATOM     73  C   UNL A   1      48.181  27.350  23.634  1.00  0.00     0.055 A 
ATOM     74  C   UNL A   1      49.063  26.166  25.529  1.00  0.00     0.041 A 
ATOM     75  F   UNL A   1      47.860  26.130  27.541  1.00  0.00    -0.206 F 
ATOM     76  C   UNL A   1      49.179  26.553  24.198  1.00  0.00     0.022 A 
BRANCH  73  77
ATOM     77  S   UNL A   1      48.242  27.771  21.870  1.00  0.00     0.124 S 
ATOM     78  O   UNL A   1      49.368  28.696  21.824  1.00  0.00    -0.237 OA
ATOM     79  O   UNL A   1      48.458  26.464  21.256  1.00  0.00    -0.237 OA
ATOM     80  O   UNL A   1      46.932  28.367  21.617  1.00  0.00    -0.744 OA
ENDBRANCH  73  77
ENDBRANCH  46  70
BRANCH  58  81
ATOM     81  C   UNL A   1      45.151  33.096  29.275  1.00  0.00     0.023 A 
ATOM     82  C   UNL A   1      45.175  34.188  28.391  1.00  0.00     0.031 A 
ATOM     83  C   UNL A   1      45.865  33.202  30.482  1.00  0.00     0.131 A 
ATOM     84  C   UNL A   1      45.943  35.320  28.703  1.00  0.00     0.055 A 
ATOM     85  C   UNL A   1      46.579  34.355  30.814  1.00  0.00     0.041 A 
ATOM     86  F   UNL A   1      45.877  32.188  31.361  1.00  0.00    -0.206 F 
ATOM     87  C   UNL A   1      46.631  35.417  29.915  1.00  0.00     0.022 A 
BRANCH  84  88
ATOM     88  S   UNL A   1      46.104  36.631  27.460  1.00  0.00     0.124 S 
ATOM     89  O   UNL A   1      45.078  37.579  27.885  1.00  0.00    -0.237 OA
ATOM     90  O   UNL A   1      47.485  37.065  27.640  1.00  0.00    -0.237 OA
ATOM     91  O   UNL A   1      45.829  35.945  26.200  1.00  0.00    -0.744 OA
ENDBRANCH  84  88
ENDBRANCH  58  81
ENDBRANCH  32  33
ENDBRANCH  24  27
ENDBRANCH  22  23
ENDBRANCH   1  22
TORSDOF 16
ENDMDL
MODEL 2
REMARK VINA RESULT:     -11.9      5.085      9.994
REMARK SMILES O=C(C[C@H]1CC[C@@H](C(=O)NCCCNC(=O)c2ccc(-c3c4nc(c(-c5cc(S(=O)(=O)[O-])ccc5F)c5ccc([nH]5)c(-c5cc(S(=O)(=O)[O-])ccc5F)c5nc(c(-c6cc(S(=O)(=O)[O-])ccc6F)c6ccc3[nH]6)C=C5)C=C4)cc2)C1)c1ccc(Cl)cc1
REMARK SMILES IDX 12 1 11 2 10 3 8 4 9 5 7 7 4 8 5 9 80 10 6 11 3 12 2 13 1 14
REMARK SMILES IDX 81 15 82 16 87 17 83 18 86 19 84 20 85 21 13 22 14 23 15 24
REMARK SMILES IDX 16 26 17 27 18 28 79 29 19 30 78 31 20 32 21 33 22 34 72 35
REMARK SMILES IDX 23 36 77 37 71 38 73 39 24 40 76 41 70 42 69 43 25 45 57 46
REMARK SMILES IDX 37 47 56 48 38 49 41 50 55 51 74 52 39 53 40 54 54 56 75 57
REMARK SMILES IDX 42 58 26 59 27 60 35 61 28 62 34 63 36 64 33 65 29 66 30 67
REMARK SMILES IDX 31 68 32 69 58 70 59 71 67 72 60 73 66 74 68 75 65 76 61 77
REMARK SMILES IDX 62 78 63 79 64 80 43 81 44 82 52 83 45 84 51 85 53 86 50 87
REMARK SMILES IDX 46 88 47 89 48 90 49 91
REMARK H PARENT 10 6 14 25 73 44 41 55
REMARK Flexibility Score: inf
ROOT
ATOM      1  C   UNL A   1      32.790  28.229  25.349  1.00  0.00     0.042 C 
ENDROOT
BRANCH   1   2
ATOM      2  C   UNL A   1      33.776  27.086  25.501  1.00  0.00     0.117 C 
BRANCH   2   3
ATOM      3  N   UNL A   1      33.914  26.216  24.351  1.00  0.00    -0.356 N 
ATOM      4  C   UNL A   1      34.435  24.962  24.248  1.00  0.00     0.223 C 
ATOM      5  O   UNL A   1      34.284  24.392  23.165  1.00  0.00    -0.275 OA
ATOM      6  H   UNL A   1      33.578  26.593  23.505  1.00  0.00     0.163 HD
BRANCH   4   7
ATOM      7  C   UNL A   1      35.301  24.351  25.358  1.00  0.00     0.079 C 
ATOM      8  C   UNL A   1      34.892  21.984  25.869  1.00  0.00    -0.003 C 
ATOM      9  C   UNL A   1      36.335  22.101  25.363  1.00  0.00     0.005 C 
ATOM     10  C   UNL A   1      34.637  23.405  26.350  1.00  0.00     0.017 C 
ATOM     11  C   UNL A   1      36.468  23.516  24.790  1.00  0.00     0.014 C 
BRANCH   8  12
ATOM     12  C   UNL A   1      33.949  21.406  24.801  1.00  0.00     0.084 C 
BRANCH  12  13
ATOM     13  C   UNL A   1      32.429  21.416  24.937  1.00  0.00     0.163 C 
ATOM     14  O   UNL A   1      31.855  20.352  25.193  1.00  0.00    -0.294 OA
BRANCH  13  15
ATOM     15  C   UNL A   1      31.573  22.644  24.825  1.00  0.00     0.018 A 
ATOM     16  C   UNL A   1      31.254  23.484  25.896  1.00  0.00     0.013 A 
ATOM     17  C   UNL A   1      31.200  23.045  23.529  1.00  0.00     0.013 A 
ATOM     18  C   UNL A   1      30.718  24.759  25.657  1.00  0.00     0.021 A 
ATOM     19  C   UNL A   1      30.624  24.297  23.297  1.00  0.00     0.021 A 
ATOM     20  C   UNL A   1      30.426  25.168  24.359  1.00  0.00     0.041 A 
ATOM     21  Cl  UNL A   1      29.849  26.760  24.066  1.00  0.00    -0.084 Cl
ENDBRANCH  13  15
ENDBRANCH  12  13
ENDBRANCH   8  12
ENDBRANCH   4   7
ENDBRANCH   2   3
ENDBRANCH   1   2
BRANCH   1  22
ATOM     22  C   UNL A   1      32.223  28.788  26.647  1.00  0.00     0.118 C 
BRANCH  22  23
ATOM     23  N   UNL A   1      31.967  30.223  26.641  1.00  0.00    -0.352 N 
ATOM     24  C   UNL A   1      32.749  31.285  27.043  1.00  0.00     0.251 C 
ATOM     25  H   UNL A   1      31.083  30.478  26.289  1.00  0.00     0.163 HD
ATOM     26  O   UNL A   1      32.305  32.429  26.967  1.00  0.00    -0.269 OA
BRANCH  24  27
ATOM     27  C   UNL A   1      34.096  31.063  27.617  1.00  0.00     0.039 A 
ATOM     28  C   UNL A   1      34.944  32.157  27.815  1.00  0.00     0.014 A 
ATOM     29  C   UNL A   1      34.529  29.786  27.963  1.00  0.00     0.014 A 
ATOM     30  C   UNL A   1      36.177  31.977  28.455  1.00  0.00     0.010 A 
ATOM     31  C   UNL A   1      35.691  29.627  28.708  1.00  0.00     0.010 A 
ATOM     32  C   UNL A   1      36.536  30.718  28.960  1.00  0.00    -0.014 A 
BRANCH  32  33
ATOM     33  C   UNL A   1      37.794  30.486  29.724  1.00  0.00     0.031 A 
ATOM     34  C   UNL A   1      38.874  29.621  29.124  1.00  0.00     0.074 A 
ATOM     35  C   UNL A   1      37.921  30.945  30.986  1.00  0.00     0.049 A 
ATOM     36  N   UNL A   1      39.937  29.105  29.685  1.00  0.00    -0.248 NA
ATOM     37  C   UNL A   1      38.700  29.246  27.712  1.00  0.00     0.031 C 
ATOM     38  C   UNL A   1      36.937  31.762  31.697  1.00  0.00     0.029 A 
ATOM     39  N   UNL A   1      38.927  30.769  31.906  1.00  0.00    -0.354 N 
ATOM     40  C   UNL A   1      40.530  28.308  28.709  1.00  0.00     0.074 A 
ATOM     41  C   UNL A   1      39.670  28.362  27.547  1.00  0.00     0.031 C 
ATOM     42  C   UNL A   1      37.395  32.034  32.929  1.00  0.00     0.029 A 
ATOM     43  C   UNL A   1      38.676  31.363  33.121  1.00  0.00     0.049 A 
ATOM     44  H   UNL A   1      39.750  30.264  31.712  1.00  0.00     0.167 HD
ATOM     45  C   UNL A   1      41.696  27.617  28.769  1.00  0.00     0.034 A 
ATOM     46  C   UNL A   1      39.386  31.349  34.268  1.00  0.00     0.034 A 
ATOM     47  C   UNL A   1      42.562  27.613  29.922  1.00  0.00     0.049 A 
ATOM     48  C   UNL A   1      40.682  30.579  34.311  1.00  0.00     0.074 A 
ATOM     49  C   UNL A   1      43.796  27.003  30.073  1.00  0.00     0.029 A 
ATOM     50  N   UNL A   1      42.290  28.258  31.122  1.00  0.00    -0.354 N 
ATOM     51  N   UNL A   1      41.243  29.851  33.373  1.00  0.00    -0.248 NA
ATOM     52  C   UNL A   1      41.444  30.636  35.565  1.00  0.00     0.031 C 
ATOM     53  C   UNL A   1      44.240  27.231  31.380  1.00  0.00     0.029 A 
ATOM     54  C   UNL A   1      43.320  28.043  32.023  1.00  0.00     0.049 A 
ATOM     55  H   UNL A   1      41.482  28.790  31.305  1.00  0.00     0.167 HD
ATOM     56  C   UNL A   1      42.439  29.390  33.915  1.00  0.00     0.074 A 
ATOM     57  C   UNL A   1      42.524  29.934  35.255  1.00  0.00     0.031 C 
ATOM     58  C   UNL A   1      43.386  28.592  33.358  1.00  0.00     0.034 A 
BRANCH  45  59
ATOM     59  C   UNL A   1      42.082  26.798  27.557  1.00  0.00     0.023 A 
ATOM     60  C   UNL A   1      41.844  25.414  27.494  1.00  0.00     0.031 A 
ATOM     61  C   UNL A   1      42.736  27.401  26.468  1.00  0.00     0.131 A 
ATOM     62  C   UNL A   1      42.339  24.666  26.415  1.00  0.00     0.055 A 
ATOM     63  C   UNL A   1      43.144  26.665  25.353  1.00  0.00     0.041 A 
ATOM     64  F   UNL A   1      43.010  28.715  26.476  1.00  0.00    -0.206 F 
ATOM     65  C   UNL A   1      42.963  25.285  25.330  1.00  0.00     0.022 A 
BRANCH  62  66
ATOM     66  S   UNL A   1      42.295  22.856  26.529  1.00  0.00     0.124 S 
ATOM     67  O   UNL A   1      43.491  22.584  27.323  1.00  0.00    -0.237 OA
ATOM     68  O   UNL A   1      41.020  22.611  27.192  1.00  0.00    -0.237 OA
ATOM     69  O   UNL A   1      42.368  22.423  25.136  1.00  0.00    -0.744 OA
ENDBRANCH  62  66
ENDBRANCH  45  59
BRANCH  46  70
ATOM     70  C   UNL A   1      38.893  32.075  35.474  1.00  0.00     0.023 A 
ATOM     71  C   UNL A   1      38.313  31.377  36.545  1.00  0.00     0.031 A 
ATOM     72  C   UNL A   1      38.952  33.477  35.559  1.00  0.00     0.131 A 
ATOM     73  C   UNL A   1      37.774  32.082  37.632  1.00  0.00     0.055 A 
ATOM     74  C   UNL A   1      38.462  34.172  36.666  1.00  0.00     0.041 A 
ATOM     75  F   UNL A   1      39.501  34.195  34.565  1.00  0.00    -0.206 F 
ATOM     76  C   UNL A   1      37.856  33.474  37.706  1.00  0.00     0.022 A 
BRANCH  73  77
ATOM     77  S   UNL A   1      36.883  31.155  38.913  1.00  0.00     0.124 S 
ATOM     78  O   UNL A   1      37.811  31.231  40.035  1.00  0.00    -0.237 OA
ATOM     79  O   UNL A   1      35.651  31.927  39.043  1.00  0.00    -0.237 OA
ATOM     80  O   UNL A   1      36.723  29.827  38.323  1.00  0.00    -0.744 OA
ENDBRANCH  73  77
ENDBRANCH  46  70
BRANCH  58  81
ATOM     81  C   UNL A   1      44.617  28.310  34.183  1.00  0.00     0.023 A 
ATOM     82  C   UNL A   1      44.698  27.194  35.034  1.00  0.00     0.031 A 
ATOM     83  C   UNL A   1      45.720  29.180  34.120  1.00  0.00     0.131 A 
ATOM     84  C   UNL A   1      45.838  27.008  35.831  1.00  0.00     0.055 A 
ATOM     85  C   UNL A   1      46.875  28.955  34.871  1.00  0.00     0.041 A 
ATOM     86  F   UNL A   1      45.694  30.261  33.326  1.00  0.00    -0.206 F 
ATOM     87  C   UNL A   1      46.933  27.872  35.742  1.00  0.00     0.022 A 
BRANCH  84  88
ATOM     88  S   UNL A   1      45.835  25.668  37.053  1.00  0.00     0.124 S 
ATOM     89  O   UNL A   1      47.249  25.308  37.113  1.00  0.00    -0.237 OA
ATOM     90  O   UNL A   1      45.295  26.326  38.238  1.00  0.00    -0.237 OA
ATOM     91  O   UNL A   1      44.964  24.659  36.454  1.00  0.00    -0.744 OA
ENDBRANCH  84  88
ENDBRANCH  58  81
ENDBRANCH  32  33
ENDBRANCH  24  27
ENDBRANCH  22  23
ENDBRANCH   1  22
TORSDOF 16
ENDMDL
MODEL 3
REMARK VINA RESULT:     -11.9      5.254      9.924
REMARK SMILES O=C(C[C@H]1CC[C@@H](C(=O)NCCCNC(=O)c2ccc(-c3c4nc(c(-c5cc(S(=O)(=O)[O-])ccc5F)c5ccc([nH]5)c(-c5cc(S(=O)(=O)[O-])ccc5F)c5nc(c(-c6cc(S(=O)(=O)[O-])ccc6F)c6ccc3[nH]6)C=C5)C=C4)cc2)C1)c1ccc(Cl)cc1
REMARK SMILES IDX 12 1 11 2 10 3 8 4 9 5 7 7 4 8 5 9 80 10 6 11 3 12 2 13 1 14
REMARK SMILES IDX 81 15 82 16 87 17 83 18 86 19 84 20 85 21 13 22 14 23 15 24
REMARK SMILES IDX 16 26 17 27 18 28 79 29 19 30 78 31 20 32 21 33 22 34 72 35
REMARK SMILES IDX 23 36 77 37 71 38 73 39 24 40 76 41 70 42 69 43 25 45 57 46
REMARK SMILES IDX 37 47 56 48 38 49 41 50 55 51 74 52 39 53 40 54 54 56 75 57
REMARK SMILES IDX 42 58 26 59 27 60 35 61 28 62 34 63 36 64 33 65 29 66 30 67
REMARK SMILES IDX 31 68 32 69 58 70 59 71 67 72 60 73 66 74 68 75 65 76 61 77
REMARK SMILES IDX 62 78 63 79 64 80 43 81 44 82 52 83 45 84 51 85 53 86 50 87
REMARK SMILES IDX 46 88 47 89 48 90 49 91
REMARK H PARENT 10 6 14 25 73 44 41 55
REMARK Flexibility Score: inf
ROOT
ATOM      1  C   UNL A   1      32.975  29.168  23.689  1.00  0.00     0.042 C 
ENDROOT
BRANCH   1   2
ATOM      2  C   UNL A   1      33.983  28.539  22.744  1.00  0.00     0.117 C 
BRANCH   2   3
ATOM      3  N   UNL A   1      33.435  27.664  21.729  1.00  0.00    -0.356 N 
ATOM      4  C   UNL A   1      33.142  26.335  21.773  1.00  0.00     0.223 C 
ATOM      5  O   UNL A   1      32.536  25.874  20.802  1.00  0.00    -0.275 OA
ATOM      6  H   UNL A   1      33.244  28.100  20.867  1.00  0.00     0.163 HD
BRANCH   4   7
ATOM      7  C   UNL A   1      33.674  25.424  22.887  1.00  0.00     0.079 C 
ATOM      8  C   UNL A   1      31.992  24.479  24.407  1.00  0.00    -0.003 C 
ATOM      9  C   UNL A   1      32.663  23.307  23.681  1.00  0.00     0.005 C 
ATOM     10  C   UNL A   1      33.062  25.553  24.276  1.00  0.00     0.017 C 
ATOM     11  C   UNL A   1      33.491  23.928  22.551  1.00  0.00     0.014 C 
BRANCH   8  12
ATOM     12  C   UNL A   1      30.594  24.784  23.844  1.00  0.00     0.084 C 
BRANCH  12  13
ATOM     13  C   UNL A   1      29.681  25.863  24.418  1.00  0.00     0.163 C 
ATOM     14  O   UNL A   1      29.438  25.844  25.630  1.00  0.00    -0.294 OA
BRANCH  13  15
ATOM     15  C   UNL A   1      29.085  26.987  23.620  1.00  0.00     0.018 A 
ATOM     16  C   UNL A   1      27.751  27.397  23.708  1.00  0.00     0.013 A 
ATOM     17  C   UNL A   1      29.971  27.762  22.851  1.00  0.00     0.013 A 
ATOM     18  C   UNL A   1      27.356  28.632  23.171  1.00  0.00     0.021 A 
ATOM     19  C   UNL A   1      29.565  28.970  22.277  1.00  0.00     0.021 A 
ATOM     20  C   UNL A   1      28.269  29.422  22.478  1.00  0.00     0.041 A 
ATOM     21  Cl  UNL A   1      27.801  30.970  21.896  1.00  0.00    -0.084 Cl
ENDBRANCH  13  15
ENDBRANCH  12  13
ENDBRANCH   8  12
ENDBRANCH   4   7
ENDBRANCH   2   3
ENDBRANCH   1   2
BRANCH   1  22
ATOM     22  C   UNL A   1      33.399  29.245  25.149  1.00  0.00     0.118 C 
BRANCH  22  23
ATOM     23  N   UNL A   1      32.763  30.306  25.921  1.00  0.00    -0.352 N 
ATOM     24  C   UNL A   1      33.224  31.055  26.982  1.00  0.00     0.251 C 
ATOM     25  H   UNL A   1      31.846  30.524  25.635  1.00  0.00     0.163 HD
ATOM     26  O   UNL A   1      32.487  31.891  27.500  1.00  0.00    -0.269 OA
BRANCH  24  27
ATOM     27  C   UNL A   1      34.575  30.827  27.544  1.00  0.00     0.039 A 
ATOM     28  C   UNL A   1      35.458  31.906  27.663  1.00  0.00     0.014 A 
ATOM     29  C   UNL A   1      34.980  29.560  27.955  1.00  0.00     0.014 A 
ATOM     30  C   UNL A   1      36.697  31.727  28.289  1.00  0.00     0.010 A 
ATOM     31  C   UNL A   1      36.151  29.411  28.687  1.00  0.00     0.010 A 
ATOM     32  C   UNL A   1      37.031  30.489  28.860  1.00  0.00    -0.014 A 
BRANCH  32  33
ATOM     33  C   UNL A   1      38.297  30.265  29.614  1.00  0.00     0.031 A 
ATOM     34  C   UNL A   1      39.337  29.329  29.049  1.00  0.00     0.074 A 
ATOM     35  C   UNL A   1      38.464  30.797  30.841  1.00  0.00     0.049 A 
ATOM     36  N   UNL A   1      40.394  28.815  29.622  1.00  0.00    -0.248 NA
ATOM     37  C   UNL A   1      39.121  28.872  27.667  1.00  0.00     0.031 C 
ATOM     38  C   UNL A   1      37.521  31.690  31.517  1.00  0.00     0.029 A 
ATOM     39  N   UNL A   1      39.483  30.647  31.751  1.00  0.00    -0.354 N 
ATOM     40  C   UNL A   1      40.941  27.939  28.687  1.00  0.00     0.074 A 
ATOM     41  C   UNL A   1      40.060  27.948  27.540  1.00  0.00     0.031 C 
ATOM     42  C   UNL A   1      38.013  32.023  32.721  1.00  0.00     0.029 A 
ATOM     43  C   UNL A   1      39.276  31.324  32.931  1.00  0.00     0.049 A 
ATOM     44  H   UNL A   1      40.286  30.105  31.574  1.00  0.00     0.167 HD
ATOM     45  C   UNL A   1      42.086  27.216  28.769  1.00  0.00     0.034 A 
ATOM     46  C   UNL A   1      40.010  31.360  34.063  1.00  0.00     0.034 A 
ATOM     47  C   UNL A   1      42.976  27.256  29.903  1.00  0.00     0.049 A 
ATOM     48  C   UNL A   1      41.282  30.552  34.130  1.00  0.00     0.074 A 
ATOM     49  C   UNL A   1      44.192  26.617  30.070  1.00  0.00     0.029 A 
ATOM     50  N   UNL A   1      42.749  27.984  31.065  1.00  0.00    -0.354 N 
ATOM     51  N   UNL A   1      41.799  29.748  33.230  1.00  0.00    -0.248 NA
ATOM     52  C   UNL A   1      42.071  30.662  35.363  1.00  0.00     0.031 C 
ATOM     53  C   UNL A   1      44.671  26.912  31.351  1.00  0.00     0.029 A 
ATOM     54  C   UNL A   1      43.791  27.793  31.958  1.00  0.00     0.049 A 
ATOM     55  H   UNL A   1      41.962  28.552  31.229  1.00  0.00     0.167 HD
ATOM     56  C   UNL A   1      42.992  29.283  33.777  1.00  0.00     0.074 A 
ATOM     57  C   UNL A   1      43.122  29.908  35.078  1.00  0.00     0.031 C 
ATOM     58  C   UNL A   1      43.901  28.422  33.254  1.00  0.00     0.034 A 
BRANCH  45  59
ATOM     59  C   UNL A   1      42.421  26.311  27.604  1.00  0.00     0.023 A 
ATOM     60  C   UNL A   1      41.929  24.996  27.524  1.00  0.00     0.031 A 
ATOM     61  C   UNL A   1      43.280  26.752  26.582  1.00  0.00     0.131 A 
ATOM     62  C   UNL A   1      42.370  24.142  26.502  1.00  0.00     0.055 A 
ATOM     63  C   UNL A   1      43.643  25.925  25.515  1.00  0.00     0.041 A 
ATOM     64  F   UNL A   1      43.799  27.990  26.610  1.00  0.00    -0.206 F 
ATOM     65  C   UNL A   1      43.202  24.605  25.481  1.00  0.00     0.022 A 
BRANCH  62  66
ATOM     66  S   UNL A   1      41.969  22.377  26.619  1.00  0.00     0.124 S 
ATOM     67  O   UNL A   1      42.629  21.848  25.428  1.00  0.00    -0.237 OA
ATOM     68  O   UNL A   1      42.562  22.002  27.897  1.00  0.00    -0.237 OA
ATOM     69  O   UNL A   1      40.509  22.355  26.577  1.00  0.00    -0.744 OA
ENDBRANCH  62  66
ENDBRANCH  45  59
BRANCH  46  70
ATOM     70  C   UNL A   1      39.564  32.175  35.230  1.00  0.00     0.023 A 
ATOM     71  C   UNL A   1      38.850  31.588  36.286  1.00  0.00     0.031 A 
ATOM     72  C   UNL A   1      39.807  33.559  35.289  1.00  0.00     0.131 A 
ATOM     73  C   UNL A   1      38.362  32.386  37.332  1.00  0.00     0.055 A 
ATOM     74  C   UNL A   1      39.365  34.341  36.358  1.00  0.00     0.041 A 
ATOM     75  F   UNL A   1      40.490  34.172  34.308  1.00  0.00    -0.206 F 
ATOM     76  C   UNL A   1      38.625  33.756  37.382  1.00  0.00     0.022 A 
BRANCH  73  77
ATOM     77  S   UNL A   1      37.300  31.619  38.587  1.00  0.00     0.124 S 
ATOM     78  O   UNL A   1      38.159  31.652  39.764  1.00  0.00    -0.237 OA
ATOM     79  O   UNL A   1      36.152  32.520  38.603  1.00  0.00    -0.237 OA
ATOM     80  O   UNL A   1      37.037  30.288  38.042  1.00  0.00    -0.744 OA
ENDBRANCH  73  77
ENDBRANCH  46  70
BRANCH  58  81
ATOM     81  C   UNL A   1      45.140  28.152  34.072  1.00  0.00     0.023 A 
ATOM     82  C   UNL A   1      45.206  27.087  34.986  1.00  0.00     0.031 A 
ATOM     83  C   UNL A   1      46.266  28.984  33.938  1.00  0.00     0.131 A 
ATOM     84  C   UNL A   1      46.356  26.913  35.772  1.00  0.00     0.055 A 
ATOM     85  C   UNL A   1      47.429  28.770  34.679  1.00  0.00     0.041 A 
ATOM     86  F   UNL A   1      46.255  30.016  33.081  1.00  0.00    -0.206 F 
ATOM     87  C   UNL A   1      47.473  27.738  35.612  1.00  0.00     0.022 A 
BRANCH  84  88
ATOM     88  S   UNL A   1      46.339  25.648  37.071  1.00  0.00     0.124 S 
ATOM     89  O   UNL A   1      44.928  25.273  37.110  1.00  0.00    -0.237 OA
ATOM     90  O   UNL A   1      47.252  24.642  36.540  1.00  0.00    -0.237 OA
ATOM     91  O   UNL A   1      46.822  26.362  38.251  1.00  0.00    -0.744 OA
ENDBRANCH  84  88
ENDBRANCH  58  81
ENDBRANCH  32  33
ENDBRANCH  24  27
ENDBRANCH  22  23
ENDBRANCH   1  22
TORSDOF 16
ENDMDL
