MODEL 1
REMARK VINA RESULT:     -12.3      0.000      0.000
REMARK SMILES CCC(CC)COc1cc2c(cc1Cl)C=C(C(=O)NCCCNC(=O)c1ccc(-c3c4nc(c(-c5cc(S(=O)(=O)[O-])ccc5F)c5ccc([nH]5)c(-c5cc(S(=O)(=O)[O-])ccc5F)c5nc(c(-c6cc(S(=O)(=O)[O-])ccc6F)c6ccc3[nH]6)C=C5)C=C4)cc1)[C@@H](C(F)(F)F)O2
REMARK SMILES IDX 20 1 19 2 17 3 18 4 16 6 8 7 9 8 13 9 10 10 12 11 14 12
REMARK SMILES IDX 11 13 94 14 15 15 89 16 7 17 6 18 3 19 2 20 1 21 4 22 5 23
REMARK SMILES IDX 90 24 91 25 92 26 93 27 21 28 22 29 23 30 24 31 25 33 26 34
REMARK SMILES IDX 27 35 88 36 28 37 87 38 29 39 30 40 31 41 81 42 32 43 86 44
REMARK SMILES IDX 80 45 82 46 33 47 85 48 79 49 78 50 34 52 66 53 46 54 65 55
REMARK SMILES IDX 47 56 50 57 64 58 83 59 48 60 49 61 63 63 84 64 51 65 35 66
REMARK SMILES IDX 36 67 44 68 37 69 43 70 45 71 42 72 38 73 39 74 40 75 41 76
REMARK SMILES IDX 67 77 68 78 76 79 69 80 75 81 77 82 74 83 70 84 71 85 72 86
REMARK SMILES IDX 73 87 52 88 53 89 61 90 54 91 60 92 62 93 59 94 55 95 56 96
REMARK SMILES IDX 57 97 58 98
REMARK H PARENT 19 5 23 32 82 51 50 62
REMARK Flexibility Score: inf
ROOT
ATOM      1  C   UNL A   1      31.229  30.257  25.060  1.00  0.00     0.118 C 
ENDROOT
BRANCH   1   2
ATOM      2  N   UNL A   1      30.485  30.105  23.820  1.00  0.00    -0.352 N 
ATOM      3  C   UNL A   1      30.240  29.111  22.940  1.00  0.00     0.251 C 
ATOM      4  O   UNL A   1      29.520  29.414  21.983  1.00  0.00    -0.270 OA
ATOM      5  H   UNL A   1      30.048  30.945  23.553  1.00  0.00     0.163 HD
BRANCH   3   6
ATOM      6  C   UNL A   1      30.753  27.724  23.064  1.00  0.00     0.067 C 
ATOM      7  C   UNL A   1      31.426  22.941  24.323  1.00  0.00     0.141 A 
ATOM      8  C   UNL A   1      31.621  23.639  23.129  1.00  0.00     0.095 A 
ATOM      9  C   UNL A   1      30.967  23.614  25.466  1.00  0.00     0.083 A 
ATOM     10  C   UNL A   1      31.270  24.983  23.076  1.00  0.00     0.131 A 
ATOM     11  C   UNL A   1      30.498  24.924  25.364  1.00  0.00     0.036 A 
ATOM     12  Cl  UNL A   1      30.947  22.871  27.023  1.00  0.00    -0.080 Cl
ATOM     13  C   UNL A   1      30.632  25.602  24.158  1.00  0.00     0.019 A 
ATOM     14  O   UNL A   1      31.604  25.698  21.953  1.00  0.00    -0.475 OA
ATOM     15  C   UNL A   1      30.154  26.967  24.001  1.00  0.00     0.025 C 
ATOM     16  C   UNL A   1      31.856  27.114  22.242  1.00  0.00     0.314 C 
BRANCH   7  17
ATOM     17  O   UNL A   1      31.729  21.607  24.378  1.00  0.00    -0.492 OA
BRANCH  17  18
ATOM     18  C   UNL A   1      32.983  21.299  23.723  1.00  0.00     0.233 C 
BRANCH  18  19
ATOM     19  C   UNL A   1      34.127  21.119  24.752  1.00  0.00     0.026 C 
BRANCH  19  20
ATOM     20  C   UNL A   1      35.095  22.326  24.734  1.00  0.00     0.003 C 
ATOM     21  C   UNL A   1      35.138  23.029  23.385  1.00  0.00     0.004 C 
ENDBRANCH  19  20
BRANCH  19  22
ATOM     22  C   UNL A   1      33.595  20.813  26.167  1.00  0.00     0.003 C 
ATOM     23  C   UNL A   1      34.254  21.587  27.299  1.00  0.00     0.004 C 
ENDBRANCH  19  22
ENDBRANCH  18  19
ENDBRANCH  17  18
ENDBRANCH   7  17
BRANCH  16  24
ATOM     24  C   UNL A   1      33.248  27.307  22.900  1.00  0.00     0.429 C 
ATOM     25  F   UNL A   1      33.774  26.115  23.266  1.00  0.00    -0.167 F 
ATOM     26  F   UNL A   1      34.140  27.882  22.054  1.00  0.00    -0.167 F 
ATOM     27  F   UNL A   1      33.220  28.091  24.001  1.00  0.00    -0.167 F 
ENDBRANCH  16  24
ENDBRANCH   3   6
ENDBRANCH   1   2
BRANCH   1  28
ATOM     28  C   UNL A   1      30.967  31.608  25.701  1.00  0.00     0.042 C 
BRANCH  28  29
ATOM     29  C   UNL A   1      31.924  31.898  26.847  1.00  0.00     0.118 C 
BRANCH  29  30
ATOM     30  N   UNL A   1      31.984  33.324  27.161  1.00  0.00    -0.352 N 
ATOM     31  C   UNL A   1      32.876  34.019  27.948  1.00  0.00     0.251 C 
ATOM     32  H   UNL A   1      31.280  33.871  26.746  1.00  0.00     0.163 HD
ATOM     33  O   UNL A   1      32.621  35.167  28.282  1.00  0.00    -0.269 OA
BRANCH  31  34
ATOM     34  C   UNL A   1      34.117  33.357  28.403  1.00  0.00     0.039 A 
ATOM     35  C   UNL A   1      34.065  32.076  28.949  1.00  0.00     0.014 A 
ATOM     36  C   UNL A   1      35.338  34.029  28.306  1.00  0.00     0.014 A 
ATOM     37  C   UNL A   1      35.179  31.560  29.594  1.00  0.00     0.010 A 
ATOM     38  C   UNL A   1      36.490  33.450  28.847  1.00  0.00     0.010 A 
ATOM     39  C   UNL A   1      36.408  32.236  29.547  1.00  0.00    -0.014 A 
BRANCH  39  40
ATOM     40  C   UNL A   1      37.587  31.632  30.224  1.00  0.00     0.031 A 
ATOM     41  C   UNL A   1      37.896  31.935  31.663  1.00  0.00     0.074 A 
ATOM     42  C   UNL A   1      38.337  30.745  29.541  1.00  0.00     0.049 A 
ATOM     43  N   UNL A   1      38.848  31.447  32.417  1.00  0.00    -0.248 NA
ATOM     44  C   UNL A   1      37.038  32.915  32.347  1.00  0.00     0.031 C 
ATOM     45  C   UNL A   1      38.121  30.378  28.141  1.00  0.00     0.029 A 
ATOM     46  N   UNL A   1      39.397  29.965  29.928  1.00  0.00    -0.354 N 
ATOM     47  C   UNL A   1      38.725  32.080  33.648  1.00  0.00     0.074 A 
ATOM     48  C   UNL A   1      37.622  33.009  33.534  1.00  0.00     0.031 C 
ATOM     49  C   UNL A   1      38.960  29.390  27.811  1.00  0.00     0.029 A 
ATOM     50  C   UNL A   1      39.839  29.112  28.944  1.00  0.00     0.049 A 
ATOM     51  H   UNL A   1      39.802  30.011  30.824  1.00  0.00     0.167 HD
ATOM     52  C   UNL A   1      39.459  31.894  34.771  1.00  0.00     0.034 A 
ATOM     53  C   UNL A   1      40.844  28.214  28.940  1.00  0.00     0.034 A 
ATOM     54  C   UNL A   1      40.534  30.939  34.872  1.00  0.00     0.049 A 
ATOM     55  C   UNL A   1      41.652  28.032  30.194  1.00  0.00     0.074 A 
ATOM     56  C   UNL A   1      41.309  30.641  35.980  1.00  0.00     0.029 A 
ATOM     57  N   UNL A   1      40.988  30.130  33.839  1.00  0.00    -0.354 N 
ATOM     58  N   UNL A   1      41.495  28.609  31.362  1.00  0.00    -0.248 NA
ATOM     59  C   UNL A   1      42.775  27.088  30.137  1.00  0.00     0.031 C 
ATOM     60  C   UNL A   1      42.269  29.702  35.600  1.00  0.00     0.029 A 
ATOM     61  C   UNL A   1      42.052  29.358  34.276  1.00  0.00     0.049 A 
ATOM     62  H   UNL A   1      40.609  30.108  32.931  1.00  0.00     0.167 HD
ATOM     63  C   UNL A   1      42.496  28.097  32.181  1.00  0.00     0.074 A 
ATOM     64  C   UNL A   1      43.232  27.137  31.383  1.00  0.00     0.031 C 
ATOM     65  C   UNL A   1      42.782  28.402  33.473  1.00  0.00     0.034 A 
BRANCH  52  66
ATOM     66  C   UNL A   1      39.144  32.727  35.989  1.00  0.00     0.023 A 
ATOM     67  C   UNL A   1      39.711  34.009  36.127  1.00  0.00     0.031 A 
ATOM     68  C   UNL A   1      38.383  32.221  37.057  1.00  0.00     0.131 A 
ATOM     69  C   UNL A   1      39.527  34.730  37.314  1.00  0.00     0.055 A 
ATOM     70  C   UNL A   1      38.171  32.959  38.224  1.00  0.00     0.041 A 
ATOM     71  F   UNL A   1      37.821  31.003  36.978  1.00  0.00    -0.206 F 
ATOM     72  C   UNL A   1      38.755  34.215  38.359  1.00  0.00     0.022 A 
BRANCH  69  73
ATOM     73  S   UNL A   1      40.334  36.334  37.574  1.00  0.00     0.124 S 
ATOM     74  O   UNL A   1      40.380  36.867  36.214  1.00  0.00    -0.237 OA
ATOM     75  O   UNL A   1      39.401  37.004  38.475  1.00  0.00    -0.237 OA
ATOM     76  O   UNL A   1      41.628  35.986  38.151  1.00  0.00    -0.744 OA
ENDBRANCH  69  73
ENDBRANCH  52  66
BRANCH  53  77
ATOM     77  C   UNL A   1      41.079  27.407  27.707  1.00  0.00     0.023 A 
ATOM     78  C   UNL A   1      40.765  26.035  27.674  1.00  0.00     0.031 A 
ATOM     79  C   UNL A   1      41.766  27.954  26.611  1.00  0.00     0.131 A 
ATOM     80  C   UNL A   1      41.229  25.239  26.620  1.00  0.00     0.055 A 
ATOM     81  C   UNL A   1      42.154  27.170  25.521  1.00  0.00     0.041 A 
ATOM     82  F   UNL A   1      42.099  29.254  26.601  1.00  0.00    -0.206 F 
ATOM     83  C   UNL A   1      41.908  25.801  25.535  1.00  0.00     0.022 A 
BRANCH  80  84
ATOM     84  S   UNL A   1      41.118  23.429  26.708  1.00  0.00     0.124 S 
ATOM     85  O   UNL A   1      41.422  23.173  28.111  1.00  0.00    -0.237 OA
ATOM     86  O   UNL A   1      39.730  23.199  26.310  1.00  0.00    -0.237 OA
ATOM     87  O   UNL A   1      42.120  22.975  25.751  1.00  0.00    -0.744 OA
ENDBRANCH  80  84
ENDBRANCH  53  77
BRANCH  65  88
ATOM     88  C   UNL A   1      43.951  27.713  34.130  1.00  0.00     0.023 A 
ATOM     89  C   UNL A   1      43.787  26.438  34.701  1.00  0.00     0.031 A 
ATOM     90  C   UNL A   1      45.173  28.381  34.330  1.00  0.00     0.131 A 
ATOM     91  C   UNL A   1      44.809  25.887  35.484  1.00  0.00     0.055 A 
ATOM     92  C   UNL A   1      46.206  27.808  35.071  1.00  0.00     0.041 A 
ATOM     93  F   UNL A   1      45.373  29.603  33.812  1.00  0.00    -0.206 F 
ATOM     94  C   UNL A   1      46.021  26.563  35.666  1.00  0.00     0.022 A 
BRANCH  91  95
ATOM     95  S   UNL A   1      44.568  24.324  36.372  1.00  0.00     0.124 S 
ATOM     96  O   UNL A   1      44.589  24.762  37.765  1.00  0.00    -0.237 OA
ATOM     97  O   UNL A   1      43.266  23.886  35.875  1.00  0.00    -0.237 OA
ATOM     98  O   UNL A   1      45.704  23.506  35.960  1.00  0.00    -0.744 OA
ENDBRANCH  91  95
ENDBRANCH  65  88
ENDBRANCH  39  40
ENDBRANCH  31  34
ENDBRANCH  29  30
ENDBRANCH  28  29
ENDBRANCH   1  28
TORSDOF 19
ENDMDL
MODEL 2
REMARK VINA RESULT:     -12.1      1.972      2.493
REMARK SMILES CCC(CC)COc1cc2c(cc1Cl)C=C(C(=O)NCCCNC(=O)c1ccc(-c3c4nc(c(-c5cc(S(=O)(=O)[O-])ccc5F)c5ccc([nH]5)c(-c5cc(S(=O)(=O)[O-])ccc5F)c5nc(c(-c6cc(S(=O)(=O)[O-])ccc6F)c6ccc3[nH]6)C=C5)C=C4)cc1)[C@@H](C(F)(F)F)O2
REMARK SMILES IDX 20 1 19 2 17 3 18 4 16 6 8 7 9 8 13 9 10 10 12 11 14 12
REMARK SMILES IDX 11 13 94 14 15 15 89 16 7 17 6 18 3 19 2 20 1 21 4 22 5 23
REMARK SMILES IDX 90 24 91 25 92 26 93 27 21 28 22 29 23 30 24 31 25 33 26 34
REMARK SMILES IDX 27 35 88 36 28 37 87 38 29 39 30 40 31 41 81 42 32 43 86 44
REMARK SMILES IDX 80 45 82 46 33 47 85 48 79 49 78 50 34 52 66 53 46 54 65 55
REMARK SMILES IDX 47 56 50 57 64 58 83 59 48 60 49 61 63 63 84 64 51 65 35 66
REMARK SMILES IDX 36 67 44 68 37 69 43 70 45 71 42 72 38 73 39 74 40 75 41 76
REMARK SMILES IDX 67 77 68 78 76 79 69 80 75 81 77 82 74 83 70 84 71 85 72 86
REMARK SMILES IDX 73 87 52 88 53 89 61 90 54 91 60 92 62 93 59 94 55 95 56 96
REMARK SMILES IDX 57 97 58 98
REMARK H PARENT 19 5 23 32 82 51 50 62
REMARK Flexibility Score: inf
ROOT
ATOM      1  C   UNL A   1      32.262  30.082  25.745  1.00  0.00     0.118 C 
ENDROOT
BRANCH   1   2
ATOM      2  N   UNL A   1      31.259  30.077  24.693  1.00  0.00    -0.352 N 
ATOM      3  C   UNL A   1      30.721  29.164  23.857  1.00  0.00     0.251 C 
ATOM      4  O   UNL A   1      29.852  29.592  23.091  1.00  0.00    -0.270 OA
ATOM      5  H   UNL A   1      30.871  30.971  24.555  1.00  0.00     0.163 HD
BRANCH   3   6
ATOM      6  C   UNL A   1      31.089  27.726  23.822  1.00  0.00     0.067 C 
ATOM      7  C   UNL A   1      31.680  22.887  24.891  1.00  0.00     0.141 A 
ATOM      8  C   UNL A   1      31.469  23.569  23.692  1.00  0.00     0.095 A 
ATOM      9  C   UNL A   1      31.777  23.597  26.099  1.00  0.00     0.083 A 
ATOM     10  C   UNL A   1      31.271  24.944  23.731  1.00  0.00     0.131 A 
ATOM     11  C   UNL A   1      31.450  24.952  26.140  1.00  0.00     0.036 A 
ATOM     12  Cl  UNL A   1      32.285  22.847  27.567  1.00  0.00    -0.080 Cl
ATOM     13  C   UNL A   1      31.176  25.622  24.953  1.00  0.00     0.019 A 
ATOM     14  O   UNL A   1      31.217  25.627  22.541  1.00  0.00    -0.475 OA
ATOM     15  C   UNL A   1      30.824  27.034  24.945  1.00  0.00     0.025 C 
ATOM     16  C   UNL A   1      31.712  27.004  22.659  1.00  0.00     0.314 C 
BRANCH   7  17
ATOM     17  O   UNL A   1      31.834  21.526  24.872  1.00  0.00    -0.492 OA
BRANCH  17  18
ATOM     18  C   UNL A   1      32.958  21.111  24.061  1.00  0.00     0.233 C 
BRANCH  18  19
ATOM     19  C   UNL A   1      33.972  20.278  24.884  1.00  0.00     0.026 C 
BRANCH  19  20
ATOM     20  C   UNL A   1      33.962  18.793  24.452  1.00  0.00     0.003 C 
ATOM     21  C   UNL A   1      32.736  18.424  23.629  1.00  0.00     0.004 C 
ENDBRANCH  19  20
BRANCH  19  22
ATOM     22  C   UNL A   1      35.388  20.889  24.855  1.00  0.00     0.003 C 
ATOM     23  C   UNL A   1      35.460  22.367  24.502  1.00  0.00     0.004 C 
ENDBRANCH  19  22
ENDBRANCH  18  19
ENDBRANCH  17  18
ENDBRANCH   7  17
BRANCH  16  24
ATOM     24  C   UNL A   1      33.262  27.032  22.719  1.00  0.00     0.429 C 
ATOM     25  F   UNL A   1      33.757  27.984  21.892  1.00  0.00    -0.167 F 
ATOM     26  F   UNL A   1      33.722  27.321  23.963  1.00  0.00    -0.167 F 
ATOM     27  F   UNL A   1      33.838  25.859  22.372  1.00  0.00    -0.167 F 
ENDBRANCH  16  24
ENDBRANCH   3   6
ENDBRANCH   1   2
BRANCH   1  28
ATOM     28  C   UNL A   1      31.922  31.090  26.829  1.00  0.00     0.042 C 
BRANCH  28  29
ATOM     29  C   UNL A   1      33.140  31.877  27.288  1.00  0.00     0.118 C 
BRANCH  29  30
ATOM     30  N   UNL A   1      32.822  33.280  27.541  1.00  0.00    -0.352 N 
ATOM     31  C   UNL A   1      33.284  34.129  28.521  1.00  0.00     0.251 C 
ATOM     32  H   UNL A   1      32.178  33.680  26.913  1.00  0.00     0.163 HD
ATOM     33  O   UNL A   1      32.721  35.197  28.714  1.00  0.00    -0.269 OA
BRANCH  31  34
ATOM     34  C   UNL A   1      34.440  33.725  29.350  1.00  0.00     0.039 A 
ATOM     35  C   UNL A   1      35.716  34.201  29.049  1.00  0.00     0.014 A 
ATOM     36  C   UNL A   1      34.255  32.845  30.420  1.00  0.00     0.014 A 
ATOM     37  C   UNL A   1      36.821  33.635  29.665  1.00  0.00     0.010 A 
ATOM     38  C   UNL A   1      35.365  32.371  31.124  1.00  0.00     0.010 A 
ATOM     39  C   UNL A   1      36.662  32.717  30.715  1.00  0.00    -0.014 A 
BRANCH  39  40
ATOM     40  C   UNL A   1      37.875  32.159  31.371  1.00  0.00     0.031 A 
ATOM     41  C   UNL A   1      38.286  32.602  32.747  1.00  0.00     0.074 A 
ATOM     42  C   UNL A   1      38.563  31.190  30.737  1.00  0.00     0.049 A 
ATOM     43  N   UNL A   1      39.279  32.173  33.483  1.00  0.00    -0.248 NA
ATOM     44  C   UNL A   1      37.492  33.666  33.380  1.00  0.00     0.031 C 
ATOM     45  C   UNL A   1      38.246  30.685  29.399  1.00  0.00     0.029 A 
ATOM     46  N   UNL A   1      39.634  30.431  31.131  1.00  0.00    -0.354 N 
ATOM     47  C   UNL A   1      39.250  32.932  34.647  1.00  0.00     0.074 A 
ATOM     48  C   UNL A   1      38.157  33.869  34.510  1.00  0.00     0.031 C 
ATOM     49  C   UNL A   1      39.045  29.650  29.119  1.00  0.00     0.029 A 
ATOM     50  C   UNL A   1      39.995  29.471  30.215  1.00  0.00     0.049 A 
ATOM     51  H   UNL A   1      40.101  30.559  31.989  1.00  0.00     0.167 HD
ATOM     52  C   UNL A   1      40.056  32.846  35.732  1.00  0.00     0.034 A 
ATOM     53  C   UNL A   1      40.984  28.555  30.238  1.00  0.00     0.034 A 
ATOM     54  C   UNL A   1      41.121  31.883  35.861  1.00  0.00     0.049 A 
ATOM     55  C   UNL A   1      41.872  28.485  31.448  1.00  0.00     0.074 A 
ATOM     56  C   UNL A   1      41.964  31.683  36.940  1.00  0.00     0.029 A 
ATOM     57  N   UNL A   1      41.491  30.961  34.890  1.00  0.00    -0.354 N 
ATOM     58  N   UNL A   1      41.804  29.183  32.558  1.00  0.00    -0.248 NA
ATOM     59  C   UNL A   1      42.974  27.515  31.415  1.00  0.00     0.031 C 
ATOM     60  C   UNL A   1      42.882  30.689  36.598  1.00  0.00     0.029 A 
ATOM     61  C   UNL A   1      42.570  30.215  35.334  1.00  0.00     0.049 A 
ATOM     62  H   UNL A   1      41.051  30.855  34.016  1.00  0.00     0.167 HD
ATOM     63  C   UNL A   1      42.850  28.735  33.358  1.00  0.00     0.074 A 
ATOM     64  C   UNL A   1      43.516  27.682  32.616  1.00  0.00     0.031 C 
ATOM     65  C   UNL A   1      43.228  29.166  34.588  1.00  0.00     0.034 A 
BRANCH  52  66
ATOM     66  C   UNL A   1      39.838  33.807  36.875  1.00  0.00     0.023 A 
ATOM     67  C   UNL A   1      39.234  33.356  38.065  1.00  0.00     0.031 A 
ATOM     68  C   UNL A   1      40.117  35.180  36.754  1.00  0.00     0.131 A 
ATOM     69  C   UNL A   1      38.910  34.270  39.075  1.00  0.00     0.055 A 
ATOM     70  C   UNL A   1      39.826  36.083  37.779  1.00  0.00     0.041 A 
ATOM     71  F   UNL A   1      40.692  35.663  35.640  1.00  0.00    -0.206 F 
ATOM     72  C   UNL A   1      39.209  35.629  38.941  1.00  0.00     0.022 A 
BRANCH  69  73
ATOM     73  S   UNL A   1      38.030  33.745  40.572  1.00  0.00     0.124 S 
ATOM     74  O   UNL A   1      36.875  33.049  40.008  1.00  0.00    -0.237 OA
ATOM     75  O   UNL A   1      39.017  32.889  41.223  1.00  0.00    -0.237 OA
ATOM     76  O   UNL A   1      37.729  34.996  41.258  1.00  0.00    -0.744 OA
ENDBRANCH  69  73
ENDBRANCH  52  66
BRANCH  53  77
ATOM     77  C   UNL A   1      41.122  27.620  29.083  1.00  0.00     0.023 A 
ATOM     78  C   UNL A   1      42.117  27.823  28.108  1.00  0.00     0.031 A 
ATOM     79  C   UNL A   1      40.167  26.615  28.854  1.00  0.00     0.131 A 
ATOM     80  C   UNL A   1      42.070  27.107  26.905  1.00  0.00     0.055 A 
ATOM     81  C   UNL A   1      40.175  25.846  27.688  1.00  0.00     0.041 A 
ATOM     82  F   UNL A   1      39.192  26.392  29.749  1.00  0.00    -0.206 F 
ATOM     83  C   UNL A   1      41.115  26.108  26.696  1.00  0.00     0.022 A 
BRANCH  80  84
ATOM     84  S   UNL A   1      43.137  27.569  25.511  1.00  0.00     0.124 S 
ATOM     85  O   UNL A   1      43.590  26.269  25.030  1.00  0.00    -0.237 OA
ATOM     86  O   UNL A   1      42.197  28.272  24.640  1.00  0.00    -0.237 OA
ATOM     87  O   UNL A   1      44.160  28.408  26.124  1.00  0.00    -0.744 OA
ENDBRANCH  80  84
ENDBRANCH  53  77
BRANCH  65  88
ATOM     88  C   UNL A   1      44.429  28.522  35.235  1.00  0.00     0.023 A 
ATOM     89  C   UNL A   1      44.253  27.561  36.248  1.00  0.00     0.031 A 
ATOM     90  C   UNL A   1      45.733  28.972  34.963  1.00  0.00     0.131 A 
ATOM     91  C   UNL A   1      45.357  27.116  36.986  1.00  0.00     0.055 A 
ATOM     92  C   UNL A   1      46.835  28.489  35.668  1.00  0.00     0.041 A 
ATOM     93  F   UNL A   1      45.950  29.894  34.011  1.00  0.00    -0.206 F 
ATOM     94  C   UNL A   1      46.648  27.569  36.696  1.00  0.00     0.022 A 
BRANCH  91  95
ATOM     95  S   UNL A   1      45.146  26.008  38.406  1.00  0.00     0.124 S 
ATOM     96  O   UNL A   1      43.836  26.411  38.911  1.00  0.00    -0.237 OA
ATOM     97  O   UNL A   1      45.194  24.689  37.778  1.00  0.00    -0.237 OA
ATOM     98  O   UNL A   1      46.273  26.328  39.275  1.00  0.00    -0.744 OA
ENDBRANCH  91  95
ENDBRANCH  65  88
ENDBRANCH  39  40
ENDBRANCH  31  34
ENDBRANCH  29  30
ENDBRANCH  28  29
ENDBRANCH   1  28
TORSDOF 19
ENDMDL
MODEL 3
REMARK VINA RESULT:     -11.9      1.458      7.452
REMARK SMILES CCC(CC)COc1cc2c(cc1Cl)C=C(C(=O)NCCCNC(=O)c1ccc(-c3c4nc(c(-c5cc(S(=O)(=O)[O-])ccc5F)c5ccc([nH]5)c(-c5cc(S(=O)(=O)[O-])ccc5F)c5nc(c(-c6cc(S(=O)(=O)[O-])ccc6F)c6ccc3[nH]6)C=C5)C=C4)cc1)[C@@H](C(F)(F)F)O2
REMARK SMILES IDX 20 1 19 2 17 3 18 4 16 6 8 7 9 8 13 9 10 10 12 11 14 12
REMARK SMILES IDX 11 13 94 14 15 15 89 16 7 17 6 18 3 19 2 20 1 21 4 22 5 23
REMARK SMILES IDX 90 24 91 25 92 26 93 27 21 28 22 29 23 30 24 31 25 33 26 34
REMARK SMILES IDX 27 35 88 36 28 37 87 38 29 39 30 40 31 41 81 42 32 43 86 44
REMARK SMILES IDX 80 45 82 46 33 47 85 48 79 49 78 50 34 52 66 53 46 54 65 55
REMARK SMILES IDX 47 56 50 57 64 58 83 59 48 60 49 61 63 63 84 64 51 65 35 66
REMARK SMILES IDX 36 67 44 68 37 69 43 70 45 71 42 72 38 73 39 74 40 75 41 76
REMARK SMILES IDX 67 77 68 78 76 79 69 80 75 81 77 82 74 83 70 84 71 85 72 86
REMARK SMILES IDX 73 87 52 88 53 89 61 90 54 91 60 92 62 93 59 94 55 95 56 96
REMARK SMILES IDX 57 97 58 98
REMARK H PARENT 19 5 23 32 82 51 50 62
REMARK Flexibility Score: inf
ROOT
ATOM      1  C   UNL A   1      31.341  30.315  25.086  1.00  0.00     0.118 C 
ENDROOT
BRANCH   1   2
ATOM      2  N   UNL A   1      30.444  30.149  23.954  1.00  0.00    -0.352 N 
ATOM      3  C   UNL A   1      30.095  29.147  23.119  1.00  0.00     0.251 C 
ATOM      4  O   UNL A   1      29.255  29.438  22.262  1.00  0.00    -0.270 OA
ATOM      5  H   UNL A   1      29.969  30.983  23.740  1.00  0.00     0.163 HD
BRANCH   3   6
ATOM      6  C   UNL A   1      30.631  27.764  23.185  1.00  0.00     0.067 C 
ATOM      7  C   UNL A   1      31.459  22.978  24.334  1.00  0.00     0.141 A 
ATOM      8  C   UNL A   1      31.543  23.688  23.135  1.00  0.00     0.095 A 
ATOM      9  C   UNL A   1      31.095  23.636  25.519  1.00  0.00     0.083 A 
ATOM     10  C   UNL A   1      31.174  25.029  23.126  1.00  0.00     0.131 A 
ATOM     11  C   UNL A   1      30.606  24.941  25.472  1.00  0.00     0.036 A 
ATOM     12  Cl  UNL A   1      31.218  22.879  27.065  1.00  0.00    -0.080 Cl
ATOM     13  C   UNL A   1      30.627  25.631  24.265  1.00  0.00     0.019 A 
ATOM     14  O   UNL A   1      31.402  25.757  21.985  1.00  0.00    -0.475 OA
ATOM     15  C   UNL A   1      30.123  26.993  24.164  1.00  0.00     0.025 C 
ATOM     16  C   UNL A   1      31.664  27.174  22.264  1.00  0.00     0.314 C 
BRANCH   7  17
ATOM     17  O   UNL A   1      31.779  21.646  24.349  1.00  0.00    -0.492 OA
BRANCH  17  18
ATOM     18  C   UNL A   1      33.082  21.386  23.775  1.00  0.00     0.233 C 
BRANCH  18  19
ATOM     19  C   UNL A   1      34.187  22.202  24.490  1.00  0.00     0.026 C 
BRANCH  19  20
ATOM     20  C   UNL A   1      34.900  21.357  25.572  1.00  0.00     0.003 C 
ATOM     21  C   UNL A   1      34.697  21.903  26.978  1.00  0.00     0.004 C 
ENDBRANCH  19  20
BRANCH  19  22
ATOM     22  C   UNL A   1      35.178  22.838  23.494  1.00  0.00     0.003 C 
ATOM     23  C   UNL A   1      36.650  22.564  23.764  1.00  0.00     0.004 C 
ENDBRANCH  19  22
ENDBRANCH  18  19
ENDBRANCH  17  18
ENDBRANCH   7  17
BRANCH  16  24
ATOM     24  C   UNL A   1      33.106  27.376  22.800  1.00  0.00     0.429 C 
ATOM     25  F   UNL A   1      33.859  26.273  22.579  1.00  0.00    -0.167 F 
ATOM     26  F   UNL A   1      33.740  28.409  22.189  1.00  0.00    -0.167 F 
ATOM     27  F   UNL A   1      33.156  27.639  24.126  1.00  0.00    -0.167 F 
ENDBRANCH  16  24
ENDBRANCH   3   6
ENDBRANCH   1   2
BRANCH   1  28
ATOM     28  C   UNL A   1      31.036  31.591  25.851  1.00  0.00     0.042 C 
BRANCH  28  29
ATOM     29  C   UNL A   1      32.037  31.847  26.968  1.00  0.00     0.118 C 
BRANCH  29  30
ATOM     30  N   UNL A   1      32.192  33.272  27.247  1.00  0.00    -0.352 N 
ATOM     31  C   UNL A   1      33.124  33.926  28.021  1.00  0.00     0.251 C 
ATOM     32  H   UNL A   1      31.528  33.855  26.814  1.00  0.00     0.163 HD
ATOM     33  O   UNL A   1      32.947  35.097  28.326  1.00  0.00    -0.269 OA
BRANCH  31  34
ATOM     34  C   UNL A   1      34.316  33.193  28.500  1.00  0.00     0.039 A 
ATOM     35  C   UNL A   1      34.219  31.844  28.835  1.00  0.00     0.014 A 
ATOM     36  C   UNL A   1      35.534  33.864  28.640  1.00  0.00     0.014 A 
ATOM     37  C   UNL A   1      35.262  31.228  29.509  1.00  0.00     0.010 A 
ATOM     38  C   UNL A   1      36.626  33.201  29.207  1.00  0.00     0.010 A 
ATOM     39  C   UNL A   1      36.482  31.895  29.700  1.00  0.00    -0.014 A 
BRANCH  39  40
ATOM     40  C   UNL A   1      37.587  31.186  30.399  1.00  0.00     0.031 A 
ATOM     41  C   UNL A   1      38.504  30.255  29.657  1.00  0.00     0.074 A 
ATOM     42  C   UNL A   1      37.798  31.449  31.703  1.00  0.00     0.049 A 
ATOM     43  N   UNL A   1      39.549  29.606  30.103  1.00  0.00    -0.248 NA
ATOM     44  C   UNL A   1      38.213  30.010  28.235  1.00  0.00     0.031 C 
ATOM     45  C   UNL A   1      36.968  32.339  32.516  1.00  0.00     0.029 A 
ATOM     46  N   UNL A   1      38.783  31.037  32.564  1.00  0.00    -0.354 N 
ATOM     47  C   UNL A   1      40.020  28.855  29.033  1.00  0.00     0.074 A 
ATOM     48  C   UNL A   1      39.132  29.106  27.920  1.00  0.00     0.031 C 
ATOM     49  C   UNL A   1      37.521  32.473  33.727  1.00  0.00     0.029 A 
ATOM     50  C   UNL A   1      38.695  31.607  33.813  1.00  0.00     0.049 A 
ATOM     51  H   UNL A   1      39.486  30.395  32.313  1.00  0.00     0.167 HD
ATOM     52  C   UNL A   1      41.101  28.040  28.984  1.00  0.00     0.034 A 
ATOM     53  C   UNL A   1      39.459  31.449  34.912  1.00  0.00     0.034 A 
ATOM     54  C   UNL A   1      41.992  27.828  30.096  1.00  0.00     0.049 A 
ATOM     55  C   UNL A   1      40.647  30.531  34.836  1.00  0.00     0.074 A 
ATOM     56  C   UNL A   1      43.142  27.058  30.134  1.00  0.00     0.029 A 
ATOM     57  N   UNL A   1      41.842  28.381  31.361  1.00  0.00    -0.354 N 
ATOM     58  N   UNL A   1      41.102  29.861  33.804  1.00  0.00    -0.248 NA
ATOM     59  C   UNL A   1      41.423  30.338  36.068  1.00  0.00     0.031 C 
ATOM     60  C   UNL A   1      43.648  27.094  31.434  1.00  0.00     0.029 A 
ATOM     61  C   UNL A   1      42.859  27.943  32.193  1.00  0.00     0.049 A 
ATOM     62  H   UNL A   1      41.119  28.995  31.627  1.00  0.00     0.167 HD
ATOM     63  C   UNL A   1      42.220  29.168  34.258  1.00  0.00     0.074 A 
ATOM     64  C   UNL A   1      42.391  29.528  35.651  1.00  0.00     0.031 C 
ATOM     65  C   UNL A   1      43.022  28.307  33.583  1.00  0.00     0.034 A 
BRANCH  52  66
ATOM     66  C   UNL A   1      41.397  27.306  27.698  1.00  0.00     0.023 A 
ATOM     67  C   UNL A   1      41.284  25.903  27.649  1.00  0.00     0.031 A 
ATOM     68  C   UNL A   1      41.895  27.970  26.563  1.00  0.00     0.131 A 
ATOM     69  C   UNL A   1      41.684  25.209  26.501  1.00  0.00     0.055 A 
ATOM     70  C   UNL A   1      42.257  27.278  25.406  1.00  0.00     0.041 A 
ATOM     71  F   UNL A   1      42.023  29.308  26.557  1.00  0.00    -0.206 F 
ATOM     72  C   UNL A   1      42.163  25.889  25.377  1.00  0.00     0.022 A 
BRANCH  69  73
ATOM     73  S   UNL A   1      41.661  23.396  26.441  1.00  0.00     0.124 S 
ATOM     74  O   UNL A   1      42.162  23.049  27.769  1.00  0.00    -0.237 OA
ATOM     75  O   UNL A   1      40.245  23.115  26.216  1.00  0.00    -0.237 OA
ATOM     76  O   UNL A   1      42.552  23.070  25.334  1.00  0.00    -0.744 OA
ENDBRANCH  69  73
ENDBRANCH  52  66
BRANCH  53  77
ATOM     77  C   UNL A   1      39.121  32.228  36.138  1.00  0.00     0.023 A 
ATOM     78  C   UNL A   1      38.309  31.670  37.144  1.00  0.00     0.031 A 
ATOM     79  C   UNL A   1      39.466  33.585  36.246  1.00  0.00     0.131 A 
ATOM     80  C   UNL A   1      37.785  32.489  38.151  1.00  0.00     0.055 A 
ATOM     81  C   UNL A   1      39.008  34.379  37.300  1.00  0.00     0.041 A 
ATOM     82  F   UNL A   1      40.228  34.166  35.306  1.00  0.00    -0.206 F 
ATOM     83  C   UNL A   1      38.142  33.837  38.245  1.00  0.00     0.022 A 
BRANCH  80  84
ATOM     84  S   UNL A   1      36.490  31.874  39.265  1.00  0.00     0.124 S 
ATOM     85  O   UNL A   1      35.349  32.703  38.895  1.00  0.00    -0.237 OA
ATOM     86  O   UNL A   1      36.405  30.469  38.871  1.00  0.00    -0.237 OA
ATOM     87  O   UNL A   1      37.039  32.111  40.595  1.00  0.00    -0.744 OA
ENDBRANCH  80  84
ENDBRANCH  53  77
BRANCH  65  88
ATOM     88  C   UNL A   1      44.167  27.663  34.324  1.00  0.00     0.023 A 
ATOM     89  C   UNL A   1      44.027  26.363  34.844  1.00  0.00     0.031 A 
ATOM     90  C   UNL A   1      45.325  28.391  34.652  1.00  0.00     0.131 A 
ATOM     91  C   UNL A   1      45.006  25.846  35.702  1.00  0.00     0.055 A 
ATOM     92  C   UNL A   1      46.320  27.853  35.468  1.00  0.00     0.041 A 
ATOM     93  F   UNL A   1      45.499  29.638  34.188  1.00  0.00    -0.206 F 
ATOM     94  C   UNL A   1      46.156  26.581  36.010  1.00  0.00     0.022 A 
BRANCH  91  95
ATOM     95  S   UNL A   1      44.780  24.244  36.521  1.00  0.00     0.124 S 
ATOM     96  O   UNL A   1      46.019  23.551  36.177  1.00  0.00    -0.237 OA
ATOM     97  O   UNL A   1      44.651  24.632  37.924  1.00  0.00    -0.237 OA
ATOM     98  O   UNL A   1      43.573  23.701  35.908  1.00  0.00    -0.744 OA
ENDBRANCH  91  95
ENDBRANCH  65  88
ENDBRANCH  39  40
ENDBRANCH  31  34
ENDBRANCH  29  30
ENDBRANCH  28  29
ENDBRANCH   1  28
TORSDOF 19
ENDMDL
