MODEL 1
REMARK VINA RESULT:     -13.6      0.000      0.000
REMARK SMILES O=C(NCCCNC(=O)[C@H]1Cc2c([nH]c3ccccc23)[C@H](c2c[nH]c3ccccc23)[NH2+]1)c1ccc(-c2c3nc(c(-c4cc(S(=O)(=O)[O-])ccc4F)c4ccc([nH]4)c(-c4cc(S(=O)(=O)[O-])ccc4F)c4nc(c(-c5cc(S(=O)(=O)[O-])ccc5F)c5ccc2[nH]5)C=C4)C=C3)cc1
REMARK SMILES IDX 4 1 3 2 1 3 2 4 32 6 33 7 94 8 34 9 93 10 35 11 36 12 37 13
REMARK SMILES IDX 87 14 38 15 92 16 86 17 88 18 39 19 91 20 85 21 84 22 40 24
REMARK SMILES IDX 72 25 52 26 71 27 53 28 56 29 70 30 89 31 54 32 55 33 69 35
REMARK SMILES IDX 90 36 57 37 41 38 42 39 50 40 43 41 49 42 51 43 48 44 44 45
REMARK SMILES IDX 45 46 46 47 47 48 73 49 74 50 82 51 75 52 81 53 83 54 80 55
REMARK SMILES IDX 76 56 77 57 78 58 79 59 58 60 59 61 67 62 60 63 66 64 68 65
REMARK SMILES IDX 65 66 61 67 62 68 63 69 64 70 5 71 6 72 7 73 8 74 9 76 10 77
REMARK SMILES IDX 11 78 31 79 12 80 21 81 13 84 20 85 14 86 15 87 19 88 16 90
REMARK SMILES IDX 18 91 17 92 22 93 23 94 30 95 24 96 25 97 29 98 26 100
REMARK SMILES IDX 28 101 27 102
REMARK H PARENT 3 5 88 23 56 34 7 75 31 82 31 83 14 89 24 99
REMARK Flexibility Score: inf
ROOT
ATOM      1  C   UNL A   1      35.997  22.577  26.128  1.00  0.00     0.118 C 
ENDROOT
BRANCH   1   2
ATOM      2  N   UNL A   1      36.929  21.454  26.014  1.00  0.00    -0.352 N 
ATOM      3  O   UNL A   1      38.888  20.436  25.565  1.00  0.00    -0.269 OA
ATOM      4  C   UNL A   1      38.300  21.447  25.949  1.00  0.00     0.251 C 
ATOM      5  H   UNL A   1      36.507  20.566  25.978  1.00  0.00     0.163 HD
BRANCH   4   6
ATOM      6  C   UNL A   1      39.059  22.649  26.345  1.00  0.00     0.039 A 
ATOM      7  C   UNL A   1      38.656  23.900  25.883  1.00  0.00     0.014 A 
ATOM      8  C   UNL A   1      40.161  22.540  27.198  1.00  0.00     0.014 A 
ATOM      9  C   UNL A   1      39.456  25.006  26.097  1.00  0.00     0.010 A 
ATOM     10  C   UNL A   1      40.883  23.687  27.539  1.00  0.00     0.010 A 
ATOM     11  C   UNL A   1      40.550  24.926  26.968  1.00  0.00    -0.014 A 
BRANCH  11  12
ATOM     12  C   UNL A   1      41.252  26.182  27.328  1.00  0.00     0.031 A 
ATOM     13  C   UNL A   1      42.622  26.489  26.799  1.00  0.00     0.074 A 
ATOM     14  C   UNL A   1      40.600  27.068  28.110  1.00  0.00     0.049 A 
ATOM     15  N   UNL A   1      43.368  27.542  27.014  1.00  0.00    -0.248 NA
ATOM     16  C   UNL A   1      43.241  25.481  25.927  1.00  0.00     0.031 C 
ATOM     17  C   UNL A   1      39.262  26.861  28.677  1.00  0.00     0.029 A 
ATOM     18  N   UNL A   1      40.948  28.319  28.543  1.00  0.00    -0.354 N 
ATOM     19  C   UNL A   1      44.554  27.317  26.326  1.00  0.00     0.074 A 
ATOM     20  C   UNL A   1      44.438  26.010  25.712  1.00  0.00     0.031 C 
ATOM     21  C   UNL A   1      38.880  27.968  29.325  1.00  0.00     0.029 A 
ATOM     22  C   UNL A   1      39.980  28.920  29.312  1.00  0.00     0.049 A 
ATOM     23  H   UNL A   1      41.809  28.745  28.326  1.00  0.00     0.167 HD
ATOM     24  C   UNL A   1      45.634  28.131  26.219  1.00  0.00     0.034 A 
ATOM     25  C   UNL A   1      39.986  30.095  29.970  1.00  0.00     0.034 A 
ATOM     26  C   UNL A   1      45.716  29.432  26.845  1.00  0.00     0.049 A 
ATOM     27  C   UNL A   1      41.214  30.956  29.873  1.00  0.00     0.074 A 
ATOM     28  C   UNL A   1      46.746  30.356  26.781  1.00  0.00     0.029 A 
ATOM     29  N   UNL A   1      44.737  29.990  27.660  1.00  0.00    -0.354 N 
ATOM     30  N   UNL A   1      42.324  30.733  29.209  1.00  0.00    -0.248 NA
ATOM     31  C   UNL A   1      41.189  32.222  30.611  1.00  0.00     0.031 C 
ATOM     32  C   UNL A   1      46.424  31.431  27.616  1.00  0.00     0.029 A 
ATOM     33  C   UNL A   1      45.155  31.225  28.136  1.00  0.00     0.049 A 
ATOM     34  H   UNL A   1      43.873  29.568  27.870  1.00  0.00     0.167 HD
ATOM     35  C   UNL A   1      43.128  31.843  29.437  1.00  0.00     0.074 A 
ATOM     36  C   UNL A   1      42.361  32.742  30.279  1.00  0.00     0.031 C 
ATOM     37  C   UNL A   1      44.385  32.098  28.993  1.00  0.00     0.034 A 
BRANCH  24  38
ATOM     38  C   UNL A   1      46.827  27.613  25.448  1.00  0.00     0.023 A 
ATOM     39  C   UNL A   1      47.094  28.011  24.127  1.00  0.00     0.031 A 
ATOM     40  C   UNL A   1      47.701  26.682  26.040  1.00  0.00     0.131 A 
ATOM     41  C   UNL A   1      48.156  27.427  23.418  1.00  0.00     0.055 A 
ATOM     42  C   UNL A   1      48.806  26.167  25.358  1.00  0.00     0.041 A 
ATOM     43  F   UNL A   1      47.488  26.244  27.292  1.00  0.00    -0.206 F 
ATOM     44  C   UNL A   1      49.030  26.527  24.033  1.00  0.00     0.022 A 
BRANCH  41  45
ATOM     45  S   UNL A   1      48.291  27.744  21.637  1.00  0.00     0.124 S 
ATOM     46  O   UNL A   1      46.943  28.208  21.316  1.00  0.00    -0.237 OA
ATOM     47  O   UNL A   1      49.346  28.749  21.575  1.00  0.00    -0.237 OA
ATOM     48  O   UNL A   1      48.640  26.438  21.081  1.00  0.00    -0.744 OA
ENDBRANCH  41  45
ENDBRANCH  24  38
BRANCH  25  49
ATOM     49  C   UNL A   1      38.821  30.484  30.814  1.00  0.00     0.023 A 
ATOM     50  C   UNL A   1      37.888  31.433  30.374  1.00  0.00     0.031 A 
ATOM     51  C   UNL A   1      38.634  29.913  32.088  1.00  0.00     0.131 A 
ATOM     52  C   UNL A   1      36.829  31.810  31.216  1.00  0.00     0.055 A 
ATOM     53  C   UNL A   1      37.547  30.247  32.895  1.00  0.00     0.041 A 
ATOM     54  F   UNL A   1      39.497  28.997  32.556  1.00  0.00    -0.206 F 
ATOM     55  C   UNL A   1      36.642  31.212  32.464  1.00  0.00     0.022 A 
BRANCH  52  56
ATOM     56  S   UNL A   1      35.743  33.162  30.688  1.00  0.00     0.124 S 
ATOM     57  O   UNL A   1      36.192  34.255  31.542  1.00  0.00    -0.237 OA
ATOM     58  O   UNL A   1      36.070  33.278  29.271  1.00  0.00    -0.237 OA
ATOM     59  O   UNL A   1      34.403  32.654  30.976  1.00  0.00    -0.744 OA
ENDBRANCH  52  56
ENDBRANCH  25  49
BRANCH  37  60
ATOM     60  C   UNL A   1      44.985  33.424  29.389  1.00  0.00     0.023 A 
ATOM     61  C   UNL A   1      44.824  34.574  28.595  1.00  0.00     0.031 A 
ATOM     62  C   UNL A   1      45.752  33.531  30.562  1.00  0.00     0.131 A 
ATOM     63  C   UNL A   1      45.473  35.765  28.954  1.00  0.00     0.055 A 
ATOM     64  C   UNL A   1      46.341  34.735  30.948  1.00  0.00     0.041 A 
ATOM     65  F   UNL A   1      45.945  32.462  31.352  1.00  0.00    -0.206 F 
ATOM     66  C   UNL A   1      46.214  35.857  30.134  1.00  0.00     0.022 A 
BRANCH  63  67
ATOM     67  S   UNL A   1      45.421  37.164  27.802  1.00  0.00     0.124 S 
ATOM     68  O   UNL A   1      44.024  37.157  27.378  1.00  0.00    -0.237 OA
ATOM     69  O   UNL A   1      45.824  38.282  28.649  1.00  0.00    -0.237 OA
ATOM     70  O   UNL A   1      46.385  36.793  26.767  1.00  0.00    -0.744 OA
ENDBRANCH  63  67
ENDBRANCH  37  60
ENDBRANCH  11  12
ENDBRANCH   4   6
ENDBRANCH   1   2
BRANCH   1  71
ATOM     71  C   UNL A   1      34.644  22.132  26.647  1.00  0.00     0.042 C 
BRANCH  71  72
ATOM     72  C   UNL A   1      33.521  22.615  25.752  1.00  0.00     0.118 C 
BRANCH  72  73
ATOM     73  N   UNL A   1      34.006  22.981  24.423  1.00  0.00    -0.351 N 
ATOM     74  C   UNL A   1      33.847  24.074  23.623  1.00  0.00     0.278 C 
ATOM     75  H   UNL A   1      34.572  22.286  24.016  1.00  0.00     0.163 HD
ATOM     76  O   UNL A   1      34.304  23.975  22.476  1.00  0.00    -0.268 OA
BRANCH  74  77
ATOM     77  C   UNL A   1      33.203  25.398  24.076  1.00  0.00     0.277 C 
ATOM     78  C   UNL A   1      34.202  26.185  24.955  1.00  0.00     0.114 C 
ATOM     79  N   UNL A   1      32.656  26.159  22.938  1.00  0.00    -0.324 N 
ATOM     80  C   UNL A   1      33.667  27.554  25.204  1.00  0.00    -0.006 A 
ATOM     81  C   UNL A   1      32.008  27.423  23.242  1.00  0.00     0.264 C 
ATOM     82  H   UNL A   1      31.971  25.564  22.472  1.00  0.00     0.347 HD
ATOM     83  H   UNL A   1      33.466  26.406  22.370  1.00  0.00     0.347 HD
ATOM     84  C   UNL A   1      32.675  28.085  24.398  1.00  0.00     0.083 A 
ATOM     85  C   UNL A   1      34.019  28.536  26.166  1.00  0.00     0.003 A 
ATOM     86  N   UNL A   1      32.501  29.389  24.764  1.00  0.00    -0.353 N 
ATOM     87  C   UNL A   1      33.288  29.685  25.854  1.00  0.00     0.046 A 
ATOM     88  C   UNL A   1      34.908  28.578  27.257  1.00  0.00     0.010 A 
ATOM     89  H   UNL A   1      31.901  30.027  24.312  1.00  0.00     0.166 HD
ATOM     90  C   UNL A   1      33.418  30.882  26.567  1.00  0.00     0.026 A 
ATOM     91  C   UNL A   1      35.031  29.762  27.996  1.00  0.00     0.001 A 
ATOM     92  C   UNL A   1      34.301  30.897  27.649  1.00  0.00     0.002 A 
BRANCH  81  93
ATOM     93  C   UNL A   1      30.499  27.271  23.341  1.00  0.00     0.041 A 
ATOM     94  C   UNL A   1      29.895  26.103  23.789  1.00  0.00     0.093 A 
ATOM     95  C   UNL A   1      29.413  28.227  23.167  1.00  0.00     0.009 A 
ATOM     96  N   UNL A   1      28.547  26.290  23.862  1.00  0.00    -0.361 N 
ATOM     97  C   UNL A   1      28.224  27.575  23.511  1.00  0.00     0.046 A 
ATOM     98  C   UNL A   1      29.298  29.591  22.794  1.00  0.00     0.011 A 
ATOM     99  H   UNL A   1      27.897  25.600  24.127  1.00  0.00     0.166 HD
ATOM    100  C   UNL A   1      26.968  28.201  23.496  1.00  0.00     0.026 A 
ATOM    101  C   UNL A   1      28.053  30.233  22.778  1.00  0.00     0.001 A 
ATOM    102  C   UNL A   1      26.902  29.543  23.125  1.00  0.00     0.002 A 
ENDBRANCH  81  93
ENDBRANCH  74  77
ENDBRANCH  72  73
ENDBRANCH  71  72
ENDBRANCH   1  71
TORSDOF 14
ENDMDL
MODEL 2
REMARK VINA RESULT:     -13.4      0.404      7.325
REMARK SMILES O=C(NCCCNC(=O)[C@H]1Cc2c([nH]c3ccccc23)[C@H](c2c[nH]c3ccccc23)[NH2+]1)c1ccc(-c2c3nc(c(-c4cc(S(=O)(=O)[O-])ccc4F)c4ccc([nH]4)c(-c4cc(S(=O)(=O)[O-])ccc4F)c4nc(c(-c5cc(S(=O)(=O)[O-])ccc5F)c5ccc2[nH]5)C=C4)C=C3)cc1
REMARK SMILES IDX 4 1 3 2 1 3 2 4 32 6 33 7 94 8 34 9 93 10 35 11 36 12 37 13
REMARK SMILES IDX 87 14 38 15 92 16 86 17 88 18 39 19 91 20 85 21 84 22 40 24
REMARK SMILES IDX 72 25 52 26 71 27 53 28 56 29 70 30 89 31 54 32 55 33 69 35
REMARK SMILES IDX 90 36 57 37 41 38 42 39 50 40 43 41 49 42 51 43 48 44 44 45
REMARK SMILES IDX 45 46 46 47 47 48 73 49 74 50 82 51 75 52 81 53 83 54 80 55
REMARK SMILES IDX 76 56 77 57 78 58 79 59 58 60 59 61 67 62 60 63 66 64 68 65
REMARK SMILES IDX 65 66 61 67 62 68 63 69 64 70 5 71 6 72 7 73 8 74 9 76 10 77
REMARK SMILES IDX 11 78 31 79 12 80 21 81 13 84 20 85 14 86 15 87 19 88 16 90
REMARK SMILES IDX 18 91 17 92 22 93 23 94 30 95 24 96 25 97 29 98 26 100
REMARK SMILES IDX 28 101 27 102
REMARK H PARENT 3 5 88 23 56 34 7 75 31 82 31 83 14 89 24 99
REMARK Flexibility Score: inf
ROOT
ATOM      1  C   UNL A   1      36.027  22.374  26.026  1.00  0.00     0.118 C 
ENDROOT
BRANCH   1   2
ATOM      2  N   UNL A   1      36.968  21.257  25.925  1.00  0.00    -0.352 N 
ATOM      3  O   UNL A   1      38.942  20.254  25.509  1.00  0.00    -0.269 OA
ATOM      4  C   UNL A   1      38.340  21.259  25.887  1.00  0.00     0.251 C 
ATOM      5  H   UNL A   1      36.552  20.367  25.876  1.00  0.00     0.163 HD
BRANCH   4   6
ATOM      6  C   UNL A   1      39.084  22.463  26.305  1.00  0.00     0.039 A 
ATOM      7  C   UNL A   1      38.705  23.710  25.812  1.00  0.00     0.014 A 
ATOM      8  C   UNL A   1      40.146  22.360  27.207  1.00  0.00     0.014 A 
ATOM      9  C   UNL A   1      39.498  24.816  26.052  1.00  0.00     0.010 A 
ATOM     10  C   UNL A   1      40.856  23.509  27.569  1.00  0.00     0.010 A 
ATOM     11  C   UNL A   1      40.552  24.743  26.971  1.00  0.00    -0.014 A 
BRANCH  11  12
ATOM     12  C   UNL A   1      41.240  26.001  27.350  1.00  0.00     0.031 A 
ATOM     13  C   UNL A   1      40.577  27.018  28.231  1.00  0.00     0.074 A 
ATOM     14  C   UNL A   1      42.504  26.184  26.916  1.00  0.00     0.049 A 
ATOM     15  N   UNL A   1      41.043  28.164  28.656  1.00  0.00    -0.248 NA
ATOM     16  C   UNL A   1      39.211  26.719  28.684  1.00  0.00     0.031 C 
ATOM     17  C   UNL A   1      43.239  25.251  26.052  1.00  0.00     0.029 A 
ATOM     18  N   UNL A   1      43.406  27.186  27.154  1.00  0.00    -0.354 N 
ATOM     19  C   UNL A   1      40.023  28.737  29.406  1.00  0.00     0.074 A 
ATOM     20  C   UNL A   1      38.901  27.823  29.350  1.00  0.00     0.031 C 
ATOM     21  C   UNL A   1      44.491  25.693  25.887  1.00  0.00     0.029 A 
ATOM     22  C   UNL A   1      44.621  26.986  26.542  1.00  0.00     0.049 A 
ATOM     23  H   UNL A   1      43.203  27.974  27.708  1.00  0.00     0.167 HD
ATOM     24  C   UNL A   1      40.031  29.915  30.079  1.00  0.00     0.034 A 
ATOM     25  C   UNL A   1      45.712  27.772  26.479  1.00  0.00     0.034 A 
ATOM     26  C   UNL A   1      41.170  30.805  30.115  1.00  0.00     0.049 A 
ATOM     27  C   UNL A   1      45.677  29.093  27.194  1.00  0.00     0.074 A 
ATOM     28  C   UNL A   1      41.304  32.008  30.787  1.00  0.00     0.029 A 
ATOM     29  N   UNL A   1      42.369  30.595  29.441  1.00  0.00    -0.354 N 
ATOM     30  N   UNL A   1      44.707  29.616  27.909  1.00  0.00    -0.248 NA
ATOM     31  C   UNL A   1      46.877  29.928  27.094  1.00  0.00     0.031 C 
ATOM     32  C   UNL A   1      42.546  32.560  30.457  1.00  0.00     0.029 A 
ATOM     33  C   UNL A   1      43.230  31.664  29.649  1.00  0.00     0.049 A 
ATOM     34  H   UNL A   1      42.576  29.803  28.894  1.00  0.00     0.167 HD
ATOM     35  C   UNL A   1      45.189  30.838  28.359  1.00  0.00     0.074 A 
ATOM     36  C   UNL A   1      46.544  30.959  27.855  1.00  0.00     0.031 C 
ATOM     37  C   UNL A   1      44.570  31.777  29.119  1.00  0.00     0.034 A 
BRANCH  24  38
ATOM     38  C   UNL A   1      38.755  30.332  30.775  1.00  0.00     0.023 A 
ATOM     39  C   UNL A   1      37.891  31.301  30.236  1.00  0.00     0.031 A 
ATOM     40  C   UNL A   1      38.409  29.766  32.017  1.00  0.00     0.131 A 
ATOM     41  C   UNL A   1      36.770  31.728  30.966  1.00  0.00     0.055 A 
ATOM     42  C   UNL A   1      37.248  30.134  32.700  1.00  0.00     0.041 A 
ATOM     43  F   UNL A   1      39.205  28.851  32.596  1.00  0.00    -0.206 F 
ATOM     44  C   UNL A   1      36.429  31.132  32.183  1.00  0.00     0.022 A 
BRANCH  41  45
ATOM     45  S   UNL A   1      35.850  33.176  30.378  1.00  0.00     0.124 S 
ATOM     46  O   UNL A   1      34.469  32.767  30.622  1.00  0.00    -0.237 OA
ATOM     47  O   UNL A   1      36.362  34.242  31.232  1.00  0.00    -0.237 OA
ATOM     48  O   UNL A   1      36.223  33.272  28.969  1.00  0.00    -0.744 OA
ENDBRANCH  41  45
ENDBRANCH  24  38
BRANCH  25  49
ATOM     49  C   UNL A   1      46.889  27.352  25.668  1.00  0.00     0.023 A 
ATOM     50  C   UNL A   1      47.061  27.794  24.349  1.00  0.00     0.031 A 
ATOM     51  C   UNL A   1      47.860  26.484  26.207  1.00  0.00     0.131 A 
ATOM     52  C   UNL A   1      48.157  27.339  23.599  1.00  0.00     0.055 A 
ATOM     53  C   UNL A   1      48.979  26.084  25.477  1.00  0.00     0.041 A 
ATOM     54  F   UNL A   1      47.746  26.034  27.466  1.00  0.00    -0.206 F 
ATOM     55  C   UNL A   1      49.126  26.503  24.159  1.00  0.00     0.022 A 
BRANCH  52  56
ATOM     56  S   UNL A   1      48.255  27.792  21.846  1.00  0.00     0.124 S 
ATOM     57  O   UNL A   1      48.489  26.497  21.218  1.00  0.00    -0.237 OA
ATOM     58  O   UNL A   1      46.945  28.390  21.615  1.00  0.00    -0.237 OA
ATOM     59  O   UNL A   1      49.380  28.722  21.798  1.00  0.00    -0.744 OA
ENDBRANCH  52  56
ENDBRANCH  25  49
BRANCH  37  60
ATOM     60  C   UNL A   1      45.380  32.999  29.476  1.00  0.00     0.023 A 
ATOM     61  C   UNL A   1      45.373  34.151  28.670  1.00  0.00     0.031 A 
ATOM     62  C   UNL A   1      46.193  32.997  30.623  1.00  0.00     0.131 A 
ATOM     63  C   UNL A   1      46.210  35.230  28.990  1.00  0.00     0.055 A 
ATOM     64  C   UNL A   1      46.972  34.099  30.973  1.00  0.00     0.041 A 
ATOM     65  F   UNL A   1      46.242  31.920  31.424  1.00  0.00    -0.206 F 
ATOM     66  C   UNL A   1      46.995  35.219  30.145  1.00  0.00     0.022 A 
BRANCH  63  67
ATOM     67  S   UNL A   1      46.339  36.608  27.818  1.00  0.00     0.124 S 
ATOM     68  O   UNL A   1      46.944  35.963  26.656  1.00  0.00    -0.237 OA
ATOM     69  O   UNL A   1      44.948  37.020  27.666  1.00  0.00    -0.237 OA
ATOM     70  O   UNL A   1      47.198  37.568  28.510  1.00  0.00    -0.744 OA
ENDBRANCH  63  67
ENDBRANCH  37  60
ENDBRANCH  11  12
ENDBRANCH   4   6
ENDBRANCH   1   2
BRANCH   1  71
ATOM     71  C   UNL A   1      34.650  21.910  26.461  1.00  0.00     0.042 C 
BRANCH  71  72
ATOM     72  C   UNL A   1      33.559  22.596  25.665  1.00  0.00     0.118 C 
BRANCH  72  73
ATOM     73  N   UNL A   1      34.018  22.981  24.333  1.00  0.00    -0.351 N 
ATOM     74  C   UNL A   1      33.831  24.077  23.544  1.00  0.00     0.278 C 
ATOM     75  H   UNL A   1      34.589  22.298  23.911  1.00  0.00     0.163 HD
ATOM     76  O   UNL A   1      34.272  23.995  22.390  1.00  0.00    -0.268 OA
BRANCH  74  77
ATOM     77  C   UNL A   1      33.174  25.388  24.018  1.00  0.00     0.277 C 
ATOM     78  C   UNL A   1      34.170  26.177  24.897  1.00  0.00     0.114 C 
ATOM     79  N   UNL A   1      32.608  26.154  22.893  1.00  0.00    -0.324 N 
ATOM     80  C   UNL A   1      33.619  27.537  25.167  1.00  0.00    -0.006 A 
ATOM     81  C   UNL A   1      31.946  27.406  23.217  1.00  0.00     0.264 C 
ATOM     82  H   UNL A   1      31.926  25.557  22.426  1.00  0.00     0.347 HD
ATOM     83  H   UNL A   1      33.410  26.419  22.322  1.00  0.00     0.347 HD
ATOM     84  C   UNL A   1      32.615  28.063  24.376  1.00  0.00     0.083 A 
ATOM     85  C   UNL A   1      33.968  28.512  26.137  1.00  0.00     0.003 A 
ATOM     86  N   UNL A   1      32.427  29.362  24.758  1.00  0.00    -0.353 N 
ATOM     87  C   UNL A   1      33.219  29.655  25.845  1.00  0.00     0.046 A 
ATOM     88  C   UNL A   1      34.865  28.552  27.221  1.00  0.00     0.010 A 
ATOM     89  H   UNL A   1      31.815  29.996  24.319  1.00  0.00     0.166 HD
ATOM     90  C   UNL A   1      33.340  30.845  26.571  1.00  0.00     0.026 A 
ATOM     91  C   UNL A   1      34.979  29.729  27.973  1.00  0.00     0.001 A 
ATOM     92  C   UNL A   1      34.232  30.858  27.646  1.00  0.00     0.002 A 
BRANCH  81  93
ATOM     93  C   UNL A   1      30.440  27.234  23.328  1.00  0.00     0.041 A 
ATOM     94  C   UNL A   1      29.855  26.056  23.778  1.00  0.00     0.093 A 
ATOM     95  C   UNL A   1      29.340  28.175  23.163  1.00  0.00     0.009 A 
ATOM     96  N   UNL A   1      28.505  26.225  23.860  1.00  0.00    -0.361 N 
ATOM     97  C   UNL A   1      28.162  27.507  23.515  1.00  0.00     0.046 A 
ATOM     98  C   UNL A   1      29.203  29.539  22.794  1.00  0.00     0.011 A 
ATOM     99  H   UNL A   1      27.866  25.526  24.128  1.00  0.00     0.166 HD
ATOM    100  C   UNL A   1      26.898  28.115  23.510  1.00  0.00     0.026 A 
ATOM    101  C   UNL A   1      27.950  30.164  22.789  1.00  0.00     0.001 A 
ATOM    102  C   UNL A   1      26.811  29.458  23.143  1.00  0.00     0.002 A 
ENDBRANCH  81  93
ENDBRANCH  74  77
ENDBRANCH  72  73
ENDBRANCH  71  72
ENDBRANCH   1  71
TORSDOF 14
ENDMDL
MODEL 3
REMARK VINA RESULT:     -13.4      5.305      8.380
REMARK SMILES O=C(NCCCNC(=O)[C@H]1Cc2c([nH]c3ccccc23)[C@H](c2c[nH]c3ccccc23)[NH2+]1)c1ccc(-c2c3nc(c(-c4cc(S(=O)(=O)[O-])ccc4F)c4ccc([nH]4)c(-c4cc(S(=O)(=O)[O-])ccc4F)c4nc(c(-c5cc(S(=O)(=O)[O-])ccc5F)c5ccc2[nH]5)C=C4)C=C3)cc1
REMARK SMILES IDX 4 1 3 2 1 3 2 4 32 6 33 7 94 8 34 9 93 10 35 11 36 12 37 13
REMARK SMILES IDX 87 14 38 15 92 16 86 17 88 18 39 19 91 20 85 21 84 22 40 24
REMARK SMILES IDX 72 25 52 26 71 27 53 28 56 29 70 30 89 31 54 32 55 33 69 35
REMARK SMILES IDX 90 36 57 37 41 38 42 39 50 40 43 41 49 42 51 43 48 44 44 45
REMARK SMILES IDX 45 46 46 47 47 48 73 49 74 50 82 51 75 52 81 53 83 54 80 55
REMARK SMILES IDX 76 56 77 57 78 58 79 59 58 60 59 61 67 62 60 63 66 64 68 65
REMARK SMILES IDX 65 66 61 67 62 68 63 69 64 70 5 71 6 72 7 73 8 74 9 76 10 77
REMARK SMILES IDX 11 78 31 79 12 80 21 81 13 84 20 85 14 86 15 87 19 88 16 90
REMARK SMILES IDX 18 91 17 92 22 93 23 94 30 95 24 96 25 97 29 98 26 100
REMARK SMILES IDX 28 101 27 102
REMARK H PARENT 3 5 88 23 56 34 7 75 31 82 31 83 14 89 24 99
REMARK Flexibility Score: inf
ROOT
ATOM      1  C   UNL A   1      32.788  32.837  27.105  1.00  0.00     0.118 C 
ENDROOT
BRANCH   1   2
ATOM      2  N   UNL A   1      32.582  34.169  27.675  1.00  0.00    -0.352 N 
ATOM      3  O   UNL A   1      32.595  35.752  29.278  1.00  0.00    -0.269 OA
ATOM      4  C   UNL A   1      33.108  34.736  28.809  1.00  0.00     0.251 C 
ATOM      5  H   UNL A   1      31.971  34.749  27.166  1.00  0.00     0.163 HD
BRANCH   4   6
ATOM      6  C   UNL A   1      34.287  34.127  29.455  1.00  0.00     0.039 A 
ATOM      7  C   UNL A   1      34.108  33.130  30.410  1.00  0.00     0.014 A 
ATOM      8  C   UNL A   1      35.576  34.529  29.094  1.00  0.00     0.014 A 
ATOM      9  C   UNL A   1      35.187  32.679  31.148  1.00  0.00     0.010 A 
ATOM     10  C   UNL A   1      36.679  33.959  29.736  1.00  0.00     0.010 A 
ATOM     11  C   UNL A   1      36.490  33.048  30.788  1.00  0.00    -0.014 A 
BRANCH  11  12
ATOM     12  C   UNL A   1      37.622  32.379  31.475  1.00  0.00     0.031 A 
ATOM     13  C   UNL A   1      38.391  31.274  30.814  1.00  0.00     0.074 A 
ATOM     14  C   UNL A   1      37.972  32.827  32.698  1.00  0.00     0.049 A 
ATOM     15  N   UNL A   1      39.406  30.590  31.276  1.00  0.00    -0.248 NA
ATOM     16  C   UNL A   1      37.960  30.874  29.467  1.00  0.00     0.031 C 
ATOM     17  C   UNL A   1      37.284  33.900  33.427  1.00  0.00     0.029 A 
ATOM     18  N   UNL A   1      38.996  32.470  33.533  1.00  0.00    -0.354 N 
ATOM     19  C   UNL A   1      39.723  29.663  30.290  1.00  0.00     0.074 A 
ATOM     20  C   UNL A   1      38.768  29.853  29.217  1.00  0.00     0.031 C 
ATOM     21  C   UNL A   1      37.942  34.153  34.566  1.00  0.00     0.029 A 
ATOM     22  C   UNL A   1      39.031  33.198  34.699  1.00  0.00     0.049 A 
ATOM     23  H   UNL A   1      39.643  31.759  33.320  1.00  0.00     0.167 HD
ATOM     24  C   UNL A   1      40.721  28.744  30.287  1.00  0.00     0.034 A 
ATOM     25  C   UNL A   1      39.826  33.087  35.780  1.00  0.00     0.034 A 
ATOM     26  C   UNL A   1      41.658  28.581  31.376  1.00  0.00     0.049 A 
ATOM     27  C   UNL A   1      40.893  32.029  35.769  1.00  0.00     0.074 A 
ATOM     28  C   UNL A   1      42.727  27.706  31.471  1.00  0.00     0.029 A 
ATOM     29  N   UNL A   1      41.634  29.302  32.566  1.00  0.00    -0.354 N 
ATOM     30  N   UNL A   1      41.186  31.166  34.824  1.00  0.00    -0.248 NA
ATOM     31  C   UNL A   1      41.733  31.929  36.966  1.00  0.00     0.031 C 
ATOM     32  C   UNL A   1      43.295  27.841  32.742  1.00  0.00     0.029 A 
ATOM     33  C   UNL A   1      42.641  28.863  33.414  1.00  0.00     0.049 A 
ATOM     34  H   UNL A   1      40.992  30.019  32.776  1.00  0.00     0.167 HD
ATOM     35  C   UNL A   1      42.260  30.429  35.308  1.00  0.00     0.074 A 
ATOM     36  C   UNL A   1      42.575  30.968  36.618  1.00  0.00     0.031 C 
ATOM     37  C   UNL A   1      42.926  29.399  34.726  1.00  0.00     0.034 A 
BRANCH  24  38
ATOM     38  C   UNL A   1      40.809  27.811  29.101  1.00  0.00     0.023 A 
ATOM     39  C   UNL A   1      41.737  28.006  28.063  1.00  0.00     0.031 A 
ATOM     40  C   UNL A   1      39.929  26.718  28.994  1.00  0.00     0.131 A 
ATOM     41  C   UNL A   1      41.714  27.172  26.934  1.00  0.00     0.055 A 
ATOM     42  C   UNL A   1      39.966  25.841  27.908  1.00  0.00     0.041 A 
ATOM     43  F   UNL A   1      39.003  26.490  29.941  1.00  0.00    -0.206 F 
ATOM     44  C   UNL A   1      40.852  26.074  26.861  1.00  0.00     0.022 A 
BRANCH  41  45
ATOM     45  S   UNL A   1      42.720  27.628  25.495  1.00  0.00     0.124 S 
ATOM     46  O   UNL A   1      41.986  28.778  24.974  1.00  0.00    -0.237 OA
ATOM     47  O   UNL A   1      44.018  27.916  26.097  1.00  0.00    -0.237 OA
ATOM     48  O   UNL A   1      42.675  26.436  24.652  1.00  0.00    -0.744 OA
ENDBRANCH  41  45
ENDBRANCH  24  38
BRANCH  25  49
ATOM     49  C   UNL A   1      39.600  33.959  36.966  1.00  0.00     0.023 A 
ATOM     50  C   UNL A   1      39.050  33.450  38.150  1.00  0.00     0.031 A 
ATOM     51  C   UNL A   1      39.925  35.329  36.923  1.00  0.00     0.131 A 
ATOM     52  C   UNL A   1      38.806  34.312  39.232  1.00  0.00     0.055 A 
ATOM     53  C   UNL A   1      39.737  36.168  38.022  1.00  0.00     0.041 A 
ATOM     54  F   UNL A   1      40.457  35.867  35.815  1.00  0.00    -0.206 F 
ATOM     55  C   UNL A   1      39.162  35.662  39.182  1.00  0.00     0.022 A 
BRANCH  52  56
ATOM     56  S   UNL A   1      37.936  33.657  40.682  1.00  0.00     0.124 S 
ATOM     57  O   UNL A   1      37.741  34.862  41.480  1.00  0.00    -0.237 OA
ATOM     58  O   UNL A   1      36.737  33.083  40.082  1.00  0.00    -0.237 OA
ATOM     59  O   UNL A   1      38.879  32.688  41.235  1.00  0.00    -0.744 OA
ENDBRANCH  52  56
ENDBRANCH  25  49
BRANCH  37  60
ATOM     60  C   UNL A   1      44.085  28.821  35.499  1.00  0.00     0.023 A 
ATOM     61  C   UNL A   1      43.927  27.712  36.348  1.00  0.00     0.031 A 
ATOM     62  C   UNL A   1      45.359  29.409  35.406  1.00  0.00     0.131 A 
ATOM     63  C   UNL A   1      45.011  27.263  37.118  1.00  0.00     0.055 A 
ATOM     64  C   UNL A   1      46.449  28.917  36.123  1.00  0.00     0.041 A 
ATOM     65  F   UNL A   1      45.563  30.476  34.616  1.00  0.00    -0.206 F 
ATOM     66  C   UNL A   1      46.275  27.846  36.996  1.00  0.00     0.022 A 
BRANCH  63  67
ATOM     67  S   UNL A   1      44.722  25.972  38.357  1.00  0.00     0.124 S 
ATOM     68  O   UNL A   1      46.032  25.332  38.440  1.00  0.00    -0.237 OA
ATOM     69  O   UNL A   1      44.318  26.746  39.526  1.00  0.00    -0.237 OA
ATOM     70  O   UNL A   1      43.669  25.152  37.761  1.00  0.00    -0.744 OA
ENDBRANCH  63  67
ENDBRANCH  37  60
ENDBRANCH  11  12
ENDBRANCH   4   6
ENDBRANCH   1   2
BRANCH   1  71
ATOM     71  C   UNL A   1      31.483  32.211  26.655  1.00  0.00     0.042 C 
BRANCH  71  72
ATOM     72  C   UNL A   1      31.622  30.713  26.472  1.00  0.00     0.118 C 
BRANCH  72  73
ATOM     73  N   UNL A   1      32.876  30.212  27.029  1.00  0.00    -0.351 N 
ATOM     74  C   UNL A   1      33.486  28.994  27.046  1.00  0.00     0.278 C 
ATOM     75  H   UNL A   1      33.393  30.908  27.495  1.00  0.00     0.163 HD
ATOM     76  O   UNL A   1      34.502  28.908  27.749  1.00  0.00    -0.268 OA
BRANCH  74  77
ATOM     77  C   UNL A   1      33.026  27.777  26.220  1.00  0.00     0.277 C 
ATOM     78  C   UNL A   1      34.174  26.746  26.135  1.00  0.00     0.114 C 
ATOM     79  N   UNL A   1      31.747  27.233  26.711  1.00  0.00    -0.324 N 
ATOM     80  C   UNL A   1      33.658  25.483  25.533  1.00  0.00    -0.006 A 
ATOM     81  C   UNL A   1      31.202  26.090  26.000  1.00  0.00     0.264 C 
ATOM     82  H   UNL A   1      31.057  27.982  26.666  1.00  0.00     0.347 HD
ATOM     83  H   UNL A   1      31.948  26.890  27.650  1.00  0.00     0.347 HD
ATOM     84  C   UNL A   1      32.301  25.217  25.497  1.00  0.00     0.083 A 
ATOM     85  C   UNL A   1      34.335  24.373  24.964  1.00  0.00     0.003 A 
ATOM     86  N   UNL A   1      32.143  23.941  25.037  1.00  0.00    -0.353 N 
ATOM     87  C   UNL A   1      33.362  23.411  24.680  1.00  0.00     0.046 A 
ATOM     88  C   UNL A   1      35.682  24.073  24.684  1.00  0.00     0.010 A 
ATOM     89  H   UNL A   1      31.281  23.468  24.972  1.00  0.00     0.166 HD
ATOM     90  C   UNL A   1      33.672  22.154  24.151  1.00  0.00     0.026 A 
ATOM     91  C   UNL A   1      36.006  22.827  24.131  1.00  0.00     0.001 A 
ATOM     92  C   UNL A   1      35.015  21.881  23.876  1.00  0.00     0.002 A 
BRANCH  81  93
ATOM     93  C   UNL A   1      30.163  26.509  24.974  1.00  0.00     0.041 A 
ATOM     94  C   UNL A   1      28.933  25.872  24.854  1.00  0.00     0.093 A 
ATOM     95  C   UNL A   1      30.105  27.639  24.055  1.00  0.00     0.009 A 
ATOM     96  N   UNL A   1      28.178  26.519  23.922  1.00  0.00    -0.361 N 
ATOM     97  C   UNL A   1      28.852  27.608  23.434  1.00  0.00     0.046 A 
ATOM     98  C   UNL A   1      30.956  28.717  23.702  1.00  0.00     0.011 A 
ATOM     99  H   UNL A   1      27.277  26.243  23.639  1.00  0.00     0.166 HD
ATOM    100  C   UNL A   1      28.427  28.570  22.505  1.00  0.00     0.026 A 
ATOM    101  C   UNL A   1      30.547  29.689  22.780  1.00  0.00     0.001 A 
ATOM    102  C   UNL A   1      29.296  29.614  22.189  1.00  0.00     0.002 A 
ENDBRANCH  81  93
ENDBRANCH  74  77
ENDBRANCH  72  73
ENDBRANCH  71  72
ENDBRANCH   1  71
TORSDOF 14
ENDMDL
