MODEL 1
REMARK VINA RESULT:     -11.8      0.000      0.000
REMARK SMILES CC(C)n1ccc(C#CC(=O)NCCCNC(=O)c2ccc(-c3c4nc(c(-c5cc(S(=O)(=O)[O-])ccc5F)c5ccc([nH]5)c(-c5cc(S(=O)(=O)[O-])ccc5F)c5nc(c(-c6cc(S(=O)(=O)[O-])ccc6F)c6ccc3[nH]6)C=C5)C=C4)cc2)n1
REMARK SMILES IDX 14 1 13 2 12 3 10 4 11 5 9 7 8 8 7 9 4 10 5 11 82 12 6 13
REMARK SMILES IDX 2 14 1 15 3 16 15 17 16 18 17 19 18 21 19 22 20 23 81 24
REMARK SMILES IDX 21 25 80 26 22 27 23 28 24 29 74 30 25 31 79 32 73 33 75 34
REMARK SMILES IDX 26 35 78 36 72 37 71 38 27 40 59 41 39 42 58 43 40 44 43 45
REMARK SMILES IDX 57 46 76 47 41 48 42 49 56 51 77 52 44 53 28 54 29 55 37 56
REMARK SMILES IDX 30 57 36 58 38 59 35 60 31 61 32 62 33 63 34 64 60 65 61 66
REMARK SMILES IDX 69 67 62 68 68 69 70 70 67 71 63 72 64 73 65 74 66 75 45 76
REMARK SMILES IDX 46 77 54 78 47 79 53 80 55 81 52 82 48 83 49 84 50 85 51 86
REMARK H PARENT 12 6 16 20 75 39 43 50
REMARK Flexibility Score: inf
ROOT
ATOM      1  C   UNL A   1      34.764  30.551  27.288  1.00  0.00     0.042 C 
ENDROOT
BRANCH   1   2
ATOM      2  C   UNL A   1      33.266  30.262  27.165  1.00  0.00     0.118 C 
BRANCH   2   3
ATOM      3  N   UNL A   1      32.912  28.910  27.572  1.00  0.00    -0.345 N 
ATOM      4  C   UNL A   1      32.062  28.046  26.936  1.00  0.00     0.296 C 
ATOM      5  O   UNL A   1      31.866  26.913  27.358  1.00  0.00    -0.260 OA
ATOM      6  H   UNL A   1      33.332  28.580  28.399  1.00  0.00     0.164 HD
BRANCH   4   7
ATOM      7  C   UNL A   1      31.430  28.465  25.722  1.00  0.00     0.002 C 
ATOM      8  C   UNL A   1      30.893  28.905  24.733  1.00  0.00    -0.034 C 
BRANCH   8   9
ATOM      9  C   UNL A   1      30.283  29.526  23.619  1.00  0.00     0.135 A 
ATOM     10  N   UNL A   1      29.149  30.944  22.544  1.00  0.00    -0.269 N 
ATOM     11  C   UNL A   1      29.569  30.039  21.607  1.00  0.00     0.110 A 
ATOM     12  N   UNL A   1      29.603  30.661  23.785  1.00  0.00    -0.164 NA
ATOM     13  C   UNL A   1      30.316  29.103  22.282  1.00  0.00     0.059 A 
BRANCH  10  14
ATOM     14  C   UNL A   1      28.296  32.115  22.359  1.00  0.00     0.101 C 
ATOM     15  C   UNL A   1      28.821  33.375  23.053  1.00  0.00     0.033 C 
ATOM     16  C   UNL A   1      28.068  32.387  20.871  1.00  0.00     0.033 C 
ENDBRANCH  10  14
ENDBRANCH   8   9
ENDBRANCH   4   7
ENDBRANCH   2   3
ENDBRANCH   1   2
BRANCH   1  17
ATOM     17  C   UNL A   1      35.505  29.458  28.040  1.00  0.00     0.118 C 
BRANCH  17  18
ATOM     18  N   UNL A   1      35.693  29.735  29.472  1.00  0.00    -0.352 N 
ATOM     19  C   UNL A   1      36.742  29.335  30.296  1.00  0.00     0.251 C 
ATOM     20  H   UNL A   1      34.988  30.272  29.904  1.00  0.00     0.163 HD
ATOM     21  O   UNL A   1      36.605  29.323  31.514  1.00  0.00    -0.269 OA
BRANCH  19  22
ATOM     22  C   UNL A   1      38.030  28.959  29.671  1.00  0.00     0.039 A 
ATOM     23  C   UNL A   1      38.592  29.600  28.564  1.00  0.00     0.014 A 
ATOM     24  C   UNL A   1      38.721  27.933  30.292  1.00  0.00     0.014 A 
ATOM     25  C   UNL A   1      39.847  29.167  28.112  1.00  0.00     0.010 A 
ATOM     26  C   UNL A   1      40.062  27.841  30.101  1.00  0.00     0.010 A 
ATOM     27  C   UNL A   1      40.571  28.249  28.890  1.00  0.00    -0.014 A 
BRANCH  27  28
ATOM     28  C   UNL A   1      41.957  27.854  28.658  1.00  0.00     0.031 A 
ATOM     29  C   UNL A   1      42.014  26.577  27.910  1.00  0.00     0.074 A 
ATOM     30  C   UNL A   1      43.024  28.675  28.859  1.00  0.00     0.049 A 
ATOM     31  N   UNL A   1      42.266  25.414  28.409  1.00  0.00    -0.248 NA
ATOM     32  C   UNL A   1      41.459  26.518  26.543  1.00  0.00     0.031 C 
ATOM     33  C   UNL A   1      43.059  30.052  29.373  1.00  0.00     0.029 A 
ATOM     34  N   UNL A   1      44.346  28.456  28.582  1.00  0.00    -0.354 N 
ATOM     35  C   UNL A   1      42.237  24.542  27.331  1.00  0.00     0.074 A 
ATOM     36  C   UNL A   1      41.462  25.201  26.318  1.00  0.00     0.031 C 
ATOM     37  C   UNL A   1      44.286  30.601  29.172  1.00  0.00     0.029 A 
ATOM     38  C   UNL A   1      45.182  29.590  28.639  1.00  0.00     0.049 A 
ATOM     39  H   UNL A   1      44.692  27.563  28.356  1.00  0.00     0.167 HD
ATOM     40  C   UNL A   1      43.137  23.523  27.256  1.00  0.00     0.034 A 
ATOM     41  C   UNL A   1      46.511  29.662  28.292  1.00  0.00     0.034 A 
ATOM     42  C   UNL A   1      43.762  23.305  28.545  1.00  0.00     0.049 A 
ATOM     43  C   UNL A   1      47.021  28.266  28.383  1.00  0.00     0.074 A 
ATOM     44  C   UNL A   1      43.273  23.039  29.812  1.00  0.00     0.029 A 
ATOM     45  N   UNL A   1      45.020  23.837  28.740  1.00  0.00    -0.354 N 
ATOM     46  N   UNL A   1      47.087  27.621  29.519  1.00  0.00    -0.248 NA
ATOM     47  C   UNL A   1      46.876  27.430  27.198  1.00  0.00     0.031 C 
ATOM     48  C   UNL A   1      44.011  23.906  30.675  1.00  0.00     0.029 A 
ATOM     49  C   UNL A   1      45.010  24.534  29.927  1.00  0.00     0.049 A 
ATOM     50  H   UNL A   1      45.791  23.735  28.135  1.00  0.00     0.167 HD
ATOM     51  C   UNL A   1      46.541  26.375  29.252  1.00  0.00     0.074 A 
ATOM     52  C   UNL A   1      46.466  26.301  27.788  1.00  0.00     0.031 C 
ATOM     53  C   UNL A   1      45.887  25.657  30.215  1.00  0.00     0.034 A 
BRANCH  40  54
ATOM     54  C   UNL A   1      43.741  23.014  25.967  1.00  0.00     0.023 A 
ATOM     55  C   UNL A   1      43.679  21.630  25.727  1.00  0.00     0.031 A 
ATOM     56  C   UNL A   1      44.595  23.749  25.110  1.00  0.00     0.131 A 
ATOM     57  C   UNL A   1      44.486  21.032  24.743  1.00  0.00     0.055 A 
ATOM     58  C   UNL A   1      45.344  23.159  24.090  1.00  0.00     0.041 A 
ATOM     59  F   UNL A   1      44.836  25.055  25.264  1.00  0.00    -0.206 F 
ATOM     60  C   UNL A   1      45.313  21.788  23.917  1.00  0.00     0.022 A 
BRANCH  57  61
ATOM     61  S   UNL A   1      44.557  19.225  24.666  1.00  0.00     0.124 S 
ATOM     62  O   UNL A   1      43.143  18.872  24.712  1.00  0.00    -0.237 OA
ATOM     63  O   UNL A   1      45.235  19.004  23.393  1.00  0.00    -0.237 OA
ATOM     64  O   UNL A   1      45.330  18.866  25.853  1.00  0.00    -0.744 OA
ENDBRANCH  57  61
ENDBRANCH  40  54
BRANCH  41  65
ATOM     65  C   UNL A   1      47.240  30.735  27.513  1.00  0.00     0.023 A 
ATOM     66  C   UNL A   1      46.646  31.937  27.024  1.00  0.00     0.031 A 
ATOM     67  C   UNL A   1      48.651  30.697  27.482  1.00  0.00     0.131 A 
ATOM     68  C   UNL A   1      47.456  33.013  26.548  1.00  0.00     0.055 A 
ATOM     69  C   UNL A   1      49.439  31.765  27.035  1.00  0.00     0.041 A 
ATOM     70  F   UNL A   1      49.324  29.646  27.972  1.00  0.00    -0.206 F 
ATOM     71  C   UNL A   1      48.848  32.929  26.578  1.00  0.00     0.022 A 
BRANCH  68  72
ATOM     72  S   UNL A   1      46.739  34.588  25.932  1.00  0.00     0.124 S 
ATOM     73  O   UNL A   1      46.303  35.237  27.162  1.00  0.00    -0.237 OA
ATOM     74  O   UNL A   1      47.863  35.205  25.236  1.00  0.00    -0.237 OA
ATOM     75  O   UNL A   1      45.649  34.153  25.055  1.00  0.00    -0.744 OA
ENDBRANCH  68  72
ENDBRANCH  41  65
BRANCH  53  76
ATOM     76  C   UNL A   1      45.956  26.132  31.661  1.00  0.00     0.023 A 
ATOM     77  C   UNL A   1      44.918  26.772  32.387  1.00  0.00     0.031 A 
ATOM     78  C   UNL A   1      47.124  25.798  32.369  1.00  0.00     0.131 A 
ATOM     79  C   UNL A   1      45.089  27.058  33.762  1.00  0.00     0.055 A 
ATOM     80  C   UNL A   1      47.274  26.053  33.730  1.00  0.00     0.041 A 
ATOM     81  F   UNL A   1      48.139  25.177  31.747  1.00  0.00    -0.206 F 
ATOM     82  C   UNL A   1      46.260  26.691  34.430  1.00  0.00     0.022 A 
BRANCH  79  83
ATOM     83  S   UNL A   1      43.811  27.955  34.712  1.00  0.00     0.124 S 
ATOM     84  O   UNL A   1      44.586  28.742  35.663  1.00  0.00    -0.237 OA
ATOM     85  O   UNL A   1      43.112  28.710  33.676  1.00  0.00    -0.237 OA
ATOM     86  O   UNL A   1      43.019  26.880  35.317  1.00  0.00    -0.744 OA
ENDBRANCH  79  83
ENDBRANCH  53  76
ENDBRANCH  27  28
ENDBRANCH  19  22
ENDBRANCH  17  18
ENDBRANCH   1  17
TORSDOF 15
ENDMDL
MODEL 2
REMARK VINA RESULT:     -11.6      2.047      3.276
REMARK SMILES CC(C)n1ccc(C#CC(=O)NCCCNC(=O)c2ccc(-c3c4nc(c(-c5cc(S(=O)(=O)[O-])ccc5F)c5ccc([nH]5)c(-c5cc(S(=O)(=O)[O-])ccc5F)c5nc(c(-c6cc(S(=O)(=O)[O-])ccc6F)c6ccc3[nH]6)C=C5)C=C4)cc2)n1
REMARK SMILES IDX 14 1 13 2 12 3 10 4 11 5 9 7 8 8 7 9 4 10 5 11 82 12 6 13
REMARK SMILES IDX 2 14 1 15 3 16 15 17 16 18 17 19 18 21 19 22 20 23 81 24
REMARK SMILES IDX 21 25 80 26 22 27 23 28 24 29 74 30 25 31 79 32 73 33 75 34
REMARK SMILES IDX 26 35 78 36 72 37 71 38 27 40 59 41 39 42 58 43 40 44 43 45
REMARK SMILES IDX 57 46 76 47 41 48 42 49 56 51 77 52 44 53 28 54 29 55 37 56
REMARK SMILES IDX 30 57 36 58 38 59 35 60 31 61 32 62 33 63 34 64 60 65 61 66
REMARK SMILES IDX 69 67 62 68 68 69 70 70 67 71 63 72 64 73 65 74 66 75 45 76
REMARK SMILES IDX 46 77 54 78 47 79 53 80 55 81 52 82 48 83 49 84 50 85 51 86
REMARK H PARENT 12 6 16 20 75 39 43 50
REMARK Flexibility Score: inf
ROOT
ATOM      1  C   UNL A   1      35.008  28.942  26.983  1.00  0.00     0.042 C 
ENDROOT
BRANCH   1   2
ATOM      2  C   UNL A   1      33.695  29.325  26.295  1.00  0.00     0.118 C 
BRANCH   2   3
ATOM      3  N   UNL A   1      32.529  29.117  27.141  1.00  0.00    -0.345 N 
ATOM      4  C   UNL A   1      31.810  27.963  27.298  1.00  0.00     0.296 C 
ATOM      5  O   UNL A   1      30.861  27.897  28.069  1.00  0.00    -0.260 OA
ATOM      6  H   UNL A   1      32.222  29.895  27.660  1.00  0.00     0.164 HD
BRANCH   4   7
ATOM      7  C   UNL A   1      32.215  26.793  26.579  1.00  0.00     0.002 C 
ATOM      8  C   UNL A   1      32.646  25.830  25.988  1.00  0.00    -0.034 C 
BRANCH   8   9
ATOM      9  C   UNL A   1      33.254  24.731  25.340  1.00  0.00     0.135 A 
ATOM     10  N   UNL A   1      34.787  23.406  24.753  1.00  0.00    -0.269 N 
ATOM     11  C   UNL A   1      33.661  22.947  24.126  1.00  0.00     0.110 A 
ATOM     12  N   UNL A   1      34.551  24.488  25.528  1.00  0.00    -0.164 NA
ATOM     13  C   UNL A   1      32.642  23.792  24.495  1.00  0.00     0.059 A 
BRANCH  10  14
ATOM     14  C   UNL A   1      36.150  22.888  24.668  1.00  0.00     0.101 C 
ATOM     15  C   UNL A   1      36.688  22.804  23.236  1.00  0.00     0.033 C 
ATOM     16  C   UNL A   1      37.098  23.710  25.541  1.00  0.00     0.033 C 
ENDBRANCH  10  14
ENDBRANCH   8   9
ENDBRANCH   4   7
ENDBRANCH   2   3
ENDBRANCH   1   2
BRANCH   1  17
ATOM     17  C   UNL A   1      35.712  30.139  27.598  1.00  0.00     0.118 C 
BRANCH  17  18
ATOM     18  N   UNL A   1      35.756  30.121  29.068  1.00  0.00    -0.352 N 
ATOM     19  C   UNL A   1      36.643  29.435  29.894  1.00  0.00     0.251 C 
ATOM     20  H   UNL A   1      35.073  30.663  29.527  1.00  0.00     0.163 HD
ATOM     21  O   UNL A   1      36.359  29.220  31.067  1.00  0.00    -0.269 OA
BRANCH  19  22
ATOM     22  C   UNL A   1      37.944  29.004  29.334  1.00  0.00     0.039 A 
ATOM     23  C   UNL A   1      38.531  29.541  28.185  1.00  0.00     0.014 A 
ATOM     24  C   UNL A   1      38.620  28.040  30.061  1.00  0.00     0.014 A 
ATOM     25  C   UNL A   1      39.794  29.069  27.802  1.00  0.00     0.010 A 
ATOM     26  C   UNL A   1      39.965  27.931  29.908  1.00  0.00     0.010 A 
ATOM     27  C   UNL A   1      40.500  28.227  28.676  1.00  0.00    -0.014 A 
BRANCH  27  28
ATOM     28  C   UNL A   1      41.890  27.813  28.512  1.00  0.00     0.031 A 
ATOM     29  C   UNL A   1      41.966  26.532  27.771  1.00  0.00     0.074 A 
ATOM     30  C   UNL A   1      42.957  28.621  28.761  1.00  0.00     0.049 A 
ATOM     31  N   UNL A   1      42.179  25.369  28.285  1.00  0.00    -0.248 NA
ATOM     32  C   UNL A   1      41.475  26.476  26.380  1.00  0.00     0.031 C 
ATOM     33  C   UNL A   1      42.986  30.000  29.271  1.00  0.00     0.029 A 
ATOM     34  N   UNL A   1      44.288  28.384  28.547  1.00  0.00    -0.354 N 
ATOM     35  C   UNL A   1      42.190  24.493  27.210  1.00  0.00     0.074 A 
ATOM     36  C   UNL A   1      41.472  25.158  26.159  1.00  0.00     0.031 C 
ATOM     37  C   UNL A   1      44.228  30.532  29.127  1.00  0.00     0.029 A 
ATOM     38  C   UNL A   1      45.135  29.507  28.640  1.00  0.00     0.049 A 
ATOM     39  H   UNL A   1      44.633  27.486  28.340  1.00  0.00     0.167 HD
ATOM     40  C   UNL A   1      43.078  23.462  27.181  1.00  0.00     0.034 A 
ATOM     41  C   UNL A   1      46.480  29.560  28.355  1.00  0.00     0.034 A 
ATOM     42  C   UNL A   1      43.639  23.241  28.499  1.00  0.00     0.049 A 
ATOM     43  C   UNL A   1      46.967  28.158  28.476  1.00  0.00     0.074 A 
ATOM     44  C   UNL A   1      43.087  22.987  29.742  1.00  0.00     0.029 A 
ATOM     45  N   UNL A   1      44.893  23.757  28.751  1.00  0.00    -0.354 N 
ATOM     46  N   UNL A   1      46.970  27.517  29.615  1.00  0.00    -0.248 NA
ATOM     47  C   UNL A   1      46.867  27.320  27.288  1.00  0.00     0.031 C 
ATOM     48  C   UNL A   1      43.795  23.847  30.636  1.00  0.00     0.029 A 
ATOM     49  C   UNL A   1      44.836  24.459  29.935  1.00  0.00     0.049 A 
ATOM     50  H   UNL A   1      45.691  23.643  28.184  1.00  0.00     0.167 HD
ATOM     51  C   UNL A   1      46.421  26.278  29.327  1.00  0.00     0.074 A 
ATOM     52  C   UNL A   1      46.415  26.199  27.861  1.00  0.00     0.031 C 
ATOM     53  C   UNL A   1      45.713  25.571  30.260  1.00  0.00     0.034 A 
BRANCH  40  54
ATOM     54  C   UNL A   1      43.736  22.941  25.924  1.00  0.00     0.023 A 
ATOM     55  C   UNL A   1      43.771  21.546  25.744  1.00  0.00     0.031 A 
ATOM     56  C   UNL A   1      44.553  23.694  25.047  1.00  0.00     0.131 A 
ATOM     57  C   UNL A   1      44.632  20.963  24.798  1.00  0.00     0.055 A 
ATOM     58  C   UNL A   1      45.356  23.113  24.064  1.00  0.00     0.041 A 
ATOM     59  F   UNL A   1      44.702  25.019  25.146  1.00  0.00    -0.206 F 
ATOM     60  C   UNL A   1      45.420  21.737  23.951  1.00  0.00     0.022 A 
BRANCH  57  61
ATOM     61  S   UNL A   1      44.826  19.163  24.802  1.00  0.00     0.124 S 
ATOM     62  O   UNL A   1      44.850  18.866  23.374  1.00  0.00    -0.237 OA
ATOM     63  O   UNL A   1      46.087  18.998  25.516  1.00  0.00    -0.237 OA
ATOM     64  O   UNL A   1      43.641  18.697  25.518  1.00  0.00    -0.744 OA
ENDBRANCH  57  61
ENDBRANCH  40  54
BRANCH  41  65
ATOM     65  C   UNL A   1      47.259  30.621  27.609  1.00  0.00     0.023 A 
ATOM     66  C   UNL A   1      46.693  31.797  27.031  1.00  0.00     0.031 A 
ATOM     67  C   UNL A   1      48.668  30.607  27.703  1.00  0.00     0.131 A 
ATOM     68  C   UNL A   1      47.526  32.871  26.593  1.00  0.00     0.055 A 
ATOM     69  C   UNL A   1      49.476  31.673  27.291  1.00  0.00     0.041 A 
ATOM     70  F   UNL A   1      49.310  29.583  28.283  1.00  0.00    -0.206 F 
ATOM     71  C   UNL A   1      48.911  32.812  26.746  1.00  0.00     0.022 A 
BRANCH  68  72
ATOM     72  S   UNL A   1      46.843  34.414  25.865  1.00  0.00     0.124 S 
ATOM     73  O   UNL A   1      45.642  33.937  25.189  1.00  0.00    -0.237 OA
ATOM     74  O   UNL A   1      46.637  35.260  27.036  1.00  0.00    -0.237 OA
ATOM     75  O   UNL A   1      47.905  34.872  24.966  1.00  0.00    -0.744 OA
ENDBRANCH  68  72
ENDBRANCH  41  65
BRANCH  53  76
ATOM     76  C   UNL A   1      45.719  26.051  31.706  1.00  0.00     0.023 A 
ATOM     77  C   UNL A   1      44.645  26.676  32.390  1.00  0.00     0.031 A 
ATOM     78  C   UNL A   1      46.865  25.738  32.458  1.00  0.00     0.131 A 
ATOM     79  C   UNL A   1      44.759  26.969  33.770  1.00  0.00     0.055 A 
ATOM     80  C   UNL A   1      46.959  25.998  33.823  1.00  0.00     0.041 A 
ATOM     81  F   UNL A   1      47.912  25.131  31.877  1.00  0.00    -0.206 F 
ATOM     82  C   UNL A   1      45.910  26.621  34.483  1.00  0.00     0.022 A 
BRANCH  79  83
ATOM     83  S   UNL A   1      43.432  27.847  34.668  1.00  0.00     0.124 S 
ATOM     84  O   UNL A   1      43.294  27.082  35.901  1.00  0.00    -0.237 OA
ATOM     85  O   UNL A   1      43.979  29.194  34.810  1.00  0.00    -0.237 OA
ATOM     86  O   UNL A   1      42.285  27.751  33.762  1.00  0.00    -0.744 OA
ENDBRANCH  79  83
ENDBRANCH  53  76
ENDBRANCH  27  28
ENDBRANCH  19  22
ENDBRANCH  17  18
ENDBRANCH   1  17
TORSDOF 15
ENDMDL
MODEL 3
REMARK VINA RESULT:     -11.5      3.172      4.359
REMARK SMILES CC(C)n1ccc(C#CC(=O)NCCCNC(=O)c2ccc(-c3c4nc(c(-c5cc(S(=O)(=O)[O-])ccc5F)c5ccc([nH]5)c(-c5cc(S(=O)(=O)[O-])ccc5F)c5nc(c(-c6cc(S(=O)(=O)[O-])ccc6F)c6ccc3[nH]6)C=C5)C=C4)cc2)n1
REMARK SMILES IDX 14 1 13 2 12 3 10 4 11 5 9 7 8 8 7 9 4 10 5 11 82 12 6 13
REMARK SMILES IDX 2 14 1 15 3 16 15 17 16 18 17 19 18 21 19 22 20 23 81 24
REMARK SMILES IDX 21 25 80 26 22 27 23 28 24 29 74 30 25 31 79 32 73 33 75 34
REMARK SMILES IDX 26 35 78 36 72 37 71 38 27 40 59 41 39 42 58 43 40 44 43 45
REMARK SMILES IDX 57 46 76 47 41 48 42 49 56 51 77 52 44 53 28 54 29 55 37 56
REMARK SMILES IDX 30 57 36 58 38 59 35 60 31 61 32 62 33 63 34 64 60 65 61 66
REMARK SMILES IDX 69 67 62 68 68 69 70 70 67 71 63 72 64 73 65 74 66 75 45 76
REMARK SMILES IDX 46 77 54 78 47 79 53 80 55 81 52 82 48 83 49 84 50 85 51 86
REMARK H PARENT 12 6 16 20 75 39 43 50
REMARK Flexibility Score: inf
ROOT
ATOM      1  C   UNL A   1      37.981  30.717  31.600  1.00  0.00     0.042 C 
ENDROOT
BRANCH   1   2
ATOM      2  C   UNL A   1      38.742  31.775  32.404  1.00  0.00     0.118 C 
BRANCH   2   3
ATOM      3  N   UNL A   1      38.321  31.843  33.795  1.00  0.00    -0.345 N 
ATOM      4  C   UNL A   1      37.211  32.465  34.300  1.00  0.00     0.296 C 
ATOM      5  O   UNL A   1      36.940  32.426  35.494  1.00  0.00    -0.260 OA
ATOM      6  H   UNL A   1      38.901  31.389  34.449  1.00  0.00     0.164 HD
BRANCH   4   7
ATOM      7  C   UNL A   1      36.323  33.132  33.398  1.00  0.00     0.002 C 
ATOM      8  C   UNL A   1      35.520  33.720  32.710  1.00  0.00    -0.034 C 
BRANCH   8   9
ATOM      9  C   UNL A   1      34.537  34.450  32.005  1.00  0.00     0.135 A 
ATOM     10  N   UNL A   1      33.488  35.229  30.349  1.00  0.00    -0.269 N 
ATOM     11  C   UNL A   1      32.841  35.728  31.446  1.00  0.00     0.110 A 
ATOM     12  N   UNL A   1      34.518  34.417  30.672  1.00  0.00    -0.164 NA
ATOM     13  C   UNL A   1      33.503  35.232  32.544  1.00  0.00     0.059 A 
BRANCH  10  14
ATOM     14  C   UNL A   1      33.208  35.479  28.937  1.00  0.00     0.101 C 
ATOM     15  C   UNL A   1      34.232  36.393  28.258  1.00  0.00     0.033 C 
ATOM     16  C   UNL A   1      33.083  34.162  28.169  1.00  0.00     0.033 C 
ENDBRANCH  10  14
ENDBRANCH   8   9
ENDBRANCH   4   7
ENDBRANCH   2   3
ENDBRANCH   1   2
BRANCH   1  17
ATOM     17  C   UNL A   1      37.491  31.247  30.263  1.00  0.00     0.118 C 
BRANCH  17  18
ATOM     18  N   UNL A   1      36.508  30.380  29.596  1.00  0.00    -0.352 N 
ATOM     19  C   UNL A   1      36.715  29.504  28.533  1.00  0.00     0.251 C 
ATOM     20  H   UNL A   1      35.588  30.424  29.944  1.00  0.00     0.163 HD
ATOM     21  O   UNL A   1      35.770  29.120  27.853  1.00  0.00    -0.269 OA
BRANCH  19  22
ATOM     22  C   UNL A   1      38.089  29.024  28.267  1.00  0.00     0.039 A 
ATOM     23  C   UNL A   1      38.925  29.524  27.265  1.00  0.00     0.014 A 
ATOM     24  C   UNL A   1      38.563  28.051  29.129  1.00  0.00     0.014 A 
ATOM     25  C   UNL A   1      40.225  29.008  27.164  1.00  0.00     0.010 A 
ATOM     26  C   UNL A   1      39.904  27.898  29.268  1.00  0.00     0.010 A 
ATOM     27  C   UNL A   1      40.699  28.158  28.177  1.00  0.00    -0.014 A 
BRANCH  27  28
ATOM     28  C   UNL A   1      42.078  27.698  28.316  1.00  0.00     0.031 A 
ATOM     29  C   UNL A   1      42.292  26.455  27.540  1.00  0.00     0.074 A 
ATOM     30  C   UNL A   1      43.078  28.450  28.853  1.00  0.00     0.049 A 
ATOM     31  N   UNL A   1      42.347  25.260  28.021  1.00  0.00    -0.248 NA
ATOM     32  C   UNL A   1      42.140  26.488  26.072  1.00  0.00     0.031 C 
ATOM     33  C   UNL A   1      43.022  29.800  29.436  1.00  0.00     0.029 A 
ATOM     34  N   UNL A   1      44.415  28.173  28.942  1.00  0.00    -0.354 N 
ATOM     35  C   UNL A   1      42.587  24.439  26.928  1.00  0.00     0.074 A 
ATOM     36  C   UNL A   1      42.153  25.184  25.780  1.00  0.00     0.031 C 
ATOM     37  C   UNL A   1      44.277  30.289  29.616  1.00  0.00     0.029 A 
ATOM     38  C   UNL A   1      45.246  29.256  29.295  1.00  0.00     0.049 A 
ATOM     39  H   UNL A   1      44.775  27.273  28.769  1.00  0.00     0.167 HD
ATOM     40  C   UNL A   1      43.430  23.377  27.046  1.00  0.00     0.034 A 
ATOM     41  C   UNL A   1      46.621  29.270  29.335  1.00  0.00     0.034 A 
ATOM     42  C   UNL A   1      43.660  23.068  28.444  1.00  0.00     0.049 A 
ATOM     43  C   UNL A   1      47.029  27.846  29.483  1.00  0.00     0.074 A 
ATOM     44  C   UNL A   1      42.825  22.773  29.507  1.00  0.00     0.029 A 
ATOM     45  N   UNL A   1      44.833  23.521  29.011  1.00  0.00    -0.354 N 
ATOM     46  N   UNL A   1      46.748  27.148  30.552  1.00  0.00    -0.248 NA
ATOM     47  C   UNL A   1      47.188  27.073  28.257  1.00  0.00     0.031 C 
ATOM     48  C   UNL A   1      43.326  23.558  30.590  1.00  0.00     0.029 A 
ATOM     49  C   UNL A   1      44.518  24.163  30.187  1.00  0.00     0.049 A 
ATOM     50  H   UNL A   1      45.738  23.404  28.639  1.00  0.00     0.167 HD
ATOM     51  C   UNL A   1      46.250  25.947  30.072  1.00  0.00     0.074 A 
ATOM     52  C   UNL A   1      46.585  25.943  28.643  1.00  0.00     0.031 C 
ATOM     53  C   UNL A   1      45.324  25.223  30.772  1.00  0.00     0.034 A 
BRANCH  40  54
ATOM     54  C   UNL A   1      44.350  22.895  25.949  1.00  0.00     0.023 A 
ATOM     55  C   UNL A   1      44.378  21.513  25.691  1.00  0.00     0.031 A 
ATOM     56  C   UNL A   1      45.379  23.654  25.341  1.00  0.00     0.131 A 
ATOM     57  C   UNL A   1      45.420  20.940  24.938  1.00  0.00     0.055 A 
ATOM     58  C   UNL A   1      46.373  23.089  24.540  1.00  0.00     0.041 A 
ATOM     59  F   UNL A   1      45.546  24.962  25.560  1.00  0.00    -0.206 F 
ATOM     60  C   UNL A   1      46.413  21.721  24.355  1.00  0.00     0.022 A 
BRANCH  57  61
ATOM     61  S   UNL A   1      45.544  19.136  24.869  1.00  0.00     0.124 S 
ATOM     62  O   UNL A   1      44.293  18.730  25.499  1.00  0.00    -0.237 OA
ATOM     63  O   UNL A   1      45.650  18.897  23.434  1.00  0.00    -0.237 OA
ATOM     64  O   UNL A   1      46.753  18.850  25.638  1.00  0.00    -0.744 OA
ENDBRANCH  57  61
ENDBRANCH  40  54
BRANCH  41  65
ATOM     65  C   UNL A   1      47.581  30.336  28.853  1.00  0.00     0.023 A 
ATOM     66  C   UNL A   1      47.286  31.311  27.853  1.00  0.00     0.031 A 
ATOM     67  C   UNL A   1      48.752  30.571  29.606  1.00  0.00     0.131 A 
ATOM     68  C   UNL A   1      48.138  32.441  27.660  1.00  0.00     0.055 A 
ATOM     69  C   UNL A   1      49.570  31.692  29.425  1.00  0.00     0.041 A 
ATOM     70  F   UNL A   1      49.099  29.757  30.614  1.00  0.00    -0.206 F 
ATOM     71  C   UNL A   1      49.263  32.636  28.461  1.00  0.00     0.022 A 
BRANCH  68  72
ATOM     72  S   UNL A   1      47.788  33.734  26.403  1.00  0.00     0.124 S 
ATOM     73  O   UNL A   1      47.822  34.958  27.194  1.00  0.00    -0.237 OA
ATOM     74  O   UNL A   1      48.871  33.552  25.442  1.00  0.00    -0.237 OA
ATOM     75  O   UNL A   1      46.462  33.375  25.896  1.00  0.00    -0.744 OA
ENDBRANCH  68  72
ENDBRANCH  41  65
BRANCH  53  76
ATOM     76  C   UNL A   1      45.003  25.628  32.205  1.00  0.00     0.023 A 
ATOM     77  C   UNL A   1      43.889  26.394  32.635  1.00  0.00     0.031 A 
ATOM     78  C   UNL A   1      45.837  25.092  33.203  1.00  0.00     0.131 A 
ATOM     79  C   UNL A   1      43.661  26.600  34.015  1.00  0.00     0.055 A 
ATOM     80  C   UNL A   1      45.590  25.270  34.562  1.00  0.00     0.041 A 
ATOM     81  F   UNL A   1      46.901  24.344  32.867  1.00  0.00    -0.206 F 
ATOM     82  C   UNL A   1      44.505  26.031  34.974  1.00  0.00     0.022 A 
BRANCH  79  83
ATOM     83  S   UNL A   1      42.285  27.647  34.607  1.00  0.00     0.124 S 
ATOM     84  O   UNL A   1      42.158  28.660  33.565  1.00  0.00    -0.237 OA
ATOM     85  O   UNL A   1      41.181  26.697  34.711  1.00  0.00    -0.237 OA
ATOM     86  O   UNL A   1      42.771  28.155  35.892  1.00  0.00    -0.744 OA
ENDBRANCH  79  83
ENDBRANCH  53  76
ENDBRANCH  27  28
ENDBRANCH  19  22
ENDBRANCH  17  18
ENDBRANCH   1  17
TORSDOF 15
ENDMDL
