MODEL 1
REMARK VINA RESULT:     -13.0      0.000      0.000
REMARK SMILES Cc1ccc2cc(C[N@H+]3CC[NH2+][C@H](C(=O)NCCCNC(=O)c4ccc(-c5c6nc(c(-c7cc(S(=O)(=O)[O-])ccc7F)c7ccc([nH]7)c(-c7cc(S(=O)(=O)[O-])ccc7F)c7nc(c(-c8cc(S(=O)(=O)[O-])ccc8F)c8ccc5[nH]8)C=C7)C=C6)cc4)C3)c(N3CCOCC3)nc2c1
REMARK SMILES IDX 18 1 17 2 16 3 14 4 15 5 13 7 9 8 10 9 86 10 11 12 12 13
REMARK SMILES IDX 8 16 7 17 1 18 2 19 3 20 96 21 4 22 95 23 5 24 94 25 6 26
REMARK SMILES IDX 87 27 88 28 89 29 93 30 90 31 92 32 91 33 19 34 20 35 21 36
REMARK SMILES IDX 22 38 23 39 24 40 85 41 25 42 84 43 26 44 27 45 28 46 78 47
REMARK SMILES IDX 29 48 83 49 77 50 79 51 30 52 82 53 76 54 75 55 31 57 63 58
REMARK SMILES IDX 43 59 62 60 44 61 47 62 61 63 80 64 45 65 46 66 60 68 81 69
REMARK SMILES IDX 48 70 32 71 33 72 41 73 34 74 40 75 42 76 39 77 35 78 36 79
REMARK SMILES IDX 37 80 38 81 64 82 65 83 73 84 66 85 72 86 74 87 71 88 67 89
REMARK SMILES IDX 68 90 69 91 70 92 49 93 50 94 58 95 51 96 57 97 59 98 56 99
REMARK SMILES IDX 52 100 53 101 54 102 55 103
REMARK H PARENT 16 6 9 11 12 14 12 15 20 37 79 56 47 67
REMARK Flexibility Score: inf
ROOT
ATOM      1  C   UNL A   1      33.121  28.735  24.585  1.00  0.00     0.042 C 
ENDROOT
BRANCH   1   2
ATOM      2  C   UNL A   1      33.029  27.236  24.372  1.00  0.00     0.118 C 
BRANCH   2   3
ATOM      3  N   UNL A   1      31.645  26.826  24.262  1.00  0.00    -0.351 N 
ATOM      4  C   UNL A   1      31.060  25.616  24.413  1.00  0.00     0.284 C 
ATOM      5  O   UNL A   1      29.855  25.547  24.145  1.00  0.00    -0.268 OA
ATOM      6  H   UNL A   1      31.022  27.554  24.038  1.00  0.00     0.163 HD
BRANCH   4   7
ATOM      7  C   UNL A   1      31.789  24.443  25.049  1.00  0.00     0.328 C 
ATOM      8  N   UNL A   1      31.666  21.920  25.223  1.00  0.00    -0.321 N 
ATOM      9  C   UNL A   1      32.388  22.082  26.501  1.00  0.00     0.324 C 
ATOM     10  C   UNL A   1      30.981  23.149  24.822  1.00  0.00     0.339 C 
ATOM     11  H   UNL A   1      30.943  21.230  25.432  1.00  0.00     0.348 HD
ATOM     12  C   UNL A   1      33.076  23.452  26.770  1.00  0.00     0.323 C 
ATOM     13  N   UNL A   1      32.230  24.627  26.452  1.00  0.00    -0.327 N 
ATOM     14  H   UNL A   1      32.769  25.488  26.544  1.00  0.00     0.347 HD
ATOM     15  H   UNL A   1      31.435  24.698  27.087  1.00  0.00     0.347 HD
BRANCH   8  16
ATOM     16  C   UNL A   1      32.391  21.242  24.134  1.00  0.00     0.303 C 
BRANCH  16  17
ATOM     17  C   UNL A   1      33.902  21.212  24.217  1.00  0.00     0.049 A 
ATOM     18  C   UNL A   1      39.555  22.843  26.832  1.00  0.00     0.044 C 
ATOM     19  C   UNL A   1      38.308  22.733  26.005  1.00  0.00    -0.049 A 
ATOM     20  C   UNL A   1      37.728  23.868  25.438  1.00  0.00     0.004 A 
ATOM     21  C   UNL A   1      37.691  21.483  25.816  1.00  0.00     0.032 A 
ATOM     22  C   UNL A   1      36.536  23.754  24.729  1.00  0.00     0.010 A 
ATOM     23  C   UNL A   1      36.481  21.346  25.142  1.00  0.00     0.073 A 
ATOM     24  C   UNL A   1      35.903  22.507  24.606  1.00  0.00     0.001 A 
ATOM     25  N   UNL A   1      35.870  20.144  25.077  1.00  0.00    -0.230 NA
ATOM     26  C   UNL A   1      34.620  22.405  24.069  1.00  0.00     0.023 A 
ATOM     27  C   UNL A   1      34.600  20.067  24.614  1.00  0.00     0.138 A 
BRANCH  27  28
ATOM     28  N   UNL A   1      33.974  18.834  24.605  1.00  0.00    -0.352 N 
ATOM     29  C   UNL A   1      34.738  17.677  24.119  1.00  0.00     0.146 C 
ATOM     30  C   UNL A   1      33.048  18.501  25.689  1.00  0.00     0.146 C 
ATOM     31  C   UNL A   1      33.739  16.608  23.652  1.00  0.00     0.181 C 
ATOM     32  C   UNL A   1      32.117  17.377  25.194  1.00  0.00     0.181 C 
ATOM     33  O   UNL A   1      32.850  16.230  24.719  1.00  0.00    -0.378 OA
ENDBRANCH  27  28
ENDBRANCH  16  17
ENDBRANCH   8  16
ENDBRANCH   4   7
ENDBRANCH   2   3
ENDBRANCH   1   2
BRANCH   1  34
ATOM     34  C   UNL A   1      33.501  29.108  26.009  1.00  0.00     0.118 C 
BRANCH  34  35
ATOM     35  N   UNL A   1      33.093  30.463  26.365  1.00  0.00    -0.352 N 
ATOM     36  C   UNL A   1      33.703  31.337  27.239  1.00  0.00     0.251 C 
ATOM     37  H   UNL A   1      32.278  30.796  25.924  1.00  0.00     0.163 HD
ATOM     38  O   UNL A   1      33.157  32.372  27.579  1.00  0.00    -0.269 OA
BRANCH  36  39
ATOM     39  C   UNL A   1      35.022  30.948  27.770  1.00  0.00     0.039 A 
ATOM     40  C   UNL A   1      35.192  29.654  28.269  1.00  0.00     0.014 A 
ATOM     41  C   UNL A   1      36.015  31.915  27.916  1.00  0.00     0.014 A 
ATOM     42  C   UNL A   1      36.273  29.390  29.093  1.00  0.00     0.010 A 
ATOM     43  C   UNL A   1      37.158  31.605  28.654  1.00  0.00     0.010 A 
ATOM     44  C   UNL A   1      37.270  30.359  29.293  1.00  0.00    -0.014 A 
BRANCH  44  45
ATOM     45  C   UNL A   1      38.430  30.043  30.163  1.00  0.00     0.031 A 
ATOM     46  C   UNL A   1      39.535  29.142  29.682  1.00  0.00     0.074 A 
ATOM     47  C   UNL A   1      38.496  30.619  31.379  1.00  0.00     0.049 A 
ATOM     48  N   UNL A   1      40.590  28.723  30.330  1.00  0.00    -0.248 NA
ATOM     49  C   UNL A   1      39.449  28.644  28.298  1.00  0.00     0.031 C 
ATOM     50  C   UNL A   1      37.493  31.538  31.920  1.00  0.00     0.029 A 
ATOM     51  N   UNL A   1      39.443  30.544  32.366  1.00  0.00    -0.354 N 
ATOM     52  C   UNL A   1      41.278  27.895  29.449  1.00  0.00     0.074 A 
ATOM     53  C   UNL A   1      40.511  27.852  28.225  1.00  0.00     0.031 C 
ATOM     54  C   UNL A   1      37.907  31.990  33.110  1.00  0.00     0.029 A 
ATOM     55  C   UNL A   1      39.150  31.314  33.467  1.00  0.00     0.049 A 
ATOM     56  H   UNL A   1      40.256  29.992  32.294  1.00  0.00     0.167 HD
ATOM     57  C   UNL A   1      42.448  27.244  29.651  1.00  0.00     0.034 A 
ATOM     58  C   UNL A   1      39.787  31.440  34.648  1.00  0.00     0.034 A 
ATOM     59  C   UNL A   1      43.210  27.332  30.871  1.00  0.00     0.049 A 
ATOM     60  C   UNL A   1      41.048  30.651  34.867  1.00  0.00     0.074 A 
ATOM     61  C   UNL A   1      44.421  26.731  31.165  1.00  0.00     0.029 A 
ATOM     62  N   UNL A   1      42.846  28.069  31.990  1.00  0.00    -0.354 N 
ATOM     63  N   UNL A   1      41.688  29.876  34.023  1.00  0.00    -0.248 NA
ATOM     64  C   UNL A   1      41.666  30.733  36.195  1.00  0.00     0.031 C 
ATOM     65  C   UNL A   1      44.761  27.058  32.477  1.00  0.00     0.029 A 
ATOM     66  C   UNL A   1      43.795  27.913  32.985  1.00  0.00     0.049 A 
ATOM     67  H   UNL A   1      42.035  28.621  32.063  1.00  0.00     0.167 HD
ATOM     68  C   UNL A   1      42.789  29.384  34.715  1.00  0.00     0.074 A 
ATOM     69  C   UNL A   1      42.743  29.972  36.038  1.00  0.00     0.031 C 
ATOM     70  C   UNL A   1      43.742  28.516  34.296  1.00  0.00     0.034 A 
BRANCH  57  71
ATOM     71  C   UNL A   1      43.007  26.381  28.547  1.00  0.00     0.023 A 
ATOM     72  C   UNL A   1      44.057  26.864  27.742  1.00  0.00     0.031 A 
ATOM     73  C   UNL A   1      42.406  25.161  28.195  1.00  0.00     0.131 A 
ATOM     74  C   UNL A   1      44.446  26.150  26.601  1.00  0.00     0.055 A 
ATOM     75  C   UNL A   1      42.821  24.435  27.077  1.00  0.00     0.041 A 
ATOM     76  F   UNL A   1      41.403  24.658  28.932  1.00  0.00    -0.206 F 
ATOM     77  C   UNL A   1      43.836  24.936  26.267  1.00  0.00     0.022 A 
BRANCH  74  78
ATOM     78  S   UNL A   1      45.715  26.794  25.477  1.00  0.00     0.124 S 
ATOM     79  O   UNL A   1      46.056  25.605  24.698  1.00  0.00    -0.237 OA
ATOM     80  O   UNL A   1      44.981  27.825  24.749  1.00  0.00    -0.237 OA
ATOM     81  O   UNL A   1      46.765  27.273  26.369  1.00  0.00    -0.744 OA
ENDBRANCH  74  78
ENDBRANCH  57  71
BRANCH  58  82
ATOM     82  C   UNL A   1      39.228  32.360  35.682  1.00  0.00     0.023 A 
ATOM     83  C   UNL A   1      39.658  33.697  35.769  1.00  0.00     0.031 A 
ATOM     84  C   UNL A   1      38.357  31.881  36.672  1.00  0.00     0.131 A 
ATOM     85  C   UNL A   1      39.287  34.481  36.870  1.00  0.00     0.055 A 
ATOM     86  C   UNL A   1      37.926  32.689  37.726  1.00  0.00     0.041 A 
ATOM     87  F   UNL A   1      37.928  30.610  36.638  1.00  0.00    -0.206 F 
ATOM     88  C   UNL A   1      38.410  33.989  37.841  1.00  0.00     0.022 A 
BRANCH  85  89
ATOM     89  S   UNL A   1      40.060  36.097  37.158  1.00  0.00     0.124 S 
ATOM     90  O   UNL A   1      39.297  36.599  38.296  1.00  0.00    -0.237 OA
ATOM     91  O   UNL A   1      41.445  35.723  37.440  1.00  0.00    -0.237 OA
ATOM     92  O   UNL A   1      39.858  36.804  35.898  1.00  0.00    -0.744 OA
ENDBRANCH  85  89
ENDBRANCH  58  82
BRANCH  70  93
ATOM     93  C   UNL A   1      44.827  28.123  35.263  1.00  0.00     0.023 A 
ATOM     94  C   UNL A   1      44.570  27.158  36.254  1.00  0.00     0.031 A 
ATOM     95  C   UNL A   1      46.045  28.822  35.309  1.00  0.00     0.131 A 
ATOM     96  C   UNL A   1      45.497  26.955  37.283  1.00  0.00     0.055 A 
ATOM     97  C   UNL A   1      46.986  28.584  36.310  1.00  0.00     0.041 A 
ATOM     98  F   UNL A   1      46.328  29.756  34.387  1.00  0.00    -0.206 F 
ATOM     99  C   UNL A   1      46.707  27.659  37.313  1.00  0.00     0.022 A 
BRANCH  96 100
ATOM    100  S   UNL A   1      45.130  25.841  38.665  1.00  0.00     0.124 S 
ATOM    101  O   UNL A   1      44.032  26.537  39.333  1.00  0.00    -0.237 OA
ATOM    102  O   UNL A   1      44.759  24.609  37.976  1.00  0.00    -0.237 OA
ATOM    103  O   UNL A   1      46.379  25.790  39.418  1.00  0.00    -0.744 OA
ENDBRANCH  96 100
ENDBRANCH  70  93
ENDBRANCH  44  45
ENDBRANCH  36  39
ENDBRANCH  34  35
ENDBRANCH   1  34
TORSDOF 16
ENDMDL
MODEL 2
REMARK VINA RESULT:     -12.6      9.686     15.415
REMARK SMILES Cc1ccc2cc(C[N@H+]3CC[NH2+][C@H](C(=O)NCCCNC(=O)c4ccc(-c5c6nc(c(-c7cc(S(=O)(=O)[O-])ccc7F)c7ccc([nH]7)c(-c7cc(S(=O)(=O)[O-])ccc7F)c7nc(c(-c8cc(S(=O)(=O)[O-])ccc8F)c8ccc5[nH]8)C=C7)C=C6)cc4)C3)c(N3CCOCC3)nc2c1
REMARK SMILES IDX 18 1 17 2 16 3 14 4 15 5 13 7 9 8 10 9 86 10 11 12 12 13
REMARK SMILES IDX 8 16 7 17 1 18 2 19 3 20 96 21 4 22 95 23 5 24 94 25 6 26
REMARK SMILES IDX 87 27 88 28 89 29 93 30 90 31 92 32 91 33 19 34 20 35 21 36
REMARK SMILES IDX 22 38 23 39 24 40 85 41 25 42 84 43 26 44 27 45 28 46 78 47
REMARK SMILES IDX 29 48 83 49 77 50 79 51 30 52 82 53 76 54 75 55 31 57 63 58
REMARK SMILES IDX 43 59 62 60 44 61 47 62 61 63 80 64 45 65 46 66 60 68 81 69
REMARK SMILES IDX 48 70 32 71 33 72 41 73 34 74 40 75 42 76 39 77 35 78 36 79
REMARK SMILES IDX 37 80 38 81 64 82 65 83 73 84 66 85 72 86 74 87 71 88 67 89
REMARK SMILES IDX 68 90 69 91 70 92 49 93 50 94 58 95 51 96 57 97 59 98 56 99
REMARK SMILES IDX 52 100 53 101 54 102 55 103
REMARK H PARENT 16 6 9 11 12 14 12 15 20 37 79 56 47 67
REMARK Flexibility Score: inf
ROOT
ATOM      1  C   UNL A   1      46.690  38.762  26.407  1.00  0.00     0.042 C 
ENDROOT
BRANCH   1   2
ATOM      2  C   UNL A   1      45.395  39.540  26.278  1.00  0.00     0.118 C 
BRANCH   2   3
ATOM      3  N   UNL A   1      45.637  40.956  26.452  1.00  0.00    -0.351 N 
ATOM      4  C   UNL A   1      45.117  42.034  25.821  1.00  0.00     0.284 C 
ATOM      5  O   UNL A   1      45.602  43.133  26.111  1.00  0.00    -0.268 OA
ATOM      6  H   UNL A   1      46.295  41.173  27.152  1.00  0.00     0.163 HD
BRANCH   4   7
ATOM      7  C   UNL A   1      43.882  41.932  24.940  1.00  0.00     0.328 C 
ATOM      8  N   UNL A   1      42.854  42.980  22.877  1.00  0.00    -0.321 N 
ATOM      9  C   UNL A   1      41.557  42.552  23.438  1.00  0.00     0.324 C 
ATOM     10  C   UNL A   1      43.892  43.075  23.905  1.00  0.00     0.339 C 
ATOM     11  H   UNL A   1      42.679  43.928  22.541  1.00  0.00     0.348 HD
ATOM     12  C   UNL A   1      41.582  41.500  24.586  1.00  0.00     0.323 C 
ATOM     13  N   UNL A   1      42.586  41.779  25.641  1.00  0.00    -0.327 N 
ATOM     14  H   UNL A   1      42.629  41.005  26.303  1.00  0.00     0.347 HD
ATOM     15  H   UNL A   1      42.347  42.617  26.171  1.00  0.00     0.347 HD
BRANCH   8  16
ATOM     16  C   UNL A   1      43.287  42.320  21.632  1.00  0.00     0.303 C 
BRANCH  16  17
ATOM     17  C   UNL A   1      43.578  43.206  20.439  1.00  0.00     0.049 A 
ATOM     18  C   UNL A   1      42.753  48.496  16.864  1.00  0.00     0.044 C 
ATOM     19  C   UNL A   1      42.712  47.124  17.469  1.00  0.00    -0.049 A 
ATOM     20  C   UNL A   1      41.547  46.359  17.420  1.00  0.00     0.004 A 
ATOM     21  C   UNL A   1      43.844  46.605  18.123  1.00  0.00     0.032 A 
ATOM     22  C   UNL A   1      41.510  45.116  18.044  1.00  0.00     0.010 A 
ATOM     23  C   UNL A   1      43.823  45.381  18.786  1.00  0.00     0.073 A 
ATOM     24  C   UNL A   1      42.630  44.642  18.746  1.00  0.00     0.001 A 
ATOM     25  N   UNL A   1      44.898  44.971  19.491  1.00  0.00    -0.230 NA
ATOM     26  C   UNL A   1      42.551  43.496  19.535  1.00  0.00     0.023 A 
ATOM     27  C   UNL A   1      44.790  43.893  20.304  1.00  0.00     0.138 A 
BRANCH  27  28
ATOM     28  N   UNL A   1      45.888  43.520  21.058  1.00  0.00    -0.352 N 
ATOM     29  C   UNL A   1      46.693  42.386  20.586  1.00  0.00     0.146 C 
ATOM     30  C   UNL A   1      46.681  44.559  21.716  1.00  0.00     0.146 C 
ATOM     31  C   UNL A   1      47.439  41.796  21.794  1.00  0.00     0.181 C 
ATOM     32  C   UNL A   1      47.463  43.904  22.872  1.00  0.00     0.181 C 
ATOM     33  O   UNL A   1      48.264  42.791  22.426  1.00  0.00    -0.378 OA
ENDBRANCH  27  28
ENDBRANCH  16  17
ENDBRANCH   8  16
ENDBRANCH   4   7
ENDBRANCH   2   3
ENDBRANCH   1   2
BRANCH   1  34
ATOM     34  C   UNL A   1      46.549  37.519  27.273  1.00  0.00     0.118 C 
BRANCH  34  35
ATOM     35  N   UNL A   1      46.087  37.823  28.624  1.00  0.00    -0.352 N 
ATOM     36  C   UNL A   1      45.402  37.005  29.496  1.00  0.00     0.251 C 
ATOM     37  H   UNL A   1      46.292  38.727  28.954  1.00  0.00     0.163 HD
ATOM     38  O   UNL A   1      44.922  37.444  30.526  1.00  0.00    -0.269 OA
BRANCH  36  39
ATOM     39  C   UNL A   1      45.245  35.591  29.111  1.00  0.00     0.039 A 
ATOM     40  C   UNL A   1      44.518  35.283  27.959  1.00  0.00     0.014 A 
ATOM     41  C   UNL A   1      45.677  34.591  29.981  1.00  0.00     0.014 A 
ATOM     42  C   UNL A   1      44.048  33.991  27.787  1.00  0.00     0.010 A 
ATOM     43  C   UNL A   1      45.295  33.271  29.738  1.00  0.00     0.010 A 
ATOM     44  C   UNL A   1      44.433  32.970  28.671  1.00  0.00    -0.014 A 
BRANCH  44  45
ATOM     45  C   UNL A   1      43.934  31.590  28.451  1.00  0.00     0.031 A 
ATOM     46  C   UNL A   1      44.746  30.588  27.678  1.00  0.00     0.074 A 
ATOM     47  C   UNL A   1      42.755  31.239  29.001  1.00  0.00     0.049 A 
ATOM     48  N   UNL A   1      44.437  29.360  27.351  1.00  0.00    -0.248 NA
ATOM     49  C   UNL A   1      46.077  31.011  27.208  1.00  0.00     0.031 C 
ATOM     50  C   UNL A   1      41.912  32.129  29.802  1.00  0.00     0.029 A 
ATOM     51  N   UNL A   1      42.072  30.051  28.998  1.00  0.00    -0.354 N 
ATOM     52  C   UNL A   1      45.514  28.873  26.619  1.00  0.00     0.074 A 
ATOM     53  C   UNL A   1      46.480  29.945  26.529  1.00  0.00     0.031 C 
ATOM     54  C   UNL A   1      40.861  31.442  30.263  1.00  0.00     0.029 A 
ATOM     55  C   UNL A   1      40.895  30.093  29.707  1.00  0.00     0.049 A 
ATOM     56  H   UNL A   1      42.394  29.245  28.532  1.00  0.00     0.167 HD
ATOM     57  C   UNL A   1      45.676  27.641  26.083  1.00  0.00     0.034 A 
ATOM     58  C   UNL A   1      39.931  29.166  29.868  1.00  0.00     0.034 A 
ATOM     59  C   UNL A   1      44.710  26.579  26.218  1.00  0.00     0.049 A 
ATOM     60  C   UNL A   1      40.108  27.828  29.204  1.00  0.00     0.074 A 
ATOM     61  C   UNL A   1      44.793  25.286  25.734  1.00  0.00     0.029 A 
ATOM     62  N   UNL A   1      43.499  26.681  26.887  1.00  0.00    -0.354 N 
ATOM     63  N   UNL A   1      41.135  27.382  28.519  1.00  0.00    -0.248 NA
ATOM     64  C   UNL A   1      38.999  26.874  29.315  1.00  0.00     0.031 C 
ATOM     65  C   UNL A   1      43.610  24.623  26.062  1.00  0.00     0.029 A 
ATOM     66  C   UNL A   1      42.812  25.482  26.803  1.00  0.00     0.049 A 
ATOM     67  H   UNL A   1      43.176  27.485  27.353  1.00  0.00     0.167 HD
ATOM     68  C   UNL A   1      40.799  26.093  28.122  1.00  0.00     0.074 A 
ATOM     69  C   UNL A   1      39.486  25.820  28.670  1.00  0.00     0.031 C 
ATOM     70  C   UNL A   1      41.509  25.221  27.365  1.00  0.00     0.034 A 
BRANCH  57  71
ATOM     71  C   UNL A   1      46.935  27.337  25.309  1.00  0.00     0.023 A 
ATOM     72  C   UNL A   1      47.051  27.751  23.968  1.00  0.00     0.031 A 
ATOM     73  C   UNL A   1      47.941  26.513  25.841  1.00  0.00     0.131 A 
ATOM     74  C   UNL A   1      48.130  27.305  23.193  1.00  0.00     0.055 A 
ATOM     75  C   UNL A   1      49.032  26.101  25.074  1.00  0.00     0.041 A 
ATOM     76  F   UNL A   1      47.875  26.094  27.115  1.00  0.00    -0.206 F 
ATOM     77  C   UNL A   1      49.122  26.486  23.740  1.00  0.00     0.022 A 
BRANCH  74  78
ATOM     78  S   UNL A   1      48.257  27.723  21.432  1.00  0.00     0.124 S 
ATOM     79  O   UNL A   1      46.931  28.273  21.159  1.00  0.00    -0.237 OA
ATOM     80  O   UNL A   1      49.347  28.694  21.427  1.00  0.00    -0.237 OA
ATOM     81  O   UNL A   1      48.542  26.446  20.788  1.00  0.00    -0.744 OA
ENDBRANCH  74  78
ENDBRANCH  57  71
BRANCH  58  82
ATOM     82  C   UNL A   1      38.737  29.494  30.701  1.00  0.00     0.023 A 
ATOM     83  C   UNL A   1      37.743  30.371  30.228  1.00  0.00     0.031 A 
ATOM     84  C   UNL A   1      38.639  29.038  32.025  1.00  0.00     0.131 A 
ATOM     85  C   UNL A   1      36.747  30.833  31.098  1.00  0.00     0.055 A 
ATOM     86  C   UNL A   1      37.600  29.440  32.866  1.00  0.00     0.041 A 
ATOM     87  F   UNL A   1      39.569  28.209  32.525  1.00  0.00    -0.206 F 
ATOM     88  C   UNL A   1      36.660  30.360  32.411  1.00  0.00     0.022 A 
BRANCH  85  89
ATOM     89  S   UNL A   1      35.638  32.182  30.603  1.00  0.00     0.124 S 
ATOM     90  O   UNL A   1      34.792  32.327  31.783  1.00  0.00    -0.237 OA
ATOM     91  O   UNL A   1      36.580  33.273  30.362  1.00  0.00    -0.237 OA
ATOM     92  O   UNL A   1      34.978  31.663  29.409  1.00  0.00    -0.744 OA
ENDBRANCH  85  89
ENDBRANCH  58  82
BRANCH  70  93
ATOM     93  C   UNL A   1      40.899  23.878  27.060  1.00  0.00     0.023 A 
ATOM     94  C   UNL A   1      41.696  22.719  27.098  1.00  0.00     0.031 A 
ATOM     95  C   UNL A   1      39.587  23.773  26.570  1.00  0.00     0.131 A 
ATOM     96  C   UNL A   1      41.190  21.512  26.603  1.00  0.00     0.055 A 
ATOM     97  C   UNL A   1      39.070  22.557  26.120  1.00  0.00     0.041 A 
ATOM     98  F   UNL A   1      38.794  24.854  26.510  1.00  0.00    -0.206 F 
ATOM     99  C   UNL A   1      39.879  21.423  26.120  1.00  0.00     0.022 A 
BRANCH  96 100
ATOM    100  S   UNL A   1      42.238  20.038  26.484  1.00  0.00     0.124 S 
ATOM    101  O   UNL A   1      43.476  20.589  25.934  1.00  0.00    -0.237 OA
ATOM    102  O   UNL A   1      42.314  19.602  27.875  1.00  0.00    -0.237 OA
ATOM    103  O   UNL A   1      41.503  19.153  25.586  1.00  0.00    -0.744 OA
ENDBRANCH  96 100
ENDBRANCH  70  93
ENDBRANCH  44  45
ENDBRANCH  36  39
ENDBRANCH  34  35
ENDBRANCH   1  34
TORSDOF 16
ENDMDL
MODEL 3
REMARK VINA RESULT:     -12.5      2.100      3.217
REMARK SMILES Cc1ccc2cc(C[N@H+]3CC[NH2+][C@H](C(=O)NCCCNC(=O)c4ccc(-c5c6nc(c(-c7cc(S(=O)(=O)[O-])ccc7F)c7ccc([nH]7)c(-c7cc(S(=O)(=O)[O-])ccc7F)c7nc(c(-c8cc(S(=O)(=O)[O-])ccc8F)c8ccc5[nH]8)C=C7)C=C6)cc4)C3)c(N3CCOCC3)nc2c1
REMARK SMILES IDX 18 1 17 2 16 3 14 4 15 5 13 7 9 8 10 9 86 10 11 12 12 13
REMARK SMILES IDX 8 16 7 17 1 18 2 19 3 20 96 21 4 22 95 23 5 24 94 25 6 26
REMARK SMILES IDX 87 27 88 28 89 29 93 30 90 31 92 32 91 33 19 34 20 35 21 36
REMARK SMILES IDX 22 38 23 39 24 40 85 41 25 42 84 43 26 44 27 45 28 46 78 47
REMARK SMILES IDX 29 48 83 49 77 50 79 51 30 52 82 53 76 54 75 55 31 57 63 58
REMARK SMILES IDX 43 59 62 60 44 61 47 62 61 63 80 64 45 65 46 66 60 68 81 69
REMARK SMILES IDX 48 70 32 71 33 72 41 73 34 74 40 75 42 76 39 77 35 78 36 79
REMARK SMILES IDX 37 80 38 81 64 82 65 83 73 84 66 85 72 86 74 87 71 88 67 89
REMARK SMILES IDX 68 90 69 91 70 92 49 93 50 94 58 95 51 96 57 97 59 98 56 99
REMARK SMILES IDX 52 100 53 101 54 102 55 103
REMARK H PARENT 16 6 9 11 12 14 12 15 20 37 79 56 47 67
REMARK Flexibility Score: inf
ROOT
ATOM      1  C   UNL A   1      33.126  28.968  24.991  1.00  0.00     0.042 C 
ENDROOT
BRANCH   1   2
ATOM      2  C   UNL A   1      32.652  27.551  24.731  1.00  0.00     0.118 C 
BRANCH   2   3
ATOM      3  N   UNL A   1      31.329  27.560  24.144  1.00  0.00    -0.351 N 
ATOM      4  C   UNL A   1      30.832  26.924  23.058  1.00  0.00     0.284 C 
ATOM      5  O   UNL A   1      29.676  27.214  22.729  1.00  0.00    -0.268 OA
ATOM      6  H   UNL A   1      30.678  28.127  24.617  1.00  0.00     0.163 HD
BRANCH   4   7
ATOM      7  C   UNL A   1      31.575  25.783  22.383  1.00  0.00     0.328 C 
ATOM      8  N   UNL A   1      32.578  23.516  22.903  1.00  0.00    -0.321 N 
ATOM      9  C   UNL A   1      33.472  23.770  21.756  1.00  0.00     0.324 C 
ATOM     10  C   UNL A   1      32.017  24.755  23.445  1.00  0.00     0.339 C 
ATOM     11  H   UNL A   1      33.195  23.131  23.619  1.00  0.00     0.348 HD
ATOM     12  C   UNL A   1      33.078  24.913  20.775  1.00  0.00     0.323 C 
ATOM     13  N   UNL A   1      32.655  26.166  21.445  1.00  0.00    -0.327 N 
ATOM     14  H   UNL A   1      32.308  26.836  20.758  1.00  0.00     0.347 HD
ATOM     15  H   UNL A   1      33.433  26.610  21.932  1.00  0.00     0.347 HD
BRANCH   8  16
ATOM     16  C   UNL A   1      31.604  22.420  22.755  1.00  0.00     0.303 C 
BRANCH  16  17
ATOM     17  C   UNL A   1      31.868  21.146  23.528  1.00  0.00     0.049 A 
ATOM     18  C   UNL A   1      35.375  15.971  25.068  1.00  0.00     0.044 C 
ATOM     19  C   UNL A   1      34.393  16.949  24.494  1.00  0.00    -0.049 A 
ATOM     20  C   UNL A   1      33.935  16.811  23.184  1.00  0.00     0.004 A 
ATOM     21  C   UNL A   1      33.945  18.038  25.264  1.00  0.00     0.032 A 
ATOM     22  C   UNL A   1      33.075  17.765  22.648  1.00  0.00     0.010 A 
ATOM     23  C   UNL A   1      33.114  19.025  24.742  1.00  0.00     0.073 A 
ATOM     24  C   UNL A   1      32.689  18.878  23.412  1.00  0.00     0.001 A 
ATOM     25  N   UNL A   1      32.796  20.108  25.481  1.00  0.00    -0.230 NA
ATOM     26  C   UNL A   1      31.990  19.936  22.834  1.00  0.00     0.023 A 
ATOM     27  C   UNL A   1      32.173  21.156  24.893  1.00  0.00     0.138 A 
BRANCH  27  28
ATOM     28  N   UNL A   1      31.904  22.278  25.657  1.00  0.00    -0.352 N 
ATOM     29  C   UNL A   1      30.556  22.416  26.225  1.00  0.00     0.146 C 
ATOM     30  C   UNL A   1      32.954  22.816  26.522  1.00  0.00     0.146 C 
ATOM     31  C   UNL A   1      30.304  23.907  26.499  1.00  0.00     0.181 C 
ATOM     32  C   UNL A   1      32.617  24.290  26.824  1.00  0.00     0.181 C 
ATOM     33  O   UNL A   1      31.299  24.443  27.389  1.00  0.00    -0.378 OA
ENDBRANCH  27  28
ENDBRANCH  16  17
ENDBRANCH   8  16
ENDBRANCH   4   7
ENDBRANCH   2   3
ENDBRANCH   1   2
BRANCH   1  34
ATOM     34  C   UNL A   1      33.026  29.365  26.455  1.00  0.00     0.118 C 
BRANCH  34  35
ATOM     35  N   UNL A   1      32.751  30.788  26.635  1.00  0.00    -0.352 N 
ATOM     36  C   UNL A   1      33.492  31.719  27.331  1.00  0.00     0.251 C 
ATOM     37  H   UNL A   1      31.932  31.125  26.205  1.00  0.00     0.163 HD
ATOM     38  O   UNL A   1      33.055  32.835  27.551  1.00  0.00    -0.269 OA
BRANCH  36  39
ATOM     39  C   UNL A   1      34.814  31.294  27.826  1.00  0.00     0.039 A 
ATOM     40  C   UNL A   1      34.975  29.981  28.273  1.00  0.00     0.014 A 
ATOM     41  C   UNL A   1      35.821  32.244  27.993  1.00  0.00     0.014 A 
ATOM     42  C   UNL A   1      36.066  29.673  29.070  1.00  0.00     0.010 A 
ATOM     43  C   UNL A   1      36.971  31.893  28.700  1.00  0.00     0.010 A 
ATOM     44  C   UNL A   1      37.078  30.623  29.290  1.00  0.00    -0.014 A 
BRANCH  44  45
ATOM     45  C   UNL A   1      38.246  30.260  30.130  1.00  0.00     0.031 A 
ATOM     46  C   UNL A   1      39.325  29.353  29.603  1.00  0.00     0.074 A 
ATOM     47  C   UNL A   1      38.345  30.800  31.360  1.00  0.00     0.049 A 
ATOM     48  N   UNL A   1      40.383  28.896  30.220  1.00  0.00    -0.248 NA
ATOM     49  C   UNL A   1      39.205  28.896  28.208  1.00  0.00     0.031 C 
ATOM     50  C   UNL A   1      37.370  31.723  31.945  1.00  0.00     0.029 A 
ATOM     51  N   UNL A   1      39.309  30.680  32.327  1.00  0.00    -0.354 N 
ATOM     52  C   UNL A   1      41.040  28.081  29.304  1.00  0.00     0.074 A 
ATOM     53  C   UNL A   1      40.250  28.087  28.093  1.00  0.00     0.031 C 
ATOM     54  C   UNL A   1      37.814  32.133  33.139  1.00  0.00     0.029 A 
ATOM     55  C   UNL A   1      39.050  31.424  33.454  1.00  0.00     0.049 A 
ATOM     56  H   UNL A   1      40.109  30.116  32.225  1.00  0.00     0.167 HD
ATOM     57  C   UNL A   1      42.200  27.403  29.466  1.00  0.00     0.034 A 
ATOM     58  C   UNL A   1      39.710  31.505  34.626  1.00  0.00     0.034 A 
ATOM     59  C   UNL A   1      42.986  27.442  30.674  1.00  0.00     0.049 A 
ATOM     60  C   UNL A   1      40.960  30.686  34.800  1.00  0.00     0.074 A 
ATOM     61  C   UNL A   1      44.190  26.810  30.928  1.00  0.00     0.029 A 
ATOM     62  N   UNL A   1      42.656  28.154  31.819  1.00  0.00    -0.354 N 
ATOM     63  N   UNL A   1      41.570  29.924  33.923  1.00  0.00    -0.248 NA
ATOM     64  C   UNL A   1      41.603  30.719  36.118  1.00  0.00     0.031 C 
ATOM     65  C   UNL A   1      44.560  27.094  32.242  1.00  0.00     0.029 A 
ATOM     66  C   UNL A   1      43.619  27.952  32.792  1.00  0.00     0.049 A 
ATOM     67  H   UNL A   1      41.857  28.718  31.923  1.00  0.00     0.167 HD
ATOM     68  C   UNL A   1      42.673  29.392  34.581  1.00  0.00     0.074 A 
ATOM     69  C   UNL A   1      42.662  29.943  35.920  1.00  0.00     0.031 C 
ATOM     70  C   UNL A   1      43.601  28.518  34.120  1.00  0.00     0.034 A 
BRANCH  57  71
ATOM     71  C   UNL A   1      42.723  26.562  28.328  1.00  0.00     0.023 A 
ATOM     72  C   UNL A   1      42.333  25.213  28.213  1.00  0.00     0.031 A 
ATOM     73  C   UNL A   1      43.716  27.043  27.458  1.00  0.00     0.131 A 
ATOM     74  C   UNL A   1      42.963  24.383  27.278  1.00  0.00     0.055 A 
ATOM     75  C   UNL A   1      44.316  26.219  26.503  1.00  0.00     0.041 A 
ATOM     76  F   UNL A   1      44.121  28.321  27.526  1.00  0.00    -0.206 F 
ATOM     77  C   UNL A   1      43.949  24.879  26.420  1.00  0.00     0.022 A 
BRANCH  74  78
ATOM     78  S   UNL A   1      42.570  22.614  27.177  1.00  0.00     0.124 S 
ATOM     79  O   UNL A   1      42.790  22.180  28.554  1.00  0.00    -0.237 OA
ATOM     80  O   UNL A   1      41.174  22.637  26.747  1.00  0.00    -0.237 OA
ATOM     81  O   UNL A   1      43.525  22.097  26.204  1.00  0.00    -0.744 OA
ENDBRANCH  74  78
ENDBRANCH  57  71
BRANCH  58  82
ATOM     82  C   UNL A   1      39.188  32.405  35.695  1.00  0.00     0.023 A 
ATOM     83  C   UNL A   1      39.609  33.745  35.783  1.00  0.00     0.031 A 
ATOM     84  C   UNL A   1      38.364  31.904  36.715  1.00  0.00     0.131 A 
ATOM     85  C   UNL A   1      39.278  34.510  36.909  1.00  0.00     0.055 A 
ATOM     86  C   UNL A   1      37.972  32.694  37.798  1.00  0.00     0.041 A 
ATOM     87  F   UNL A   1      37.946  30.630  36.683  1.00  0.00    -0.206 F 
ATOM     88  C   UNL A   1      38.448  33.998  37.910  1.00  0.00     0.022 A 
BRANCH  85  89
ATOM     89  S   UNL A   1      40.048  36.131  37.186  1.00  0.00     0.124 S 
ATOM     90  O   UNL A   1      39.898  36.764  35.880  1.00  0.00    -0.237 OA
ATOM     91  O   UNL A   1      39.217  36.680  38.256  1.00  0.00    -0.237 OA
ATOM     92  O   UNL A   1      41.414  35.798  37.577  1.00  0.00    -0.744 OA
ENDBRANCH  85  89
ENDBRANCH  58  82
BRANCH  70  93
ATOM     93  C   UNL A   1      44.696  28.078  35.055  1.00  0.00     0.023 A 
ATOM     94  C   UNL A   1      44.431  27.112  36.043  1.00  0.00     0.031 A 
ATOM     95  C   UNL A   1      45.938  28.735  35.077  1.00  0.00     0.131 A 
ATOM     96  C   UNL A   1      45.375  26.866  37.046  1.00  0.00     0.055 A 
ATOM     97  C   UNL A   1      46.895  28.454  36.052  1.00  0.00     0.041 A 
ATOM     98  F   UNL A   1      46.231  29.669  34.158  1.00  0.00    -0.206 F 
ATOM     99  C   UNL A   1      46.609  27.528  37.052  1.00  0.00     0.022 A 
BRANCH  96 100
ATOM    100  S   UNL A   1      45.005  25.750  38.426  1.00  0.00     0.124 S 
ATOM    101  O   UNL A   1      46.273  25.735  39.153  1.00  0.00    -0.237 OA
ATOM    102  O   UNL A   1      43.910  26.445  39.097  1.00  0.00    -0.237 OA
ATOM    103  O   UNL A   1      44.648  24.493  37.777  1.00  0.00    -0.744 OA
ENDBRANCH  96 100
ENDBRANCH  70  93
ENDBRANCH  44  45
ENDBRANCH  36  39
ENDBRANCH  34  35
ENDBRANCH   1  34
TORSDOF 16
ENDMDL
