MODEL 1
REMARK VINA RESULT:     -12.8      0.000      0.000
REMARK SMILES C[C@H](c1ccccc1)N1C(=O)c2ccc(C(=O)NCCCNC(=O)c3ccc(-c4c5nc(c(-c6cc(S(=O)(=O)[O-])ccc6F)c6ccc([nH]6)c(-c6cc(S(=O)(=O)[O-])ccc6F)c6nc(c(-c7cc(S(=O)(=O)[O-])ccc7F)c7ccc4[nH]7)C=C6)C=C5)cc3)cc2C1=O
REMARK SMILES IDX 20 1 19 2 18 3 16 4 17 5 15 7 9 8 10 9 90 10 11 11 12 12
REMARK SMILES IDX 89 13 91 14 13 15 88 16 14 17 2 18 1 19 3 20 4 21 8 22 5 23
REMARK SMILES IDX 7 24 6 25 21 26 22 27 23 28 24 30 25 31 26 32 87 33 27 34
REMARK SMILES IDX 86 35 28 36 29 37 30 38 80 39 31 40 85 41 79 42 81 43 32 44
REMARK SMILES IDX 84 45 78 46 77 47 33 49 65 50 45 51 64 52 46 53 49 54 63 55
REMARK SMILES IDX 82 56 47 57 48 58 62 60 83 61 50 62 34 63 35 64 43 65 36 66
REMARK SMILES IDX 42 67 44 68 41 69 37 70 38 71 39 72 40 73 66 74 67 75 75 76
REMARK SMILES IDX 68 77 74 78 76 79 73 80 69 81 70 82 71 83 72 84 51 85 52 86
REMARK SMILES IDX 60 87 53 88 59 89 61 90 58 91 54 92 55 93 56 94 57 95
REMARK H PARENT 18 6 22 29 81 48 49 59
REMARK Flexibility Score: inf
ROOT
ATOM      1  C   UNL A   1      31.413  32.295  26.522  1.00  0.00     0.042 C 
ENDROOT
BRANCH   1   2
ATOM      2  C   UNL A   1      31.440  30.795  26.247  1.00  0.00     0.118 C 
BRANCH   2   3
ATOM      3  N   UNL A   1      30.938  30.438  24.930  1.00  0.00    -0.352 N 
ATOM      4  C   UNL A   1      31.066  29.325  24.144  1.00  0.00     0.251 C 
ATOM      5  O   UNL A   1      30.577  29.355  23.014  1.00  0.00    -0.269 OA
ATOM      6  H   UNL A   1      30.390  31.144  24.517  1.00  0.00     0.163 HD
BRANCH   4   7
ATOM      7  C   UNL A   1      31.789  28.098  24.562  1.00  0.00     0.040 A 
ATOM      8  N   UNL A   1      32.842  23.974  26.325  1.00  0.00    -0.267 N 
ATOM      9  C   UNL A   1      33.864  24.628  25.691  1.00  0.00     0.262 C 
ATOM     10  C   UNL A   1      31.704  24.739  26.344  1.00  0.00     0.262 C 
ATOM     11  O   UNL A   1      35.036  24.334  25.561  1.00  0.00    -0.269 OA
ATOM     12  C   UNL A   1      33.313  25.877  25.181  1.00  0.00     0.053 A 
ATOM     13  C   UNL A   1      32.001  25.964  25.601  1.00  0.00     0.054 A 
ATOM     14  O   UNL A   1      30.630  24.514  26.868  1.00  0.00    -0.269 OA
ATOM     15  C   UNL A   1      33.902  26.848  24.402  1.00  0.00     0.015 A 
ATOM     16  C   UNL A   1      31.201  27.054  25.290  1.00  0.00     0.028 A 
ATOM     17  C   UNL A   1      33.125  27.966  24.093  1.00  0.00     0.015 A 
BRANCH   8  18
ATOM     18  C   UNL A   1      32.927  22.643  26.933  1.00  0.00     0.121 C 
ATOM     19  C   UNL A   1      33.948  22.582  28.072  1.00  0.00     0.037 C 
BRANCH  18  20
ATOM     20  C   UNL A   1      33.132  21.554  25.884  1.00  0.00    -0.025 A 
ATOM     21  C   UNL A   1      32.093  21.123  25.043  1.00  0.00     0.006 A 
ATOM     22  C   UNL A   1      34.382  20.925  25.763  1.00  0.00     0.006 A 
ATOM     23  C   UNL A   1      32.280  20.071  24.144  1.00  0.00     0.000 A 
ATOM     24  C   UNL A   1      34.577  19.889  24.845  1.00  0.00     0.000 A 
ATOM     25  C   UNL A   1      33.523  19.453  24.046  1.00  0.00     0.000 A 
ENDBRANCH  18  20
ENDBRANCH   8  18
ENDBRANCH   4   7
ENDBRANCH   2   3
ENDBRANCH   1   2
BRANCH   1  26
ATOM     26  C   UNL A   1      32.725  32.897  27.021  1.00  0.00     0.118 C 
BRANCH  26  27
ATOM     27  N   UNL A   1      32.553  34.201  27.641  1.00  0.00    -0.352 N 
ATOM     28  C   UNL A   1      33.140  34.767  28.745  1.00  0.00     0.251 C 
ATOM     29  H   UNL A   1      31.899  34.781  27.188  1.00  0.00     0.163 HD
ATOM     30  O   UNL A   1      32.669  35.816  29.182  1.00  0.00    -0.269 OA
BRANCH  28  31
ATOM     31  C   UNL A   1      34.305  34.146  29.424  1.00  0.00     0.039 A 
ATOM     32  C   UNL A   1      34.064  33.230  30.455  1.00  0.00     0.014 A 
ATOM     33  C   UNL A   1      35.620  34.507  29.121  1.00  0.00     0.014 A 
ATOM     34  C   UNL A   1      35.135  32.648  31.144  1.00  0.00     0.010 A 
ATOM     35  C   UNL A   1      36.687  33.868  29.754  1.00  0.00     0.010 A 
ATOM     36  C   UNL A   1      36.458  32.943  30.784  1.00  0.00    -0.014 A 
BRANCH  36  37
ATOM     37  C   UNL A   1      37.606  32.321  31.500  1.00  0.00     0.031 A 
ATOM     38  C   UNL A   1      38.376  31.194  30.862  1.00  0.00     0.074 A 
ATOM     39  C   UNL A   1      37.928  32.739  32.740  1.00  0.00     0.049 A 
ATOM     40  N   UNL A   1      39.369  30.489  31.343  1.00  0.00    -0.248 NA
ATOM     41  C   UNL A   1      37.950  30.786  29.515  1.00  0.00     0.031 C 
ATOM     42  C   UNL A   1      37.232  33.790  33.485  1.00  0.00     0.029 A 
ATOM     43  N   UNL A   1      38.919  32.328  33.597  1.00  0.00    -0.354 N 
ATOM     44  C   UNL A   1      39.674  29.544  30.368  1.00  0.00     0.074 A 
ATOM     45  C   UNL A   1      38.719  29.730  29.296  1.00  0.00     0.031 C 
ATOM     46  C   UNL A   1      37.831  33.959  34.674  1.00  0.00     0.029 A 
ATOM     47  C   UNL A   1      38.931  33.007  34.794  1.00  0.00     0.049 A 
ATOM     48  H   UNL A   1      39.561  31.616  33.375  1.00  0.00     0.167 HD
ATOM     49  C   UNL A   1      40.671  28.622  30.355  1.00  0.00     0.034 A 
ATOM     50  C   UNL A   1      39.736  32.876  35.867  1.00  0.00     0.034 A 
ATOM     51  C   UNL A   1      41.628  28.460  31.424  1.00  0.00     0.049 A 
ATOM     52  C   UNL A   1      40.848  31.860  35.824  1.00  0.00     0.074 A 
ATOM     53  C   UNL A   1      42.702  27.589  31.500  1.00  0.00     0.029 A 
ATOM     54  N   UNL A   1      41.628  29.188  32.609  1.00  0.00    -0.354 N 
ATOM     55  N   UNL A   1      41.149  31.002  34.875  1.00  0.00    -0.248 NA
ATOM     56  C   UNL A   1      41.742  31.810  36.988  1.00  0.00     0.031 C 
ATOM     57  C   UNL A   1      43.316  27.752  32.747  1.00  0.00     0.029 A 
ATOM     58  C   UNL A   1      42.670  28.774  33.425  1.00  0.00     0.049 A 
ATOM     59  H   UNL A   1      40.981  29.894  32.835  1.00  0.00     0.167 HD
ATOM     60  C   UNL A   1      42.288  30.333  35.317  1.00  0.00     0.074 A 
ATOM     61  C   UNL A   1      42.627  30.902  36.607  1.00  0.00     0.031 C 
ATOM     62  C   UNL A   1      42.991  29.342  34.713  1.00  0.00     0.034 A 
BRANCH  49  63
ATOM     63  C   UNL A   1      40.752  27.707  29.154  1.00  0.00     0.023 A 
ATOM     64  C   UNL A   1      41.696  27.913  28.132  1.00  0.00     0.031 A 
ATOM     65  C   UNL A   1      39.850  26.639  29.008  1.00  0.00     0.131 A 
ATOM     66  C   UNL A   1      41.661  27.120  26.974  1.00  0.00     0.055 A 
ATOM     67  C   UNL A   1      39.876  25.799  27.891  1.00  0.00     0.041 A 
ATOM     68  F   UNL A   1      38.914  26.401  29.940  1.00  0.00    -0.206 F 
ATOM     69  C   UNL A   1      40.773  26.049  26.857  1.00  0.00     0.022 A 
BRANCH  66  70
ATOM     70  S   UNL A   1      42.685  27.609  25.559  1.00  0.00     0.124 S 
ATOM     71  O   UNL A   1      41.949  28.763  25.047  1.00  0.00    -0.237 OA
ATOM     72  O   UNL A   1      43.971  27.897  26.185  1.00  0.00    -0.237 OA
ATOM     73  O   UNL A   1      42.662  26.431  24.695  1.00  0.00    -0.744 OA
ENDBRANCH  66  70
ENDBRANCH  49  63
BRANCH  50  74
ATOM     74  C   UNL A   1      39.532  33.729  37.072  1.00  0.00     0.023 A 
ATOM     75  C   UNL A   1      38.863  33.235  38.203  1.00  0.00     0.031 A 
ATOM     76  C   UNL A   1      39.971  35.064  37.094  1.00  0.00     0.131 A 
ATOM     77  C   UNL A   1      38.608  34.084  39.291  1.00  0.00     0.055 A 
ATOM     78  C   UNL A   1      39.758  35.891  38.200  1.00  0.00     0.041 A 
ATOM     79  F   UNL A   1      40.624  35.582  36.042  1.00  0.00    -0.206 F 
ATOM     80  C   UNL A   1      39.062  35.404  39.302  1.00  0.00     0.022 A 
BRANCH  77  81
ATOM     81  S   UNL A   1      37.607  33.455  40.666  1.00  0.00     0.124 S 
ATOM     82  O   UNL A   1      36.501  32.818  39.962  1.00  0.00    -0.237 OA
ATOM     83  O   UNL A   1      38.543  32.560  41.337  1.00  0.00    -0.237 OA
ATOM     84  O   UNL A   1      37.259  34.662  41.413  1.00  0.00    -0.744 OA
ENDBRANCH  77  81
ENDBRANCH  50  74
BRANCH  62  85
ATOM     85  C   UNL A   1      44.226  28.852  35.429  1.00  0.00     0.023 A 
ATOM     86  C   UNL A   1      44.173  27.801  36.362  1.00  0.00     0.031 A 
ATOM     87  C   UNL A   1      45.467  29.473  35.201  1.00  0.00     0.131 A 
ATOM     88  C   UNL A   1      45.323  27.450  37.085  1.00  0.00     0.055 A 
ATOM     89  C   UNL A   1      46.621  29.077  35.879  1.00  0.00     0.041 A 
ATOM     90  F   UNL A   1      45.576  30.481  34.321  1.00  0.00    -0.206 F 
ATOM     91  C   UNL A   1      46.550  28.072  36.839  1.00  0.00     0.022 A 
BRANCH  88  92
ATOM     92  S   UNL A   1      45.169  26.250  38.436  1.00  0.00     0.124 S 
ATOM     93  O   UNL A   1      44.025  26.771  39.178  1.00  0.00    -0.237 OA
ATOM     94  O   UNL A   1      44.946  25.000  37.717  1.00  0.00    -0.237 OA
ATOM     95  O   UNL A   1      46.452  26.346  39.130  1.00  0.00    -0.744 OA
ENDBRANCH  88  92
ENDBRANCH  62  85
ENDBRANCH  36  37
ENDBRANCH  28  31
ENDBRANCH  26  27
ENDBRANCH   1  26
TORSDOF 15
ENDMDL
MODEL 2
REMARK VINA RESULT:     -12.7      1.889      2.505
REMARK SMILES C[C@H](c1ccccc1)N1C(=O)c2ccc(C(=O)NCCCNC(=O)c3ccc(-c4c5nc(c(-c6cc(S(=O)(=O)[O-])ccc6F)c6ccc([nH]6)c(-c6cc(S(=O)(=O)[O-])ccc6F)c6nc(c(-c7cc(S(=O)(=O)[O-])ccc7F)c7ccc4[nH]7)C=C6)C=C5)cc3)cc2C1=O
REMARK SMILES IDX 20 1 19 2 18 3 16 4 17 5 15 7 9 8 10 9 90 10 11 11 12 12
REMARK SMILES IDX 89 13 91 14 13 15 88 16 14 17 2 18 1 19 3 20 4 21 8 22 5 23
REMARK SMILES IDX 7 24 6 25 21 26 22 27 23 28 24 30 25 31 26 32 87 33 27 34
REMARK SMILES IDX 86 35 28 36 29 37 30 38 80 39 31 40 85 41 79 42 81 43 32 44
REMARK SMILES IDX 84 45 78 46 77 47 33 49 65 50 45 51 64 52 46 53 49 54 63 55
REMARK SMILES IDX 82 56 47 57 48 58 62 60 83 61 50 62 34 63 35 64 43 65 36 66
REMARK SMILES IDX 42 67 44 68 41 69 37 70 38 71 39 72 40 73 66 74 67 75 75 76
REMARK SMILES IDX 68 77 74 78 76 79 73 80 69 81 70 82 71 83 72 84 51 85 52 86
REMARK SMILES IDX 60 87 53 88 59 89 61 90 58 91 54 92 55 93 56 94 57 95
REMARK H PARENT 18 6 22 29 81 48 49 59
REMARK Flexibility Score: inf
ROOT
ATOM      1  C   UNL A   1      31.086  31.693  26.107  1.00  0.00     0.042 C 
ENDROOT
BRANCH   1   2
ATOM      2  C   UNL A   1      31.216  30.431  25.258  1.00  0.00     0.118 C 
BRANCH   2   3
ATOM      3  N   UNL A   1      30.442  30.477  24.028  1.00  0.00    -0.352 N 
ATOM      4  C   UNL A   1      30.078  29.530  23.109  1.00  0.00     0.251 C 
ATOM      5  O   UNL A   1      29.472  29.902  22.104  1.00  0.00    -0.269 OA
ATOM      6  H   UNL A   1      30.109  31.378  23.811  1.00  0.00     0.163 HD
BRANCH   4   7
ATOM      7  C   UNL A   1      30.401  28.087  23.239  1.00  0.00     0.040 A 
ATOM      8  N   UNL A   1      32.331  23.931  22.760  1.00  0.00    -0.267 N 
ATOM      9  C   UNL A   1      31.307  24.011  23.665  1.00  0.00     0.262 C 
ATOM     10  C   UNL A   1      32.528  25.135  22.133  1.00  0.00     0.262 C 
ATOM     11  O   UNL A   1      30.768  23.150  24.333  1.00  0.00    -0.269 OA
ATOM     12  C   UNL A   1      30.872  25.401  23.688  1.00  0.00     0.053 A 
ATOM     13  C   UNL A   1      31.595  26.088  22.734  1.00  0.00     0.054 A 
ATOM     14  O   UNL A   1      33.299  25.423  21.237  1.00  0.00    -0.269 OA
ATOM     15  C   UNL A   1      29.935  26.019  24.487  1.00  0.00     0.015 A 
ATOM     16  C   UNL A   1      31.400  27.440  22.497  1.00  0.00     0.028 A 
ATOM     17  C   UNL A   1      29.704  27.377  24.254  1.00  0.00     0.015 A 
BRANCH   8  18
ATOM     18  C   UNL A   1      33.114  22.730  22.460  1.00  0.00     0.121 C 
ATOM     19  C   UNL A   1      32.240  21.485  22.288  1.00  0.00     0.037 C 
BRANCH  18  20
ATOM     20  C   UNL A   1      34.251  22.531  23.459  1.00  0.00    -0.025 A 
ATOM     21  C   UNL A   1      35.482  23.196  23.332  1.00  0.00     0.006 A 
ATOM     22  C   UNL A   1      34.094  21.635  24.528  1.00  0.00     0.006 A 
ATOM     23  C   UNL A   1      36.534  22.941  24.212  1.00  0.00     0.000 A 
ATOM     24  C   UNL A   1      35.140  21.398  25.425  1.00  0.00     0.000 A 
ATOM     25  C   UNL A   1      36.364  22.040  25.259  1.00  0.00     0.000 A 
ENDBRANCH  18  20
ENDBRANCH   8  18
ENDBRANCH   4   7
ENDBRANCH   2   3
ENDBRANCH   1   2
BRANCH   1  26
ATOM     26  C   UNL A   1      32.341  32.104  26.872  1.00  0.00     0.118 C 
BRANCH  26  27
ATOM     27  N   UNL A   1      32.344  33.510  27.245  1.00  0.00    -0.352 N 
ATOM     28  C   UNL A   1      33.110  34.208  28.146  1.00  0.00     0.251 C 
ATOM     29  H   UNL A   1      31.679  34.057  26.769  1.00  0.00     0.163 HD
ATOM     30  O   UNL A   1      32.774  35.359  28.425  1.00  0.00    -0.269 OA
BRANCH  28  31
ATOM     31  C   UNL A   1      34.306  33.615  28.791  1.00  0.00     0.039 A 
ATOM     32  C   UNL A   1      34.145  32.447  29.546  1.00  0.00     0.014 A 
ATOM     33  C   UNL A   1      35.561  34.226  28.736  1.00  0.00     0.014 A 
ATOM     34  C   UNL A   1      35.242  31.873  30.200  1.00  0.00     0.010 A 
ATOM     35  C   UNL A   1      36.669  33.613  29.323  1.00  0.00     0.010 A 
ATOM     36  C   UNL A   1      36.520  32.437  30.075  1.00  0.00    -0.014 A 
BRANCH  36  37
ATOM     37  C   UNL A   1      37.698  31.831  30.755  1.00  0.00     0.031 A 
ATOM     38  C   UNL A   1      38.538  30.803  30.041  1.00  0.00     0.074 A 
ATOM     39  C   UNL A   1      37.985  32.170  32.027  1.00  0.00     0.049 A 
ATOM     40  N   UNL A   1      39.568  30.123  30.479  1.00  0.00    -0.248 NA
ATOM     41  C   UNL A   1      38.148  30.477  28.662  1.00  0.00     0.031 C 
ATOM     42  C   UNL A   1      37.222  33.117  32.842  1.00  0.00     0.029 A 
ATOM     43  N   UNL A   1      38.992  31.753  32.861  1.00  0.00    -0.354 N 
ATOM     44  C   UNL A   1      39.936  29.276  29.438  1.00  0.00     0.074 A 
ATOM     45  C   UNL A   1      38.979  29.488  28.372  1.00  0.00     0.031 C 
ATOM     46  C   UNL A   1      37.802  33.229  34.048  1.00  0.00     0.029 A 
ATOM     47  C   UNL A   1      38.955  32.337  34.107  1.00  0.00     0.049 A 
ATOM     48  H   UNL A   1      39.677  31.099  32.593  1.00  0.00     0.167 HD
ATOM     49  C   UNL A   1      40.987  28.419  29.366  1.00  0.00     0.034 A 
ATOM     50  C   UNL A   1      39.758  32.171  35.177  1.00  0.00     0.034 A 
ATOM     51  C   UNL A   1      41.943  28.232  30.431  1.00  0.00     0.049 A 
ATOM     52  C   UNL A   1      40.930  31.229  35.069  1.00  0.00     0.074 A 
ATOM     53  C   UNL A   1      43.067  27.422  30.452  1.00  0.00     0.029 A 
ATOM     54  N   UNL A   1      41.892  28.864  31.667  1.00  0.00    -0.354 N 
ATOM     55  N   UNL A   1      41.288  30.467  34.061  1.00  0.00    -0.248 NA
ATOM     56  C   UNL A   1      41.817  31.143  36.236  1.00  0.00     0.031 C 
ATOM     57  C   UNL A   1      43.661  27.524  31.716  1.00  0.00     0.029 A 
ATOM     58  C   UNL A   1      42.950  28.451  32.462  1.00  0.00     0.049 A 
ATOM     59  H   UNL A   1      41.202  29.512  31.940  1.00  0.00     0.167 HD
ATOM     60  C   UNL A   1      42.462  29.834  34.464  1.00  0.00     0.074 A 
ATOM     61  C   UNL A   1      42.757  30.320  35.797  1.00  0.00     0.031 C 
ATOM     62  C   UNL A   1      43.227  28.935  33.793  1.00  0.00     0.034 A 
BRANCH  49  63
ATOM     63  C   UNL A   1      41.131  27.606  28.100  1.00  0.00     0.023 A 
ATOM     64  C   UNL A   1      40.790  26.241  28.055  1.00  0.00     0.031 A 
ATOM     65  C   UNL A   1      41.653  28.189  26.932  1.00  0.00     0.131 A 
ATOM     66  C   UNL A   1      41.054  25.489  26.900  1.00  0.00     0.055 A 
ATOM     67  C   UNL A   1      41.833  27.454  25.757  1.00  0.00     0.041 A 
ATOM     68  F   UNL A   1      42.015  29.482  26.915  1.00  0.00    -0.206 F 
ATOM     69  C   UNL A   1      41.551  26.091  25.742  1.00  0.00     0.022 A 
BRANCH  66  70
ATOM     70  S   UNL A   1      40.886  23.685  26.985  1.00  0.00     0.124 S 
ATOM     71  O   UNL A   1      41.332  23.412  28.349  1.00  0.00    -0.237 OA
ATOM     72  O   UNL A   1      39.464  23.488  26.726  1.00  0.00    -0.237 OA
ATOM     73  O   UNL A   1      41.784  23.207  25.936  1.00  0.00    -0.744 OA
ENDBRANCH  66  70
ENDBRANCH  49  63
BRANCH  50  74
ATOM     74  C   UNL A   1      39.495  32.916  36.441  1.00  0.00     0.023 A 
ATOM     75  C   UNL A   1      38.654  32.384  37.431  1.00  0.00     0.031 A 
ATOM     76  C   UNL A   1      40.052  34.187  36.660  1.00  0.00     0.131 A 
ATOM     77  C   UNL A   1      38.353  33.141  38.574  1.00  0.00     0.055 A 
ATOM     78  C   UNL A   1      39.789  34.916  37.822  1.00  0.00     0.041 A 
ATOM     79  F   UNL A   1      40.872  34.736  35.749  1.00  0.00    -0.206 F 
ATOM     80  C   UNL A   1      38.925  34.398  38.781  1.00  0.00     0.022 A 
BRANCH  77  81
ATOM     81  S   UNL A   1      37.142  32.487  39.754  1.00  0.00     0.124 S 
ATOM     82  O   UNL A   1      37.790  31.257  40.195  1.00  0.00    -0.237 OA
ATOM     83  O   UNL A   1      37.067  33.562  40.738  1.00  0.00    -0.237 OA
ATOM     84  O   UNL A   1      35.941  32.303  38.942  1.00  0.00    -0.744 OA
ENDBRANCH  77  81
ENDBRANCH  50  74
BRANCH  62  85
ATOM     85  C   UNL A   1      44.484  28.465  34.485  1.00  0.00     0.023 A 
ATOM     86  C   UNL A   1      44.487  27.344  35.334  1.00  0.00     0.031 A 
ATOM     87  C   UNL A   1      45.688  29.174  34.320  1.00  0.00     0.131 A 
ATOM     88  C   UNL A   1      45.651  27.006  36.042  1.00  0.00     0.055 A 
ATOM     89  C   UNL A   1      46.858  28.795  34.979  1.00  0.00     0.041 A 
ATOM     90  F   UNL A   1      45.742  30.252  33.522  1.00  0.00    -0.206 F 
ATOM     91  C   UNL A   1      46.840  27.717  35.858  1.00  0.00     0.022 A 
BRANCH  88  92
ATOM     92  S   UNL A   1      45.559  25.699  37.294  1.00  0.00     0.124 S 
ATOM     93  O   UNL A   1      46.966  25.491  37.623  1.00  0.00    -0.237 OA
ATOM     94  O   UNL A   1      44.748  26.322  38.335  1.00  0.00    -0.237 OA
ATOM     95  O   UNL A   1      44.918  24.591  36.589  1.00  0.00    -0.744 OA
ENDBRANCH  88  92
ENDBRANCH  62  85
ENDBRANCH  36  37
ENDBRANCH  28  31
ENDBRANCH  26  27
ENDBRANCH   1  26
TORSDOF 15
ENDMDL
MODEL 3
REMARK VINA RESULT:     -12.7      1.290      1.930
REMARK SMILES C[C@H](c1ccccc1)N1C(=O)c2ccc(C(=O)NCCCNC(=O)c3ccc(-c4c5nc(c(-c6cc(S(=O)(=O)[O-])ccc6F)c6ccc([nH]6)c(-c6cc(S(=O)(=O)[O-])ccc6F)c6nc(c(-c7cc(S(=O)(=O)[O-])ccc7F)c7ccc4[nH]7)C=C6)C=C5)cc3)cc2C1=O
REMARK SMILES IDX 20 1 19 2 18 3 16 4 17 5 15 7 9 8 10 9 90 10 11 11 12 12
REMARK SMILES IDX 89 13 91 14 13 15 88 16 14 17 2 18 1 19 3 20 4 21 8 22 5 23
REMARK SMILES IDX 7 24 6 25 21 26 22 27 23 28 24 30 25 31 26 32 87 33 27 34
REMARK SMILES IDX 86 35 28 36 29 37 30 38 80 39 31 40 85 41 79 42 81 43 32 44
REMARK SMILES IDX 84 45 78 46 77 47 33 49 65 50 45 51 64 52 46 53 49 54 63 55
REMARK SMILES IDX 82 56 47 57 48 58 62 60 83 61 50 62 34 63 35 64 43 65 36 66
REMARK SMILES IDX 42 67 44 68 41 69 37 70 38 71 39 72 40 73 66 74 67 75 75 76
REMARK SMILES IDX 68 77 74 78 76 79 73 80 69 81 70 82 71 83 72 84 51 85 52 86
REMARK SMILES IDX 60 87 53 88 59 89 61 90 58 91 54 92 55 93 56 94 57 95
REMARK H PARENT 18 6 22 29 81 48 49 59
REMARK Flexibility Score: inf
ROOT
ATOM      1  C   UNL A   1      31.372  31.706  26.505  1.00  0.00     0.042 C 
ENDROOT
BRANCH   1   2
ATOM      2  C   UNL A   1      31.461  30.448  25.645  1.00  0.00     0.118 C 
BRANCH   2   3
ATOM      3  N   UNL A   1      30.687  30.529  24.417  1.00  0.00    -0.352 N 
ATOM      4  C   UNL A   1      30.320  29.608  23.474  1.00  0.00     0.251 C 
ATOM      5  O   UNL A   1      29.716  30.009  22.478  1.00  0.00    -0.269 OA
ATOM      6  H   UNL A   1      30.358  31.437  24.223  1.00  0.00     0.163 HD
BRANCH   4   7
ATOM      7  C   UNL A   1      30.638  28.161  23.566  1.00  0.00     0.040 A 
ATOM      8  N   UNL A   1      32.481  23.991  22.901  1.00  0.00    -0.267 N 
ATOM      9  C   UNL A   1      31.534  24.073  23.885  1.00  0.00     0.262 C 
ATOM     10  C   UNL A   1      32.640  25.199  22.269  1.00  0.00     0.262 C 
ATOM     11  O   UNL A   1      31.042  23.211  24.588  1.00  0.00    -0.269 OA
ATOM     12  C   UNL A   1      31.116  25.467  23.955  1.00  0.00     0.053 A 
ATOM     13  C   UNL A   1      31.768  26.156  22.951  1.00  0.00     0.054 A 
ATOM     14  O   UNL A   1      33.339  25.487  21.317  1.00  0.00    -0.269 OA
ATOM     15  C   UNL A   1      30.253  26.087  24.830  1.00  0.00     0.015 A 
ATOM     16  C   UNL A   1      31.567  27.511  22.741  1.00  0.00     0.028 A 
ATOM     17  C   UNL A   1      30.017  27.448  24.628  1.00  0.00     0.015 A 
BRANCH   8  18
ATOM     18  C   UNL A   1      33.226  22.785  22.530  1.00  0.00     0.121 C 
ATOM     19  C   UNL A   1      32.314  21.576  22.310  1.00  0.00     0.037 C 
BRANCH  18  20
ATOM     20  C   UNL A   1      34.370  22.505  23.501  1.00  0.00    -0.025 A 
ATOM     21  C   UNL A   1      34.241  21.597  24.564  1.00  0.00     0.006 A 
ATOM     22  C   UNL A   1      35.587  23.191  23.364  1.00  0.00     0.006 A 
ATOM     23  C   UNL A   1      35.272  21.413  25.486  1.00  0.00     0.000 A 
ATOM     24  C   UNL A   1      36.630  22.988  24.273  1.00  0.00     0.000 A 
ATOM     25  C   UNL A   1      36.467  22.110  25.342  1.00  0.00     0.000 A 
ENDBRANCH  18  20
ENDBRANCH   8  18
ENDBRANCH   4   7
ENDBRANCH   2   3
ENDBRANCH   1   2
BRANCH   1  26
ATOM     26  C   UNL A   1      32.706  32.267  26.992  1.00  0.00     0.118 C 
BRANCH  26  27
ATOM     27  N   UNL A   1      32.609  33.642  27.457  1.00  0.00    -0.352 N 
ATOM     28  C   UNL A   1      33.270  34.310  28.457  1.00  0.00     0.251 C 
ATOM     29  H   UNL A   1      31.953  34.189  26.967  1.00  0.00     0.163 HD
ATOM     30  O   UNL A   1      32.856  35.422  28.785  1.00  0.00    -0.269 OA
BRANCH  28  31
ATOM     31  C   UNL A   1      34.445  33.729  29.152  1.00  0.00     0.039 A 
ATOM     32  C   UNL A   1      34.227  32.726  30.103  1.00  0.00     0.014 A 
ATOM     33  C   UNL A   1      35.741  34.206  28.945  1.00  0.00     0.014 A 
ATOM     34  C   UNL A   1      35.305  32.175  30.806  1.00  0.00     0.010 A 
ATOM     35  C   UNL A   1      36.823  33.603  29.588  1.00  0.00     0.010 A 
ATOM     36  C   UNL A   1      36.617  32.592  30.538  1.00  0.00    -0.014 A 
BRANCH  36  37
ATOM     37  C   UNL A   1      37.774  32.005  31.269  1.00  0.00     0.031 A 
ATOM     38  C   UNL A   1      38.594  30.911  30.637  1.00  0.00     0.074 A 
ATOM     39  C   UNL A   1      38.060  32.425  32.518  1.00  0.00     0.049 A 
ATOM     40  N   UNL A   1      39.603  30.238  31.130  1.00  0.00    -0.248 NA
ATOM     41  C   UNL A   1      38.206  30.499  29.280  1.00  0.00     0.031 C 
ATOM     42  C   UNL A   1      37.314  33.445  33.258  1.00  0.00     0.029 A 
ATOM     43  N   UNL A   1      39.050  32.043  33.389  1.00  0.00    -0.354 N 
ATOM     44  C   UNL A   1      39.958  29.312  30.154  1.00  0.00     0.074 A 
ATOM     45  C   UNL A   1      39.015  29.472  29.067  1.00  0.00     0.031 C 
ATOM     46  C   UNL A   1      37.887  33.626  34.459  1.00  0.00     0.029 A 
ATOM     47  C   UNL A   1      39.018  32.712  34.590  1.00  0.00     0.049 A 
ATOM     48  H   UNL A   1      39.721  31.355  33.173  1.00  0.00     0.167 HD
ATOM     49  C   UNL A   1      40.988  28.426  30.152  1.00  0.00     0.034 A 
ATOM     50  C   UNL A   1      39.808  32.602  35.677  1.00  0.00     0.034 A 
ATOM     51  C   UNL A   1      41.931  28.290  31.235  1.00  0.00     0.049 A 
ATOM     52  C   UNL A   1      40.957  31.626  35.645  1.00  0.00     0.074 A 
ATOM     53  C   UNL A   1      43.034  27.457  31.324  1.00  0.00     0.029 A 
ATOM     54  N   UNL A   1      41.885  29.008  32.425  1.00  0.00    -0.354 N 
ATOM     55  N   UNL A   1      41.304  30.787  34.696  1.00  0.00    -0.248 NA
ATOM     56  C   UNL A   1      41.832  31.600  36.824  1.00  0.00     0.031 C 
ATOM     57  C   UNL A   1      43.620  27.632  32.583  1.00  0.00     0.029 A 
ATOM     58  C   UNL A   1      42.927  28.625  33.256  1.00  0.00     0.049 A 
ATOM     59  H   UNL A   1      41.210  29.690  32.645  1.00  0.00     0.167 HD
ATOM     60  C   UNL A   1      42.458  30.156  35.153  1.00  0.00     0.074 A 
ATOM     61  C   UNL A   1      42.755  30.726  36.452  1.00  0.00     0.031 C 
ATOM     62  C   UNL A   1      43.206  29.194  34.553  1.00  0.00     0.034 A 
BRANCH  49  63
ATOM     63  C   UNL A   1      41.121  27.524  28.946  1.00  0.00     0.023 A 
ATOM     64  C   UNL A   1      42.111  27.738  27.969  1.00  0.00     0.031 A 
ATOM     65  C   UNL A   1      40.225  26.459  28.748  1.00  0.00     0.131 A 
ATOM     66  C   UNL A   1      42.126  26.958  26.802  1.00  0.00     0.055 A 
ATOM     67  C   UNL A   1      40.300  25.631  27.625  1.00  0.00     0.041 A 
ATOM     68  F   UNL A   1      39.247  26.213  29.634  1.00  0.00    -0.206 F 
ATOM     69  C   UNL A   1      41.243  25.890  26.634  1.00  0.00     0.022 A 
BRANCH  66  70
ATOM     70  S   UNL A   1      43.214  27.460  25.440  1.00  0.00     0.124 S 
ATOM     71  O   UNL A   1      43.690  26.167  24.953  1.00  0.00    -0.237 OA
ATOM     72  O   UNL A   1      42.304  28.180  24.558  1.00  0.00    -0.237 OA
ATOM     73  O   UNL A   1      44.228  28.282  26.096  1.00  0.00    -0.744 OA
ENDBRANCH  66  70
ENDBRANCH  49  63
BRANCH  50  74
ATOM     74  C   UNL A   1      39.554  33.439  36.883  1.00  0.00     0.023 A 
ATOM     75  C   UNL A   1      38.879  32.915  37.997  1.00  0.00     0.031 A 
ATOM     76  C   UNL A   1      39.950  34.786  36.925  1.00  0.00     0.131 A 
ATOM     77  C   UNL A   1      38.576  33.746  39.087  1.00  0.00     0.055 A 
ATOM     78  C   UNL A   1      39.690  35.597  38.032  1.00  0.00     0.041 A 
ATOM     79  F   UNL A   1      40.608  35.334  35.890  1.00  0.00    -0.206 F 
ATOM     80  C   UNL A   1      38.987  35.079  39.116  1.00  0.00     0.022 A 
BRANCH  77  81
ATOM     81  S   UNL A   1      37.568  33.075  40.436  1.00  0.00     0.124 S 
ATOM     82  O   UNL A   1      37.547  34.189  41.375  1.00  0.00    -0.237 OA
ATOM     83  O   UNL A   1      36.310  32.783  39.758  1.00  0.00    -0.237 OA
ATOM     84  O   UNL A   1      38.324  31.903  40.874  1.00  0.00    -0.744 OA
ENDBRANCH  77  81
ENDBRANCH  50  74
BRANCH  62  85
ATOM     85  C   UNL A   1      44.446  28.743  35.287  1.00  0.00     0.023 A 
ATOM     86  C   UNL A   1      44.382  27.832  36.357  1.00  0.00     0.031 A 
ATOM     87  C   UNL A   1      45.704  29.262  34.934  1.00  0.00     0.131 A 
ATOM     88  C   UNL A   1      45.543  27.524  37.082  1.00  0.00     0.055 A 
ATOM     89  C   UNL A   1      46.865  28.903  35.619  1.00  0.00     0.041 A 
ATOM     90  F   UNL A   1      45.823  30.135  33.920  1.00  0.00    -0.206 F 
ATOM     91  C   UNL A   1      46.787  28.043  36.710  1.00  0.00     0.022 A 
BRANCH  88  92
ATOM     92  S   UNL A   1      45.390  26.528  38.589  1.00  0.00     0.124 S 
ATOM     93  O   UNL A   1      46.094  27.348  39.570  1.00  0.00    -0.237 OA
ATOM     94  O   UNL A   1      43.942  26.439  38.756  1.00  0.00    -0.237 OA
ATOM     95  O   UNL A   1      46.051  25.272  38.242  1.00  0.00    -0.744 OA
ENDBRANCH  88  92
ENDBRANCH  62  85
ENDBRANCH  36  37
ENDBRANCH  28  31
ENDBRANCH  26  27
ENDBRANCH   1  26
TORSDOF 15
ENDMDL
