MODEL 1
REMARK VINA RESULT:     -13.4      0.000      0.000
REMARK SMILES CC1=C[C@@H](C)[C@H]2C(=O)N([C@H](Cc3ccccc3)C(=O)NCCCNC(=O)c3ccc(-c4c5nc(c(-c6cc(S(=O)(=O)[O-])ccc6F)c6ccc([nH]6)c(-c6cc(S(=O)(=O)[O-])ccc6F)c6nc(c(-c7cc(S(=O)(=O)[O-])ccc7F)c7ccc4[nH]7)C=C6)C=C5)cc3)C(=O)[C@H]2C1
REMARK SMILES IDX 22 1 21 2 20 3 18 4 19 5 10 7 9 8 1 9 2 10 3 11 93 12 4 13
REMARK SMILES IDX 92 14 6 15 5 16 90 17 7 18 91 19 8 20 11 21 12 22 13 23
REMARK SMILES IDX 17 24 14 25 16 26 15 27 23 28 24 29 25 30 26 32 27 33 28 34
REMARK SMILES IDX 89 35 29 36 88 37 30 38 31 39 32 40 82 41 33 42 87 43 81 44
REMARK SMILES IDX 83 45 34 46 86 47 80 48 79 49 35 51 67 52 47 53 66 54 48 55
REMARK SMILES IDX 51 56 65 57 84 58 49 59 50 60 64 62 85 63 52 64 36 65 37 66
REMARK SMILES IDX 45 67 38 68 44 69 46 70 43 71 39 72 40 73 41 74 42 75 68 76
REMARK SMILES IDX 69 77 77 78 70 79 76 80 78 81 75 82 71 83 72 84 73 85 74 86
REMARK SMILES IDX 53 87 54 88 62 89 55 90 61 91 63 92 60 93 56 94 57 95 58 96
REMARK SMILES IDX 59 97
REMARK H PARENT 20 6 24 31 83 50 51 61
REMARK Flexibility Score: inf
ROOT
ATOM      1  C   UNL A   1      31.436  31.189  26.267  1.00  0.00     0.042 C 
ENDROOT
BRANCH   1   2
ATOM      2  C   UNL A   1      31.525  29.970  25.381  1.00  0.00     0.117 C 
BRANCH   2   3
ATOM      3  N   UNL A   1      32.720  29.787  24.602  1.00  0.00    -0.354 N 
ATOM      4  C   UNL A   1      32.995  28.793  23.703  1.00  0.00     0.243 C 
ATOM      5  O   UNL A   1      34.031  28.917  23.035  1.00  0.00    -0.273 OA
ATOM      6  H   UNL A   1      33.427  30.459  24.733  1.00  0.00     0.163 HD
BRANCH   4   7
ATOM      7  C   UNL A   1      32.215  27.448  23.656  1.00  0.00     0.186 C 
BRANCH   7   8
ATOM      8  N   UNL A   1      32.975  26.175  23.847  1.00  0.00    -0.269 N 
ATOM      9  C   UNL A   1      34.404  21.357  26.635  1.00  0.00     0.039 C 
ATOM     10  C   UNL A   1      34.422  22.365  25.520  1.00  0.00    -0.076 C 
ATOM     11  C   UNL A   1      34.056  22.012  24.283  1.00  0.00    -0.024 C 
ATOM     12  C   UNL A   1      34.802  23.767  25.893  1.00  0.00     0.044 C 
ATOM     13  C   UNL A   1      33.786  22.979  23.172  1.00  0.00     0.022 C 
ATOM     14  C   UNL A   1      34.657  24.822  24.802  1.00  0.00     0.096 C 
ATOM     15  C   UNL A   1      34.435  24.366  23.372  1.00  0.00     0.098 C 
ATOM     16  C   UNL A   1      32.271  22.937  23.012  1.00  0.00     0.013 C 
ATOM     17  C   UNL A   1      33.552  25.826  25.043  1.00  0.00     0.234 C 
ATOM     18  C   UNL A   1      33.673  25.560  22.825  1.00  0.00     0.234 C 
ATOM     19  O   UNL A   1      33.386  26.367  26.128  1.00  0.00    -0.274 OA
ATOM     20  O   UNL A   1      33.720  25.904  21.662  1.00  0.00    -0.274 OA
ENDBRANCH   7   8
BRANCH   7  21
ATOM     21  C   UNL A   1      31.178  27.500  22.463  1.00  0.00     0.071 C 
BRANCH  21  22
ATOM     22  C   UNL A   1      29.961  28.411  22.499  1.00  0.00    -0.045 A 
ATOM     23  C   UNL A   1      28.779  28.006  23.141  1.00  0.00     0.004 A 
ATOM     24  C   UNL A   1      30.003  29.709  21.958  1.00  0.00     0.004 A 
ATOM     25  C   UNL A   1      27.654  28.844  23.166  1.00  0.00     0.000 A 
ATOM     26  C   UNL A   1      28.869  30.528  21.950  1.00  0.00     0.000 A 
ATOM     27  C   UNL A   1      27.691  30.093  22.547  1.00  0.00     0.000 A 
ENDBRANCH  21  22
ENDBRANCH   7  21
ENDBRANCH   4   7
ENDBRANCH   2   3
ENDBRANCH   1   2
BRANCH   1  28
ATOM     28  C   UNL A   1      32.671  31.439  27.094  1.00  0.00     0.118 C 
BRANCH  28  29
ATOM     29  N   UNL A   1      32.901  32.866  27.260  1.00  0.00    -0.352 N 
ATOM     30  C   UNL A   1      33.835  33.515  28.033  1.00  0.00     0.251 C 
ATOM     31  H   UNL A   1      32.301  33.452  26.744  1.00  0.00     0.163 HD
ATOM     32  O   UNL A   1      33.666  34.705  28.292  1.00  0.00    -0.269 OA
BRANCH  30  33
ATOM     33  C   UNL A   1      35.023  32.796  28.561  1.00  0.00     0.039 A 
ATOM     34  C   UNL A   1      34.837  31.619  29.292  1.00  0.00     0.014 A 
ATOM     35  C   UNL A   1      36.315  33.300  28.393  1.00  0.00     0.014 A 
ATOM     36  C   UNL A   1      35.943  30.945  29.824  1.00  0.00     0.010 A 
ATOM     37  C   UNL A   1      37.419  32.566  28.815  1.00  0.00     0.010 A 
ATOM     38  C   UNL A   1      37.246  31.403  29.576  1.00  0.00    -0.014 A 
BRANCH  38  39
ATOM     39  C   UNL A   1      38.432  30.740  30.181  1.00  0.00     0.031 A 
ATOM     40  C   UNL A   1      38.863  31.109  31.580  1.00  0.00     0.074 A 
ATOM     41  C   UNL A   1      39.136  29.834  29.475  1.00  0.00     0.049 A 
ATOM     42  N   UNL A   1      39.886  30.683  32.275  1.00  0.00    -0.248 NA
ATOM     43  C   UNL A   1      38.054  32.122  32.276  1.00  0.00     0.031 C 
ATOM     44  C   UNL A   1      38.847  29.423  28.099  1.00  0.00     0.029 A 
ATOM     45  N   UNL A   1      40.240  29.092  29.816  1.00  0.00    -0.354 N 
ATOM     46  C   UNL A   1      39.851  31.385  33.476  1.00  0.00     0.074 A 
ATOM     47  C   UNL A   1      38.755  32.323  33.380  1.00  0.00     0.031 C 
ATOM     48  C   UNL A   1      39.725  28.476  27.729  1.00  0.00     0.029 A 
ATOM     49  C   UNL A   1      40.666  28.243  28.820  1.00  0.00     0.049 A 
ATOM     50  H   UNL A   1      40.684  29.161  30.691  1.00  0.00     0.167 HD
ATOM     51  C   UNL A   1      40.636  31.240  34.573  1.00  0.00     0.034 A 
ATOM     52  C   UNL A   1      41.698  27.377  28.791  1.00  0.00     0.034 A 
ATOM     53  C   UNL A   1      41.711  30.283  34.663  1.00  0.00     0.049 A 
ATOM     54  C   UNL A   1      42.565  27.238  30.019  1.00  0.00     0.074 A 
ATOM     55  C   UNL A   1      42.540  30.015  35.738  1.00  0.00     0.029 A 
ATOM     56  N   UNL A   1      42.110  29.438  33.635  1.00  0.00    -0.354 N 
ATOM     57  N   UNL A   1      42.485  27.875  31.166  1.00  0.00    -0.248 NA
ATOM     58  C   UNL A   1      43.648  26.250  29.954  1.00  0.00     0.031 C 
ATOM     59  C   UNL A   1      43.480  29.060  35.340  1.00  0.00     0.029 A 
ATOM     60  C   UNL A   1      43.188  28.668  34.043  1.00  0.00     0.049 A 
ATOM     61  H   UNL A   1      41.688  29.392  32.747  1.00  0.00     0.167 HD
ATOM     62  C   UNL A   1      43.488  27.336  31.969  1.00  0.00     0.074 A 
ATOM     63  C   UNL A   1      44.142  26.311  31.180  1.00  0.00     0.031 C 
ATOM     64  C   UNL A   1      43.837  27.654  33.242  1.00  0.00     0.034 A 
BRANCH  51  65
ATOM     65  C   UNL A   1      40.365  32.153  35.747  1.00  0.00     0.023 A 
ATOM     66  C   UNL A   1      39.347  31.880  36.679  1.00  0.00     0.031 A 
ATOM     67  C   UNL A   1      41.109  33.335  35.919  1.00  0.00     0.131 A 
ATOM     68  C   UNL A   1      39.045  32.811  37.684  1.00  0.00     0.055 A 
ATOM     69  C   UNL A   1      40.863  34.214  36.976  1.00  0.00     0.041 A 
ATOM     70  F   UNL A   1      42.079  33.664  35.052  1.00  0.00    -0.206 F 
ATOM     71  C   UNL A   1      39.813  33.964  37.857  1.00  0.00     0.022 A 
BRANCH  68  72
ATOM     72  S   UNL A   1      37.535  32.572  38.659  1.00  0.00     0.124 S 
ATOM     73  O   UNL A   1      36.510  33.060  37.740  1.00  0.00    -0.237 OA
ATOM     74  O   UNL A   1      37.542  31.135  38.906  1.00  0.00    -0.237 OA
ATOM     75  O   UNL A   1      37.752  33.409  39.838  1.00  0.00    -0.744 OA
ENDBRANCH  68  72
ENDBRANCH  51  65
BRANCH  52  76
ATOM     76  C   UNL A   1      41.976  26.569  27.569  1.00  0.00     0.023 A 
ATOM     77  C   UNL A   1      41.629  25.209  27.504  1.00  0.00     0.031 A 
ATOM     78  C   UNL A   1      42.636  27.133  26.463  1.00  0.00     0.131 A 
ATOM     79  C   UNL A   1      41.993  24.447  26.383  1.00  0.00     0.055 A 
ATOM     80  C   UNL A   1      42.946  26.383  25.326  1.00  0.00     0.041 A 
ATOM     81  F   UNL A   1      42.985  28.429  26.469  1.00  0.00    -0.206 F 
ATOM     82  C   UNL A   1      42.637  25.027  25.288  1.00  0.00     0.022 A 
BRANCH  79  83
ATOM     83  S   UNL A   1      41.694  22.657  26.415  1.00  0.00     0.124 S 
ATOM     84  O   UNL A   1      40.237  22.598  26.397  1.00  0.00    -0.237 OA
ATOM     85  O   UNL A   1      42.370  22.216  25.199  1.00  0.00    -0.237 OA
ATOM     86  O   UNL A   1      42.322  22.230  27.664  1.00  0.00    -0.744 OA
ENDBRANCH  79  83
ENDBRANCH  52  76
BRANCH  64  87
ATOM     87  C   UNL A   1      44.945  26.846  33.873  1.00  0.00     0.023 A 
ATOM     88  C   UNL A   1      44.697  25.615  34.506  1.00  0.00     0.031 A 
ATOM     89  C   UNL A   1      46.266  27.329  33.865  1.00  0.00     0.131 A 
ATOM     90  C   UNL A   1      45.739  24.945  35.165  1.00  0.00     0.055 A 
ATOM     91  C   UNL A   1      47.312  26.622  34.461  1.00  0.00     0.041 A 
ATOM     92  F   UNL A   1      46.562  28.499  33.278  1.00  0.00    -0.206 F 
ATOM     93  C   UNL A   1      47.048  25.432  35.130  1.00  0.00     0.022 A 
BRANCH  90  94
ATOM     94  S   UNL A   1      45.338  23.490  36.170  1.00  0.00     0.124 S 
ATOM     95  O   UNL A   1      45.229  24.064  37.507  1.00  0.00    -0.237 OA
ATOM     96  O   UNL A   1      44.089  23.031  35.570  1.00  0.00    -0.237 OA
ATOM     97  O   UNL A   1      46.484  22.605  35.967  1.00  0.00    -0.744 OA
ENDBRANCH  90  94
ENDBRANCH  64  87
ENDBRANCH  38  39
ENDBRANCH  30  33
ENDBRANCH  28  29
ENDBRANCH   1  28
TORSDOF 16
ENDMDL
MODEL 2
REMARK VINA RESULT:     -13.3      1.841      7.711
REMARK SMILES CC1=C[C@@H](C)[C@H]2C(=O)N([C@H](Cc3ccccc3)C(=O)NCCCNC(=O)c3ccc(-c4c5nc(c(-c6cc(S(=O)(=O)[O-])ccc6F)c6ccc([nH]6)c(-c6cc(S(=O)(=O)[O-])ccc6F)c6nc(c(-c7cc(S(=O)(=O)[O-])ccc7F)c7ccc4[nH]7)C=C6)C=C5)cc3)C(=O)[C@H]2C1
REMARK SMILES IDX 22 1 21 2 20 3 18 4 19 5 10 7 9 8 1 9 2 10 3 11 93 12 4 13
REMARK SMILES IDX 92 14 6 15 5 16 90 17 7 18 91 19 8 20 11 21 12 22 13 23
REMARK SMILES IDX 17 24 14 25 16 26 15 27 23 28 24 29 25 30 26 32 27 33 28 34
REMARK SMILES IDX 89 35 29 36 88 37 30 38 31 39 32 40 82 41 33 42 87 43 81 44
REMARK SMILES IDX 83 45 34 46 86 47 80 48 79 49 35 51 67 52 47 53 66 54 48 55
REMARK SMILES IDX 51 56 65 57 84 58 49 59 50 60 64 62 85 63 52 64 36 65 37 66
REMARK SMILES IDX 45 67 38 68 44 69 46 70 43 71 39 72 40 73 41 74 42 75 68 76
REMARK SMILES IDX 69 77 77 78 70 79 76 80 78 81 75 82 71 83 72 84 73 85 74 86
REMARK SMILES IDX 53 87 54 88 62 89 55 90 61 91 63 92 60 93 56 94 57 95 58 96
REMARK SMILES IDX 59 97
REMARK H PARENT 20 6 24 31 83 50 51 61
REMARK Flexibility Score: inf
ROOT
ATOM      1  C   UNL A   1      31.566  31.369  26.268  1.00  0.00     0.042 C 
ENDROOT
BRANCH   1   2
ATOM      2  C   UNL A   1      31.801  30.003  25.670  1.00  0.00     0.117 C 
BRANCH   2   3
ATOM      3  N   UNL A   1      32.846  29.865  24.692  1.00  0.00    -0.354 N 
ATOM      4  C   UNL A   1      32.953  28.930  23.699  1.00  0.00     0.243 C 
ATOM      5  O   UNL A   1      33.863  29.092  22.876  1.00  0.00    -0.273 OA
ATOM      6  H   UNL A   1      33.575  30.525  24.744  1.00  0.00     0.163 HD
BRANCH   4   7
ATOM      7  C   UNL A   1      32.156  27.593  23.701  1.00  0.00     0.186 C 
BRANCH   7   8
ATOM      8  N   UNL A   1      32.905  26.316  23.906  1.00  0.00    -0.269 N 
ATOM      9  C   UNL A   1      34.224  21.468  26.697  1.00  0.00     0.039 C 
ATOM     10  C   UNL A   1      34.283  22.486  25.593  1.00  0.00    -0.076 C 
ATOM     11  C   UNL A   1      33.958  22.145  24.341  1.00  0.00    -0.024 C 
ATOM     12  C   UNL A   1      34.654  23.883  25.991  1.00  0.00     0.044 C 
ATOM     13  C   UNL A   1      33.730  23.124  23.230  1.00  0.00     0.022 C 
ATOM     14  C   UNL A   1      34.549  24.949  24.906  1.00  0.00     0.096 C 
ATOM     15  C   UNL A   1      34.376  24.507  23.465  1.00  0.00     0.098 C 
ATOM     16  C   UNL A   1      32.221  23.089  23.018  1.00  0.00     0.013 C 
ATOM     17  C   UNL A   1      33.440  25.955  25.119  1.00  0.00     0.234 C 
ATOM     18  C   UNL A   1      33.636  25.708  22.903  1.00  0.00     0.234 C 
ATOM     19  O   UNL A   1      33.238  26.485  26.202  1.00  0.00    -0.274 OA
ATOM     20  O   UNL A   1      33.725  26.063  21.746  1.00  0.00    -0.274 OA
ENDBRANCH   7   8
BRANCH   7  21
ATOM     21  C   UNL A   1      31.095  27.630  22.530  1.00  0.00     0.071 C 
BRANCH  21  22
ATOM     22  C   UNL A   1      29.902  28.572  22.559  1.00  0.00    -0.045 A 
ATOM     23  C   UNL A   1      30.003  29.877  22.050  1.00  0.00     0.004 A 
ATOM     24  C   UNL A   1      28.645  28.146  23.027  1.00  0.00     0.004 A 
ATOM     25  C   UNL A   1      28.903  30.747  22.084  1.00  0.00     0.000 A 
ATOM     26  C   UNL A   1      27.560  29.025  23.097  1.00  0.00     0.000 A 
ATOM     27  C   UNL A   1      27.691  30.330  22.633  1.00  0.00     0.000 A 
ENDBRANCH  21  22
ENDBRANCH   7  21
ENDBRANCH   4   7
ENDBRANCH   2   3
ENDBRANCH   1   2
BRANCH   1  28
ATOM     28  C   UNL A   1      32.665  31.835  27.189  1.00  0.00     0.118 C 
BRANCH  28  29
ATOM     29  N   UNL A   1      32.624  33.280  27.350  1.00  0.00    -0.352 N 
ATOM     30  C   UNL A   1      33.253  34.072  28.283  1.00  0.00     0.251 C 
ATOM     31  H   UNL A   1      32.066  33.762  26.698  1.00  0.00     0.163 HD
ATOM     32  O   UNL A   1      32.845  35.219  28.458  1.00  0.00    -0.269 OA
BRANCH  30  33
ATOM     33  C   UNL A   1      34.396  33.555  29.078  1.00  0.00     0.039 A 
ATOM     34  C   UNL A   1      35.699  33.898  28.702  1.00  0.00     0.014 A 
ATOM     35  C   UNL A   1      34.203  32.689  30.157  1.00  0.00     0.014 A 
ATOM     36  C   UNL A   1      36.789  33.395  29.420  1.00  0.00     0.010 A 
ATOM     37  C   UNL A   1      35.279  32.290  30.944  1.00  0.00     0.010 A 
ATOM     38  C   UNL A   1      36.589  32.599  30.559  1.00  0.00    -0.014 A 
BRANCH  38  39
ATOM     39  C   UNL A   1      37.732  32.004  31.302  1.00  0.00     0.031 A 
ATOM     40  C   UNL A   1      38.550  30.908  30.662  1.00  0.00     0.074 A 
ATOM     41  C   UNL A   1      38.019  32.419  32.551  1.00  0.00     0.049 A 
ATOM     42  N   UNL A   1      39.556  30.229  31.150  1.00  0.00    -0.248 NA
ATOM     43  C   UNL A   1      38.159  30.497  29.304  1.00  0.00     0.031 C 
ATOM     44  C   UNL A   1      37.277  33.440  33.295  1.00  0.00     0.029 A 
ATOM     45  N   UNL A   1      39.013  32.036  33.417  1.00  0.00    -0.354 N 
ATOM     46  C   UNL A   1      39.904  29.304  30.169  1.00  0.00     0.074 A 
ATOM     47  C   UNL A   1      38.948  29.455  29.095  1.00  0.00     0.031 C 
ATOM     48  C   UNL A   1      37.866  33.629  34.488  1.00  0.00     0.029 A 
ATOM     49  C   UNL A   1      38.997  32.714  34.614  1.00  0.00     0.049 A 
ATOM     50  H   UNL A   1      39.675  31.340  33.202  1.00  0.00     0.167 HD
ATOM     51  C   UNL A   1      40.943  28.433  30.146  1.00  0.00     0.034 A 
ATOM     52  C   UNL A   1      39.803  32.611  35.690  1.00  0.00     0.034 A 
ATOM     53  C   UNL A   1      41.903  28.310  31.216  1.00  0.00     0.049 A 
ATOM     54  C   UNL A   1      40.947  31.628  35.648  1.00  0.00     0.074 A 
ATOM     55  C   UNL A   1      43.021  27.498  31.283  1.00  0.00     0.029 A 
ATOM     56  N   UNL A   1      41.856  29.018  32.410  1.00  0.00    -0.354 N 
ATOM     57  N   UNL A   1      41.292  30.798  34.690  1.00  0.00    -0.248 NA
ATOM     58  C   UNL A   1      41.822  31.585  36.826  1.00  0.00     0.031 C 
ATOM     59  C   UNL A   1      43.610  27.664  32.540  1.00  0.00     0.029 A 
ATOM     60  C   UNL A   1      42.909  28.642  33.229  1.00  0.00     0.049 A 
ATOM     61  H   UNL A   1      41.174  29.689  32.642  1.00  0.00     0.167 HD
ATOM     62  C   UNL A   1      42.445  30.158  35.139  1.00  0.00     0.074 A 
ATOM     63  C   UNL A   1      42.745  30.717  36.443  1.00  0.00     0.031 C 
ATOM     64  C   UNL A   1      43.192  29.201  34.532  1.00  0.00     0.034 A 
BRANCH  51  65
ATOM     65  C   UNL A   1      41.075  27.538  28.935  1.00  0.00     0.023 A 
ATOM     66  C   UNL A   1      42.068  27.750  27.962  1.00  0.00     0.031 A 
ATOM     67  C   UNL A   1      40.173  26.479  28.729  1.00  0.00     0.131 A 
ATOM     68  C   UNL A   1      42.084  26.977  26.792  1.00  0.00     0.055 A 
ATOM     69  C   UNL A   1      40.249  25.654  27.605  1.00  0.00     0.041 A 
ATOM     70  F   UNL A   1      39.188  26.238  29.609  1.00  0.00    -0.206 F 
ATOM     71  C   UNL A   1      41.198  25.911  26.618  1.00  0.00     0.022 A 
BRANCH  68  72
ATOM     72  S   UNL A   1      43.170  27.484  25.432  1.00  0.00     0.124 S 
ATOM     73  O   UNL A   1      43.641  26.194  24.933  1.00  0.00    -0.237 OA
ATOM     74  O   UNL A   1      42.261  28.215  24.557  1.00  0.00    -0.237 OA
ATOM     75  O   UNL A   1      44.189  28.298  26.092  1.00  0.00    -0.744 OA
ENDBRANCH  68  72
ENDBRANCH  51  65
BRANCH  52  76
ATOM     76  C   UNL A   1      39.567  33.454  36.897  1.00  0.00     0.023 A 
ATOM     77  C   UNL A   1      38.907  32.938  38.025  1.00  0.00     0.031 A 
ATOM     78  C   UNL A   1      39.957  34.805  36.925  1.00  0.00     0.131 A 
ATOM     79  C   UNL A   1      38.608  33.780  39.107  1.00  0.00     0.055 A 
ATOM     80  C   UNL A   1      39.708  35.623  38.028  1.00  0.00     0.041 A 
ATOM     81  F   UNL A   1      40.597  35.348  35.877  1.00  0.00    -0.206 F 
ATOM     82  C   UNL A   1      39.015  35.115  39.122  1.00  0.00     0.022 A 
BRANCH  79  83
ATOM     83  S   UNL A   1      37.592  33.126  40.462  1.00  0.00     0.124 S 
ATOM     84  O   UNL A   1      38.380  31.979  40.897  1.00  0.00    -0.237 OA
ATOM     85  O   UNL A   1      37.548  34.260  41.380  1.00  0.00    -0.237 OA
ATOM     86  O   UNL A   1      36.324  32.804  39.811  1.00  0.00    -0.744 OA
ENDBRANCH  79  83
ENDBRANCH  52  76
BRANCH  64  87
ATOM     87  C   UNL A   1      44.434  28.737  35.254  1.00  0.00     0.023 A 
ATOM     88  C   UNL A   1      44.382  27.770  36.273  1.00  0.00     0.031 A 
ATOM     89  C   UNL A   1      45.686  29.294  34.936  1.00  0.00     0.131 A 
ATOM     90  C   UNL A   1      45.546  27.441  36.985  1.00  0.00     0.055 A 
ATOM     91  C   UNL A   1      46.853  28.910  35.600  1.00  0.00     0.041 A 
ATOM     92  F   UNL A   1      45.796  30.223  33.974  1.00  0.00    -0.206 F 
ATOM     93  C   UNL A   1      46.783  27.992  36.642  1.00  0.00     0.022 A 
BRANCH  90  94
ATOM     94  S   UNL A   1      45.400  26.374  38.445  1.00  0.00     0.124 S 
ATOM     95  O   UNL A   1      45.832  25.083  37.922  1.00  0.00    -0.237 OA
ATOM     96  O   UNL A   1      46.307  27.015  39.392  1.00  0.00    -0.237 OA
ATOM     97  O   UNL A   1      43.982  26.460  38.791  1.00  0.00    -0.744 OA
ENDBRANCH  90  94
ENDBRANCH  64  87
ENDBRANCH  38  39
ENDBRANCH  30  33
ENDBRANCH  28  29
ENDBRANCH   1  28
TORSDOF 16
ENDMDL
MODEL 3
REMARK VINA RESULT:     -13.2      4.958     10.633
REMARK SMILES CC1=C[C@@H](C)[C@H]2C(=O)N([C@H](Cc3ccccc3)C(=O)NCCCNC(=O)c3ccc(-c4c5nc(c(-c6cc(S(=O)(=O)[O-])ccc6F)c6ccc([nH]6)c(-c6cc(S(=O)(=O)[O-])ccc6F)c6nc(c(-c7cc(S(=O)(=O)[O-])ccc7F)c7ccc4[nH]7)C=C6)C=C5)cc3)C(=O)[C@H]2C1
REMARK SMILES IDX 22 1 21 2 20 3 18 4 19 5 10 7 9 8 1 9 2 10 3 11 93 12 4 13
REMARK SMILES IDX 92 14 6 15 5 16 90 17 7 18 91 19 8 20 11 21 12 22 13 23
REMARK SMILES IDX 17 24 14 25 16 26 15 27 23 28 24 29 25 30 26 32 27 33 28 34
REMARK SMILES IDX 89 35 29 36 88 37 30 38 31 39 32 40 82 41 33 42 87 43 81 44
REMARK SMILES IDX 83 45 34 46 86 47 80 48 79 49 35 51 67 52 47 53 66 54 48 55
REMARK SMILES IDX 51 56 65 57 84 58 49 59 50 60 64 62 85 63 52 64 36 65 37 66
REMARK SMILES IDX 45 67 38 68 44 69 46 70 43 71 39 72 40 73 41 74 42 75 68 76
REMARK SMILES IDX 69 77 77 78 70 79 76 80 78 81 75 82 71 83 72 84 73 85 74 86
REMARK SMILES IDX 53 87 54 88 62 89 55 90 61 91 63 92 60 93 56 94 57 95 58 96
REMARK SMILES IDX 59 97
REMARK H PARENT 20 6 24 31 83 50 51 61
REMARK Flexibility Score: inf
ROOT
ATOM      1  C   UNL A   1      37.410  20.224  24.993  1.00  0.00     0.042 C 
ENDROOT
BRANCH   1   2
ATOM      2  C   UNL A   1      36.146  21.048  25.040  1.00  0.00     0.117 C 
BRANCH   2   3
ATOM      3  N   UNL A   1      35.547  21.291  26.325  1.00  0.00    -0.354 N 
ATOM      4  C   UNL A   1      34.255  21.652  26.598  1.00  0.00     0.243 C 
ATOM      5  O   UNL A   1      33.919  21.662  27.790  1.00  0.00    -0.273 OA
ATOM      6  H   UNL A   1      36.140  21.187  27.103  1.00  0.00     0.163 HD
BRANCH   4   7
ATOM      7  C   UNL A   1      33.297  22.256  25.530  1.00  0.00     0.186 C 
BRANCH   7   8
ATOM      8  N   UNL A   1      32.929  23.701  25.638  1.00  0.00    -0.269 N 
ATOM      9  C   UNL A   1      32.753  29.155  23.838  1.00  0.00     0.039 C 
ATOM     10  C   UNL A   1      32.461  27.988  24.739  1.00  0.00    -0.076 C 
ATOM     11  C   UNL A   1      31.199  27.605  24.962  1.00  0.00    -0.024 C 
ATOM     12  C   UNL A   1      33.649  27.263  25.298  1.00  0.00     0.044 C 
ATOM     13  C   UNL A   1      30.810  26.315  25.617  1.00  0.00     0.022 C 
ATOM     14  C   UNL A   1      33.359  25.981  26.070  1.00  0.00     0.096 C 
ATOM     15  C   UNL A   1      31.927  25.682  26.476  1.00  0.00     0.098 C 
ATOM     16  C   UNL A   1      30.254  25.477  24.472  1.00  0.00     0.013 C 
ATOM     17  C   UNL A   1      33.818  24.715  25.382  1.00  0.00     0.234 C 
ATOM     18  C   UNL A   1      31.973  24.164  26.522  1.00  0.00     0.234 C 
ATOM     19  O   UNL A   1      34.924  24.615  24.869  1.00  0.00    -0.274 OA
ATOM     20  O   UNL A   1      31.276  23.500  27.259  1.00  0.00    -0.274 OA
ENDBRANCH   7   8
BRANCH   7  21
ATOM     21  C   UNL A   1      32.127  21.229  25.255  1.00  0.00     0.071 C 
BRANCH  21  22
ATOM     22  C   UNL A   1      32.400  19.820  24.752  1.00  0.00    -0.045 A 
ATOM     23  C   UNL A   1      32.359  19.526  23.380  1.00  0.00     0.004 A 
ATOM     24  C   UNL A   1      32.771  18.788  25.634  1.00  0.00     0.004 A 
ATOM     25  C   UNL A   1      32.603  18.224  22.918  1.00  0.00     0.000 A 
ATOM     26  C   UNL A   1      32.975  17.482  25.177  1.00  0.00     0.000 A 
ATOM     27  C   UNL A   1      32.884  17.197  23.819  1.00  0.00     0.000 A 
ENDBRANCH  21  22
ENDBRANCH   7  21
ENDBRANCH   4   7
ENDBRANCH   2   3
ENDBRANCH   1   2
BRANCH   1  28
ATOM     28  C   UNL A   1      38.655  20.987  25.367  1.00  0.00     0.118 C 
BRANCH  28  29
ATOM     29  N   UNL A   1      39.587  20.131  26.085  1.00  0.00    -0.352 N 
ATOM     30  C   UNL A   1      40.759  20.462  26.725  1.00  0.00     0.251 C 
ATOM     31  H   UNL A   1      39.343  19.178  26.119  1.00  0.00     0.163 HD
ATOM     32  O   UNL A   1      41.561  19.568  26.990  1.00  0.00    -0.269 OA
BRANCH  30  33
ATOM     33  C   UNL A   1      41.064  21.871  27.081  1.00  0.00     0.039 A 
ATOM     34  C   UNL A   1      40.702  22.891  26.196  1.00  0.00     0.014 A 
ATOM     35  C   UNL A   1      41.755  22.195  28.251  1.00  0.00     0.014 A 
ATOM     36  C   UNL A   1      41.010  24.222  26.500  1.00  0.00     0.010 A 
ATOM     37  C   UNL A   1      41.950  23.525  28.611  1.00  0.00     0.010 A 
ATOM     38  C   UNL A   1      41.622  24.554  27.719  1.00  0.00    -0.014 A 
BRANCH  38  39
ATOM     39  C   UNL A   1      42.013  25.953  28.037  1.00  0.00     0.031 A 
ATOM     40  C   UNL A   1      43.398  26.441  27.682  1.00  0.00     0.074 A 
ATOM     41  C   UNL A   1      41.148  26.773  28.664  1.00  0.00     0.049 A 
ATOM     42  N   UNL A   1      43.952  27.605  27.908  1.00  0.00    -0.248 NA
ATOM     43  C   UNL A   1      44.289  25.477  27.019  1.00  0.00     0.031 C 
ATOM     44  C   UNL A   1      39.797  26.408  29.097  1.00  0.00     0.029 A 
ATOM     45  N   UNL A   1      41.273  28.086  29.045  1.00  0.00    -0.354 N 
ATOM     46  C   UNL A   1      45.255  27.505  27.430  1.00  0.00     0.074 A 
ATOM     47  C   UNL A   1      45.432  26.143  26.979  1.00  0.00     0.031 C 
ATOM     48  C   UNL A   1      39.207  27.481  29.648  1.00  0.00     0.029 A 
ATOM     49  C   UNL A   1      40.148  28.597  29.650  1.00  0.00     0.049 A 
ATOM     50  H   UNL A   1      42.092  28.612  28.901  1.00  0.00     0.167 HD
ATOM     51  C   UNL A   1      46.208  28.467  27.340  1.00  0.00     0.034 A 
ATOM     52  C   UNL A   1      39.903  29.825  30.148  1.00  0.00     0.034 A 
ATOM     53  C   UNL A   1      46.008  29.828  27.772  1.00  0.00     0.049 A 
ATOM     54  C   UNL A   1      40.979  30.878  30.047  1.00  0.00     0.074 A 
ATOM     55  C   UNL A   1      46.883  30.898  27.687  1.00  0.00     0.029 A 
ATOM     56  N   UNL A   1      44.852  30.309  28.375  1.00  0.00    -0.354 N 
ATOM     57  N   UNL A   1      42.190  30.780  29.545  1.00  0.00    -0.248 NA
ATOM     58  C   UNL A   1      40.648  32.212  30.563  1.00  0.00     0.031 C 
ATOM     59  C   UNL A   1      46.284  32.004  28.298  1.00  0.00     0.029 A 
ATOM     60  C   UNL A   1      45.002  31.651  28.690  1.00  0.00     0.049 A 
ATOM     61  H   UNL A   1      44.045  29.775  28.553  1.00  0.00     0.167 HD
ATOM     62  C   UNL A   1      42.750  32.051  29.655  1.00  0.00     0.074 A 
ATOM     63  C   UNL A   1      41.736  32.898  30.251  1.00  0.00     0.031 C 
ATOM     64  C   UNL A   1      43.986  32.482  29.294  1.00  0.00     0.034 A 
BRANCH  51  65
ATOM     65  C   UNL A   1      47.550  28.066  26.772  1.00  0.00     0.023 A 
ATOM     66  C   UNL A   1      47.775  27.989  25.385  1.00  0.00     0.031 A 
ATOM     67  C   UNL A   1      48.612  27.718  27.626  1.00  0.00     0.131 A 
ATOM     68  C   UNL A   1      48.993  27.496  24.896  1.00  0.00     0.055 A 
ATOM     69  C   UNL A   1      49.854  27.314  27.133  1.00  0.00     0.041 A 
ATOM     70  F   UNL A   1      48.455  27.750  28.959  1.00  0.00    -0.206 F 
ATOM     71  C   UNL A   1      50.045  27.183  25.759  1.00  0.00     0.022 A 
BRANCH  68  72
ATOM     72  S   UNL A   1      49.127  27.116  23.128  1.00  0.00     0.124 S 
ATOM     73  O   UNL A   1      48.394  25.855  23.041  1.00  0.00    -0.237 OA
ATOM     74  O   UNL A   1      48.488  28.271  22.508  1.00  0.00    -0.237 OA
ATOM     75  O   UNL A   1      50.568  27.007  22.908  1.00  0.00    -0.744 OA
ENDBRANCH  68  72
ENDBRANCH  51  65
BRANCH  52  76
ATOM     76  C   UNL A   1      38.590  30.138  30.785  1.00  0.00     0.023 A 
ATOM     77  C   UNL A   1      37.608  30.872  30.099  1.00  0.00     0.031 A 
ATOM     78  C   UNL A   1      38.316  29.748  32.107  1.00  0.00     0.131 A 
ATOM     79  C   UNL A   1      36.424  31.240  30.755  1.00  0.00     0.055 A 
ATOM     80  C   UNL A   1      37.111  30.068  32.737  1.00  0.00     0.041 A 
ATOM     81  F   UNL A   1      39.216  29.039  32.807  1.00  0.00    -0.206 F 
ATOM     82  C   UNL A   1      36.163  30.832  32.065  1.00  0.00     0.022 A 
BRANCH  79  83
ATOM     83  S   UNL A   1      35.264  32.344  29.901  1.00  0.00     0.124 S 
ATOM     84  O   UNL A   1      34.292  32.625  30.952  1.00  0.00    -0.237 OA
ATOM     85  O   UNL A   1      36.131  33.453  29.516  1.00  0.00    -0.237 OA
ATOM     86  O   UNL A   1      34.770  31.528  28.794  1.00  0.00    -0.744 OA
ENDBRANCH  79  83
ENDBRANCH  52  76
BRANCH  64  87
ATOM     87  C   UNL A   1      44.285  33.949  29.490  1.00  0.00     0.023 A 
ATOM     88  C   UNL A   1      43.925  34.914  28.533  1.00  0.00     0.031 A 
ATOM     89  C   UNL A   1      44.967  34.383  30.641  1.00  0.00     0.131 A 
ATOM     90  C   UNL A   1      44.311  36.252  28.710  1.00  0.00     0.055 A 
ATOM     91  C   UNL A   1      45.285  35.727  30.846  1.00  0.00     0.041 A 
ATOM     92  F   UNL A   1      45.338  33.507  31.587  1.00  0.00    -0.206 F 
ATOM     93  C   UNL A   1      44.972  36.667  29.869  1.00  0.00     0.022 A 
BRANCH  90  94
ATOM     94  S   UNL A   1      44.042  37.421  27.350  1.00  0.00     0.124 S 
ATOM     95  O   UNL A   1      43.677  38.640  28.064  1.00  0.00    -0.237 OA
ATOM     96  O   UNL A   1      45.343  37.434  26.689  1.00  0.00    -0.237 OA
ATOM     97  O   UNL A   1      42.962  36.807  26.579  1.00  0.00    -0.744 OA
ENDBRANCH  90  94
ENDBRANCH  64  87
ENDBRANCH  38  39
ENDBRANCH  30  33
ENDBRANCH  28  29
ENDBRANCH   1  28
TORSDOF 16
ENDMDL
