MODEL 1
REMARK VINA RESULT:     -13.7      0.000      0.000
REMARK SMILES C[C@H](C(=O)NCCCNC(=O)c1ccc(-c2c3nc(c(-c4cc(S(=O)(=O)[O-])ccc4F)c4ccc([nH]4)c(-c4cc(S(=O)(=O)[O-])ccc4F)c4nc(c(-c5cc(S(=O)(=O)[O-])ccc5F)c5ccc2[nH]5)C=C4)C=C3)cc1)N1C(=O)C[C@@H](N2C(=O)/C(=C/c3ccccc3)SC2=S)C1=O
REMARK SMILES IDX 7 1 6 2 5 3 3 4 4 5 2 7 1 8 75 9 76 10 94 11 77 12 78 13
REMARK SMILES IDX 79 14 95 15 80 16 81 17 92 18 82 19 83 20 91 21 93 22 84 23
REMARK SMILES IDX 85 24 86 25 90 26 87 27 89 28 88 29 8 30 9 31 10 32 11 34
REMARK SMILES IDX 12 35 13 36 74 37 14 38 73 39 15 40 16 41 17 42 67 43 18 44
REMARK SMILES IDX 72 45 66 46 68 47 19 48 71 49 65 50 64 51 20 53 52 54 32 55
REMARK SMILES IDX 51 56 33 57 36 58 50 59 69 60 34 61 35 62 49 64 70 65 37 66
REMARK SMILES IDX 21 67 22 68 30 69 23 70 29 71 31 72 28 73 24 74 25 75 26 76
REMARK SMILES IDX 27 77 53 78 54 79 62 80 55 81 61 82 63 83 60 84 56 85 57 86
REMARK SMILES IDX 58 87 59 88 38 89 39 90 47 91 40 92 46 93 48 94 45 95 41 96
REMARK SMILES IDX 42 97 43 98 44 99
REMARK H PARENT 5 6 9 33 68 52 36 63
REMARK Flexibility Score: inf
ROOT
ATOM      1  C   UNL A   1      31.064  30.705  25.232  1.00  0.00     0.042 C 
ENDROOT
BRANCH   1   2
ATOM      2  C   UNL A   1      31.140  29.294  24.672  1.00  0.00     0.117 C 
BRANCH   2   3
ATOM      3  N   UNL A   1      32.215  29.067  23.728  1.00  0.00    -0.354 N 
ATOM      4  C   UNL A   1      32.454  28.041  22.867  1.00  0.00     0.243 C 
ATOM      5  O   UNL A   1      33.363  28.229  22.044  1.00  0.00    -0.273 OA
ATOM      6  H   UNL A   1      32.891  29.782  23.704  1.00  0.00     0.163 HD
BRANCH   4   7
ATOM      7  C   UNL A   1      31.870  26.615  23.018  1.00  0.00     0.179 C 
ATOM      8  C   UNL A   1      32.316  25.863  21.748  1.00  0.00     0.042 C 
BRANCH   7   9
ATOM      9  N   UNL A   1      32.118  25.810  24.219  1.00  0.00    -0.268 N 
ATOM     10  C   UNL A   1      31.124  25.565  25.133  1.00  0.00     0.232 C 
ATOM     11  C   UNL A   1      33.333  25.573  24.792  1.00  0.00     0.253 C 
ATOM     12  O   UNL A   1      29.980  25.998  25.113  1.00  0.00    -0.274 OA
ATOM     13  C   UNL A   1      31.676  24.808  26.305  1.00  0.00     0.136 C 
ATOM     14  C   UNL A   1      33.134  24.603  25.941  1.00  0.00     0.191 C 
ATOM     15  O   UNL A   1      34.423  25.987  24.426  1.00  0.00    -0.272 OA
BRANCH  14  16
ATOM     16  N   UNL A   1      33.506  23.224  25.557  1.00  0.00    -0.280 N 
ATOM     17  C   UNL A   1      32.536  22.337  25.115  1.00  0.00     0.266 C 
ATOM     18  C   UNL A   1      34.796  22.727  25.586  1.00  0.00     0.149 C 
ATOM     19  O   UNL A   1      31.360  22.612  24.915  1.00  0.00    -0.268 OA
ATOM     20  C   UNL A   1      33.100  20.983  24.918  1.00  0.00     0.081 C 
ATOM     21  S   UNL A   1      34.796  21.021  25.149  1.00  0.00    -0.054 SA
ATOM     22  S   UNL A   1      36.197  23.525  26.009  1.00  0.00    -0.052 S 
ATOM     23  C   UNL A   1      32.308  19.936  24.652  1.00  0.00     0.029 C 
BRANCH  23  24
ATOM     24  C   UNL A   1      32.725  18.533  24.583  1.00  0.00    -0.024 A 
ATOM     25  C   UNL A   1      32.685  17.732  25.725  1.00  0.00     0.008 A 
ATOM     26  C   UNL A   1      33.240  18.004  23.390  1.00  0.00     0.008 A 
ATOM     27  C   UNL A   1      33.137  16.413  25.663  1.00  0.00     0.001 A 
ATOM     28  C   UNL A   1      33.691  16.684  23.336  1.00  0.00     0.001 A 
ATOM     29  C   UNL A   1      33.637  15.888  24.474  1.00  0.00     0.000 A 
ENDBRANCH  23  24
ENDBRANCH  14  16
ENDBRANCH   7   9
ENDBRANCH   4   7
ENDBRANCH   2   3
ENDBRANCH   1   2
BRANCH   1  30
ATOM     30  C   UNL A   1      31.896  30.983  26.478  1.00  0.00     0.118 C 
BRANCH  30  31
ATOM     31  N   UNL A   1      31.886  32.372  26.910  1.00  0.00    -0.352 N 
ATOM     32  C   UNL A   1      32.830  33.122  27.578  1.00  0.00     0.251 C 
ATOM     33  H   UNL A   1      31.061  32.861  26.687  1.00  0.00     0.163 HD
ATOM     34  O   UNL A   1      32.555  34.281  27.884  1.00  0.00    -0.269 OA
BRANCH  32  35
ATOM     35  C   UNL A   1      34.136  32.548  27.983  1.00  0.00     0.039 A 
ATOM     36  C   UNL A   1      35.258  33.386  27.983  1.00  0.00     0.014 A 
ATOM     37  C   UNL A   1      34.282  31.213  28.365  1.00  0.00     0.014 A 
ATOM     38  C   UNL A   1      36.482  32.922  28.477  1.00  0.00     0.010 A 
ATOM     39  C   UNL A   1      35.480  30.776  28.934  1.00  0.00     0.010 A 
ATOM     40  C   UNL A   1      36.586  31.635  29.026  1.00  0.00    -0.014 A 
BRANCH  40  41
ATOM     41  C   UNL A   1      37.806  31.194  29.760  1.00  0.00     0.031 A 
ATOM     42  C   UNL A   1      38.712  30.135  29.193  1.00  0.00     0.074 A 
ATOM     43  C   UNL A   1      38.048  31.679  30.995  1.00  0.00     0.049 A 
ATOM     44  N   UNL A   1      39.730  29.535  29.754  1.00  0.00    -0.248 NA
ATOM     45  C   UNL A   1      38.423  29.679  27.825  1.00  0.00     0.031 C 
ATOM     46  C   UNL A   1      37.239  32.690  31.680  1.00  0.00     0.029 A 
ATOM     47  N   UNL A   1      39.029  31.371  31.908  1.00  0.00    -0.354 N 
ATOM     48  C   UNL A   1      40.199  28.621  28.819  1.00  0.00     0.074 A 
ATOM     49  C   UNL A   1      39.326  28.719  27.667  1.00  0.00     0.031 C 
ATOM     50  C   UNL A   1      37.757  32.914  32.897  1.00  0.00     0.029 A 
ATOM     51  C   UNL A   1      38.888  32.024  33.112  1.00  0.00     0.049 A 
ATOM     52  H   UNL A   1      39.763  30.744  31.719  1.00  0.00     0.167 HD
ATOM     53  C   UNL A   1      41.268  27.791  28.905  1.00  0.00     0.034 A 
ATOM     54  C   UNL A   1      39.560  31.902  34.273  1.00  0.00     0.034 A 
ATOM     55  C   UNL A   1      42.155  27.719  30.041  1.00  0.00     0.049 A 
ATOM     56  C   UNL A   1      40.709  30.938  34.359  1.00  0.00     0.074 A 
ATOM     57  C   UNL A   1      43.327  26.995  30.171  1.00  0.00     0.029 A 
ATOM     58  N   UNL A   1      41.963  28.378  31.247  1.00  0.00    -0.354 N 
ATOM     59  N   UNL A   1      41.174  30.129  33.438  1.00  0.00    -0.248 NA
ATOM     60  C   UNL A   1      41.429  30.877  35.638  1.00  0.00     0.031 C 
ATOM     61  C   UNL A   1      43.810  27.164  31.474  1.00  0.00     0.029 A 
ATOM     62  C   UNL A   1      42.971  28.041  32.139  1.00  0.00     0.049 A 
ATOM     63  H   UNL A   1      41.220  28.995  31.440  1.00  0.00     0.167 HD
ATOM     64  C   UNL A   1      42.255  29.478  34.022  1.00  0.00     0.074 A 
ATOM     65  C   UNL A   1      42.381  29.998  35.367  1.00  0.00     0.031 C 
ATOM     66  C   UNL A   1      43.073  28.538  33.488  1.00  0.00     0.034 A 
BRANCH  53  67
ATOM     67  C   UNL A   1      41.533  26.873  27.741  1.00  0.00     0.023 A 
ATOM     68  C   UNL A   1      41.152  25.520  27.768  1.00  0.00     0.031 A 
ATOM     69  C   UNL A   1      42.155  27.365  26.581  1.00  0.00     0.131 A 
ATOM     70  C   UNL A   1      41.442  24.693  26.673  1.00  0.00     0.055 A 
ATOM     71  C   UNL A   1      42.385  26.551  25.470  1.00  0.00     0.041 A 
ATOM     72  F   UNL A   1      42.552  28.644  26.510  1.00  0.00    -0.206 F 
ATOM     73  C   UNL A   1      42.036  25.204  25.515  1.00  0.00     0.022 A 
BRANCH  70  74
ATOM     74  S   UNL A   1      41.111  22.917  26.815  1.00  0.00     0.124 S 
ATOM     75  O   UNL A   1      41.903  22.380  25.712  1.00  0.00    -0.237 OA
ATOM     76  O   UNL A   1      41.595  22.611  28.156  1.00  0.00    -0.237 OA
ATOM     77  O   UNL A   1      39.663  22.822  26.639  1.00  0.00    -0.744 OA
ENDBRANCH  70  74
ENDBRANCH  53  67
BRANCH  54  78
ATOM     78  C   UNL A   1      39.133  32.658  35.485  1.00  0.00     0.023 A 
ATOM     79  C   UNL A   1      39.596  33.958  35.733  1.00  0.00     0.031 A 
ATOM     80  C   UNL A   1      38.318  32.046  36.455  1.00  0.00     0.131 A 
ATOM     81  C   UNL A   1      39.286  34.587  36.948  1.00  0.00     0.055 A 
ATOM     82  C   UNL A   1      37.978  32.694  37.644  1.00  0.00     0.041 A 
ATOM     83  F   UNL A   1      37.836  30.809  36.255  1.00  0.00    -0.206 F 
ATOM     84  C   UNL A   1      38.474  33.967  37.902  1.00  0.00     0.022 A 
BRANCH  81  85
ATOM     85  S   UNL A   1      40.032  36.201  37.303  1.00  0.00     0.124 S 
ATOM     86  O   UNL A   1      41.378  35.822  37.720  1.00  0.00    -0.237 OA
ATOM     87  O   UNL A   1      39.924  36.871  36.011  1.00  0.00    -0.237 OA
ATOM     88  O   UNL A   1      39.178  36.745  38.357  1.00  0.00    -0.744 OA
ENDBRANCH  81  85
ENDBRANCH  54  78
BRANCH  66  89
ATOM     89  C   UNL A   1      44.190  28.039  34.365  1.00  0.00     0.023 A 
ATOM     90  C   UNL A   1      44.029  26.909  35.185  1.00  0.00     0.031 A 
ATOM     91  C   UNL A   1      45.416  28.726  34.413  1.00  0.00     0.131 A 
ATOM     92  C   UNL A   1      45.057  26.529  36.060  1.00  0.00     0.055 A 
ATOM     93  C   UNL A   1      46.456  28.312  35.246  1.00  0.00     0.041 A 
ATOM     94  F   UNL A   1      45.618  29.817  33.655  1.00  0.00    -0.206 F 
ATOM     95  C   UNL A   1      46.276  27.215  36.085  1.00  0.00     0.022 A 
BRANCH  92  96
ATOM     96  S   UNL A   1      44.753  25.174  37.226  1.00  0.00     0.124 S 
ATOM     97  O   UNL A   1      45.032  24.000  36.404  1.00  0.00    -0.237 OA
ATOM     98  O   UNL A   1      45.714  25.452  38.287  1.00  0.00    -0.237 OA
ATOM     99  O   UNL A   1      43.351  25.351  37.599  1.00  0.00    -0.744 OA
ENDBRANCH  92  96
ENDBRANCH  66  89
ENDBRANCH  40  41
ENDBRANCH  32  35
ENDBRANCH  30  31
ENDBRANCH   1  30
TORSDOF 16
ENDMDL
MODEL 2
REMARK VINA RESULT:     -13.3      1.547      7.345
REMARK SMILES C[C@H](C(=O)NCCCNC(=O)c1ccc(-c2c3nc(c(-c4cc(S(=O)(=O)[O-])ccc4F)c4ccc([nH]4)c(-c4cc(S(=O)(=O)[O-])ccc4F)c4nc(c(-c5cc(S(=O)(=O)[O-])ccc5F)c5ccc2[nH]5)C=C4)C=C3)cc1)N1C(=O)C[C@@H](N2C(=O)/C(=C/c3ccccc3)SC2=S)C1=O
REMARK SMILES IDX 7 1 6 2 5 3 3 4 4 5 2 7 1 8 75 9 76 10 94 11 77 12 78 13
REMARK SMILES IDX 79 14 95 15 80 16 81 17 92 18 82 19 83 20 91 21 93 22 84 23
REMARK SMILES IDX 85 24 86 25 90 26 87 27 89 28 88 29 8 30 9 31 10 32 11 34
REMARK SMILES IDX 12 35 13 36 74 37 14 38 73 39 15 40 16 41 17 42 67 43 18 44
REMARK SMILES IDX 72 45 66 46 68 47 19 48 71 49 65 50 64 51 20 53 52 54 32 55
REMARK SMILES IDX 51 56 33 57 36 58 50 59 69 60 34 61 35 62 49 64 70 65 37 66
REMARK SMILES IDX 21 67 22 68 30 69 23 70 29 71 31 72 28 73 24 74 25 75 26 76
REMARK SMILES IDX 27 77 53 78 54 79 62 80 55 81 61 82 63 83 60 84 56 85 57 86
REMARK SMILES IDX 58 87 59 88 38 89 39 90 47 91 40 92 46 93 48 94 45 95 41 96
REMARK SMILES IDX 42 97 43 98 44 99
REMARK H PARENT 5 6 9 33 68 52 36 63
REMARK Flexibility Score: inf
ROOT
ATOM      1  C   UNL A   1      30.990  30.786  25.331  1.00  0.00     0.042 C 
ENDROOT
BRANCH   1   2
ATOM      2  C   UNL A   1      31.007  29.408  24.687  1.00  0.00     0.117 C 
BRANCH   2   3
ATOM      3  N   UNL A   1      32.124  29.163  23.798  1.00  0.00    -0.354 N 
ATOM      4  C   UNL A   1      32.406  28.116  22.975  1.00  0.00     0.243 C 
ATOM      5  O   UNL A   1      33.351  28.287  22.191  1.00  0.00    -0.273 OA
ATOM      6  H   UNL A   1      32.799  29.879  23.787  1.00  0.00     0.163 HD
BRANCH   4   7
ATOM      7  C   UNL A   1      31.819  26.692  23.136  1.00  0.00     0.179 C 
ATOM      8  C   UNL A   1      32.214  25.948  21.845  1.00  0.00     0.042 C 
BRANCH   7   9
ATOM      9  N   UNL A   1      32.107  25.875  24.321  1.00  0.00    -0.268 N 
ATOM     10  C   UNL A   1      31.144  25.621  25.264  1.00  0.00     0.232 C 
ATOM     11  C   UNL A   1      33.340  25.633  24.851  1.00  0.00     0.253 C 
ATOM     12  O   UNL A   1      30.000  26.053  25.287  1.00  0.00    -0.274 OA
ATOM     13  C   UNL A   1      31.734  24.852  26.410  1.00  0.00     0.136 C 
ATOM     14  C   UNL A   1      33.180  24.652  25.997  1.00  0.00     0.191 C 
ATOM     15  O   UNL A   1      34.418  26.051  24.453  1.00  0.00    -0.272 OA
BRANCH  14  16
ATOM     16  N   UNL A   1      33.538  23.277  25.587  1.00  0.00    -0.280 N 
ATOM     17  C   UNL A   1      32.554  22.393  25.173  1.00  0.00     0.266 C 
ATOM     18  C   UNL A   1      34.829  22.782  25.565  1.00  0.00     0.149 C 
ATOM     19  O   UNL A   1      31.372  22.668  25.018  1.00  0.00    -0.268 OA
ATOM     20  C   UNL A   1      33.112  21.041  24.944  1.00  0.00     0.081 C 
ATOM     21  S   UNL A   1      34.816  21.080  25.113  1.00  0.00    -0.054 SA
ATOM     22  S   UNL A   1      36.244  23.578  25.944  1.00  0.00    -0.052 S 
ATOM     23  C   UNL A   1      32.313  19.995  24.697  1.00  0.00     0.029 C 
BRANCH  23  24
ATOM     24  C   UNL A   1      32.728  18.593  24.601  1.00  0.00    -0.024 A 
ATOM     25  C   UNL A   1      32.651  17.760  25.718  1.00  0.00     0.008 A 
ATOM     26  C   UNL A   1      33.279  18.098  23.410  1.00  0.00     0.008 A 
ATOM     27  C   UNL A   1      33.102  16.442  25.632  1.00  0.00     0.001 A 
ATOM     28  C   UNL A   1      33.729  16.778  23.332  1.00  0.00     0.001 A 
ATOM     29  C   UNL A   1      33.637  15.949  24.444  1.00  0.00     0.000 A 
ENDBRANCH  23  24
ENDBRANCH  14  16
ENDBRANCH   7   9
ENDBRANCH   4   7
ENDBRANCH   2   3
ENDBRANCH   1   2
BRANCH   1  30
ATOM     30  C   UNL A   1      31.920  30.986  26.521  1.00  0.00     0.118 C 
BRANCH  30  31
ATOM     31  N   UNL A   1      32.019  32.362  26.981  1.00  0.00    -0.352 N 
ATOM     32  C   UNL A   1      33.008  33.016  27.684  1.00  0.00     0.251 C 
ATOM     33  H   UNL A   1      31.244  32.925  26.751  1.00  0.00     0.163 HD
ATOM     34  O   UNL A   1      32.825  34.188  28.008  1.00  0.00    -0.269 OA
BRANCH  32  35
ATOM     35  C   UNL A   1      34.251  32.325  28.105  1.00  0.00     0.039 A 
ATOM     36  C   UNL A   1      35.340  33.106  28.511  1.00  0.00     0.014 A 
ATOM     37  C   UNL A   1      34.369  30.934  28.111  1.00  0.00     0.014 A 
ATOM     38  C   UNL A   1      36.486  32.497  29.035  1.00  0.00     0.010 A 
ATOM     39  C   UNL A   1      35.478  30.330  28.708  1.00  0.00     0.010 A 
ATOM     40  C   UNL A   1      36.536  31.105  29.206  1.00  0.00    -0.014 A 
BRANCH  40  41
ATOM     41  C   UNL A   1      37.641  30.451  29.963  1.00  0.00     0.031 A 
ATOM     42  C   UNL A   1      37.915  30.807  31.398  1.00  0.00     0.074 A 
ATOM     43  C   UNL A   1      38.469  29.600  29.322  1.00  0.00     0.049 A 
ATOM     44  N   UNL A   1      38.914  30.444  32.161  1.00  0.00    -0.248 NA
ATOM     45  C   UNL A   1      36.952  31.704  32.054  1.00  0.00     0.031 C 
ATOM     46  C   UNL A   1      38.339  29.183  27.924  1.00  0.00     0.029 A 
ATOM     47  N   UNL A   1      39.602  28.949  29.753  1.00  0.00    -0.354 N 
ATOM     48  C   UNL A   1      38.712  31.074  33.383  1.00  0.00     0.074 A 
ATOM     49  C   UNL A   1      37.513  31.876  33.244  1.00  0.00     0.031 C 
ATOM     50  C   UNL A   1      39.347  28.354  27.619  1.00  0.00     0.029 A 
ATOM     51  C   UNL A   1      40.233  28.227  28.767  1.00  0.00     0.049 A 
ATOM     52  H   UNL A   1      39.929  28.995  30.681  1.00  0.00     0.167 HD
ATOM     53  C   UNL A   1      39.445  30.978  34.519  1.00  0.00     0.034 A 
ATOM     54  C   UNL A   1      41.407  27.566  28.761  1.00  0.00     0.034 A 
ATOM     55  C   UNL A   1      40.621  30.153  34.663  1.00  0.00     0.049 A 
ATOM     56  C   UNL A   1      42.228  27.518  30.019  1.00  0.00     0.074 A 
ATOM     57  C   UNL A   1      41.360  29.904  35.807  1.00  0.00     0.029 A 
ATOM     58  N   UNL A   1      41.240  29.458  33.635  1.00  0.00    -0.354 N 
ATOM     59  N   UNL A   1      41.983  28.071  31.183  1.00  0.00    -0.248 NA
ATOM     60  C   UNL A   1      43.479  26.750  29.966  1.00  0.00     0.031 C 
ATOM     61  C   UNL A   1      42.460  29.112  35.458  1.00  0.00     0.029 A 
ATOM     62  C   UNL A   1      42.375  28.817  34.109  1.00  0.00     0.049 A 
ATOM     63  H   UNL A   1      40.919  29.423  32.704  1.00  0.00     0.167 HD
ATOM     64  C   UNL A   1      43.040  27.698  32.005  1.00  0.00     0.074 A 
ATOM     65  C   UNL A   1      43.917  26.864  31.209  1.00  0.00     0.031 C 
ATOM     66  C   UNL A   1      43.262  28.014  33.305  1.00  0.00     0.034 A 
BRANCH  53  67
ATOM     67  C   UNL A   1      39.011  31.804  35.701  1.00  0.00     0.023 A 
ATOM     68  C   UNL A   1      38.268  31.248  36.756  1.00  0.00     0.031 A 
ATOM     69  C   UNL A   1      39.367  33.161  35.782  1.00  0.00     0.131 A 
ATOM     70  C   UNL A   1      37.861  32.059  37.825  1.00  0.00     0.055 A 
ATOM     71  C   UNL A   1      39.012  33.948  36.880  1.00  0.00     0.041 A 
ATOM     72  F   UNL A   1      40.063  33.745  34.795  1.00  0.00    -0.206 F 
ATOM     73  C   UNL A   1      38.248  33.400  37.905  1.00  0.00     0.022 A 
BRANCH  70  74
ATOM     74  S   UNL A   1      36.745  31.360  39.070  1.00  0.00     0.124 S 
ATOM     75  O   UNL A   1      36.459  30.045  38.503  1.00  0.00    -0.237 OA
ATOM     76  O   UNL A   1      37.567  31.370  40.274  1.00  0.00    -0.237 OA
ATOM     77  O   UNL A   1      35.616  32.288  39.079  1.00  0.00    -0.744 OA
ENDBRANCH  70  74
ENDBRANCH  53  67
BRANCH  54  78
ATOM     78  C   UNL A   1      41.929  26.947  27.510  1.00  0.00     0.023 A 
ATOM     79  C   UNL A   1      41.867  25.562  27.303  1.00  0.00     0.031 A 
ATOM     80  C   UNL A   1      42.578  27.735  26.542  1.00  0.00     0.131 A 
ATOM     81  C   UNL A   1      42.490  24.997  26.179  1.00  0.00     0.055 A 
ATOM     82  C   UNL A   1      43.160  27.173  25.405  1.00  0.00     0.041 A 
ATOM     83  F   UNL A   1      42.648  29.068  26.688  1.00  0.00    -0.206 F 
ATOM     84  C   UNL A   1      43.129  25.794  25.226  1.00  0.00     0.022 A 
BRANCH  81  85
ATOM     85  S   UNL A   1      42.528  23.191  26.026  1.00  0.00     0.124 S 
ATOM     86  O   UNL A   1      41.131  22.843  26.258  1.00  0.00    -0.237 OA
ATOM     87  O   UNL A   1      43.016  23.017  24.662  1.00  0.00    -0.237 OA
ATOM     88  O   UNL A   1      43.460  22.782  27.075  1.00  0.00    -0.744 OA
ENDBRANCH  81  85
ENDBRANCH  54  78
BRANCH  66  89
ATOM     89  C   UNL A   1      44.492  27.426  33.942  1.00  0.00     0.023 A 
ATOM     90  C   UNL A   1      44.473  26.150  34.532  1.00  0.00     0.031 A 
ATOM     91  C   UNL A   1      45.685  28.168  33.999  1.00  0.00     0.131 A 
ATOM     92  C   UNL A   1      45.610  25.674  35.200  1.00  0.00     0.055 A 
ATOM     93  C   UNL A   1      46.830  27.667  34.619  1.00  0.00     0.041 A 
ATOM     94  F   UNL A   1      45.753  29.395  33.459  1.00  0.00    -0.206 F 
ATOM     95  C   UNL A   1      46.794  26.418  35.235  1.00  0.00     0.022 A 
BRANCH  92  96
ATOM     96  S   UNL A   1      45.498  24.102  36.096  1.00  0.00     0.124 S 
ATOM     97  O   UNL A   1      44.155  23.650  35.748  1.00  0.00    -0.237 OA
ATOM     98  O   UNL A   1      46.597  23.334  35.521  1.00  0.00    -0.237 OA
ATOM     99  O   UNL A   1      45.679  24.489  37.494  1.00  0.00    -0.744 OA
ENDBRANCH  92  96
ENDBRANCH  66  89
ENDBRANCH  40  41
ENDBRANCH  32  35
ENDBRANCH  30  31
ENDBRANCH   1  30
TORSDOF 16
ENDMDL
MODEL 3
REMARK VINA RESULT:     -13.3      2.472      7.957
REMARK SMILES C[C@H](C(=O)NCCCNC(=O)c1ccc(-c2c3nc(c(-c4cc(S(=O)(=O)[O-])ccc4F)c4ccc([nH]4)c(-c4cc(S(=O)(=O)[O-])ccc4F)c4nc(c(-c5cc(S(=O)(=O)[O-])ccc5F)c5ccc2[nH]5)C=C4)C=C3)cc1)N1C(=O)C[C@@H](N2C(=O)/C(=C/c3ccccc3)SC2=S)C1=O
REMARK SMILES IDX 7 1 6 2 5 3 3 4 4 5 2 7 1 8 75 9 76 10 94 11 77 12 78 13
REMARK SMILES IDX 79 14 95 15 80 16 81 17 92 18 82 19 83 20 91 21 93 22 84 23
REMARK SMILES IDX 85 24 86 25 90 26 87 27 89 28 88 29 8 30 9 31 10 32 11 34
REMARK SMILES IDX 12 35 13 36 74 37 14 38 73 39 15 40 16 41 17 42 67 43 18 44
REMARK SMILES IDX 72 45 66 46 68 47 19 48 71 49 65 50 64 51 20 53 52 54 32 55
REMARK SMILES IDX 51 56 33 57 36 58 50 59 69 60 34 61 35 62 49 64 70 65 37 66
REMARK SMILES IDX 21 67 22 68 30 69 23 70 29 71 31 72 28 73 24 74 25 75 26 76
REMARK SMILES IDX 27 77 53 78 54 79 62 80 55 81 61 82 63 83 60 84 56 85 57 86
REMARK SMILES IDX 58 87 59 88 38 89 39 90 47 91 40 92 46 93 48 94 45 95 41 96
REMARK SMILES IDX 42 97 43 98 44 99
REMARK H PARENT 5 6 9 33 68 52 36 63
REMARK Flexibility Score: inf
ROOT
ATOM      1  C   UNL A   1      32.024  29.223  26.494  1.00  0.00     0.042 C 
ENDROOT
BRANCH   1   2
ATOM      2  C   UNL A   1      31.457  29.552  25.122  1.00  0.00     0.117 C 
BRANCH   2   3
ATOM      3  N   UNL A   1      32.358  29.312  24.014  1.00  0.00    -0.354 N 
ATOM      4  C   UNL A   1      32.399  28.317  23.087  1.00  0.00     0.243 C 
ATOM      5  O   UNL A   1      33.182  28.493  22.142  1.00  0.00    -0.273 OA
ATOM      6  H   UNL A   1      33.066  29.989  23.913  1.00  0.00     0.163 HD
BRANCH   4   7
ATOM      7  C   UNL A   1      31.757  26.920  23.272  1.00  0.00     0.179 C 
ATOM      8  C   UNL A   1      32.040  26.172  21.953  1.00  0.00     0.042 C 
BRANCH   7   9
ATOM      9  N   UNL A   1      32.075  26.079  24.430  1.00  0.00    -0.268 N 
ATOM     10  C   UNL A   1      31.140  25.814  25.399  1.00  0.00     0.232 C 
ATOM     11  C   UNL A   1      33.323  25.817  24.917  1.00  0.00     0.253 C 
ATOM     12  O   UNL A   1      30.001  26.255  25.466  1.00  0.00    -0.274 OA
ATOM     13  C   UNL A   1      31.760  25.019  26.511  1.00  0.00     0.136 C 
ATOM     14  C   UNL A   1      33.190  24.815  26.048  1.00  0.00     0.191 C 
ATOM     15  O   UNL A   1      34.390  26.233  24.493  1.00  0.00    -0.272 OA
BRANCH  14  16
ATOM     16  N   UNL A   1      33.524  23.445  25.601  1.00  0.00    -0.280 N 
ATOM     17  C   UNL A   1      32.521  22.583  25.184  1.00  0.00     0.266 C 
ATOM     18  C   UNL A   1      34.807  22.935  25.546  1.00  0.00     0.149 C 
ATOM     19  O   UNL A   1      31.340  22.877  25.056  1.00  0.00    -0.268 OA
ATOM     20  C   UNL A   1      33.057  21.230  24.915  1.00  0.00     0.081 C 
ATOM     21  S   UNL A   1      34.764  21.244  25.056  1.00  0.00    -0.054 SA
ATOM     22  S   UNL A   1      36.238  23.704  25.918  1.00  0.00    -0.052 S 
ATOM     23  C   UNL A   1      32.241  20.200  24.658  1.00  0.00     0.029 C 
BRANCH  23  24
ATOM     24  C   UNL A   1      32.636  18.796  24.524  1.00  0.00    -0.024 A 
ATOM     25  C   UNL A   1      32.710  17.977  25.651  1.00  0.00     0.008 A 
ATOM     26  C   UNL A   1      33.018  18.285  23.275  1.00  0.00     0.008 A 
ATOM     27  C   UNL A   1      33.142  16.656  25.519  1.00  0.00     0.001 A 
ATOM     28  C   UNL A   1      33.450  16.963  23.152  1.00  0.00     0.001 A 
ATOM     29  C   UNL A   1      33.510  16.147  24.276  1.00  0.00     0.000 A 
ENDBRANCH  23  24
ENDBRANCH  14  16
ENDBRANCH   7   9
ENDBRANCH   4   7
ENDBRANCH   2   3
ENDBRANCH   1   2
BRANCH   1  30
ATOM     30  C   UNL A   1      33.481  29.600  26.730  1.00  0.00     0.118 C 
BRANCH  30  31
ATOM     31  N   UNL A   1      33.671  30.883  27.388  1.00  0.00    -0.352 N 
ATOM     32  C   UNL A   1      34.695  31.355  28.180  1.00  0.00     0.251 C 
ATOM     33  H   UNL A   1      32.940  31.527  27.243  1.00  0.00     0.163 HD
ATOM     34  O   UNL A   1      34.592  32.477  28.674  1.00  0.00    -0.269 OA
BRANCH  32  35
ATOM     35  C   UNL A   1      35.882  30.523  28.496  1.00  0.00     0.039 A 
ATOM     36  C   UNL A   1      36.994  30.605  27.649  1.00  0.00     0.014 A 
ATOM     37  C   UNL A   1      35.927  29.671  29.601  1.00  0.00     0.014 A 
ATOM     38  C   UNL A   1      38.179  29.937  27.978  1.00  0.00     0.010 A 
ATOM     39  C   UNL A   1      37.132  29.071  29.971  1.00  0.00     0.010 A 
ATOM     40  C   UNL A   1      38.282  29.222  29.181  1.00  0.00    -0.014 A 
BRANCH  40  41
ATOM     41  C   UNL A   1      39.587  28.691  29.665  1.00  0.00     0.031 A 
ATOM     42  C   UNL A   1      40.363  29.403  30.739  1.00  0.00     0.074 A 
ATOM     43  C   UNL A   1      40.129  27.612  29.062  1.00  0.00     0.049 A 
ATOM     44  N   UNL A   1      41.572  29.163  31.178  1.00  0.00    -0.248 NA
ATOM     45  C   UNL A   1      39.702  30.544  31.389  1.00  0.00     0.031 C 
ATOM     46  C   UNL A   1      39.501  26.838  27.989  1.00  0.00     0.029 A 
ATOM     47  N   UNL A   1      41.342  26.991  29.246  1.00  0.00    -0.354 N 
ATOM     48  C   UNL A   1      41.826  30.127  32.147  1.00  0.00     0.074 A 
ATOM     49  C   UNL A   1      40.657  30.981  32.200  1.00  0.00     0.031 C 
ATOM     50  C   UNL A   1      40.332  25.854  27.615  1.00  0.00     0.029 A 
ATOM     51  C   UNL A   1      41.574  25.959  28.366  1.00  0.00     0.049 A 
ATOM     52  H   UNL A   1      41.984  27.259  29.943  1.00  0.00     0.167 HD
ATOM     53  C   UNL A   1      42.922  30.275  32.930  1.00  0.00     0.034 A 
ATOM     54  C   UNL A   1      42.668  25.203  28.151  1.00  0.00     0.034 A 
ATOM     55  C   UNL A   1      44.072  29.403  32.896  1.00  0.00     0.049 A 
ATOM     56  C   UNL A   1      43.889  25.421  28.998  1.00  0.00     0.074 A 
ATOM     57  C   UNL A   1      45.177  29.406  33.731  1.00  0.00     0.029 A 
ATOM     58  N   UNL A   1      44.277  28.386  31.975  1.00  0.00    -0.354 N 
ATOM     59  N   UNL A   1      44.082  26.299  29.952  1.00  0.00    -0.248 NA
ATOM     60  C   UNL A   1      45.038  24.540  28.745  1.00  0.00     0.031 C 
ATOM     61  C   UNL A   1      46.078  28.436  33.276  1.00  0.00     0.029 A 
ATOM     62  C   UNL A   1      45.509  27.787  32.193  1.00  0.00     0.049 A 
ATOM     63  H   UNL A   1      43.640  28.128  31.270  1.00  0.00     0.167 HD
ATOM     64  C   UNL A   1      45.367  26.061  30.427  1.00  0.00     0.074 A 
ATOM     65  C   UNL A   1      45.897  24.949  29.664  1.00  0.00     0.031 C 
ATOM     66  C   UNL A   1      46.045  26.702  31.411  1.00  0.00     0.034 A 
BRANCH  53  67
ATOM     67  C   UNL A   1      42.945  31.440  33.885  1.00  0.00     0.023 A 
ATOM     68  C   UNL A   1      42.354  31.361  35.158  1.00  0.00     0.031 A 
ATOM     69  C   UNL A   1      43.588  32.636  33.524  1.00  0.00     0.131 A 
ATOM     70  C   UNL A   1      42.375  32.478  36.005  1.00  0.00     0.055 A 
ATOM     71  C   UNL A   1      43.660  33.723  34.397  1.00  0.00     0.041 A 
ATOM     72  F   UNL A   1      44.155  32.768  32.315  1.00  0.00    -0.206 F 
ATOM     73  C   UNL A   1      43.043  33.651  35.643  1.00  0.00     0.022 A 
BRANCH  70  74
ATOM     74  S   UNL A   1      41.441  32.408  37.557  1.00  0.00     0.124 S 
ATOM     75  O   UNL A   1      41.385  33.819  37.931  1.00  0.00    -0.237 OA
ATOM     76  O   UNL A   1      40.179  31.807  37.140  1.00  0.00    -0.237 OA
ATOM     77  O   UNL A   1      42.273  31.572  38.421  1.00  0.00    -0.744 OA
ENDBRANCH  70  74
ENDBRANCH  53  67
BRANCH  54  78
ATOM     78  C   UNL A   1      42.701  24.207  27.042  1.00  0.00     0.023 A 
ATOM     79  C   UNL A   1      42.114  22.941  27.182  1.00  0.00     0.031 A 
ATOM     80  C   UNL A   1      43.402  24.487  25.854  1.00  0.00     0.131 A 
ATOM     81  C   UNL A   1      42.283  21.980  26.174  1.00  0.00     0.055 A 
ATOM     82  C   UNL A   1      43.531  23.540  24.836  1.00  0.00     0.041 A 
ATOM     83  F   UNL A   1      43.966  25.690  25.667  1.00  0.00    -0.206 F 
ATOM     84  C   UNL A   1      42.981  22.274  24.999  1.00  0.00     0.022 A 
BRANCH  81  85
ATOM     85  S   UNL A   1      41.648  20.306  26.459  1.00  0.00     0.124 S 
ATOM     86  O   UNL A   1      42.155  20.018  27.796  1.00  0.00    -0.237 OA
ATOM     87  O   UNL A   1      40.208  20.509  26.347  1.00  0.00    -0.237 OA
ATOM     88  O   UNL A   1      42.250  19.527  25.378  1.00  0.00    -0.744 OA
ENDBRANCH  81  85
ENDBRANCH  54  78
BRANCH  66  89
ATOM     89  C   UNL A   1      47.424  26.188  31.726  1.00  0.00     0.023 A 
ATOM     90  C   UNL A   1      47.639  25.243  32.744  1.00  0.00     0.031 A 
ATOM     91  C   UNL A   1      48.542  26.681  31.029  1.00  0.00     0.131 A 
ATOM     92  C   UNL A   1      48.947  24.859  33.074  1.00  0.00     0.055 A 
ATOM     93  C   UNL A   1      49.836  26.255  31.325  1.00  0.00     0.041 A 
ATOM     94  F   UNL A   1      48.391  27.592  30.053  1.00  0.00    -0.206 F 
ATOM     95  C   UNL A   1      50.046  25.348  32.362  1.00  0.00     0.022 A 
BRANCH  92  96
ATOM     96  S   UNL A   1      49.200  23.772  34.503  1.00  0.00     0.124 S 
ATOM     97  O   UNL A   1      50.249  22.879  34.021  1.00  0.00    -0.237 OA
ATOM     98  O   UNL A   1      49.594  24.713  35.547  1.00  0.00    -0.237 OA
ATOM     99  O   UNL A   1      47.893  23.147  34.695  1.00  0.00    -0.744 OA
ENDBRANCH  92  96
ENDBRANCH  66  89
ENDBRANCH  40  41
ENDBRANCH  32  35
ENDBRANCH  30  31
ENDBRANCH   1  30
TORSDOF 16
ENDMDL
