MODEL 1
REMARK VINA RESULT:     -13.4      0.000      0.000
REMARK SMILES O=C1Nc2ccccc2/C1=C/c1cccc(C(=O)NCCCNC(=O)c2ccc(-c3c4nc(c(-c5cc(S(=O)(=O)[O-])ccc5F)c5ccc([nH]5)c(-c5cc(S(=O)(=O)[O-])ccc5F)c5nc(c(-c6cc(S(=O)(=O)[O-])ccc6F)c6ccc3[nH]6)C=C5)C=C4)cc2)c1
REMARK SMILES IDX 22 1 21 2 20 3 19 4 17 5 18 6 16 8 12 9 13 10 89 11 14 12
REMARK SMILES IDX 15 13 11 14 1 15 2 16 3 17 10 18 4 19 9 21 5 22 8 23 6 24
REMARK SMILES IDX 7 25 23 26 24 27 25 29 26 30 27 31 88 32 28 33 87 34 29 35
REMARK SMILES IDX 30 36 31 37 81 38 32 39 86 40 80 41 82 42 33 43 85 44 79 45
REMARK SMILES IDX 78 46 34 48 66 49 46 50 65 51 47 52 50 53 64 54 83 55 48 56
REMARK SMILES IDX 49 57 63 59 84 60 51 61 35 62 36 63 44 64 37 65 43 66 45 67
REMARK SMILES IDX 42 68 38 69 39 70 40 71 41 72 67 73 68 74 76 75 69 76 75 77
REMARK SMILES IDX 77 78 74 79 70 80 71 81 72 82 73 83 52 84 53 85 61 86 54 87
REMARK SMILES IDX 60 88 62 89 59 90 55 91 56 92 57 93 58 94
REMARK H PARENT 19 7 3 20 23 28 82 47 50 58
REMARK Flexibility Score: inf
ROOT
ATOM      1  C   UNL A   1      36.280  22.019  25.728  1.00  0.00     0.118 C 
ENDROOT
BRANCH   1   2
ATOM      2  C   UNL A   1      34.971  21.630  26.408  1.00  0.00     0.042 C 
BRANCH   2   3
ATOM      3  C   UNL A   1      33.773  21.682  25.458  1.00  0.00     0.118 C 
BRANCH   3   4
ATOM      4  N   UNL A   1      34.180  22.094  24.125  1.00  0.00    -0.352 N 
ATOM      5  C   UNL A   1      34.189  23.306  23.478  1.00  0.00     0.251 C 
ATOM      6  O   UNL A   1      34.658  23.328  22.339  1.00  0.00    -0.269 OA
ATOM      7  H   UNL A   1      34.519  21.353  23.572  1.00  0.00     0.163 HD
BRANCH   5   8
ATOM      8  C   UNL A   1      33.717  24.584  24.088  1.00  0.00     0.040 A 
ATOM      9  C   UNL A   1      32.125  26.408  24.352  1.00  0.00    -0.024 A 
ATOM     10  C   UNL A   1      32.806  26.861  25.479  1.00  0.00     0.008 A 
ATOM     11  C   UNL A   1      32.641  25.330  23.617  1.00  0.00     0.022 A 
ATOM     12  C   UNL A   1      33.960  26.197  25.899  1.00  0.00     0.001 A 
ATOM     13  C   UNL A   1      34.395  25.052  25.223  1.00  0.00     0.014 A 
BRANCH   9  14
ATOM     14  C   UNL A   1      30.842  26.981  23.930  1.00  0.00     0.022 C 
ATOM     15  O   UNL A   1      33.063  28.516  22.407  1.00  0.00    -0.269 OA
ATOM     16  C   UNL A   1      31.881  28.783  22.428  1.00  0.00     0.256 C 
ATOM     17  N   UNL A   1      31.277  29.849  21.780  1.00  0.00    -0.321 N 
ATOM     18  C   UNL A   1      30.748  28.060  23.134  1.00  0.00     0.050 C 
ATOM     19  C   UNL A   1      29.906  29.872  22.004  1.00  0.00     0.049 A 
ATOM     20  H   UNL A   1      31.758  30.509  21.231  1.00  0.00     0.170 HD
ATOM     21  C   UNL A   1      29.520  28.800  22.819  1.00  0.00     0.011 A 
ATOM     22  C   UNL A   1      29.013  30.813  21.533  1.00  0.00     0.027 A 
ATOM     23  C   UNL A   1      28.200  28.662  23.207  1.00  0.00     0.011 A 
ATOM     24  C   UNL A   1      27.679  30.673  21.917  1.00  0.00     0.002 A 
ATOM     25  C   UNL A   1      27.277  29.610  22.749  1.00  0.00     0.001 A 
ENDBRANCH   9  14
ENDBRANCH   5   8
ENDBRANCH   3   4
ENDBRANCH   2   3
ENDBRANCH   1   2
BRANCH   1  26
ATOM     26  N   UNL A   1      37.273  20.956  25.832  1.00  0.00    -0.352 N 
ATOM     27  C   UNL A   1      38.638  21.027  25.956  1.00  0.00     0.251 C 
ATOM     28  H   UNL A   1      36.906  20.043  25.809  1.00  0.00     0.163 HD
ATOM     29  O   UNL A   1      39.309  20.022  25.735  1.00  0.00    -0.269 OA
BRANCH  27  30
ATOM     30  C   UNL A   1      39.293  22.295  26.343  1.00  0.00     0.039 A 
ATOM     31  C   UNL A   1      40.371  22.254  27.231  1.00  0.00     0.014 A 
ATOM     32  C   UNL A   1      38.822  23.522  25.870  1.00  0.00     0.014 A 
ATOM     33  C   UNL A   1      41.008  23.441  27.600  1.00  0.00     0.010 A 
ATOM     34  C   UNL A   1      39.512  24.693  26.170  1.00  0.00     0.010 A 
ATOM     35  C   UNL A   1      40.607  24.666  27.045  1.00  0.00    -0.014 A 
BRANCH  35  36
ATOM     36  C   UNL A   1      41.315  25.930  27.375  1.00  0.00     0.031 A 
ATOM     37  C   UNL A   1      40.629  26.990  28.195  1.00  0.00     0.074 A 
ATOM     38  C   UNL A   1      42.552  26.144  26.887  1.00  0.00     0.049 A 
ATOM     39  N   UNL A   1      41.052  28.182  28.527  1.00  0.00    -0.248 NA
ATOM     40  C   UNL A   1      39.275  26.676  28.674  1.00  0.00     0.031 C 
ATOM     41  C   UNL A   1      43.304  25.203  26.052  1.00  0.00     0.029 A 
ATOM     42  N   UNL A   1      43.397  27.217  27.017  1.00  0.00    -0.354 N 
ATOM     43  C   UNL A   1      40.014  28.765  29.247  1.00  0.00     0.074 A 
ATOM     44  C   UNL A   1      38.916  27.821  29.233  1.00  0.00     0.031 C 
ATOM     45  C   UNL A   1      44.510  25.724  25.779  1.00  0.00     0.029 A 
ATOM     46  C   UNL A   1      44.598  27.056  26.367  1.00  0.00     0.049 A 
ATOM     47  H   UNL A   1      43.165  28.026  27.528  1.00  0.00     0.167 HD
ATOM     48  C   UNL A   1      39.988  29.963  29.884  1.00  0.00     0.034 A 
ATOM     49  C   UNL A   1      45.648  27.893  26.248  1.00  0.00     0.034 A 
ATOM     50  C   UNL A   1      41.095  30.889  29.881  1.00  0.00     0.049 A 
ATOM     51  C   UNL A   1      45.579  29.242  26.918  1.00  0.00     0.074 A 
ATOM     52  C   UNL A   1      41.199  32.111  30.524  1.00  0.00     0.029 A 
ATOM     53  N   UNL A   1      42.288  30.704  29.192  1.00  0.00    -0.354 N 
ATOM     54  N   UNL A   1      44.608  29.761  27.633  1.00  0.00    -0.248 NA
ATOM     55  C   UNL A   1      46.751  30.113  26.769  1.00  0.00     0.031 C 
ATOM     56  C   UNL A   1      42.414  32.698  30.156  1.00  0.00     0.029 A 
ATOM     57  C   UNL A   1      43.115  31.804  29.362  1.00  0.00     0.049 A 
ATOM     58  H   UNL A   1      42.514  29.906  28.660  1.00  0.00     0.167 HD
ATOM     59  C   UNL A   1      45.068  31.007  28.050  1.00  0.00     0.074 A 
ATOM     60  C   UNL A   1      46.408  31.152  27.515  1.00  0.00     0.031 C 
ATOM     61  C   UNL A   1      44.444  31.944  28.810  1.00  0.00     0.034 A 
BRANCH  48  62
ATOM     62  C   UNL A   1      38.712  30.340  30.601  1.00  0.00     0.023 A 
ATOM     63  C   UNL A   1      37.653  30.983  29.936  1.00  0.00     0.031 A 
ATOM     64  C   UNL A   1      38.566  30.099  31.979  1.00  0.00     0.131 A 
ATOM     65  C   UNL A   1      36.546  31.449  30.660  1.00  0.00     0.055 A 
ATOM     66  C   UNL A   1      37.417  30.478  32.677  1.00  0.00     0.041 A 
ATOM     67  F   UNL A   1      39.548  29.508  32.679  1.00  0.00    -0.206 F 
ATOM     68  C   UNL A   1      36.406  31.176  32.022  1.00  0.00     0.022 A 
BRANCH  65  69
ATOM     69  S   UNL A   1      35.385  32.572  29.835  1.00  0.00     0.124 S 
ATOM     70  O   UNL A   1      36.211  33.764  29.648  1.00  0.00    -0.237 OA
ATOM     71  O   UNL A   1      35.040  31.837  28.625  1.00  0.00    -0.237 OA
ATOM     72  O   UNL A   1      34.303  32.722  30.807  1.00  0.00    -0.744 OA
ENDBRANCH  65  69
ENDBRANCH  48  62
BRANCH  49  73
ATOM     73  C   UNL A   1      46.851  27.485  25.466  1.00  0.00     0.023 A 
ATOM     74  C   UNL A   1      47.011  27.883  24.130  1.00  0.00     0.031 A 
ATOM     75  C   UNL A   1      47.846  26.669  26.035  1.00  0.00     0.131 A 
ATOM     76  C   UNL A   1      48.117  27.431  23.393  1.00  0.00     0.055 A 
ATOM     77  C   UNL A   1      48.973  26.269  25.315  1.00  0.00     0.041 A 
ATOM     78  F   UNL A   1      47.744  26.263  27.311  1.00  0.00    -0.206 F 
ATOM     79  C   UNL A   1      49.107  26.640  23.981  1.00  0.00     0.022 A 
BRANCH  76  80
ATOM     80  S   UNL A   1      48.203  27.826  21.625  1.00  0.00     0.124 S 
ATOM     81  O   UNL A   1      46.824  28.208  21.339  1.00  0.00    -0.237 OA
ATOM     82  O   UNL A   1      49.186  28.904  21.603  1.00  0.00    -0.237 OA
ATOM     83  O   UNL A   1      48.643  26.572  21.018  1.00  0.00    -0.744 OA
ENDBRANCH  76  80
ENDBRANCH  49  73
BRANCH  61  84
ATOM     84  C   UNL A   1      45.229  33.189  29.147  1.00  0.00     0.023 A 
ATOM     85  C   UNL A   1      45.187  34.338  28.338  1.00  0.00     0.031 A 
ATOM     86  C   UNL A   1      46.042  33.221  30.295  1.00  0.00     0.131 A 
ATOM     87  C   UNL A   1      45.991  35.445  28.651  1.00  0.00     0.055 A 
ATOM     88  C   UNL A   1      46.783  34.352  30.641  1.00  0.00     0.041 A 
ATOM     89  F   UNL A   1      46.129  32.152  31.103  1.00  0.00    -0.206 F 
ATOM     90  C   UNL A   1      46.772  35.467  29.810  1.00  0.00     0.022 A 
BRANCH  87  91
ATOM     91  S   UNL A   1      46.087  36.815  27.466  1.00  0.00     0.124 S 
ATOM     92  O   UNL A   1      44.905  37.597  27.812  1.00  0.00    -0.237 OA
ATOM     93  O   UNL A   1      47.372  37.423  27.795  1.00  0.00    -0.237 OA
ATOM     94  O   UNL A   1      46.032  36.149  26.167  1.00  0.00    -0.744 OA
ENDBRANCH  87  91
ENDBRANCH  61  84
ENDBRANCH  35  36
ENDBRANCH  27  30
ENDBRANCH   1  26
TORSDOF 14
ENDMDL
MODEL 2
REMARK VINA RESULT:     -13.2      5.663     11.144
REMARK SMILES O=C1Nc2ccccc2/C1=C/c1cccc(C(=O)NCCCNC(=O)c2ccc(-c3c4nc(c(-c5cc(S(=O)(=O)[O-])ccc5F)c5ccc([nH]5)c(-c5cc(S(=O)(=O)[O-])ccc5F)c5nc(c(-c6cc(S(=O)(=O)[O-])ccc6F)c6ccc3[nH]6)C=C5)C=C4)cc2)c1
REMARK SMILES IDX 22 1 21 2 20 3 19 4 17 5 18 6 16 8 12 9 13 10 89 11 14 12
REMARK SMILES IDX 15 13 11 14 1 15 2 16 3 17 10 18 4 19 9 21 5 22 8 23 6 24
REMARK SMILES IDX 7 25 23 26 24 27 25 29 26 30 27 31 88 32 28 33 87 34 29 35
REMARK SMILES IDX 30 36 31 37 81 38 32 39 86 40 80 41 82 42 33 43 85 44 79 45
REMARK SMILES IDX 78 46 34 48 66 49 46 50 65 51 47 52 50 53 64 54 83 55 48 56
REMARK SMILES IDX 49 57 63 59 84 60 51 61 35 62 36 63 44 64 37 65 43 66 45 67
REMARK SMILES IDX 42 68 38 69 39 70 40 71 41 72 67 73 68 74 76 75 69 76 75 77
REMARK SMILES IDX 77 78 74 79 70 80 71 81 72 82 73 83 52 84 53 85 61 86 54 87
REMARK SMILES IDX 60 88 62 89 59 90 55 91 56 92 57 93 58 94
REMARK H PARENT 19 7 3 20 23 28 82 47 50 58
REMARK Flexibility Score: inf
ROOT
ATOM      1  C   UNL A   1      32.633  32.431  27.246  1.00  0.00     0.118 C 
ENDROOT
BRANCH   1   2
ATOM      2  C   UNL A   1      31.400  31.925  26.502  1.00  0.00     0.042 C 
BRANCH   2   3
ATOM      3  C   UNL A   1      31.579  30.507  25.958  1.00  0.00     0.118 C 
BRANCH   3   4
ATOM      4  N   UNL A   1      31.030  30.389  24.617  1.00  0.00    -0.352 N 
ATOM      5  C   UNL A   1      30.722  29.314  23.820  1.00  0.00     0.251 C 
ATOM      6  O   UNL A   1      30.209  29.558  22.726  1.00  0.00    -0.269 OA
ATOM      7  H   UNL A   1      30.841  31.257  24.193  1.00  0.00     0.163 HD
BRANCH   5   8
ATOM      8  C   UNL A   1      30.923  27.889  24.220  1.00  0.00     0.040 A 
ATOM      9  C   UNL A   1      32.293  26.001  24.919  1.00  0.00    -0.024 A 
ATOM     10  C   UNL A   1      31.150  25.255  25.199  1.00  0.00     0.008 A 
ATOM     11  C   UNL A   1      32.165  27.276  24.346  1.00  0.00     0.022 A 
ATOM     12  C   UNL A   1      29.891  25.810  24.963  1.00  0.00     0.001 A 
ATOM     13  C   UNL A   1      29.780  27.126  24.503  1.00  0.00     0.014 A 
BRANCH   9  14
ATOM     14  C   UNL A   1      33.639  25.527  25.258  1.00  0.00     0.022 C 
ATOM     15  O   UNL A   1      32.892  24.258  22.529  1.00  0.00    -0.269 OA
ATOM     16  C   UNL A   1      33.868  24.006  23.204  1.00  0.00     0.256 C 
ATOM     17  N   UNL A   1      34.851  23.079  22.896  1.00  0.00    -0.321 N 
ATOM     18  C   UNL A   1      34.296  24.607  24.530  1.00  0.00     0.050 C 
ATOM     19  C   UNL A   1      35.834  23.034  23.876  1.00  0.00     0.049 A 
ATOM     20  H   UNL A   1      34.852  22.521  22.086  1.00  0.00     0.170 HD
ATOM     21  C   UNL A   1      35.556  23.950  24.899  1.00  0.00     0.011 A 
ATOM     22  C   UNL A   1      36.935  22.202  23.897  1.00  0.00     0.027 A 
ATOM     23  C   UNL A   1      36.384  24.033  26.002  1.00  0.00     0.011 A 
ATOM     24  C   UNL A   1      37.778  22.288  25.005  1.00  0.00     0.002 A 
ATOM     25  C   UNL A   1      37.503  23.192  26.050  1.00  0.00     0.001 A 
ENDBRANCH   9  14
ENDBRANCH   5   8
ENDBRANCH   3   4
ENDBRANCH   2   3
ENDBRANCH   1   2
BRANCH   1  26
ATOM     26  N   UNL A   1      32.527  33.854  27.549  1.00  0.00    -0.352 N 
ATOM     27  C   UNL A   1      33.119  34.595  28.541  1.00  0.00     0.251 C 
ATOM     28  H   UNL A   1      31.939  34.363  26.946  1.00  0.00     0.163 HD
ATOM     29  O   UNL A   1      32.673  35.710  28.797  1.00  0.00    -0.269 OA
BRANCH  27  30
ATOM     30  C   UNL A   1      34.270  34.057  29.297  1.00  0.00     0.039 A 
ATOM     31  C   UNL A   1      34.030  33.206  30.379  1.00  0.00     0.014 A 
ATOM     32  C   UNL A   1      35.578  34.423  28.972  1.00  0.00     0.014 A 
ATOM     33  C   UNL A   1      35.105  32.681  31.099  1.00  0.00     0.010 A 
ATOM     34  C   UNL A   1      36.650  33.831  29.635  1.00  0.00     0.010 A 
ATOM     35  C   UNL A   1      36.424  32.961  30.711  1.00  0.00    -0.014 A 
BRANCH  35  36
ATOM     36  C   UNL A   1      37.581  32.358  31.423  1.00  0.00     0.031 A 
ATOM     37  C   UNL A   1      38.346  31.223  30.796  1.00  0.00     0.074 A 
ATOM     38  C   UNL A   1      37.903  32.795  32.655  1.00  0.00     0.049 A 
ATOM     39  N   UNL A   1      39.336  30.522  31.286  1.00  0.00    -0.248 NA
ATOM     40  C   UNL A   1      37.917  30.801  29.455  1.00  0.00     0.031 C 
ATOM     41  C   UNL A   1      37.212  33.866  33.377  1.00  0.00     0.029 A 
ATOM     42  N   UNL A   1      38.889  32.396  33.522  1.00  0.00    -0.354 N 
ATOM     43  C   UNL A   1      39.642  29.571  30.318  1.00  0.00     0.074 A 
ATOM     44  C   UNL A   1      38.681  29.741  29.249  1.00  0.00     0.031 C 
ATOM     45  C   UNL A   1      37.819  34.063  34.557  1.00  0.00     0.029 A 
ATOM     46  C   UNL A   1      38.903  33.099  34.703  1.00  0.00     0.049 A 
ATOM     47  H   UNL A   1      39.527  31.674  33.316  1.00  0.00     0.167 HD
ATOM     48  C   UNL A   1      40.649  28.661  30.308  1.00  0.00     0.034 A 
ATOM     49  C   UNL A   1      39.693  32.973  35.788  1.00  0.00     0.034 A 
ATOM     50  C   UNL A   1      41.595  28.509  31.387  1.00  0.00     0.049 A 
ATOM     51  C   UNL A   1      40.772  31.920  35.780  1.00  0.00     0.074 A 
ATOM     52  C   UNL A   1      42.678  27.651  31.471  1.00  0.00     0.029 A 
ATOM     53  N   UNL A   1      41.564  29.222  32.580  1.00  0.00    -0.354 N 
ATOM     54  N   UNL A   1      41.079  31.057  34.838  1.00  0.00    -0.248 NA
ATOM     55  C   UNL A   1      41.614  31.828  36.979  1.00  0.00     0.031 C 
ATOM     56  C   UNL A   1      43.248  27.786  32.741  1.00  0.00     0.029 A 
ATOM     57  C   UNL A   1      42.584  28.797  33.419  1.00  0.00     0.049 A 
ATOM     58  H   UNL A   1      40.913  29.928  32.799  1.00  0.00     0.167 HD
ATOM     59  C   UNL A   1      42.174  30.345  35.318  1.00  0.00     0.074 A 
ATOM     60  C   UNL A   1      42.478  30.889  36.627  1.00  0.00     0.031 C 
ATOM     61  C   UNL A   1      42.869  29.337  34.729  1.00  0.00     0.034 A 
BRANCH  48  62
ATOM     62  C   UNL A   1      40.747  27.748  29.107  1.00  0.00     0.023 A 
ATOM     63  C   UNL A   1      41.695  27.963  28.091  1.00  0.00     0.031 A 
ATOM     64  C   UNL A   1      39.851  26.676  28.946  1.00  0.00     0.131 A 
ATOM     65  C   UNL A   1      41.664  27.188  26.923  1.00  0.00     0.055 A 
ATOM     66  C   UNL A   1      39.887  25.844  27.824  1.00  0.00     0.041 A 
ATOM     67  F   UNL A   1      38.906  26.429  29.868  1.00  0.00    -0.206 F 
ATOM     68  C   UNL A   1      40.785  26.111  26.794  1.00  0.00     0.022 A 
BRANCH  65  69
ATOM     69  S   UNL A   1      42.661  27.722  25.505  1.00  0.00     0.124 S 
ATOM     70  O   UNL A   1      41.884  28.858  25.011  1.00  0.00    -0.237 OA
ATOM     71  O   UNL A   1      43.941  28.044  26.122  1.00  0.00    -0.237 OA
ATOM     72  O   UNL A   1      42.664  26.553  24.627  1.00  0.00    -0.744 OA
ENDBRANCH  65  69
ENDBRANCH  48  62
BRANCH  49  73
ATOM     73  C   UNL A   1      39.498  33.862  36.969  1.00  0.00     0.023 A 
ATOM     74  C   UNL A   1      38.892  33.381  38.140  1.00  0.00     0.031 A 
ATOM     75  C   UNL A   1      39.890  35.212  36.936  1.00  0.00     0.131 A 
ATOM     76  C   UNL A   1      38.656  34.254  39.215  1.00  0.00     0.055 A 
ATOM     77  C   UNL A   1      39.706  36.062  38.029  1.00  0.00     0.041 A 
ATOM     78  F   UNL A   1      40.478  35.723  35.842  1.00  0.00    -0.206 F 
ATOM     79  C   UNL A   1      39.074  35.586  39.173  1.00  0.00     0.022 A 
BRANCH  76  80
ATOM     80  S   UNL A   1      37.721  33.640  40.642  1.00  0.00     0.124 S 
ATOM     81  O   UNL A   1      36.531  33.089  40.002  1.00  0.00    -0.237 OA
ATOM     82  O   UNL A   1      38.648  32.673  41.219  1.00  0.00    -0.237 OA
ATOM     83  O   UNL A   1      37.499  34.841  41.445  1.00  0.00    -0.744 OA
ENDBRANCH  76  80
ENDBRANCH  49  73
BRANCH  61  84
ATOM     84  C   UNL A   1      44.060  28.793  35.482  1.00  0.00     0.023 A 
ATOM     85  C   UNL A   1      43.949  27.701  36.361  1.00  0.00     0.031 A 
ATOM     86  C   UNL A   1      45.326  29.386  35.323  1.00  0.00     0.131 A 
ATOM     87  C   UNL A   1      45.068  27.278  37.095  1.00  0.00     0.055 A 
ATOM     88  C   UNL A   1      46.450  28.913  36.000  1.00  0.00     0.041 A 
ATOM     89  F   UNL A   1      45.492  30.436  34.502  1.00  0.00    -0.206 F 
ATOM     90  C   UNL A   1      46.323  27.863  36.903  1.00  0.00     0.022 A 
BRANCH  87  91
ATOM     91  S   UNL A   1      44.840  26.023  38.385  1.00  0.00     0.124 S 
ATOM     92  O   UNL A   1      43.926  25.087  37.738  1.00  0.00    -0.237 OA
ATOM     93  O   UNL A   1      46.201  25.541  38.596  1.00  0.00    -0.237 OA
ATOM     94  O   UNL A   1      44.271  26.777  39.500  1.00  0.00    -0.744 OA
ENDBRANCH  87  91
ENDBRANCH  61  84
ENDBRANCH  35  36
ENDBRANCH  27  30
ENDBRANCH   1  26
TORSDOF 14
ENDMDL
MODEL 3
REMARK VINA RESULT:     -13.2      2.822      3.576
REMARK SMILES O=C1Nc2ccccc2/C1=C/c1cccc(C(=O)NCCCNC(=O)c2ccc(-c3c4nc(c(-c5cc(S(=O)(=O)[O-])ccc5F)c5ccc([nH]5)c(-c5cc(S(=O)(=O)[O-])ccc5F)c5nc(c(-c6cc(S(=O)(=O)[O-])ccc6F)c6ccc3[nH]6)C=C5)C=C4)cc2)c1
REMARK SMILES IDX 22 1 21 2 20 3 19 4 17 5 18 6 16 8 12 9 13 10 89 11 14 12
REMARK SMILES IDX 15 13 11 14 1 15 2 16 3 17 10 18 4 19 9 21 5 22 8 23 6 24
REMARK SMILES IDX 7 25 23 26 24 27 25 29 26 30 27 31 88 32 28 33 87 34 29 35
REMARK SMILES IDX 30 36 31 37 81 38 32 39 86 40 80 41 82 42 33 43 85 44 79 45
REMARK SMILES IDX 78 46 34 48 66 49 46 50 65 51 47 52 50 53 64 54 83 55 48 56
REMARK SMILES IDX 49 57 63 59 84 60 51 61 35 62 36 63 44 64 37 65 43 66 45 67
REMARK SMILES IDX 42 68 38 69 39 70 40 71 41 72 67 73 68 74 76 75 69 76 75 77
REMARK SMILES IDX 77 78 74 79 70 80 71 81 72 82 73 83 52 84 53 85 61 86 54 87
REMARK SMILES IDX 60 88 62 89 59 90 55 91 56 92 57 93 58 94
REMARK H PARENT 19 7 3 20 23 28 82 47 50 58
REMARK Flexibility Score: inf
ROOT
ATOM      1  C   UNL A   1      39.060  20.407  25.750  1.00  0.00     0.118 C 
ENDROOT
BRANCH   1   2
ATOM      2  C   UNL A   1      37.881  19.829  24.974  1.00  0.00     0.042 C 
BRANCH   2   3
ATOM      3  C   UNL A   1      36.653  20.741  24.999  1.00  0.00     0.118 C 
BRANCH   3   4
ATOM      4  N   UNL A   1      35.441  19.979  25.253  1.00  0.00    -0.352 N 
ATOM      5  C   UNL A   1      34.108  20.242  25.056  1.00  0.00     0.251 C 
ATOM      6  O   UNL A   1      33.313  19.343  25.337  1.00  0.00    -0.269 OA
ATOM      7  H   UNL A   1      35.611  19.093  25.649  1.00  0.00     0.163 HD
BRANCH   5   8
ATOM      8  C   UNL A   1      33.581  21.516  24.482  1.00  0.00     0.040 A 
ATOM      9  C   UNL A   1      33.350  23.940  24.421  1.00  0.00    -0.024 A 
ATOM     10  C   UNL A   1      32.735  23.865  23.173  1.00  0.00     0.008 A 
ATOM     11  C   UNL A   1      33.682  22.758  25.101  1.00  0.00     0.022 A 
ATOM     12  C   UNL A   1      32.514  22.617  22.588  1.00  0.00     0.001 A 
ATOM     13  C   UNL A   1      32.958  21.455  23.227  1.00  0.00     0.014 A 
BRANCH   9  14
ATOM     14  C   UNL A   1      33.723  25.219  25.034  1.00  0.00     0.022 C 
ATOM     15  O   UNL A   1      30.863  24.542  26.021  1.00  0.00    -0.269 OA
ATOM     16  C   UNL A   1      31.467  25.578  26.201  1.00  0.00     0.256 C 
ATOM     17  N   UNL A   1      30.990  26.688  26.881  1.00  0.00    -0.321 N 
ATOM     18  C   UNL A   1      32.869  25.958  25.763  1.00  0.00     0.050 C 
ATOM     19  C   UNL A   1      31.931  27.709  26.912  1.00  0.00     0.049 A 
ATOM     20  H   UNL A   1      30.097  26.746  27.288  1.00  0.00     0.170 HD
ATOM     21  C   UNL A   1      33.104  27.322  26.252  1.00  0.00     0.011 A 
ATOM     22  C   UNL A   1      31.769  28.958  27.478  1.00  0.00     0.027 A 
ATOM     23  C   UNL A   1      34.155  28.211  26.123  1.00  0.00     0.011 A 
ATOM     24  C   UNL A   1      32.830  29.855  27.356  1.00  0.00     0.002 A 
ATOM     25  C   UNL A   1      34.010  29.486  26.681  1.00  0.00     0.001 A 
ENDBRANCH   9  14
ENDBRANCH   5   8
ENDBRANCH   3   4
ENDBRANCH   2   3
ENDBRANCH   1   2
BRANCH   1  26
ATOM     26  N   UNL A   1      40.088  19.401  25.989  1.00  0.00    -0.352 N 
ATOM     27  C   UNL A   1      41.444  19.539  26.152  1.00  0.00     0.251 C 
ATOM     28  H   UNL A   1      39.757  18.475  26.042  1.00  0.00     0.163 HD
ATOM     29  O   UNL A   1      42.160  18.546  26.051  1.00  0.00    -0.269 OA
BRANCH  27  30
ATOM     30  C   UNL A   1      42.036  20.863  26.437  1.00  0.00     0.039 A 
ATOM     31  C   UNL A   1      42.362  21.701  25.367  1.00  0.00     0.014 A 
ATOM     32  C   UNL A   1      42.311  21.263  27.746  1.00  0.00     0.014 A 
ATOM     33  C   UNL A   1      42.913  22.960  25.617  1.00  0.00     0.010 A 
ATOM     34  C   UNL A   1      42.779  22.549  27.997  1.00  0.00     0.010 A 
ATOM     35  C   UNL A   1      43.093  23.408  26.935  1.00  0.00    -0.014 A 
BRANCH  35  36
ATOM     36  C   UNL A   1      43.615  24.770  27.221  1.00  0.00     0.031 A 
ATOM     37  C   UNL A   1      42.692  25.841  27.736  1.00  0.00     0.074 A 
ATOM     38  C   UNL A   1      44.906  25.053  26.962  1.00  0.00     0.049 A 
ATOM     39  N   UNL A   1      42.941  27.102  27.979  1.00  0.00    -0.248 NA
ATOM     40  C   UNL A   1      41.297  25.446  27.978  1.00  0.00     0.031 C 
ATOM     41  C   UNL A   1      45.887  24.105  26.428  1.00  0.00     0.029 A 
ATOM     42  N   UNL A   1      45.618  26.217  27.107  1.00  0.00    -0.354 N 
ATOM     43  C   UNL A   1      41.733  27.653  28.393  1.00  0.00     0.074 A 
ATOM     44  C   UNL A   1      40.740  26.604  28.293  1.00  0.00     0.031 C 
ATOM     45  C   UNL A   1      47.079  24.714  26.329  1.00  0.00     0.029 A 
ATOM     46  C   UNL A   1      46.937  26.108  26.735  1.00  0.00     0.049 A 
ATOM     47  H   UNL A   1      45.221  27.052  27.447  1.00  0.00     0.167 HD
ATOM     48  C   UNL A   1      41.480  28.909  28.842  1.00  0.00     0.034 A 
ATOM     49  C   UNL A   1      47.919  27.030  26.712  1.00  0.00     0.034 A 
ATOM     50  C   UNL A   1      42.487  29.939  28.931  1.00  0.00     0.049 A 
ATOM     51  C   UNL A   1      47.607  28.434  27.163  1.00  0.00     0.074 A 
ATOM     52  C   UNL A   1      42.358  31.233  29.408  1.00  0.00     0.029 A 
ATOM     53  N   UNL A   1      43.808  29.801  28.522  1.00  0.00    -0.354 N 
ATOM     54  N   UNL A   1      46.469  28.929  27.596  1.00  0.00    -0.248 NA
ATOM     55  C   UNL A   1      48.712  29.399  27.131  1.00  0.00     0.031 C 
ATOM     56  C   UNL A   1      43.573  31.897  29.210  1.00  0.00     0.029 A 
ATOM     57  C   UNL A   1      44.493  30.994  28.699  1.00  0.00     0.049 A 
ATOM     58  H   UNL A   1      44.202  28.974  28.160  1.00  0.00     0.167 HD
ATOM     59  C   UNL A   1      46.733  30.257  27.920  1.00  0.00     0.074 A 
ATOM     60  C   UNL A   1      48.139  30.477  27.645  1.00  0.00     0.031 C 
ATOM     61  C   UNL A   1      45.892  31.206  28.407  1.00  0.00     0.034 A 
BRANCH  48  62
ATOM     62  C   UNL A   1      40.057  29.232  29.236  1.00  0.00     0.023 A 
ATOM     63  C   UNL A   1      39.666  29.322  30.584  1.00  0.00     0.031 A 
ATOM     64  C   UNL A   1      39.063  29.404  28.255  1.00  0.00     0.131 A 
ATOM     65  C   UNL A   1      38.311  29.478  30.914  1.00  0.00     0.055 A 
ATOM     66  C   UNL A   1      37.731  29.657  28.590  1.00  0.00     0.041 A 
ATOM     67  F   UNL A   1      39.365  29.309  26.951  1.00  0.00    -0.206 F 
ATOM     68  C   UNL A   1      37.344  29.675  29.928  1.00  0.00     0.022 A 
BRANCH  65  69
ATOM     69  S   UNL A   1      37.811  29.236  32.641  1.00  0.00     0.124 S 
ATOM     70  O   UNL A   1      38.949  29.807  33.360  1.00  0.00    -0.237 OA
ATOM     71  O   UNL A   1      36.565  29.987  32.718  1.00  0.00    -0.237 OA
ATOM     72  O   UNL A   1      37.676  27.785  32.760  1.00  0.00    -0.744 OA
ENDBRANCH  65  69
ENDBRANCH  48  62
BRANCH  49  73
ATOM     73  C   UNL A   1      49.288  26.661  26.246  1.00  0.00     0.023 A 
ATOM     74  C   UNL A   1      49.768  27.100  25.002  1.00  0.00     0.031 A 
ATOM     75  C   UNL A   1      50.125  25.843  27.024  1.00  0.00     0.131 A 
ATOM     76  C   UNL A   1      51.032  26.685  24.554  1.00  0.00     0.055 A 
ATOM     77  C   UNL A   1      51.404  25.479  26.600  1.00  0.00     0.041 A 
ATOM     78  F   UNL A   1      49.717  25.398  28.224  1.00  0.00    -0.206 F 
ATOM     79  C   UNL A   1      51.859  25.890  25.352  1.00  0.00     0.022 A 
BRANCH  76  80
ATOM     80  S   UNL A   1      51.548  27.132  22.874  1.00  0.00     0.124 S 
ATOM     81  O   UNL A   1      50.305  26.970  22.129  1.00  0.00    -0.237 OA
ATOM     82  O   UNL A   1      52.015  28.502  23.056  1.00  0.00    -0.237 OA
ATOM     83  O   UNL A   1      52.592  26.156  22.568  1.00  0.00    -0.744 OA
ENDBRANCH  76  80
ENDBRANCH  49  73
BRANCH  61  84
ATOM     84  C   UNL A   1      46.490  32.558  28.718  1.00  0.00     0.023 A 
ATOM     85  C   UNL A   1      46.516  33.596  27.770  1.00  0.00     0.031 A 
ATOM     86  C   UNL A   1      47.051  32.806  29.984  1.00  0.00     0.131 A 
ATOM     87  C   UNL A   1      47.147  34.810  28.080  1.00  0.00     0.055 A 
ATOM     88  C   UNL A   1      47.612  34.041  30.311  1.00  0.00     0.041 A 
ATOM     89  F   UNL A   1      47.060  31.851  30.928  1.00  0.00    -0.206 F 
ATOM     90  C   UNL A   1      47.676  35.047  29.352  1.00  0.00     0.022 A 
BRANCH  87  91
ATOM     91  S   UNL A   1      47.367  36.039  26.764  1.00  0.00     0.124 S 
ATOM     92  O   UNL A   1      47.719  37.235  27.523  1.00  0.00    -0.237 OA
ATOM     93  O   UNL A   1      48.438  35.453  25.965  1.00  0.00    -0.237 OA
ATOM     94  O   UNL A   1      46.060  36.080  26.112  1.00  0.00    -0.744 OA
ENDBRANCH  87  91
ENDBRANCH  61  84
ENDBRANCH  35  36
ENDBRANCH  27  30
ENDBRANCH   1  26
TORSDOF 14
ENDMDL
