MODEL 1
REMARK VINA RESULT:     -13.5      0.000      0.000
REMARK SMILES CC(C)c1cc(N2CCC(C(=O)NCCCNC(=O)c3ccc(-c4c5nc(c(-c6cc(S(=O)(=O)[O-])ccc6F)c6ccc([nH]6)c(-c6cc(S(=O)(=O)[O-])ccc6F)c6nc(c(-c7cc(S(=O)(=O)[O-])ccc7F)c7ccc4[nH]7)C=C6)C=C5)cc3)CC2)nc(-c2ccc(F)cc2)n1
REMARK SMILES IDX 15 1 14 2 13 3 11 4 12 5 10 7 7 8 8 9 84 10 9 11 83 12 6 13
REMARK SMILES IDX 4 14 5 15 94 16 86 17 85 18 2 19 1 20 3 21 87 22 88 23 93 24
REMARK SMILES IDX 89 25 92 26 90 27 91 28 16 29 17 30 18 31 19 33 20 34 21 35
REMARK SMILES IDX 82 36 22 37 81 38 23 39 24 40 25 41 75 42 26 43 80 44 74 45
REMARK SMILES IDX 76 46 27 47 79 48 73 49 72 50 28 52 60 53 40 54 59 55 41 56
REMARK SMILES IDX 44 57 58 58 77 59 42 60 43 61 57 63 78 64 45 65 29 66 30 67
REMARK SMILES IDX 38 68 31 69 37 70 39 71 36 72 32 73 33 74 34 75 35 76 61 77
REMARK SMILES IDX 62 78 70 79 63 80 69 81 71 82 68 83 64 84 65 85 66 86 67 87
REMARK SMILES IDX 46 88 47 89 55 90 48 91 54 92 56 93 53 94 49 95 50 96 51 97
REMARK SMILES IDX 52 98
REMARK H PARENT 13 6 17 32 76 51 44 62
REMARK Flexibility Score: inf
ROOT
ATOM      1  C   UNL A   1      33.248  28.558  25.139  1.00  0.00     0.042 C 
ENDROOT
BRANCH   1   2
ATOM      2  C   UNL A   1      32.581  27.423  24.369  1.00  0.00     0.117 C 
BRANCH   2   3
ATOM      3  N   UNL A   1      31.212  27.730  23.969  1.00  0.00    -0.356 N 
ATOM      4  C   UNL A   1      30.091  26.954  23.941  1.00  0.00     0.223 C 
ATOM      5  O   UNL A   1      29.030  27.481  23.598  1.00  0.00    -0.275 OA
ATOM      6  H   UNL A   1      31.073  28.657  23.669  1.00  0.00     0.163 HD
BRANCH   4   7
ATOM      7  C   UNL A   1      30.127  25.482  24.326  1.00  0.00     0.082 C 
ATOM      8  N   UNL A   1      31.992  23.406  24.646  1.00  0.00    -0.356 N 
ATOM      9  C   UNL A   1      31.092  23.261  23.515  1.00  0.00     0.119 C 
ATOM     10  C   UNL A   1      31.402  23.873  25.882  1.00  0.00     0.119 C 
ATOM     11  C   UNL A   1      30.585  24.636  23.127  1.00  0.00     0.035 C 
ATOM     12  C   UNL A   1      30.873  25.286  25.663  1.00  0.00     0.035 C 
BRANCH   8  13
ATOM     13  C   UNL A   1      33.094  22.580  24.630  1.00  0.00     0.132 A 
ATOM     14  C   UNL A   1      35.429  22.200  24.741  1.00  0.00     0.049 A 
ATOM     15  C   UNL A   1      34.377  23.091  24.622  1.00  0.00     0.071 A 
ATOM     16  N   UNL A   1      35.207  20.872  24.804  1.00  0.00    -0.233 NA
ATOM     17  C   UNL A   1      33.927  20.456  24.775  1.00  0.00     0.161 A 
ATOM     18  N   UNL A   1      32.859  21.262  24.699  1.00  0.00    -0.211 NA
BRANCH  14  19
ATOM     19  C   UNL A   1      36.886  22.636  24.776  1.00  0.00     0.032 C 
ATOM     20  C   UNL A   1      37.220  23.711  25.817  1.00  0.00     0.014 C 
ATOM     21  C   UNL A   1      37.808  21.429  25.000  1.00  0.00     0.014 C 
ENDBRANCH  14  19
BRANCH  17  22
ATOM     22  C   UNL A   1      33.688  19.010  24.807  1.00  0.00     0.019 A 
ATOM     23  C   UNL A   1      32.530  18.478  25.406  1.00  0.00     0.015 A 
ATOM     24  C   UNL A   1      34.621  18.115  24.248  1.00  0.00     0.015 A 
ATOM     25  C   UNL A   1      32.312  17.097  25.444  1.00  0.00     0.040 A 
ATOM     26  C   UNL A   1      34.411  16.735  24.303  1.00  0.00     0.040 A 
ATOM     27  C   UNL A   1      33.258  16.240  24.899  1.00  0.00     0.123 A 
ATOM     28  F   UNL A   1      33.062  14.916  24.951  1.00  0.00    -0.207 F 
ENDBRANCH  17  22
ENDBRANCH   8  13
ENDBRANCH   4   7
ENDBRANCH   2   3
ENDBRANCH   1   2
BRANCH   1  29
ATOM     29  C   UNL A   1      32.520  28.966  26.412  1.00  0.00     0.118 C 
BRANCH  29  30
ATOM     30  N   UNL A   1      32.329  30.407  26.517  1.00  0.00    -0.352 N 
ATOM     31  C   UNL A   1      33.107  31.364  27.123  1.00  0.00     0.251 C 
ATOM     32  H   UNL A   1      31.512  30.749  26.085  1.00  0.00     0.163 HD
ATOM     33  O   UNL A   1      32.660  32.500  27.267  1.00  0.00    -0.269 OA
BRANCH  31  34
ATOM     34  C   UNL A   1      34.456  31.025  27.628  1.00  0.00     0.039 A 
ATOM     35  C   UNL A   1      35.387  32.051  27.813  1.00  0.00     0.014 A 
ATOM     36  C   UNL A   1      34.805  29.705  27.924  1.00  0.00     0.014 A 
ATOM     37  C   UNL A   1      36.626  31.768  28.395  1.00  0.00     0.010 A 
ATOM     38  C   UNL A   1      36.006  29.436  28.576  1.00  0.00     0.010 A 
ATOM     39  C   UNL A   1      36.921  30.468  28.836  1.00  0.00    -0.014 A 
BRANCH  39  40
ATOM     40  C   UNL A   1      38.152  30.170  29.617  1.00  0.00     0.031 A 
ATOM     41  C   UNL A   1      39.168  29.195  29.091  1.00  0.00     0.074 A 
ATOM     42  C   UNL A   1      38.303  30.714  30.842  1.00  0.00     0.049 A 
ATOM     43  N   UNL A   1      40.230  28.709  29.680  1.00  0.00    -0.248 NA
ATOM     44  C   UNL A   1      38.943  28.679  27.733  1.00  0.00     0.031 C 
ATOM     45  C   UNL A   1      37.373  31.655  31.470  1.00  0.00     0.029 A 
ATOM     46  N   UNL A   1      39.283  30.540  31.788  1.00  0.00    -0.354 N 
ATOM     47  C   UNL A   1      40.797  27.823  28.770  1.00  0.00     0.074 A 
ATOM     48  C   UNL A   1      39.929  27.802  27.612  1.00  0.00     0.031 C 
ATOM     49  C   UNL A   1      37.834  31.988  32.685  1.00  0.00     0.029 A 
ATOM     50  C   UNL A   1      39.056  31.237  32.953  1.00  0.00     0.049 A 
ATOM     51  H   UNL A   1      40.074  29.972  31.646  1.00  0.00     0.167 HD
ATOM     52  C   UNL A   1      41.945  27.109  28.886  1.00  0.00     0.034 A 
ATOM     53  C   UNL A   1      39.733  31.246  34.119  1.00  0.00     0.034 A 
ATOM     54  C   UNL A   1      42.798  27.147  30.050  1.00  0.00     0.049 A 
ATOM     55  C   UNL A   1      40.967  30.387  34.250  1.00  0.00     0.074 A 
ATOM     56  C   UNL A   1      44.013  26.514  30.246  1.00  0.00     0.029 A 
ATOM     57  N   UNL A   1      42.520  27.840  31.221  1.00  0.00    -0.354 N 
ATOM     58  N   UNL A   1      41.519  29.595  33.361  1.00  0.00    -0.248 NA
ATOM     59  C   UNL A   1      41.665  30.420  35.542  1.00  0.00     0.031 C 
ATOM     60  C   UNL A   1      44.427  26.755  31.561  1.00  0.00     0.029 A 
ATOM     61  C   UNL A   1      43.514  27.608  32.161  1.00  0.00     0.049 A 
ATOM     62  H   UNL A   1      41.732  28.412  31.364  1.00  0.00     0.167 HD
ATOM     63  C   UNL A   1      42.642  29.053  33.980  1.00  0.00     0.074 A 
ATOM     64  C   UNL A   1      42.698  29.623  35.310  1.00  0.00     0.031 C 
ATOM     65  C   UNL A   1      43.546  28.166  33.493  1.00  0.00     0.034 A 
BRANCH  52  66
ATOM     66  C   UNL A   1      42.324  26.204  27.738  1.00  0.00     0.023 A 
ATOM     67  C   UNL A   1      41.877  24.873  27.668  1.00  0.00     0.031 A 
ATOM     68  C   UNL A   1      43.151  26.675  26.703  1.00  0.00     0.131 A 
ATOM     69  C   UNL A   1      42.318  24.040  26.629  1.00  0.00     0.055 A 
ATOM     70  C   UNL A   1      43.520  25.864  25.628  1.00  0.00     0.041 A 
ATOM     71  F   UNL A   1      43.626  27.930  26.725  1.00  0.00    -0.206 F 
ATOM     72  C   UNL A   1      43.115  24.533  25.593  1.00  0.00     0.022 A 
BRANCH  69  73
ATOM     73  S   UNL A   1      41.950  22.267  26.726  1.00  0.00     0.124 S 
ATOM     74  O   UNL A   1      40.494  22.272  26.830  1.00  0.00    -0.237 OA
ATOM     75  O   UNL A   1      42.499  21.761  25.472  1.00  0.00    -0.237 OA
ATOM     76  O   UNL A   1      42.652  21.836  27.934  1.00  0.00    -0.744 OA
ENDBRANCH  69  73
ENDBRANCH  52  66
BRANCH  53  77
ATOM     77  C   UNL A   1      39.246  32.061  35.271  1.00  0.00     0.023 A 
ATOM     78  C   UNL A   1      39.689  33.378  35.464  1.00  0.00     0.031 A 
ATOM     79  C   UNL A   1      38.365  31.515  36.223  1.00  0.00     0.131 A 
ATOM     80  C   UNL A   1      39.286  34.091  36.604  1.00  0.00     0.055 A 
ATOM     81  C   UNL A   1      37.919  32.249  37.323  1.00  0.00     0.041 A 
ATOM     82  F   UNL A   1      37.914  30.258  36.091  1.00  0.00    -0.206 F 
ATOM     83  C   UNL A   1      38.390  33.542  37.525  1.00  0.00     0.022 A 
BRANCH  80  84
ATOM     84  S   UNL A   1      40.029  35.716  36.920  1.00  0.00     0.124 S 
ATOM     85  O   UNL A   1      39.647  36.454  35.723  1.00  0.00    -0.237 OA
ATOM     86  O   UNL A   1      39.370  36.116  38.160  1.00  0.00    -0.237 OA
ATOM     87  O   UNL A   1      41.455  35.418  37.043  1.00  0.00    -0.744 OA
ENDBRANCH  80  84
ENDBRANCH  53  77
BRANCH  65  88
ATOM     88  C   UNL A   1      44.689  27.779  34.399  1.00  0.00     0.023 A 
ATOM     89  C   UNL A   1      44.589  26.692  35.286  1.00  0.00     0.031 A 
ATOM     90  C   UNL A   1      45.896  28.500  34.369  1.00  0.00     0.131 A 
ATOM     91  C   UNL A   1      45.662  26.383  36.135  1.00  0.00     0.055 A 
ATOM     92  C   UNL A   1      46.981  28.151  35.173  1.00  0.00     0.041 A 
ATOM     93  F   UNL A   1      46.044  29.549  33.545  1.00  0.00    -0.206 F 
ATOM     94  C   UNL A   1      46.865  27.093  36.071  1.00  0.00     0.022 A 
BRANCH  91  95
ATOM     95  S   UNL A   1      45.444  25.081  37.379  1.00  0.00     0.124 S 
ATOM     96  O   UNL A   1      46.261  24.002  36.835  1.00  0.00    -0.237 OA
ATOM     97  O   UNL A   1      45.952  25.716  38.591  1.00  0.00    -0.237 OA
ATOM     98  O   UNL A   1      44.004  24.834  37.370  1.00  0.00    -0.744 OA
ENDBRANCH  91  95
ENDBRANCH  65  88
ENDBRANCH  39  40
ENDBRANCH  31  34
ENDBRANCH  29  30
ENDBRANCH   1  29
TORSDOF 16
ENDMDL
MODEL 2
REMARK VINA RESULT:     -13.4      2.038      7.838
REMARK SMILES CC(C)c1cc(N2CCC(C(=O)NCCCNC(=O)c3ccc(-c4c5nc(c(-c6cc(S(=O)(=O)[O-])ccc6F)c6ccc([nH]6)c(-c6cc(S(=O)(=O)[O-])ccc6F)c6nc(c(-c7cc(S(=O)(=O)[O-])ccc7F)c7ccc4[nH]7)C=C6)C=C5)cc3)CC2)nc(-c2ccc(F)cc2)n1
REMARK SMILES IDX 15 1 14 2 13 3 11 4 12 5 10 7 7 8 8 9 84 10 9 11 83 12 6 13
REMARK SMILES IDX 4 14 5 15 94 16 86 17 85 18 2 19 1 20 3 21 87 22 88 23 93 24
REMARK SMILES IDX 89 25 92 26 90 27 91 28 16 29 17 30 18 31 19 33 20 34 21 35
REMARK SMILES IDX 82 36 22 37 81 38 23 39 24 40 25 41 75 42 26 43 80 44 74 45
REMARK SMILES IDX 76 46 27 47 79 48 73 49 72 50 28 52 60 53 40 54 59 55 41 56
REMARK SMILES IDX 44 57 58 58 77 59 42 60 43 61 57 63 78 64 45 65 29 66 30 67
REMARK SMILES IDX 38 68 31 69 37 70 39 71 36 72 32 73 33 74 34 75 35 76 61 77
REMARK SMILES IDX 62 78 70 79 63 80 69 81 71 82 68 83 64 84 65 85 66 86 67 87
REMARK SMILES IDX 46 88 47 89 55 90 48 91 54 92 56 93 53 94 49 95 50 96 51 97
REMARK SMILES IDX 52 98
REMARK H PARENT 13 6 17 32 76 51 44 62
REMARK Flexibility Score: inf
ROOT
ATOM      1  C   UNL A   1      33.705  27.528  25.145  1.00  0.00     0.042 C 
ENDROOT
BRANCH   1   2
ATOM      2  C   UNL A   1      32.329  26.889  24.989  1.00  0.00     0.117 C 
BRANCH   2   3
ATOM      3  N   UNL A   1      31.553  27.462  23.894  1.00  0.00    -0.356 N 
ATOM      4  C   UNL A   1      31.081  26.904  22.744  1.00  0.00     0.223 C 
ATOM      5  O   UNL A   1      30.400  27.611  21.995  1.00  0.00    -0.275 OA
ATOM      6  H   UNL A   1      31.333  28.415  24.006  1.00  0.00     0.163 HD
BRANCH   4   7
ATOM      7  C   UNL A   1      31.364  25.454  22.381  1.00  0.00     0.082 C 
ATOM      8  N   UNL A   1      32.876  23.279  23.316  1.00  0.00    -0.356 N 
ATOM      9  C   UNL A   1      33.331  23.857  22.064  1.00  0.00     0.119 C 
ATOM     10  C   UNL A   1      31.446  23.120  23.470  1.00  0.00     0.119 C 
ATOM     11  C   UNL A   1      32.842  25.289  21.991  1.00  0.00     0.035 C 
ATOM     12  C   UNL A   1      30.802  24.503  23.458  1.00  0.00     0.035 C 
BRANCH   8  13
ATOM     13  C   UNL A   1      33.773  22.438  23.937  1.00  0.00     0.132 A 
ATOM     14  C   UNL A   1      35.721  22.035  25.221  1.00  0.00     0.049 A 
ATOM     15  C   UNL A   1      34.939  22.919  24.501  1.00  0.00     0.071 A 
ATOM     16  N   UNL A   1      35.384  20.733  25.318  1.00  0.00    -0.233 NA
ATOM     17  C   UNL A   1      34.248  20.341  24.713  1.00  0.00     0.161 A 
ATOM     18  N   UNL A   1      33.422  21.148  24.032  1.00  0.00    -0.211 NA
BRANCH  14  19
ATOM     19  C   UNL A   1      37.011  22.443  25.916  1.00  0.00     0.032 C 
ATOM     20  C   UNL A   1      38.261  21.673  25.473  1.00  0.00     0.014 C 
ATOM     21  C   UNL A   1      37.271  23.946  25.742  1.00  0.00     0.014 C 
ENDBRANCH  14  19
BRANCH  17  22
ATOM     22  C   UNL A   1      33.901  18.919  24.788  1.00  0.00     0.019 A 
ATOM     23  C   UNL A   1      34.760  17.932  24.266  1.00  0.00     0.015 A 
ATOM     24  C   UNL A   1      32.689  18.505  25.373  1.00  0.00     0.015 A 
ATOM     25  C   UNL A   1      34.419  16.578  24.329  1.00  0.00     0.040 A 
ATOM     26  C   UNL A   1      32.340  17.153  25.419  1.00  0.00     0.040 A 
ATOM     27  C   UNL A   1      33.209  16.203  24.898  1.00  0.00     0.123 A 
ATOM     28  F   UNL A   1      32.870  14.908  24.943  1.00  0.00    -0.207 F 
ENDBRANCH  17  22
ENDBRANCH   8  13
ENDBRANCH   4   7
ENDBRANCH   2   3
ENDBRANCH   1   2
BRANCH   1  29
ATOM     29  C   UNL A   1      33.990  28.072  26.539  1.00  0.00     0.118 C 
BRANCH  29  30
ATOM     30  N   UNL A   1      33.750  29.506  26.646  1.00  0.00    -0.352 N 
ATOM     31  C   UNL A   1      34.420  30.466  27.366  1.00  0.00     0.251 C 
ATOM     32  H   UNL A   1      32.987  29.838  26.121  1.00  0.00     0.163 HD
ATOM     33  O   UNL A   1      33.929  31.588  27.474  1.00  0.00    -0.269 OA
BRANCH  31  34
ATOM     34  C   UNL A   1      35.703  30.147  28.032  1.00  0.00     0.039 A 
ATOM     35  C   UNL A   1      35.688  29.736  29.367  1.00  0.00     0.014 A 
ATOM     36  C   UNL A   1      36.915  30.246  27.345  1.00  0.00     0.014 A 
ATOM     37  C   UNL A   1      36.875  29.322  29.979  1.00  0.00     0.010 A 
ATOM     38  C   UNL A   1      38.083  29.759  27.929  1.00  0.00     0.010 A 
ATOM     39  C   UNL A   1      38.071  29.273  29.245  1.00  0.00    -0.014 A 
BRANCH  39  40
ATOM     40  C   UNL A   1      39.308  28.672  29.810  1.00  0.00     0.031 A 
ATOM     41  C   UNL A   1      39.986  29.302  30.995  1.00  0.00     0.074 A 
ATOM     42  C   UNL A   1      39.866  27.609  29.195  1.00  0.00     0.049 A 
ATOM     43  N   UNL A   1      41.136  29.005  31.545  1.00  0.00    -0.248 NA
ATOM     44  C   UNL A   1      39.291  30.433  31.627  1.00  0.00     0.031 C 
ATOM     45  C   UNL A   1      39.314  26.925  28.023  1.00  0.00     0.029 A 
ATOM     46  N   UNL A   1      41.030  26.928  29.455  1.00  0.00    -0.354 N 
ATOM     47  C   UNL A   1      41.308  29.917  32.582  1.00  0.00     0.074 A 
ATOM     48  C   UNL A   1      40.168  30.809  32.546  1.00  0.00     0.031 C 
ATOM     49  C   UNL A   1      40.127  25.916  27.678  1.00  0.00     0.029 A 
ATOM     50  C   UNL A   1      41.291  25.918  28.558  1.00  0.00     0.049 A 
ATOM     51  H   UNL A   1      41.622  27.142  30.211  1.00  0.00     0.167 HD
ATOM     52  C   UNL A   1      42.315  29.988  33.488  1.00  0.00     0.034 A 
ATOM     53  C   UNL A   1      42.360  25.105  28.434  1.00  0.00     0.034 A 
ATOM     54  C   UNL A   1      43.442  29.087  33.506  1.00  0.00     0.049 A 
ATOM     55  C   UNL A   1      43.502  25.253  29.408  1.00  0.00     0.074 A 
ATOM     56  C   UNL A   1      44.484  29.031  34.416  1.00  0.00     0.029 A 
ATOM     57  N   UNL A   1      43.687  28.096  32.565  1.00  0.00    -0.354 N 
ATOM     58  N   UNL A   1      43.625  26.086  30.416  1.00  0.00    -0.248 NA
ATOM     59  C   UNL A   1      44.650  24.355  29.228  1.00  0.00     0.031 C 
ATOM     60  C   UNL A   1      45.397  28.066  33.979  1.00  0.00     0.029 A 
ATOM     61  C   UNL A   1      44.888  27.460  32.842  1.00  0.00     0.049 A 
ATOM     62  H   UNL A   1      43.095  27.877  31.809  1.00  0.00     0.167 HD
ATOM     63  C   UNL A   1      44.855  25.796  31.000  1.00  0.00     0.074 A 
ATOM     64  C   UNL A   1      45.425  24.700  30.246  1.00  0.00     0.031 C 
ATOM     65  C   UNL A   1      45.456  26.381  32.067  1.00  0.00     0.034 A 
BRANCH  52  66
ATOM     66  C   UNL A   1      42.257  31.099  34.510  1.00  0.00     0.023 A 
ATOM     67  C   UNL A   1      42.817  32.364  34.259  1.00  0.00     0.031 A 
ATOM     68  C   UNL A   1      41.643  30.887  35.757  1.00  0.00     0.131 A 
ATOM     69  C   UNL A   1      42.815  33.342  35.265  1.00  0.00     0.055 A 
ATOM     70  C   UNL A   1      41.572  31.893  36.723  1.00  0.00     0.041 A 
ATOM     71  F   UNL A   1      41.108  29.694  36.063  1.00  0.00    -0.206 F 
ATOM     72  C   UNL A   1      42.174  33.126  36.486  1.00  0.00     0.022 A 
BRANCH  69  73
ATOM     73  S   UNL A   1      43.787  34.852  35.005  1.00  0.00     0.124 S 
ATOM     74  O   UNL A   1      42.889  35.641  34.167  1.00  0.00    -0.237 OA
ATOM     75  O   UNL A   1      43.983  35.339  36.366  1.00  0.00    -0.237 OA
ATOM     76  O   UNL A   1      44.993  34.372  34.333  1.00  0.00    -0.744 OA
ENDBRANCH  69  73
ENDBRANCH  52  66
BRANCH  53  77
ATOM     77  C   UNL A   1      42.428  24.107  27.326  1.00  0.00     0.023 A 
ATOM     78  C   UNL A   1      41.921  22.809  27.490  1.00  0.00     0.031 A 
ATOM     79  C   UNL A   1      43.044  24.424  26.101  1.00  0.00     0.131 A 
ATOM     80  C   UNL A   1      42.078  21.862  26.466  1.00  0.00     0.055 A 
ATOM     81  C   UNL A   1      43.144  23.498  25.063  1.00  0.00     0.041 A 
ATOM     82  F   UNL A   1      43.552  25.650  25.892  1.00  0.00    -0.206 F 
ATOM     83  C   UNL A   1      42.670  22.203  25.247  1.00  0.00     0.022 A 
BRANCH  80  84
ATOM     84  S   UNL A   1      41.586  20.146  26.786  1.00  0.00     0.124 S 
ATOM     85  O   UNL A   1      40.639  20.309  27.883  1.00  0.00    -0.237 OA
ATOM     86  O   UNL A   1      41.020  19.747  25.501  1.00  0.00    -0.237 OA
ATOM     87  O   UNL A   1      42.845  19.493  27.139  1.00  0.00    -0.744 OA
ENDBRANCH  80  84
ENDBRANCH  53  77
BRANCH  65  88
ATOM     88  C   UNL A   1      46.794  25.827  32.494  1.00  0.00     0.023 A 
ATOM     89  C   UNL A   1      46.900  24.862  33.512  1.00  0.00     0.031 A 
ATOM     90  C   UNL A   1      47.975  26.261  31.868  1.00  0.00     0.131 A 
ATOM     91  C   UNL A   1      48.164  24.395  33.902  1.00  0.00     0.055 A 
ATOM     92  C   UNL A   1      49.224  25.749  32.220  1.00  0.00     0.041 A 
ATOM     93  F   UNL A   1      47.933  27.184  30.893  1.00  0.00    -0.206 F 
ATOM     94  C   UNL A   1      49.326  24.817  33.249  1.00  0.00     0.022 A 
BRANCH  91  95
ATOM     95  S   UNL A   1      48.280  23.275  35.325  1.00  0.00     0.124 S 
ATOM     96  O   UNL A   1      48.461  21.981  34.677  1.00  0.00    -0.237 OA
ATOM     97  O   UNL A   1      49.438  23.799  36.042  1.00  0.00    -0.237 OA
ATOM     98  O   UNL A   1      46.999  23.454  36.008  1.00  0.00    -0.744 OA
ENDBRANCH  91  95
ENDBRANCH  65  88
ENDBRANCH  39  40
ENDBRANCH  31  34
ENDBRANCH  29  30
ENDBRANCH   1  29
TORSDOF 16
ENDMDL
MODEL 3
REMARK VINA RESULT:     -13.3      5.154     10.589
REMARK SMILES CC(C)c1cc(N2CCC(C(=O)NCCCNC(=O)c3ccc(-c4c5nc(c(-c6cc(S(=O)(=O)[O-])ccc6F)c6ccc([nH]6)c(-c6cc(S(=O)(=O)[O-])ccc6F)c6nc(c(-c7cc(S(=O)(=O)[O-])ccc7F)c7ccc4[nH]7)C=C6)C=C5)cc3)CC2)nc(-c2ccc(F)cc2)n1
REMARK SMILES IDX 15 1 14 2 13 3 11 4 12 5 10 7 7 8 8 9 84 10 9 11 83 12 6 13
REMARK SMILES IDX 4 14 5 15 94 16 86 17 85 18 2 19 1 20 3 21 87 22 88 23 93 24
REMARK SMILES IDX 89 25 92 26 90 27 91 28 16 29 17 30 18 31 19 33 20 34 21 35
REMARK SMILES IDX 82 36 22 37 81 38 23 39 24 40 25 41 75 42 26 43 80 44 74 45
REMARK SMILES IDX 76 46 27 47 79 48 73 49 72 50 28 52 60 53 40 54 59 55 41 56
REMARK SMILES IDX 44 57 58 58 77 59 42 60 43 61 57 63 78 64 45 65 29 66 30 67
REMARK SMILES IDX 38 68 31 69 37 70 39 71 36 72 32 73 33 74 34 75 35 76 61 77
REMARK SMILES IDX 62 78 70 79 63 80 69 81 71 82 68 83 64 84 65 85 66 86 67 87
REMARK SMILES IDX 46 88 47 89 55 90 48 91 54 92 56 93 53 94 49 95 50 96 51 97
REMARK SMILES IDX 52 98
REMARK H PARENT 13 6 17 32 76 51 44 62
REMARK Flexibility Score: inf
ROOT
ATOM      1  C   UNL A   1      35.549  23.047  24.275  1.00  0.00     0.042 C 
ENDROOT
BRANCH   1   2
ATOM      2  C   UNL A   1      34.038  23.235  24.361  1.00  0.00     0.117 C 
BRANCH   2   3
ATOM      3  N   UNL A   1      33.335  22.028  24.784  1.00  0.00    -0.356 N 
ATOM      4  C   UNL A   1      32.014  21.804  25.039  1.00  0.00     0.223 C 
ATOM      5  O   UNL A   1      31.670  20.659  25.342  1.00  0.00    -0.275 OA
ATOM      6  H   UNL A   1      33.913  21.241  24.906  1.00  0.00     0.163 HD
BRANCH   4   7
ATOM      7  C   UNL A   1      30.981  22.918  24.948  1.00  0.00     0.082 C 
ATOM      8  N   UNL A   1      30.871  25.722  24.845  1.00  0.00    -0.356 N 
ATOM      9  C   UNL A   1      30.368  25.127  26.071  1.00  0.00     0.119 C 
ATOM     10  C   UNL A   1      30.498  25.066  23.611  1.00  0.00     0.119 C 
ATOM     11  C   UNL A   1      31.000  23.759  26.234  1.00  0.00     0.035 C 
ATOM     12  C   UNL A   1      31.104  23.667  23.604  1.00  0.00     0.035 C 
BRANCH   8  13
ATOM     13  C   UNL A   1      31.116  27.076  24.906  1.00  0.00     0.132 A 
ATOM     14  C   UNL A   1      32.419  28.942  25.562  1.00  0.00     0.049 A 
ATOM     15  C   UNL A   1      32.156  27.587  25.659  1.00  0.00     0.071 A 
ATOM     16  N   UNL A   1      31.646  29.745  24.803  1.00  0.00    -0.233 NA
ATOM     17  C   UNL A   1      30.635  29.171  24.126  1.00  0.00     0.161 A 
ATOM     18  N   UNL A   1      30.344  27.862  24.142  1.00  0.00    -0.211 NA
BRANCH  14  19
ATOM     19  C   UNL A   1      33.552  29.623  26.313  1.00  0.00     0.032 C 
ATOM     20  C   UNL A   1      33.123  30.761  27.248  1.00  0.00     0.014 C 
ATOM     21  C   UNL A   1      34.362  28.599  27.122  1.00  0.00     0.014 C 
ENDBRANCH  14  19
BRANCH  17  22
ATOM     22  C   UNL A   1      29.772  30.049  23.330  1.00  0.00     0.019 A 
ATOM     23  C   UNL A   1      29.219  31.220  23.882  1.00  0.00     0.015 A 
ATOM     24  C   UNL A   1      29.465  29.734  21.992  1.00  0.00     0.015 A 
ATOM     25  C   UNL A   1      28.388  32.049  23.122  1.00  0.00     0.040 A 
ATOM     26  C   UNL A   1      28.620  30.552  21.239  1.00  0.00     0.040 A 
ATOM     27  C   UNL A   1      28.090  31.702  21.812  1.00  0.00     0.123 A 
ATOM     28  F   UNL A   1      27.279  32.483  21.086  1.00  0.00    -0.207 F 
ENDBRANCH  17  22
ENDBRANCH   8  13
ENDBRANCH   4   7
ENDBRANCH   2   3
ENDBRANCH   1   2
BRANCH   1  29
ATOM     29  C   UNL A   1      36.235  22.844  25.619  1.00  0.00     0.118 C 
BRANCH  29  30
ATOM     30  N   UNL A   1      37.179  21.734  25.610  1.00  0.00    -0.352 N 
ATOM     31  C   UNL A   1      38.522  21.709  25.905  1.00  0.00     0.251 C 
ATOM     32  H   UNL A   1      36.796  20.866  25.351  1.00  0.00     0.163 HD
ATOM     33  O   UNL A   1      39.177  20.703  25.641  1.00  0.00    -0.269 OA
BRANCH  31  34
ATOM     34  C   UNL A   1      39.181  22.890  26.504  1.00  0.00     0.039 A 
ATOM     35  C   UNL A   1      40.300  22.700  27.320  1.00  0.00     0.014 A 
ATOM     36  C   UNL A   1      38.707  24.182  26.260  1.00  0.00     0.014 A 
ATOM     37  C   UNL A   1      41.004  23.807  27.802  1.00  0.00     0.010 A 
ATOM     38  C   UNL A   1      39.454  25.282  26.675  1.00  0.00     0.010 A 
ATOM     39  C   UNL A   1      40.621  25.107  27.433  1.00  0.00    -0.014 A 
BRANCH  39  40
ATOM     40  C   UNL A   1      41.450  26.292  27.780  1.00  0.00     0.031 A 
ATOM     41  C   UNL A   1      40.865  27.417  28.586  1.00  0.00     0.074 A 
ATOM     42  C   UNL A   1      42.702  26.388  27.288  1.00  0.00     0.049 A 
ATOM     43  N   UNL A   1      41.382  28.584  28.876  1.00  0.00    -0.248 NA
ATOM     44  C   UNL A   1      39.508  27.213  29.114  1.00  0.00     0.031 C 
ATOM     45  C   UNL A   1      43.371  25.371  26.473  1.00  0.00     0.029 A 
ATOM     46  N   UNL A   1      43.630  27.396  27.383  1.00  0.00    -0.354 N 
ATOM     47  C   UNL A   1      40.413  29.259  29.611  1.00  0.00     0.074 A 
ATOM     48  C   UNL A   1      39.258  28.388  29.675  1.00  0.00     0.031 C 
ATOM     49  C   UNL A   1      44.603  25.798  26.158  1.00  0.00     0.029 A 
ATOM     50  C   UNL A   1      44.792  27.143  26.690  1.00  0.00     0.049 A 
ATOM     51  H   UNL A   1      43.479  28.220  27.898  1.00  0.00     0.167 HD
ATOM     52  C   UNL A   1      40.489  30.482  30.191  1.00  0.00     0.034 A 
ATOM     53  C   UNL A   1      45.875  27.918  26.476  1.00  0.00     0.034 A 
ATOM     54  C   UNL A   1      41.652  31.334  30.116  1.00  0.00     0.049 A 
ATOM     55  C   UNL A   1      45.906  29.304  27.070  1.00  0.00     0.074 A 
ATOM     56  C   UNL A   1      41.859  32.562  30.719  1.00  0.00     0.029 A 
ATOM     57  N   UNL A   1      42.798  31.057  29.381  1.00  0.00    -0.354 N 
ATOM     58  N   UNL A   1      45.002  29.906  27.808  1.00  0.00    -0.248 NA
ATOM     59  C   UNL A   1      47.100  30.115  26.801  1.00  0.00     0.031 C 
ATOM     60  C   UNL A   1      43.090  33.064  30.283  1.00  0.00     0.029 A 
ATOM     61  C   UNL A   1      43.691  32.114  29.474  1.00  0.00     0.049 A 
ATOM     62  H   UNL A   1      42.953  30.231  28.868  1.00  0.00     0.167 HD
ATOM     63  C   UNL A   1      45.530  31.159  28.107  1.00  0.00     0.074 A 
ATOM     64  C   UNL A   1      46.838  31.218  27.488  1.00  0.00     0.031 C 
ATOM     65  C   UNL A   1      44.984  32.169  28.832  1.00  0.00     0.034 A 
BRANCH  52  66
ATOM     66  C   UNL A   1      39.270  30.983  30.928  1.00  0.00     0.023 A 
ATOM     67  C   UNL A   1      38.253  31.698  30.274  1.00  0.00     0.031 A 
ATOM     68  C   UNL A   1      39.126  30.750  32.308  1.00  0.00     0.131 A 
ATOM     69  C   UNL A   1      37.176  32.217  31.009  1.00  0.00     0.055 A 
ATOM     70  C   UNL A   1      38.011  31.199  33.019  1.00  0.00     0.041 A 
ATOM     71  F   UNL A   1      40.074  30.090  32.993  1.00  0.00    -0.206 F 
ATOM     72  C   UNL A   1      37.034  31.951  32.372  1.00  0.00     0.022 A 
BRANCH  69  73
ATOM     73  S   UNL A   1      36.039  33.365  30.186  1.00  0.00     0.124 S 
ATOM     74  O   UNL A   1      35.669  34.254  31.284  1.00  0.00    -0.237 OA
ATOM     75  O   UNL A   1      36.878  33.950  29.146  1.00  0.00    -0.237 OA
ATOM     76  O   UNL A   1      34.964  32.499  29.706  1.00  0.00    -0.744 OA
ENDBRANCH  69  73
ENDBRANCH  52  66
BRANCH  53  77
ATOM     77  C   UNL A   1      47.003  27.425  25.632  1.00  0.00     0.023 A 
ATOM     78  C   UNL A   1      47.189  27.899  24.324  1.00  0.00     0.031 A 
ATOM     79  C   UNL A   1      47.885  26.436  26.106  1.00  0.00     0.131 A 
ATOM     80  C   UNL A   1      48.202  27.353  23.520  1.00  0.00     0.055 A 
ATOM     81  C   UNL A   1      48.929  25.940  25.324  1.00  0.00     0.041 A 
ATOM     82  F   UNL A   1      47.750  25.943  27.347  1.00  0.00    -0.206 F 
ATOM     83  C   UNL A   1      49.084  26.390  24.017  1.00  0.00     0.022 A 
BRANCH  80  84
ATOM     84  S   UNL A   1      48.289  27.849  21.777  1.00  0.00     0.124 S 
ATOM     85  O   UNL A   1      47.080  28.652  21.637  1.00  0.00    -0.237 OA
ATOM     86  O   UNL A   1      49.553  28.577  21.731  1.00  0.00    -0.237 OA
ATOM     87  O   UNL A   1      48.279  26.575  21.061  1.00  0.00    -0.744 OA
ENDBRANCH  80  84
ENDBRANCH  53  77
BRANCH  65  88
ATOM     88  C   UNL A   1      45.816  33.415  29.013  1.00  0.00     0.023 A 
ATOM     89  C   UNL A   1      45.764  34.475  28.089  1.00  0.00     0.031 A 
ATOM     90  C   UNL A   1      46.664  33.548  30.126  1.00  0.00     0.131 A 
ATOM     91  C   UNL A   1      46.577  35.603  28.276  1.00  0.00     0.055 A 
ATOM     92  C   UNL A   1      47.425  34.698  30.337  1.00  0.00     0.041 A 
ATOM     93  F   UNL A   1      46.756  32.565  31.036  1.00  0.00    -0.206 F 
ATOM     94  C   UNL A   1      47.392  35.731  29.404  1.00  0.00     0.022 A 
BRANCH  91  95
ATOM     95  S   UNL A   1      46.609  36.878  26.986  1.00  0.00     0.124 S 
ATOM     96  O   UNL A   1      46.509  36.080  25.769  1.00  0.00    -0.237 OA
ATOM     97  O   UNL A   1      45.441  37.688  27.315  1.00  0.00    -0.237 OA
ATOM     98  O   UNL A   1      47.896  37.541  27.190  1.00  0.00    -0.744 OA
ENDBRANCH  91  95
ENDBRANCH  65  88
ENDBRANCH  39  40
ENDBRANCH  31  34
ENDBRANCH  29  30
ENDBRANCH   1  29
TORSDOF 16
ENDMDL
