MODEL 1
REMARK VINA RESULT:     -11.9      0.000      0.000
REMARK SMILES Cc1cccc(N2C(=O)/C(=C/c3cccn3-c3cccc(C(=O)NCCCNC(=O)c4ccc(-c5c6nc(c(-c7cc(S(=O)(=O)[O-])ccc7F)c7ccc([nH]7)c(-c7cc(S(=O)(=O)[O-])ccc7F)c7nc(c(-c8cc(S(=O)(=O)[O-])ccc8F)c8ccc5[nH]8)C=C7)C=C6)cc4)c3)C(O)=NC2=S)c1C
REMARK SMILES IDX 26 1 25 2 24 3 22 4 23 5 21 7 17 8 18 9 94 10 19 11 20 12
REMARK SMILES IDX 16 13 12 14 13 15 14 16 15 17 11 18 7 19 8 20 98 21 9 22
REMARK SMILES IDX 10 23 97 24 99 25 95 26 6 27 1 28 2 29 3 30 100 31 4 32
REMARK SMILES IDX 101 33 5 34 96 35 27 37 28 38 29 39 30 41 31 42 32 43 93 44
REMARK SMILES IDX 33 45 92 46 34 47 35 48 36 49 86 50 37 51 91 52 85 53 87 54
REMARK SMILES IDX 38 55 90 56 84 57 83 58 39 60 71 61 51 62 70 63 52 64 55 65
REMARK SMILES IDX 69 66 88 67 53 68 54 69 68 71 89 72 56 73 40 74 41 75 49 76
REMARK SMILES IDX 42 77 48 78 50 79 47 80 43 81 44 82 45 83 46 84 72 85 73 86
REMARK SMILES IDX 81 87 74 88 80 89 82 90 79 91 75 92 76 93 77 94 78 95 57 96
REMARK SMILES IDX 58 97 66 98 59 99 65 100 67 101 64 102 60 103 61 104 62 105
REMARK SMILES IDX 63 106
REMARK H PARENT 24 6 96 36 28 40 87 59 55 70
REMARK Flexibility Score: inf
ROOT
ATOM      1  C   UNL A   1      35.447  33.533  28.025  1.00  0.00     0.042 C 
ENDROOT
BRANCH   1   2
ATOM      2  C   UNL A   1      35.624  34.579  29.130  1.00  0.00     0.118 C 
BRANCH   2   3
ATOM      3  N   UNL A   1      34.775  34.365  30.289  1.00  0.00    -0.352 N 
ATOM      4  C   UNL A   1      34.870  33.688  31.477  1.00  0.00     0.251 C 
ATOM      5  O   UNL A   1      33.930  33.825  32.261  1.00  0.00    -0.269 OA
ATOM      6  H   UNL A   1      33.909  34.824  30.198  1.00  0.00     0.163 HD
BRANCH   4   7
ATOM      7  C   UNL A   1      35.982  32.773  31.868  1.00  0.00     0.041 A 
ATOM      8  C   UNL A   1      38.330  32.221  32.228  1.00  0.00     0.046 A 
ATOM      9  C   UNL A   1      38.001  30.872  32.389  1.00  0.00     0.026 A 
ATOM     10  C   UNL A   1      37.314  33.156  32.001  1.00  0.00     0.040 A 
ATOM     11  C   UNL A   1      36.664  30.477  32.338  1.00  0.00     0.003 A 
ATOM     12  C   UNL A   1      35.666  31.420  32.070  1.00  0.00     0.014 A 
BRANCH   8  13
ATOM     13  N   UNL A   1      39.695  32.636  32.136  1.00  0.00    -0.317 N 
ATOM     14  C   UNL A   1      40.617  32.931  33.156  1.00  0.00     0.047 A 
ATOM     15  C   UNL A   1      41.738  33.490  32.562  1.00  0.00     0.028 A 
ATOM     16  C   UNL A   1      41.503  33.586  31.177  1.00  0.00     0.020 A 
ATOM     17  C   UNL A   1      40.274  33.020  30.936  1.00  0.00     0.092 A 
BRANCH  14  18
ATOM     18  C   UNL A   1      40.377  32.582  34.518  1.00  0.00     0.046 C 
ATOM     19  N   UNL A   1      39.377  33.677  37.862  1.00  0.00    -0.251 N 
ATOM     20  C   UNL A   1      39.723  32.786  36.840  1.00  0.00     0.270 C 
ATOM     21  C   UNL A   1      39.289  35.069  37.661  1.00  0.00     0.210 C 
ATOM     22  O   UNL A   1      39.906  31.578  36.995  1.00  0.00    -0.268 OA
ATOM     23  C   UNL A   1      39.878  33.396  35.476  1.00  0.00     0.104 C 
ATOM     24  N   UNL A   1      39.111  35.526  36.378  1.00  0.00    -0.184 NA
ATOM     25  S   UNL A   1      39.448  36.223  38.897  1.00  0.00    -0.038 S 
ATOM     26  C   UNL A   1      39.396  34.777  35.381  1.00  0.00     0.226 C 
BRANCH  19  27
ATOM     27  C   UNL A   1      39.214  33.122  39.179  1.00  0.00     0.055 A 
ATOM     28  C   UNL A   1      36.537  31.774  41.591  1.00  0.00     0.044 C 
ATOM     29  C   UNL A   1      37.846  32.225  40.992  1.00  0.00    -0.046 A 
ATOM     30  C   UNL A   1      38.998  32.161  41.794  1.00  0.00     0.004 A 
ATOM     31  C   UNL A   1      37.948  32.695  39.660  1.00  0.00    -0.024 A 
ATOM     32  C   UNL A   1      40.240  32.546  41.299  1.00  0.00     0.002 A 
ATOM     33  C   UNL A   1      36.740  32.708  38.753  1.00  0.00     0.047 C 
ATOM     34  C   UNL A   1      40.350  33.019  39.996  1.00  0.00     0.027 A 
ENDBRANCH  19  27
BRANCH  26  35
ATOM     35  O   UNL A   1      39.144  35.304  34.175  1.00  0.00    -0.493 OA
ATOM     36  H   UNL A   1      39.751  35.905  33.791  1.00  0.00     0.295 HD
ENDBRANCH  26  35
ENDBRANCH  14  18
ENDBRANCH   8  13
ENDBRANCH   4   7
ENDBRANCH   2   3
ENDBRANCH   1   2
BRANCH   1  37
ATOM     37  C   UNL A   1      36.180  32.242  28.378  1.00  0.00     0.118 C 
BRANCH  37  38
ATOM     38  N   UNL A   1      35.444  31.079  27.892  1.00  0.00    -0.352 N 
ATOM     39  C   UNL A   1      35.850  29.784  27.677  1.00  0.00     0.251 C 
ATOM     40  H   UNL A   1      34.497  31.253  27.682  1.00  0.00     0.163 HD
ATOM     41  O   UNL A   1      35.105  29.010  27.102  1.00  0.00    -0.269 OA
BRANCH  39  42
ATOM     42  C   UNL A   1      37.193  29.336  28.089  1.00  0.00     0.039 A 
ATOM     43  C   UNL A   1      37.293  28.612  29.284  1.00  0.00     0.014 A 
ATOM     44  C   UNL A   1      38.334  29.641  27.343  1.00  0.00     0.014 A 
ATOM     45  C   UNL A   1      38.530  28.129  29.687  1.00  0.00     0.010 A 
ATOM     46  C   UNL A   1      39.558  29.107  27.705  1.00  0.00     0.010 A 
ATOM     47  C   UNL A   1      39.651  28.354  28.879  1.00  0.00    -0.014 A 
BRANCH  47  48
ATOM     48  C   UNL A   1      40.921  27.691  29.233  1.00  0.00     0.031 A 
ATOM     49  C   UNL A   1      41.216  26.529  28.242  1.00  0.00     0.074 A 
ATOM     50  C   UNL A   1      41.542  28.187  30.350  1.00  0.00     0.049 A 
ATOM     51  N   UNL A   1      41.696  25.337  28.435  1.00  0.00    -0.248 NA
ATOM     52  C   UNL A   1      40.785  26.688  26.820  1.00  0.00     0.031 C 
ATOM     53  C   UNL A   1      41.101  29.378  31.131  1.00  0.00     0.029 A 
ATOM     54  N   UNL A   1      42.658  27.822  31.066  1.00  0.00    -0.354 N 
ATOM     55  C   UNL A   1      41.856  24.720  27.162  1.00  0.00     0.074 A 
ATOM     56  C   UNL A   1      41.127  25.534  26.239  1.00  0.00     0.031 C 
ATOM     57  C   UNL A   1      41.874  29.571  32.225  1.00  0.00     0.029 A 
ATOM     58  C   UNL A   1      42.875  28.530  32.289  1.00  0.00     0.049 A 
ATOM     59  H   UNL A   1      43.269  27.115  30.756  1.00  0.00     0.167 HD
ATOM     60  C   UNL A   1      42.721  23.682  26.927  1.00  0.00     0.034 A 
ATOM     61  C   UNL A   1      43.747  28.235  33.306  1.00  0.00     0.034 A 
ATOM     62  C   UNL A   1      43.400  23.365  28.137  1.00  0.00     0.049 A 
ATOM     63  C   UNL A   1      44.444  27.042  32.803  1.00  0.00     0.074 A 
ATOM     64  C   UNL A   1      43.060  22.679  29.269  1.00  0.00     0.029 A 
ATOM     65  N   UNL A   1      44.582  24.030  28.359  1.00  0.00    -0.354 N 
ATOM     66  N   UNL A   1      45.363  27.045  31.890  1.00  0.00    -0.248 NA
ATOM     67  C   UNL A   1      43.975  25.723  33.252  1.00  0.00     0.031 C 
ATOM     68  C   UNL A   1      43.783  23.347  30.281  1.00  0.00     0.029 A 
ATOM     69  C   UNL A   1      44.650  24.287  29.705  1.00  0.00     0.049 A 
ATOM     70  H   UNL A   1      45.253  24.276  27.682  1.00  0.00     0.167 HD
ATOM     71  C   UNL A   1      45.369  25.743  31.456  1.00  0.00     0.074 A 
ATOM     72  C   UNL A   1      44.774  24.959  32.516  1.00  0.00     0.031 C 
ATOM     73  C   UNL A   1      45.393  25.457  30.129  1.00  0.00     0.034 A 
BRANCH  60  74
ATOM     74  C   UNL A   1      43.291  23.025  25.682  1.00  0.00     0.023 A 
ATOM     75  C   UNL A   1      43.266  21.601  25.664  1.00  0.00     0.031 A 
ATOM     76  C   UNL A   1      44.113  23.629  24.726  1.00  0.00     0.131 A 
ATOM     77  C   UNL A   1      44.148  20.851  24.876  1.00  0.00     0.055 A 
ATOM     78  C   UNL A   1      44.942  22.872  23.875  1.00  0.00     0.041 A 
ATOM     79  F   UNL A   1      44.215  24.961  24.627  1.00  0.00    -0.206 F 
ATOM     80  C   UNL A   1      44.997  21.482  23.978  1.00  0.00     0.022 A 
BRANCH  77  81
ATOM     81  S   UNL A   1      44.293  19.068  25.209  1.00  0.00     0.124 S 
ATOM     82  O   UNL A   1      45.673  18.952  25.669  1.00  0.00    -0.237 OA
ATOM     83  O   UNL A   1      43.263  18.862  26.224  1.00  0.00    -0.237 OA
ATOM     84  O   UNL A   1      44.015  18.457  23.912  1.00  0.00    -0.744 OA
ENDBRANCH  77  81
ENDBRANCH  60  74
BRANCH  61  85
ATOM     85  C   UNL A   1      44.071  28.649  34.739  1.00  0.00     0.023 A 
ATOM     86  C   UNL A   1      44.293  27.810  35.849  1.00  0.00     0.031 A 
ATOM     87  C   UNL A   1      44.189  30.047  35.034  1.00  0.00     0.131 A 
ATOM     88  C   UNL A   1      44.676  28.368  37.110  1.00  0.00     0.055 A 
ATOM     89  C   UNL A   1      44.645  30.578  36.239  1.00  0.00     0.041 A 
ATOM     90  F   UNL A   1      43.854  30.998  34.152  1.00  0.00    -0.206 F 
ATOM     91  C   UNL A   1      44.907  29.734  37.287  1.00  0.00     0.022 A 
BRANCH  88  92
ATOM     92  S   UNL A   1      44.897  27.332  38.594  1.00  0.00     0.124 S 
ATOM     93  O   UNL A   1      45.100  28.330  39.637  1.00  0.00    -0.237 OA
ATOM     94  O   UNL A   1      43.648  26.580  38.654  1.00  0.00    -0.237 OA
ATOM     95  O   UNL A   1      46.077  26.527  38.273  1.00  0.00    -0.744 OA
ENDBRANCH  88  92
ENDBRANCH  61  85
BRANCH  73  96
ATOM     96  C   UNL A   1      45.835  26.628  29.239  1.00  0.00     0.023 A 
ATOM     97  C   UNL A   1      44.885  27.450  28.604  1.00  0.00     0.031 A 
ATOM     98  C   UNL A   1      47.177  26.876  28.890  1.00  0.00     0.131 A 
ATOM     99  C   UNL A   1      45.281  28.423  27.661  1.00  0.00     0.055 A 
ATOM    100  C   UNL A   1      47.577  27.843  27.958  1.00  0.00     0.041 A 
ATOM    101  F   UNL A   1      48.163  26.176  29.439  1.00  0.00    -0.206 F 
ATOM    102  C   UNL A   1      46.623  28.621  27.331  1.00  0.00     0.022 A 
BRANCH  99 103
ATOM    103  S   UNL A   1      44.020  29.460  26.871  1.00  0.00     0.124 S 
ATOM    104  O   UNL A   1      44.806  30.554  26.315  1.00  0.00    -0.237 OA
ATOM    105  O   UNL A   1      43.422  28.544  25.906  1.00  0.00    -0.237 OA
ATOM    106  O   UNL A   1      43.141  29.834  27.981  1.00  0.00    -0.744 OA
ENDBRANCH  99 103
ENDBRANCH  73  96
ENDBRANCH  47  48
ENDBRANCH  39  42
ENDBRANCH  37  38
ENDBRANCH   1  37
TORSDOF 17
ENDMDL
MODEL 2
REMARK VINA RESULT:     -11.2      4.130     13.292
REMARK SMILES Cc1cccc(N2C(=O)/C(=C/c3cccn3-c3cccc(C(=O)NCCCNC(=O)c4ccc(-c5c6nc(c(-c7cc(S(=O)(=O)[O-])ccc7F)c7ccc([nH]7)c(-c7cc(S(=O)(=O)[O-])ccc7F)c7nc(c(-c8cc(S(=O)(=O)[O-])ccc8F)c8ccc5[nH]8)C=C7)C=C6)cc4)c3)C(O)=NC2=S)c1C
REMARK SMILES IDX 26 1 25 2 24 3 22 4 23 5 21 7 17 8 18 9 94 10 19 11 20 12
REMARK SMILES IDX 16 13 12 14 13 15 14 16 15 17 11 18 7 19 8 20 98 21 9 22
REMARK SMILES IDX 10 23 97 24 99 25 95 26 6 27 1 28 2 29 3 30 100 31 4 32
REMARK SMILES IDX 101 33 5 34 96 35 27 37 28 38 29 39 30 41 31 42 32 43 93 44
REMARK SMILES IDX 33 45 92 46 34 47 35 48 36 49 86 50 37 51 91 52 85 53 87 54
REMARK SMILES IDX 38 55 90 56 84 57 83 58 39 60 71 61 51 62 70 63 52 64 55 65
REMARK SMILES IDX 69 66 88 67 53 68 54 69 68 71 89 72 56 73 40 74 41 75 49 76
REMARK SMILES IDX 42 77 48 78 50 79 47 80 43 81 44 82 45 83 46 84 72 85 73 86
REMARK SMILES IDX 81 87 74 88 80 89 82 90 79 91 75 92 76 93 77 94 78 95 57 96
REMARK SMILES IDX 58 97 66 98 59 99 65 100 67 101 64 102 60 103 61 104 62 105
REMARK SMILES IDX 63 106
REMARK H PARENT 24 6 96 36 28 40 87 59 55 70
REMARK Flexibility Score: inf
ROOT
ATOM      1  C   UNL A   1      41.710  22.884  28.182  1.00  0.00     0.042 C 
ENDROOT
BRANCH   1   2
ATOM      2  C   UNL A   1      43.118  22.293  28.305  1.00  0.00     0.118 C 
BRANCH   2   3
ATOM      3  N   UNL A   1      43.808  22.139  27.037  1.00  0.00    -0.352 N 
ATOM      4  C   UNL A   1      44.708  22.866  26.301  1.00  0.00     0.251 C 
ATOM      5  O   UNL A   1      45.133  22.333  25.275  1.00  0.00    -0.269 OA
ATOM      6  H   UNL A   1      43.567  21.296  26.589  1.00  0.00     0.163 HD
BRANCH   4   7
ATOM      7  C   UNL A   1      45.169  24.250  26.615  1.00  0.00     0.041 A 
ATOM      8  C   UNL A   1      46.418  25.892  27.916  1.00  0.00     0.046 A 
ATOM      9  C   UNL A   1      45.761  26.934  27.255  1.00  0.00     0.026 A 
ATOM     10  C   UNL A   1      46.135  24.567  27.566  1.00  0.00     0.040 A 
ATOM     11  C   UNL A   1      44.845  26.640  26.244  1.00  0.00     0.003 A 
ATOM     12  C   UNL A   1      44.547  25.310  25.935  1.00  0.00     0.014 A 
BRANCH   8  13
ATOM     13  N   UNL A   1      47.254  26.154  29.046  1.00  0.00    -0.317 N 
ATOM     14  C   UNL A   1      48.549  26.699  29.101  1.00  0.00     0.047 A 
ATOM     15  C   UNL A   1      49.011  26.554  30.400  1.00  0.00     0.028 A 
ATOM     16  C   UNL A   1      48.027  25.880  31.147  1.00  0.00     0.020 A 
ATOM     17  C   UNL A   1      46.951  25.687  30.316  1.00  0.00     0.092 A 
BRANCH  14  18
ATOM     18  C   UNL A   1      49.144  27.351  27.982  1.00  0.00     0.046 C 
ATOM     19  N   UNL A   1      51.478  27.159  25.172  1.00  0.00    -0.251 N 
ATOM     20  C   UNL A   1      50.478  27.695  25.990  1.00  0.00     0.270 C 
ATOM     21  C   UNL A   1      52.069  25.903  25.414  1.00  0.00     0.210 C 
ATOM     22  O   UNL A   1      50.006  28.826  25.872  1.00  0.00    -0.268 OA
ATOM     23  C   UNL A   1      49.983  26.789  27.082  1.00  0.00     0.104 C 
ATOM     24  N   UNL A   1      51.378  25.003  26.186  1.00  0.00    -0.184 NA
ATOM     25  S   UNL A   1      53.611  25.452  24.861  1.00  0.00    -0.038 S 
ATOM     26  C   UNL A   1      50.441  25.401  26.961  1.00  0.00     0.226 C 
BRANCH  19  27
ATOM     27  C   UNL A   1      51.969  28.000  24.113  1.00  0.00     0.055 A 
ATOM     28  C   UNL A   1      51.456  28.786  20.382  1.00  0.00     0.044 C 
ATOM     29  C   UNL A   1      51.980  28.772  21.795  1.00  0.00    -0.046 A 
ATOM     30  C   UNL A   1      53.074  29.598  22.104  1.00  0.00     0.004 A 
ATOM     31  C   UNL A   1      51.402  27.971  22.810  1.00  0.00    -0.024 A 
ATOM     32  C   UNL A   1      53.597  29.647  23.393  1.00  0.00     0.002 A 
ATOM     33  C   UNL A   1      50.182  27.128  22.525  1.00  0.00     0.047 C 
ATOM     34  C   UNL A   1      53.044  28.856  24.395  1.00  0.00     0.027 A 
ENDBRANCH  19  27
BRANCH  26  35
ATOM     35  O   UNL A   1      49.803  24.437  27.635  1.00  0.00    -0.493 OA
ATOM     36  H   UNL A   1      50.172  23.577  27.685  1.00  0.00     0.295 HD
ENDBRANCH  26  35
ENDBRANCH  14  18
ENDBRANCH   8  13
ENDBRANCH   4   7
ENDBRANCH   2   3
ENDBRANCH   1   2
BRANCH   1  37
ATOM     37  C   UNL A   1      41.475  23.437  26.779  1.00  0.00     0.118 C 
BRANCH  37  38
ATOM     38  N   UNL A   1      40.047  23.523  26.490  1.00  0.00    -0.352 N 
ATOM     39  C   UNL A   1      39.115  24.474  26.835  1.00  0.00     0.251 C 
ATOM     40  H   UNL A   1      39.691  22.774  25.959  1.00  0.00     0.163 HD
ATOM     41  O   UNL A   1      37.934  24.258  26.629  1.00  0.00    -0.269 OA
BRANCH  39  42
ATOM     42  C   UNL A   1      39.525  25.727  27.495  1.00  0.00     0.039 A 
ATOM     43  C   UNL A   1      40.015  26.755  26.681  1.00  0.00     0.014 A 
ATOM     44  C   UNL A   1      39.461  25.885  28.882  1.00  0.00     0.014 A 
ATOM     45  C   UNL A   1      40.368  27.969  27.252  1.00  0.00     0.010 A 
ATOM     46  C   UNL A   1      39.750  27.115  29.449  1.00  0.00     0.010 A 
ATOM     47  C   UNL A   1      40.204  28.151  28.631  1.00  0.00    -0.014 A 
BRANCH  47  48
ATOM     48  C   UNL A   1      40.421  29.497  29.195  1.00  0.00     0.031 A 
ATOM     49  C   UNL A   1      39.061  30.143  29.586  1.00  0.00     0.074 A 
ATOM     50  C   UNL A   1      41.728  29.912  29.222  1.00  0.00     0.049 A 
ATOM     51  N   UNL A   1      38.619  31.358  29.459  1.00  0.00    -0.248 NA
ATOM     52  C   UNL A   1      37.974  29.248  30.088  1.00  0.00     0.031 C 
ATOM     53  C   UNL A   1      42.908  29.083  28.843  1.00  0.00     0.029 A 
ATOM     54  N   UNL A   1      42.353  31.087  29.567  1.00  0.00    -0.354 N 
ATOM     55  C   UNL A   1      37.339  31.424  30.079  1.00  0.00     0.074 A 
ATOM     56  C   UNL A   1      36.938  30.068  30.293  1.00  0.00     0.031 C 
ATOM     57  C   UNL A   1      44.057  29.796  28.899  1.00  0.00     0.029 A 
ATOM     58  C   UNL A   1      43.754  31.153  29.293  1.00  0.00     0.049 A 
ATOM     59  H   UNL A   1      41.864  31.838  29.976  1.00  0.00     0.167 HD
ATOM     60  C   UNL A   1      36.777  32.590  30.534  1.00  0.00     0.034 A 
ATOM     61  C   UNL A   1      44.578  32.250  29.308  1.00  0.00     0.034 A 
ATOM     62  C   UNL A   1      37.679  33.663  30.287  1.00  0.00     0.049 A 
ATOM     63  C   UNL A   1      43.676  33.332  29.730  1.00  0.00     0.074 A 
ATOM     64  C   UNL A   1      38.017  34.388  29.179  1.00  0.00     0.029 A 
ATOM     65  N   UNL A   1      38.574  33.943  31.291  1.00  0.00    -0.354 N 
ATOM     66  N   UNL A   1      43.250  33.519  30.940  1.00  0.00    -0.248 NA
ATOM     67  C   UNL A   1      43.085  34.188  28.691  1.00  0.00     0.031 C 
ATOM     68  C   UNL A   1      39.377  34.696  29.398  1.00  0.00     0.029 A 
ATOM     69  C   UNL A   1      39.754  34.298  30.689  1.00  0.00     0.049 A 
ATOM     70  H   UNL A   1      38.403  33.899  32.260  1.00  0.00     0.167 HD
ATOM     71  C   UNL A   1      42.142  34.307  30.756  1.00  0.00     0.074 A 
ATOM     72  C   UNL A   1      42.295  34.930  29.459  1.00  0.00     0.031 C 
ATOM     73  C   UNL A   1      40.983  34.033  31.410  1.00  0.00     0.034 A 
BRANCH  60  74
ATOM     74  C   UNL A   1      35.608  32.932  31.441  1.00  0.00     0.023 A 
ATOM     75  C   UNL A   1      34.770  33.995  31.000  1.00  0.00     0.031 A 
ATOM     76  C   UNL A   1      35.456  32.555  32.779  1.00  0.00     0.131 A 
ATOM     77  C   UNL A   1      33.987  34.743  31.888  1.00  0.00     0.055 A 
ATOM     78  C   UNL A   1      34.606  33.257  33.655  1.00  0.00     0.041 A 
ATOM     79  F   UNL A   1      36.174  31.559  33.315  1.00  0.00    -0.206 F 
ATOM     80  C   UNL A   1      33.903  34.383  33.225  1.00  0.00     0.022 A 
BRANCH  77  81
ATOM     81  S   UNL A   1      33.260  36.300  31.290  1.00  0.00     0.124 S 
ATOM     82  O   UNL A   1      34.117  37.301  31.916  1.00  0.00    -0.237 OA
ATOM     83  O   UNL A   1      33.393  36.163  29.842  1.00  0.00    -0.237 OA
ATOM     84  O   UNL A   1      31.889  36.251  31.793  1.00  0.00    -0.744 OA
ENDBRANCH  77  81
ENDBRANCH  60  74
BRANCH  61  85
ATOM     85  C   UNL A   1      45.990  32.671  28.906  1.00  0.00     0.023 A 
ATOM     86  C   UNL A   1      46.395  33.288  27.707  1.00  0.00     0.031 A 
ATOM     87  C   UNL A   1      47.058  32.443  29.834  1.00  0.00     0.131 A 
ATOM     88  C   UNL A   1      47.756  33.697  27.530  1.00  0.00     0.055 A 
ATOM     89  C   UNL A   1      48.361  32.919  29.692  1.00  0.00     0.041 A 
ATOM     90  F   UNL A   1      46.898  31.723  30.952  1.00  0.00    -0.206 F 
ATOM     91  C   UNL A   1      48.715  33.566  28.537  1.00  0.00     0.022 A 
BRANCH  88  92
ATOM     92  S   UNL A   1      48.347  34.427  25.967  1.00  0.00     0.124 S 
ATOM     93  O   UNL A   1      48.789  35.749  26.396  1.00  0.00    -0.237 OA
ATOM     94  O   UNL A   1      49.392  33.500  25.550  1.00  0.00    -0.237 OA
ATOM     95  O   UNL A   1      47.153  34.422  25.119  1.00  0.00    -0.744 OA
ENDBRANCH  88  92
ENDBRANCH  61  85
BRANCH  73  96
ATOM     96  C   UNL A   1      41.147  33.104  32.622  1.00  0.00     0.023 A 
ATOM     97  C   UNL A   1      40.729  31.762  32.564  1.00  0.00     0.031 A 
ATOM     98  C   UNL A   1      41.585  33.546  33.886  1.00  0.00     0.131 A 
ATOM     99  C   UNL A   1      40.728  30.950  33.718  1.00  0.00     0.055 A 
ATOM    100  C   UNL A   1      41.590  32.744  35.036  1.00  0.00     0.041 A 
ATOM    101  F   UNL A   1      42.020  34.789  34.060  1.00  0.00    -0.206 F 
ATOM    102  C   UNL A   1      41.153  31.436  34.957  1.00  0.00     0.022 A 
BRANCH  99 103
ATOM    103  S   UNL A   1      40.183  29.225  33.592  1.00  0.00     0.124 S 
ATOM    104  O   UNL A   1      40.877  28.756  32.399  1.00  0.00    -0.237 OA
ATOM    105  O   UNL A   1      40.633  28.661  34.860  1.00  0.00    -0.237 OA
ATOM    106  O   UNL A   1      38.729  29.336  33.457  1.00  0.00    -0.744 OA
ENDBRANCH  99 103
ENDBRANCH  73  96
ENDBRANCH  47  48
ENDBRANCH  39  42
ENDBRANCH  37  38
ENDBRANCH   1  37
TORSDOF 17
ENDMDL
MODEL 3
REMARK VINA RESULT:     -11.2      3.534     11.333
REMARK SMILES Cc1cccc(N2C(=O)/C(=C/c3cccn3-c3cccc(C(=O)NCCCNC(=O)c4ccc(-c5c6nc(c(-c7cc(S(=O)(=O)[O-])ccc7F)c7ccc([nH]7)c(-c7cc(S(=O)(=O)[O-])ccc7F)c7nc(c(-c8cc(S(=O)(=O)[O-])ccc8F)c8ccc5[nH]8)C=C7)C=C6)cc4)c3)C(O)=NC2=S)c1C
REMARK SMILES IDX 26 1 25 2 24 3 22 4 23 5 21 7 17 8 18 9 94 10 19 11 20 12
REMARK SMILES IDX 16 13 12 14 13 15 14 16 15 17 11 18 7 19 8 20 98 21 9 22
REMARK SMILES IDX 10 23 97 24 99 25 95 26 6 27 1 28 2 29 3 30 100 31 4 32
REMARK SMILES IDX 101 33 5 34 96 35 27 37 28 38 29 39 30 41 31 42 32 43 93 44
REMARK SMILES IDX 33 45 92 46 34 47 35 48 36 49 86 50 37 51 91 52 85 53 87 54
REMARK SMILES IDX 38 55 90 56 84 57 83 58 39 60 71 61 51 62 70 63 52 64 55 65
REMARK SMILES IDX 69 66 88 67 53 68 54 69 68 71 89 72 56 73 40 74 41 75 49 76
REMARK SMILES IDX 42 77 48 78 50 79 47 80 43 81 44 82 45 83 46 84 72 85 73 86
REMARK SMILES IDX 81 87 74 88 80 89 82 90 79 91 75 92 76 93 77 94 78 95 57 96
REMARK SMILES IDX 58 97 66 98 59 99 65 100 67 101 64 102 60 103 61 104 62 105
REMARK SMILES IDX 63 106
REMARK H PARENT 24 6 96 36 28 40 87 59 55 70
REMARK Flexibility Score: inf
ROOT
ATOM      1  C   UNL A   1      43.052  24.881  25.259  1.00  0.00     0.042 C 
ENDROOT
BRANCH   1   2
ATOM      2  C   UNL A   1      44.186  25.705  25.876  1.00  0.00     0.118 C 
BRANCH   2   3
ATOM      3  N   UNL A   1      45.388  24.940  26.159  1.00  0.00    -0.352 N 
ATOM      4  C   UNL A   1      45.960  24.362  27.263  1.00  0.00     0.251 C 
ATOM      5  O   UNL A   1      46.983  23.704  27.067  1.00  0.00    -0.269 OA
ATOM      6  H   UNL A   1      45.933  24.802  25.351  1.00  0.00     0.163 HD
BRANCH   4   7
ATOM      7  C   UNL A   1      45.477  24.505  28.667  1.00  0.00     0.041 A 
ATOM      8  C   UNL A   1      45.542  25.461  30.911  1.00  0.00     0.046 A 
ATOM      9  C   UNL A   1      44.631  24.498  31.359  1.00  0.00     0.026 A 
ATOM     10  C   UNL A   1      45.928  25.469  29.566  1.00  0.00     0.040 A 
ATOM     11  C   UNL A   1      44.107  23.571  30.458  1.00  0.00     0.003 A 
ATOM     12  C   UNL A   1      44.534  23.571  29.127  1.00  0.00     0.014 A 
BRANCH   8  13
ATOM     13  N   UNL A   1      46.200  26.331  31.833  1.00  0.00    -0.317 N 
ATOM     14  C   UNL A   1      46.313  26.242  33.232  1.00  0.00     0.047 A 
ATOM     15  C   UNL A   1      46.860  27.432  33.687  1.00  0.00     0.028 A 
ATOM     16  C   UNL A   1      47.049  28.282  32.582  1.00  0.00     0.020 A 
ATOM     17  C   UNL A   1      46.684  27.576  31.461  1.00  0.00     0.092 A 
BRANCH  14  18
ATOM     18  C   UNL A   1      45.985  25.051  33.943  1.00  0.00     0.046 C 
ATOM     19  N   UNL A   1      47.098  21.816  35.240  1.00  0.00    -0.251 N 
ATOM     20  C   UNL A   1      46.246  22.907  35.039  1.00  0.00     0.270 C 
ATOM     21  C   UNL A   1      48.392  21.748  34.685  1.00  0.00     0.210 C 
ATOM     22  O   UNL A   1      45.077  22.964  35.422  1.00  0.00    -0.268 OA
ATOM     23  C   UNL A   1      46.844  24.066  34.292  1.00  0.00     0.104 C 
ATOM     24  N   UNL A   1      48.997  22.924  34.313  1.00  0.00    -0.184 NA
ATOM     25  S   UNL A   1      49.230  20.300  34.393  1.00  0.00    -0.038 S 
ATOM     26  C   UNL A   1      48.296  23.975  34.113  1.00  0.00     0.226 C 
BRANCH  19  27
ATOM     27  C   UNL A   1      46.557  20.693  35.957  1.00  0.00     0.055 A 
ATOM     28  C   UNL A   1      46.613  18.989  39.406  1.00  0.00     0.044 C 
ATOM     29  C   UNL A   1      46.338  19.310  37.959  1.00  0.00    -0.046 A 
ATOM     30  C   UNL A   1      45.539  18.419  37.223  1.00  0.00     0.004 A 
ATOM     31  C   UNL A   1      46.845  20.474  37.332  1.00  0.00    -0.024 A 
ATOM     32  C   UNL A   1      45.232  18.663  35.888  1.00  0.00     0.002 A 
ATOM     33  C   UNL A   1      47.646  21.485  38.117  1.00  0.00     0.047 C 
ATOM     34  C   UNL A   1      45.734  19.798  35.259  1.00  0.00     0.027 A 
ENDBRANCH  19  27
BRANCH  26  35
ATOM     35  O   UNL A   1      48.990  25.077  33.797  1.00  0.00    -0.493 OA
ATOM     36  H   UNL A   1      49.226  25.689  34.465  1.00  0.00     0.295 HD
ENDBRANCH  26  35
ENDBRANCH  14  18
ENDBRANCH   8  13
ENDBRANCH   4   7
ENDBRANCH   2   3
ENDBRANCH   1   2
BRANCH   1  37
ATOM     37  C   UNL A   1      42.222  24.201  26.345  1.00  0.00     0.118 C 
BRANCH  37  38
ATOM     38  N   UNL A   1      40.814  24.153  25.965  1.00  0.00    -0.352 N 
ATOM     39  C   UNL A   1      39.714  24.773  26.510  1.00  0.00     0.251 C 
ATOM     40  H   UNL A   1      40.619  23.580  25.188  1.00  0.00     0.163 HD
ATOM     41  O   UNL A   1      38.599  24.455  26.133  1.00  0.00    -0.269 OA
BRANCH  39  42
ATOM     42  C   UNL A   1      39.867  25.779  27.577  1.00  0.00     0.039 A 
ATOM     43  C   UNL A   1      40.664  26.896  27.301  1.00  0.00     0.014 A 
ATOM     44  C   UNL A   1      39.270  25.621  28.830  1.00  0.00     0.014 A 
ATOM     45  C   UNL A   1      40.797  27.892  28.258  1.00  0.00     0.010 A 
ATOM     46  C   UNL A   1      39.347  26.640  29.764  1.00  0.00     0.010 A 
ATOM     47  C   UNL A   1      40.113  27.772  29.474  1.00  0.00    -0.014 A 
BRANCH  47  48
ATOM     48  C   UNL A   1      40.128  28.914  30.408  1.00  0.00     0.031 A 
ATOM     49  C   UNL A   1      41.146  28.657  31.556  1.00  0.00     0.074 A 
ATOM     50  C   UNL A   1      39.242  29.918  30.111  1.00  0.00     0.049 A 
ATOM     51  N   UNL A   1      41.082  28.901  32.831  1.00  0.00    -0.248 NA
ATOM     52  C   UNL A   1      42.387  27.887  31.239  1.00  0.00     0.031 C 
ATOM     53  C   UNL A   1      38.384  29.984  28.894  1.00  0.00     0.029 A 
ATOM     54  N   UNL A   1      38.871  31.083  30.739  1.00  0.00    -0.354 N 
ATOM     55  C   UNL A   1      42.338  28.556  33.404  1.00  0.00     0.074 A 
ATOM     56  C   UNL A   1      43.026  27.792  32.410  1.00  0.00     0.031 C 
ATOM     57  C   UNL A   1      37.560  31.058  28.923  1.00  0.00     0.029 A 
ATOM     58  C   UNL A   1      37.771  31.784  30.155  1.00  0.00     0.049 A 
ATOM     59  H   UNL A   1      39.333  31.413  31.544  1.00  0.00     0.167 HD
ATOM     60  C   UNL A   1      42.797  29.073  34.589  1.00  0.00     0.034 A 
ATOM     61  C   UNL A   1      37.042  32.822  30.678  1.00  0.00     0.034 A 
ATOM     62  C   UNL A   1      41.828  29.980  35.102  1.00  0.00     0.049 A 
ATOM     63  C   UNL A   1      37.707  33.072  31.966  1.00  0.00     0.074 A 
ATOM     64  C   UNL A   1      40.637  29.832  35.755  1.00  0.00     0.029 A 
ATOM     65  N   UNL A   1      41.962  31.292  34.715  1.00  0.00    -0.354 N 
ATOM     66  N   UNL A   1      38.845  33.674  32.113  1.00  0.00    -0.248 NA
ATOM     67  C   UNL A   1      37.125  32.474  33.175  1.00  0.00     0.031 C 
ATOM     68  C   UNL A   1      39.883  30.939  35.307  1.00  0.00     0.029 A 
ATOM     69  C   UNL A   1      40.696  31.791  34.545  1.00  0.00     0.049 A 
ATOM     70  H   UNL A   1      42.806  31.781  34.584  1.00  0.00     0.167 HD
ATOM     71  C   UNL A   1      39.244  33.274  33.363  1.00  0.00     0.074 A 
ATOM     72  C   UNL A   1      38.048  32.846  34.055  1.00  0.00     0.031 C 
ATOM     73  C   UNL A   1      40.519  32.859  33.582  1.00  0.00     0.034 A 
BRANCH  60  74
ATOM     74  C   UNL A   1      44.144  29.111  35.290  1.00  0.00     0.023 A 
ATOM     75  C   UNL A   1      44.325  28.168  36.341  1.00  0.00     0.031 A 
ATOM     76  C   UNL A   1      45.076  30.153  35.243  1.00  0.00     0.131 A 
ATOM     77  C   UNL A   1      45.249  28.371  37.373  1.00  0.00     0.055 A 
ATOM     78  C   UNL A   1      46.060  30.313  36.238  1.00  0.00     0.041 A 
ATOM     79  F   UNL A   1      45.027  31.098  34.295  1.00  0.00    -0.206 F 
ATOM     80  C   UNL A   1      46.122  29.449  37.331  1.00  0.00     0.022 A 
BRANCH  77  81
ATOM     81  S   UNL A   1      45.135  27.315  38.850  1.00  0.00     0.124 S 
ATOM     82  O   UNL A   1      46.350  26.514  38.750  1.00  0.00    -0.237 OA
ATOM     83  O   UNL A   1      45.106  28.299  39.928  1.00  0.00    -0.237 OA
ATOM     84  O   UNL A   1      43.887  26.581  38.647  1.00  0.00    -0.744 OA
ENDBRANCH  77  81
ENDBRANCH  60  74
BRANCH  61  85
ATOM     85  C   UNL A   1      35.768  33.620  30.414  1.00  0.00     0.023 A 
ATOM     86  C   UNL A   1      35.002  34.351  31.343  1.00  0.00     0.031 A 
ATOM     87  C   UNL A   1      35.262  33.671  29.073  1.00  0.00     0.131 A 
ATOM     88  C   UNL A   1      33.876  35.120  30.903  1.00  0.00     0.055 A 
ATOM     89  C   UNL A   1      34.219  34.487  28.639  1.00  0.00     0.041 A 
ATOM     90  F   UNL A   1      35.758  32.910  28.089  1.00  0.00    -0.206 F 
ATOM     91  C   UNL A   1      33.525  35.233  29.556  1.00  0.00     0.022 A 
BRANCH  88  92
ATOM     92  S   UNL A   1      32.808  36.019  32.076  1.00  0.00     0.124 S 
ATOM     93  O   UNL A   1      32.360  37.152  31.275  1.00  0.00    -0.237 OA
ATOM     94  O   UNL A   1      31.793  35.027  32.416  1.00  0.00    -0.237 OA
ATOM     95  O   UNL A   1      33.718  36.359  33.171  1.00  0.00    -0.744 OA
ENDBRANCH  88  92
ENDBRANCH  61  85
BRANCH  73  96
ATOM     96  C   UNL A   1      41.514  33.275  32.489  1.00  0.00     0.023 A 
ATOM     97  C   UNL A   1      42.055  32.323  31.605  1.00  0.00     0.031 A 
ATOM     98  C   UNL A   1      42.050  34.573  32.379  1.00  0.00     0.131 A 
ATOM     99  C   UNL A   1      43.087  32.669  30.706  1.00  0.00     0.055 A 
ATOM    100  C   UNL A   1      43.072  34.925  31.487  1.00  0.00     0.041 A 
ATOM    101  F   UNL A   1      41.605  35.561  33.148  1.00  0.00    -0.206 F 
ATOM    102  C   UNL A   1      43.602  33.966  30.645  1.00  0.00     0.022 A 
BRANCH  99 103
ATOM    103  S   UNL A   1      43.750  31.408  29.586  1.00  0.00     0.124 S 
ATOM    104  O   UNL A   1      42.551  30.896  28.933  1.00  0.00    -0.237 OA
ATOM    105  O   UNL A   1      44.658  32.182  28.745  1.00  0.00    -0.237 OA
ATOM    106  O   UNL A   1      44.412  30.463  30.488  1.00  0.00    -0.744 OA
ENDBRANCH  99 103
ENDBRANCH  73  96
ENDBRANCH  47  48
ENDBRANCH  39  42
ENDBRANCH  37  38
ENDBRANCH   1  37
TORSDOF 17
ENDMDL
