MODEL 1
REMARK VINA RESULT:     -12.8      0.000      0.000
REMARK SMILES O=C(Cc1ccc(NC(=O)Nc2ccc(Br)cc2)cc1)NCCCNC(=O)c1ccc(-c2c3nc(c(-c4cc(S(=O)(=O)[O-])ccc4F)c4ccc([nH]4)c(-c4cc(S(=O)(=O)[O-])ccc4F)c4nc(c(-c5cc(S(=O)(=O)[O-])ccc5F)c5ccc2[nH]5)C=C4)C=C3)cc1
REMARK SMILES IDX 23 1 22 2 21 3 1 4 2 5 3 7 4 8 5 9 20 10 6 11 19 12 7 13
REMARK SMILES IDX 8 14 9 15 10 17 11 18 12 20 13 21 18 22 14 23 17 24 15 25
REMARK SMILES IDX 16 26 24 27 25 28 26 29 27 31 28 32 29 33 90 34 30 35 89 36
REMARK SMILES IDX 31 37 32 38 33 39 83 40 34 41 88 42 82 43 84 44 35 45 87 46
REMARK SMILES IDX 81 47 80 48 36 50 68 51 48 52 67 53 49 54 52 55 66 56 85 57
REMARK SMILES IDX 50 58 51 59 65 61 86 62 53 63 37 64 38 65 46 66 39 67 45 68
REMARK SMILES IDX 47 69 44 70 40 71 41 72 42 73 43 74 69 75 70 76 78 77 71 78
REMARK SMILES IDX 77 79 79 80 76 81 72 82 73 83 74 84 75 85 54 86 55 87 63 88
REMARK SMILES IDX 56 89 62 90 64 91 61 92 57 93 58 94 59 95 60 96
REMARK H PARENT 21 6 8 16 11 19 25 30 84 49 52 60
REMARK Flexibility Score: inf
ROOT
ATOM      1  C   UNL A   1      35.451  21.310  24.791  1.00  0.00     0.042 C 
ENDROOT
BRANCH   1   2
ATOM      2  C   UNL A   1      34.392  21.223  25.878  1.00  0.00     0.117 C 
BRANCH   2   3
ATOM      3  N   UNL A   1      33.701  22.471  26.151  1.00  0.00    -0.356 N 
ATOM      4  O   UNL A   1      31.615  21.667  25.605  1.00  0.00    -0.275 OA
ATOM      5  C   UNL A   1      32.327  22.573  26.031  1.00  0.00     0.224 C 
ATOM      6  H   UNL A   1      34.222  23.260  26.428  1.00  0.00     0.163 HD
BRANCH   5   7
ATOM      7  C   UNL A   1      31.737  23.894  26.509  1.00  0.00     0.135 C 
BRANCH   7   8
ATOM      8  C   UNL A   1      31.206  24.756  25.385  1.00  0.00    -0.039 A 
ATOM      9  C   UNL A   1      30.051  25.536  25.532  1.00  0.00     0.006 A 
ATOM     10  C   UNL A   1      31.865  24.778  24.151  1.00  0.00     0.006 A 
ATOM     11  C   UNL A   1      29.663  26.436  24.531  1.00  0.00     0.026 A 
ATOM     12  C   UNL A   1      31.485  25.691  23.164  1.00  0.00     0.026 A 
ATOM     13  C   UNL A   1      30.452  26.603  23.397  1.00  0.00     0.042 A 
BRANCH  13  14
ATOM     14  N   UNL A   1      30.313  27.642  22.464  1.00  0.00    -0.308 N 
ATOM     15  C   UNL A   1      30.333  28.988  22.509  1.00  0.00     0.323 C 
ATOM     16  H   UNL A   1      30.167  27.304  21.551  1.00  0.00     0.171 HD
ATOM     17  O   UNL A   1      29.842  29.590  21.546  1.00  0.00    -0.248 OA
ATOM     18  N   UNL A   1      30.822  29.738  23.514  1.00  0.00    -0.308 N 
ATOM     19  H   UNL A   1      30.456  30.651  23.516  1.00  0.00     0.171 HD
BRANCH  18  20
ATOM     20  C   UNL A   1      31.732  29.522  24.557  1.00  0.00     0.042 A 
ATOM     21  C   UNL A   1      32.933  28.892  24.213  1.00  0.00     0.027 A 
ATOM     22  C   UNL A   1      31.525  29.921  25.877  1.00  0.00     0.027 A 
ATOM     23  C   UNL A   1      33.978  28.811  25.132  1.00  0.00     0.018 A 
ATOM     24  C   UNL A   1      32.573  29.840  26.802  1.00  0.00     0.018 A 
ATOM     25  C   UNL A   1      33.805  29.317  26.415  1.00  0.00     0.018 A 
ATOM     26  Br  UNL A   1      35.274  29.302  27.603  1.00  0.00    -0.051 Br
ENDBRANCH  18  20
ENDBRANCH  13  14
ENDBRANCH   7   8
ENDBRANCH   5   7
ENDBRANCH   2   3
ENDBRANCH   1   2
BRANCH   1  27
ATOM     27  C   UNL A   1      36.810  21.828  25.249  1.00  0.00     0.118 C 
BRANCH  27  28
ATOM     28  N   UNL A   1      37.853  20.811  25.330  1.00  0.00    -0.352 N 
ATOM     29  C   UNL A   1      39.110  20.875  25.894  1.00  0.00     0.251 C 
ATOM     30  H   UNL A   1      37.624  19.946  24.918  1.00  0.00     0.163 HD
ATOM     31  O   UNL A   1      39.863  19.907  25.806  1.00  0.00    -0.269 OA
BRANCH  29  32
ATOM     32  C   UNL A   1      39.573  22.119  26.549  1.00  0.00     0.039 A 
ATOM     33  C   UNL A   1      40.562  22.041  27.535  1.00  0.00     0.014 A 
ATOM     34  C   UNL A   1      39.086  23.365  26.152  1.00  0.00     0.014 A 
ATOM     35  C   UNL A   1      41.152  23.211  28.023  1.00  0.00     0.010 A 
ATOM     36  C   UNL A   1      39.738  24.522  26.567  1.00  0.00     0.010 A 
ATOM     37  C   UNL A   1      40.795  24.459  27.489  1.00  0.00    -0.014 A 
BRANCH  37  38
ATOM     38  C   UNL A   1      41.522  25.711  27.838  1.00  0.00     0.031 A 
ATOM     39  C   UNL A   1      40.817  26.799  28.604  1.00  0.00     0.074 A 
ATOM     40  C   UNL A   1      42.766  25.924  27.360  1.00  0.00     0.049 A 
ATOM     41  N   UNL A   1      41.187  28.033  28.824  1.00  0.00    -0.248 NA
ATOM     42  C   UNL A   1      39.499  26.457  29.157  1.00  0.00     0.031 C 
ATOM     43  C   UNL A   1      43.549  24.969  26.571  1.00  0.00     0.029 A 
ATOM     44  N   UNL A   1      43.585  27.026  27.445  1.00  0.00    -0.354 N 
ATOM     45  C   UNL A   1      40.133  28.628  29.509  1.00  0.00     0.074 A 
ATOM     46  C   UNL A   1      39.091  27.628  29.618  1.00  0.00     0.031 C 
ATOM     47  C   UNL A   1      44.733  25.519  26.259  1.00  0.00     0.029 A 
ATOM     48  C   UNL A   1      44.776  26.884  26.770  1.00  0.00     0.049 A 
ATOM     49  H   UNL A   1      43.340  27.840  27.941  1.00  0.00     0.167 HD
ATOM     50  C   UNL A   1      40.049  29.884  30.014  1.00  0.00     0.034 A 
ATOM     51  C   UNL A   1      45.780  27.761  26.563  1.00  0.00     0.034 A 
ATOM     52  C   UNL A   1      41.109  30.858  29.927  1.00  0.00     0.049 A 
ATOM     53  C   UNL A   1      45.664  29.154  27.128  1.00  0.00     0.074 A 
ATOM     54  C   UNL A   1      41.155  32.135  30.460  1.00  0.00     0.029 A 
ATOM     55  N   UNL A   1      42.314  30.663  29.264  1.00  0.00    -0.354 N 
ATOM     56  N   UNL A   1      44.671  29.692  27.797  1.00  0.00    -0.248 NA
ATOM     57  C   UNL A   1      46.803  30.056  26.912  1.00  0.00     0.031 C 
ATOM     58  C   UNL A   1      42.360  32.731  30.072  1.00  0.00     0.029 A 
ATOM     59  C   UNL A   1      43.098  31.803  29.356  1.00  0.00     0.049 A 
ATOM     60  H   UNL A   1      42.574  29.836  28.796  1.00  0.00     0.167 HD
ATOM     61  C   UNL A   1      45.083  30.983  28.114  1.00  0.00     0.074 A 
ATOM     62  C   UNL A   1      46.413  31.143  27.562  1.00  0.00     0.031 C 
ATOM     63  C   UNL A   1      44.424  31.947  28.804  1.00  0.00     0.034 A 
BRANCH  50  64
ATOM     64  C   UNL A   1      38.754  30.276  30.686  1.00  0.00     0.023 A 
ATOM     65  C   UNL A   1      37.814  31.104  30.050  1.00  0.00     0.031 A 
ATOM     66  C   UNL A   1      38.469  29.842  31.993  1.00  0.00     0.131 A 
ATOM     67  C   UNL A   1      36.682  31.546  30.749  1.00  0.00     0.055 A 
ATOM     68  C   UNL A   1      37.297  30.213  32.652  1.00  0.00     0.041 A 
ATOM     69  F   UNL A   1      39.337  29.064  32.659  1.00  0.00    -0.206 F 
ATOM     70  C   UNL A   1      36.403  31.086  32.037  1.00  0.00     0.022 A 
BRANCH  67  71
ATOM     71  S   UNL A   1      35.664  32.851  30.008  1.00  0.00     0.124 S 
ATOM     72  O   UNL A   1      36.329  34.056  30.501  1.00  0.00    -0.237 OA
ATOM     73  O   UNL A   1      35.799  32.586  28.581  1.00  0.00    -0.237 OA
ATOM     74  O   UNL A   1      34.335  32.608  30.567  1.00  0.00    -0.744 OA
ENDBRANCH  67  71
ENDBRANCH  50  64
BRANCH  51  75
ATOM     75  C   UNL A   1      46.978  27.364  25.768  1.00  0.00     0.023 A 
ATOM     76  C   UNL A   1      47.120  27.765  24.430  1.00  0.00     0.031 A 
ATOM     77  C   UNL A   1      47.980  26.547  26.321  1.00  0.00     0.131 A 
ATOM     78  C   UNL A   1      48.213  27.315  23.676  1.00  0.00     0.055 A 
ATOM     79  C   UNL A   1      49.092  26.142  25.581  1.00  0.00     0.041 A 
ATOM     80  F   UNL A   1      47.896  26.140  27.597  1.00  0.00    -0.206 F 
ATOM     81  C   UNL A   1      49.207  26.516  24.245  1.00  0.00     0.022 A 
BRANCH  78  82
ATOM     82  S   UNL A   1      48.278  27.725  21.909  1.00  0.00     0.124 S 
ATOM     83  O   UNL A   1      49.408  28.647  21.861  1.00  0.00    -0.237 OA
ATOM     84  O   UNL A   1      48.490  26.416  21.303  1.00  0.00    -0.237 OA
ATOM     85  O   UNL A   1      46.971  28.325  21.651  1.00  0.00    -0.744 OA
ENDBRANCH  78  82
ENDBRANCH  51  75
BRANCH  63  86
ATOM     86  C   UNL A   1      45.160  33.236  29.060  1.00  0.00     0.023 A 
ATOM     87  C   UNL A   1      44.987  34.366  28.243  1.00  0.00     0.031 A 
ATOM     88  C   UNL A   1      46.040  33.335  30.153  1.00  0.00     0.131 A 
ATOM     89  C   UNL A   1      45.713  35.537  28.510  1.00  0.00     0.055 A 
ATOM     90  C   UNL A   1      46.722  34.516  30.442  1.00  0.00     0.041 A 
ATOM     91  F   UNL A   1      46.240  32.283  30.964  1.00  0.00    -0.206 F 
ATOM     92  C   UNL A   1      46.567  35.623  29.614  1.00  0.00     0.022 A 
BRANCH  89  93
ATOM     93  S   UNL A   1      45.569  36.935  27.364  1.00  0.00     0.124 S 
ATOM     94  O   UNL A   1      45.833  38.073  28.238  1.00  0.00    -0.237 OA
ATOM     95  O   UNL A   1      46.599  36.638  26.374  1.00  0.00    -0.237 OA
ATOM     96  O   UNL A   1      44.194  36.835  26.873  1.00  0.00    -0.744 OA
ENDBRANCH  89  93
ENDBRANCH  63  86
ENDBRANCH  37  38
ENDBRANCH  29  32
ENDBRANCH  27  28
ENDBRANCH   1  27
TORSDOF 16
ENDMDL
MODEL 2
REMARK VINA RESULT:     -12.6      5.508     10.795
REMARK SMILES O=C(Cc1ccc(NC(=O)Nc2ccc(Br)cc2)cc1)NCCCNC(=O)c1ccc(-c2c3nc(c(-c4cc(S(=O)(=O)[O-])ccc4F)c4ccc([nH]4)c(-c4cc(S(=O)(=O)[O-])ccc4F)c4nc(c(-c5cc(S(=O)(=O)[O-])ccc5F)c5ccc2[nH]5)C=C4)C=C3)cc1
REMARK SMILES IDX 23 1 22 2 21 3 1 4 2 5 3 7 4 8 5 9 20 10 6 11 19 12 7 13
REMARK SMILES IDX 8 14 9 15 10 17 11 18 12 20 13 21 18 22 14 23 17 24 15 25
REMARK SMILES IDX 16 26 24 27 25 28 26 29 27 31 28 32 29 33 90 34 30 35 89 36
REMARK SMILES IDX 31 37 32 38 33 39 83 40 34 41 88 42 82 43 84 44 35 45 87 46
REMARK SMILES IDX 81 47 80 48 36 50 68 51 48 52 67 53 49 54 52 55 66 56 85 57
REMARK SMILES IDX 50 58 51 59 65 61 86 62 53 63 37 64 38 65 46 66 39 67 45 68
REMARK SMILES IDX 47 69 44 70 40 71 41 72 42 73 43 74 69 75 70 76 78 77 71 78
REMARK SMILES IDX 77 79 79 80 76 81 72 82 73 83 74 84 75 85 54 86 55 87 63 88
REMARK SMILES IDX 56 89 62 90 64 91 61 92 57 93 58 94 59 95 60 96
REMARK H PARENT 21 6 8 16 11 19 25 30 84 49 52 60
REMARK Flexibility Score: inf
ROOT
ATOM      1  C   UNL A   1      31.237  32.002  26.940  1.00  0.00     0.042 C 
ENDROOT
BRANCH   1   2
ATOM      2  C   UNL A   1      30.804  31.683  25.518  1.00  0.00     0.117 C 
BRANCH   2   3
ATOM      3  N   UNL A   1      31.301  30.419  25.002  1.00  0.00    -0.356 N 
ATOM      4  O   UNL A   1      29.624  30.165  23.447  1.00  0.00    -0.275 OA
ATOM      5  C   UNL A   1      30.675  29.776  23.950  1.00  0.00     0.224 C 
ATOM      6  H   UNL A   1      32.100  30.013  25.410  1.00  0.00     0.163 HD
BRANCH   5   7
ATOM      7  C   UNL A   1      31.408  28.551  23.418  1.00  0.00     0.135 C 
BRANCH   7   8
ATOM      8  C   UNL A   1      31.168  27.303  24.240  1.00  0.00    -0.039 A 
ATOM      9  C   UNL A   1      31.995  26.957  25.317  1.00  0.00     0.006 A 
ATOM     10  C   UNL A   1      30.105  26.452  23.921  1.00  0.00     0.006 A 
ATOM     11  C   UNL A   1      31.666  25.880  26.152  1.00  0.00     0.026 A 
ATOM     12  C   UNL A   1      29.772  25.391  24.767  1.00  0.00     0.026 A 
ATOM     13  C   UNL A   1      30.486  25.172  25.949  1.00  0.00     0.042 A 
BRANCH  13  14
ATOM     14  N   UNL A   1      29.927  24.260  26.857  1.00  0.00    -0.308 N 
ATOM     15  C   UNL A   1      29.896  22.919  26.982  1.00  0.00     0.323 C 
ATOM     16  H   UNL A   1      29.437  24.711  27.582  1.00  0.00     0.171 HD
ATOM     17  O   UNL A   1      29.024  22.443  27.721  1.00  0.00    -0.248 OA
ATOM     18  N   UNL A   1      30.715  22.049  26.363  1.00  0.00    -0.308 N 
ATOM     19  H   UNL A   1      30.336  21.142  26.317  1.00  0.00     0.171 HD
BRANCH  18  20
ATOM     20  C   UNL A   1      31.980  22.132  25.770  1.00  0.00     0.042 A 
ATOM     21  C   UNL A   1      32.009  22.168  24.371  1.00  0.00     0.027 A 
ATOM     22  C   UNL A   1      33.179  22.211  26.478  1.00  0.00     0.027 A 
ATOM     23  C   UNL A   1      33.196  22.448  23.695  1.00  0.00     0.018 A 
ATOM     24  C   UNL A   1      34.372  22.492  25.802  1.00  0.00     0.018 A 
ATOM     25  C   UNL A   1      34.368  22.643  24.416  1.00  0.00     0.018 A 
ATOM     26  Br  UNL A   1      35.936  23.137  23.485  1.00  0.00    -0.051 Br
ENDBRANCH  18  20
ENDBRANCH  13  14
ENDBRANCH   7   8
ENDBRANCH   5   7
ENDBRANCH   2   3
ENDBRANCH   1   2
BRANCH   1  27
ATOM     27  C   UNL A   1      32.554  32.761  27.061  1.00  0.00     0.118 C 
BRANCH  27  28
ATOM     28  N   UNL A   1      32.471  34.004  27.821  1.00  0.00    -0.352 N 
ATOM     29  C   UNL A   1      33.314  34.508  28.790  1.00  0.00     0.251 C 
ATOM     30  H   UNL A   1      31.693  34.570  27.609  1.00  0.00     0.163 HD
ATOM     31  O   UNL A   1      33.029  35.564  29.350  1.00  0.00    -0.269 OA
BRANCH  29  32
ATOM     32  C   UNL A   1      34.521  33.754  29.195  1.00  0.00     0.039 A 
ATOM     33  C   UNL A   1      35.779  34.221  28.798  1.00  0.00     0.014 A 
ATOM     34  C   UNL A   1      34.426  32.631  30.017  1.00  0.00     0.014 A 
ATOM     35  C   UNL A   1      36.936  33.643  29.330  1.00  0.00     0.010 A 
ATOM     36  C   UNL A   1      35.571  32.118  30.617  1.00  0.00     0.010 A 
ATOM     37  C   UNL A   1      36.840  32.633  30.301  1.00  0.00    -0.014 A 
BRANCH  37  38
ATOM     38  C   UNL A   1      38.030  32.117  31.033  1.00  0.00     0.031 A 
ATOM     39  C   UNL A   1      38.863  31.019  30.429  1.00  0.00     0.074 A 
ATOM     40  C   UNL A   1      38.286  32.542  32.288  1.00  0.00     0.049 A 
ATOM     41  N   UNL A   1      39.798  30.288  30.978  1.00  0.00    -0.248 NA
ATOM     42  C   UNL A   1      38.569  30.672  29.032  1.00  0.00     0.031 C 
ATOM     43  C   UNL A   1      37.533  33.573  33.007  1.00  0.00     0.029 A 
ATOM     44  N   UNL A   1      39.237  32.140  33.196  1.00  0.00    -0.354 N 
ATOM     45  C   UNL A   1      40.180  29.370  30.005  1.00  0.00     0.074 A 
ATOM     46  C   UNL A   1      39.335  29.607  28.854  1.00  0.00     0.031 C 
ATOM     47  C   UNL A   1      38.058  33.732  34.232  1.00  0.00     0.029 A 
ATOM     48  C   UNL A   1      39.145  32.776  34.413  1.00  0.00     0.049 A 
ATOM     49  H   UNL A   1      39.919  31.460  32.994  1.00  0.00     0.167 HD
ATOM     50  C   UNL A   1      41.156  28.429  30.063  1.00  0.00     0.034 A 
ATOM     51  C   UNL A   1      39.838  32.595  35.556  1.00  0.00     0.034 A 
ATOM     52  C   UNL A   1      42.013  28.228  31.205  1.00  0.00     0.049 A 
ATOM     53  C   UNL A   1      40.915  31.539  35.600  1.00  0.00     0.074 A 
ATOM     54  C   UNL A   1      43.074  27.349  31.345  1.00  0.00     0.029 A 
ATOM     55  N   UNL A   1      41.908  28.916  32.407  1.00  0.00    -0.354 N 
ATOM     56  N   UNL A   1      41.282  30.697  34.662  1.00  0.00    -0.248 NA
ATOM     57  C   UNL A   1      41.670  31.412  36.853  1.00  0.00     0.031 C 
ATOM     58  C   UNL A   1      43.573  27.466  32.647  1.00  0.00     0.029 A 
ATOM     59  C   UNL A   1      42.870  28.466  33.298  1.00  0.00     0.049 A 
ATOM     60  H   UNL A   1      41.248  29.622  32.599  1.00  0.00     0.167 HD
ATOM     61  C   UNL A   1      42.336  29.966  35.201  1.00  0.00     0.074 A 
ATOM     62  C   UNL A   1      42.546  30.466  36.545  1.00  0.00     0.031 C 
ATOM     63  C   UNL A   1      43.070  28.976  34.634  1.00  0.00     0.034 A 
BRANCH  50  64
ATOM     64  C   UNL A   1      41.327  27.535  28.857  1.00  0.00     0.023 A 
ATOM     65  C   UNL A   1      42.344  27.755  27.913  1.00  0.00     0.031 A 
ATOM     66  C   UNL A   1      40.440  26.468  28.631  1.00  0.00     0.131 A 
ATOM     67  C   UNL A   1      42.396  26.981  26.746  1.00  0.00     0.055 A 
ATOM     68  C   UNL A   1      40.551  25.644  27.509  1.00  0.00     0.041 A 
ATOM     69  F   UNL A   1      39.437  26.219  29.487  1.00  0.00    -0.206 F 
ATOM     70  C   UNL A   1      41.523  25.909  26.548  1.00  0.00     0.022 A 
BRANCH  67  71
ATOM     71  S   UNL A   1      43.521  27.494  25.419  1.00  0.00     0.124 S 
ATOM     72  O   UNL A   1      44.278  26.265  25.186  1.00  0.00    -0.237 OA
ATOM     73  O   UNL A   1      42.602  27.888  24.359  1.00  0.00    -0.237 OA
ATOM     74  O   UNL A   1      44.287  28.584  26.021  1.00  0.00    -0.744 OA
ENDBRANCH  67  71
ENDBRANCH  50  64
BRANCH  51  75
ATOM     75  C   UNL A   1      39.530  33.412  36.765  1.00  0.00     0.023 A 
ATOM     76  C   UNL A   1      40.250  34.584  37.044  1.00  0.00     0.031 A 
ATOM     77  C   UNL A   1      38.539  33.014  37.679  1.00  0.00     0.131 A 
ATOM     78  C   UNL A   1      40.000  35.294  38.227  1.00  0.00     0.055 A 
ATOM     79  C   UNL A   1      38.258  33.751  38.830  1.00  0.00     0.041 A 
ATOM     80  F   UNL A   1      37.817  31.904  37.456  1.00  0.00    -0.206 F 
ATOM     81  C   UNL A   1      39.001  34.893  39.117  1.00  0.00     0.022 A 
BRANCH  78  82
ATOM     82  S   UNL A   1      41.058  36.713  38.629  1.00  0.00     0.124 S 
ATOM     83  O   UNL A   1      41.792  36.216  39.788  1.00  0.00    -0.237 OA
ATOM     84  O   UNL A   1      41.827  36.873  37.401  1.00  0.00    -0.237 OA
ATOM     85  O   UNL A   1      40.102  37.782  38.909  1.00  0.00    -0.744 OA
ENDBRANCH  78  82
ENDBRANCH  51  75
BRANCH  63  86
ATOM     86  C   UNL A   1      44.211  28.415  35.442  1.00  0.00     0.023 A 
ATOM     87  C   UNL A   1      44.024  27.380  36.374  1.00  0.00     0.031 A 
ATOM     88  C   UNL A   1      45.511  28.920  35.261  1.00  0.00     0.131 A 
ATOM     89  C   UNL A   1      45.117  26.908  37.118  1.00  0.00     0.055 A 
ATOM     90  C   UNL A   1      46.601  28.414  35.968  1.00  0.00     0.041 A 
ATOM     91  F   UNL A   1      45.742  29.910  34.382  1.00  0.00    -0.206 F 
ATOM     92  C   UNL A   1      46.405  27.407  36.909  1.00  0.00     0.022 A 
BRANCH  89  93
ATOM     93  S   UNL A   1      44.824  25.663  38.405  1.00  0.00     0.124 S 
ATOM     94  O   UNL A   1      44.170  26.450  39.444  1.00  0.00    -0.237 OA
ATOM     95  O   UNL A   1      43.981  24.691  37.715  1.00  0.00    -0.237 OA
ATOM     96  O   UNL A   1      46.167  25.191  38.737  1.00  0.00    -0.744 OA
ENDBRANCH  89  93
ENDBRANCH  63  86
ENDBRANCH  37  38
ENDBRANCH  29  32
ENDBRANCH  27  28
ENDBRANCH   1  27
TORSDOF 16
ENDMDL
MODEL 3
REMARK VINA RESULT:     -12.5      5.336     10.809
REMARK SMILES O=C(Cc1ccc(NC(=O)Nc2ccc(Br)cc2)cc1)NCCCNC(=O)c1ccc(-c2c3nc(c(-c4cc(S(=O)(=O)[O-])ccc4F)c4ccc([nH]4)c(-c4cc(S(=O)(=O)[O-])ccc4F)c4nc(c(-c5cc(S(=O)(=O)[O-])ccc5F)c5ccc2[nH]5)C=C4)C=C3)cc1
REMARK SMILES IDX 23 1 22 2 21 3 1 4 2 5 3 7 4 8 5 9 20 10 6 11 19 12 7 13
REMARK SMILES IDX 8 14 9 15 10 17 11 18 12 20 13 21 18 22 14 23 17 24 15 25
REMARK SMILES IDX 16 26 24 27 25 28 26 29 27 31 28 32 29 33 90 34 30 35 89 36
REMARK SMILES IDX 31 37 32 38 33 39 83 40 34 41 88 42 82 43 84 44 35 45 87 46
REMARK SMILES IDX 81 47 80 48 36 50 68 51 48 52 67 53 49 54 52 55 66 56 85 57
REMARK SMILES IDX 50 58 51 59 65 61 86 62 53 63 37 64 38 65 46 66 39 67 45 68
REMARK SMILES IDX 47 69 44 70 40 71 41 72 42 73 43 74 69 75 70 76 78 77 71 78
REMARK SMILES IDX 77 79 79 80 76 81 72 82 73 83 74 84 75 85 54 86 55 87 63 88
REMARK SMILES IDX 56 89 62 90 64 91 61 92 57 93 58 94 59 95 60 96
REMARK H PARENT 21 6 8 16 11 19 25 30 84 49 52 60
REMARK Flexibility Score: inf
ROOT
ATOM      1  C   UNL A   1      31.371  32.026  26.884  1.00  0.00     0.042 C 
ENDROOT
BRANCH   1   2
ATOM      2  C   UNL A   1      30.662  31.799  25.558  1.00  0.00     0.117 C 
BRANCH   2   3
ATOM      3  N   UNL A   1      31.003  30.553  24.895  1.00  0.00    -0.356 N 
ATOM      4  O   UNL A   1      29.167  30.558  23.506  1.00  0.00    -0.275 OA
ATOM      5  C   UNL A   1      30.227  30.051  23.866  1.00  0.00     0.224 C 
ATOM      6  H   UNL A   1      31.801  30.055  25.184  1.00  0.00     0.163 HD
BRANCH   5   7
ATOM      7  C   UNL A   1      30.803  28.826  23.165  1.00  0.00     0.135 C 
BRANCH   7   8
ATOM      8  C   UNL A   1      30.693  27.559  23.984  1.00  0.00    -0.039 A 
ATOM      9  C   UNL A   1      31.698  27.168  24.880  1.00  0.00     0.006 A 
ATOM     10  C   UNL A   1      29.573  26.733  23.846  1.00  0.00     0.006 A 
ATOM     11  C   UNL A   1      31.508  26.072  25.733  1.00  0.00     0.026 A 
ATOM     12  C   UNL A   1      29.380  25.653  24.712  1.00  0.00     0.026 A 
ATOM     13  C   UNL A   1      30.296  25.389  25.734  1.00  0.00     0.042 A 
BRANCH  13  14
ATOM     14  N   UNL A   1      29.896  24.459  26.706  1.00  0.00    -0.308 N 
ATOM     15  C   UNL A   1      30.045  23.133  26.892  1.00  0.00     0.323 C 
ATOM     16  H   UNL A   1      29.379  24.879  27.431  1.00  0.00     0.171 HD
ATOM     17  O   UNL A   1      29.272  22.586  27.689  1.00  0.00    -0.248 OA
ATOM     18  N   UNL A   1      30.947  22.346  26.277  1.00  0.00    -0.308 N 
ATOM     19  H   UNL A   1      30.689  21.396  26.289  1.00  0.00     0.171 HD
BRANCH  18  20
ATOM     20  C   UNL A   1      32.168  22.562  25.626  1.00  0.00     0.042 A 
ATOM     21  C   UNL A   1      33.272  22.820  26.446  1.00  0.00     0.027 A 
ATOM     22  C   UNL A   1      32.344  22.503  24.244  1.00  0.00     0.027 A 
ATOM     23  C   UNL A   1      34.559  22.852  25.910  1.00  0.00     0.018 A 
ATOM     24  C   UNL A   1      33.635  22.534  23.703  1.00  0.00     0.018 A 
ATOM     25  C   UNL A   1      34.739  22.674  24.543  1.00  0.00     0.018 A 
ATOM     26  Br  UNL A   1      36.499  22.603  23.860  1.00  0.00    -0.051 Br
ENDBRANCH  18  20
ENDBRANCH  13  14
ENDBRANCH   7   8
ENDBRANCH   5   7
ENDBRANCH   2   3
ENDBRANCH   1   2
BRANCH   1  27
ATOM     27  C   UNL A   1      32.556  32.983  26.830  1.00  0.00     0.118 C 
BRANCH  27  28
ATOM     28  N   UNL A   1      32.463  34.119  27.741  1.00  0.00    -0.352 N 
ATOM     29  C   UNL A   1      33.292  34.493  28.778  1.00  0.00     0.251 C 
ATOM     30  H   UNL A   1      31.688  34.709  27.593  1.00  0.00     0.163 HD
ATOM     31  O   UNL A   1      32.999  35.469  29.465  1.00  0.00    -0.269 OA
BRANCH  29  32
ATOM     32  C   UNL A   1      34.493  33.691  29.101  1.00  0.00     0.039 A 
ATOM     33  C   UNL A   1      35.745  34.138  28.668  1.00  0.00     0.014 A 
ATOM     34  C   UNL A   1      34.400  32.538  29.881  1.00  0.00     0.014 A 
ATOM     35  C   UNL A   1      36.907  33.508  29.126  1.00  0.00     0.010 A 
ATOM     36  C   UNL A   1      35.555  31.971  30.411  1.00  0.00     0.010 A 
ATOM     37  C   UNL A   1      36.823  32.464  30.059  1.00  0.00    -0.014 A 
BRANCH  37  38
ATOM     38  C   UNL A   1      38.028  31.886  30.718  1.00  0.00     0.031 A 
ATOM     39  C   UNL A   1      38.832  30.828  30.013  1.00  0.00     0.074 A 
ATOM     40  C   UNL A   1      38.323  32.217  31.993  1.00  0.00     0.049 A 
ATOM     41  N   UNL A   1      39.775  30.052  30.481  1.00  0.00    -0.248 NA
ATOM     42  C   UNL A   1      38.496  30.585  28.603  1.00  0.00     0.031 C 
ATOM     43  C   UNL A   1      37.602  33.200  32.805  1.00  0.00     0.029 A 
ATOM     44  N   UNL A   1      39.296  31.743  32.842  1.00  0.00    -0.354 N 
ATOM     45  C   UNL A   1      40.120  29.203  29.434  1.00  0.00     0.074 A 
ATOM     46  C   UNL A   1      39.246  29.529  28.327  1.00  0.00     0.031 C 
ATOM     47  C   UNL A   1      38.163  33.265  34.023  1.00  0.00     0.029 A 
ATOM     48  C   UNL A   1      39.245  32.290  34.104  1.00  0.00     0.049 A 
ATOM     49  H   UNL A   1      39.965  31.074  32.572  1.00  0.00     0.167 HD
ATOM     50  C   UNL A   1      41.088  28.252  29.395  1.00  0.00     0.034 A 
ATOM     51  C   UNL A   1      39.968  32.021  35.210  1.00  0.00     0.034 A 
ATOM     52  C   UNL A   1      41.975  27.962  30.496  1.00  0.00     0.049 A 
ATOM     53  C   UNL A   1      41.034  30.956  35.146  1.00  0.00     0.074 A 
ATOM     54  C   UNL A   1      43.030  27.067  30.541  1.00  0.00     0.029 A 
ATOM     55  N   UNL A   1      41.911  28.563  31.746  1.00  0.00    -0.354 N 
ATOM     56  N   UNL A   1      41.366  30.181  34.141  1.00  0.00    -0.248 NA
ATOM     57  C   UNL A   1      41.823  30.732  36.365  1.00  0.00     0.031 C 
ATOM     58  C   UNL A   1      43.566  27.085  31.833  1.00  0.00     0.029 A 
ATOM     59  C   UNL A   1      42.893  28.042  32.575  1.00  0.00     0.049 A 
ATOM     60  H   UNL A   1      41.264  29.258  32.007  1.00  0.00     0.167 HD
ATOM     61  C   UNL A   1      42.427  29.405  34.595  1.00  0.00     0.074 A 
ATOM     62  C   UNL A   1      42.680  29.804  35.964  1.00  0.00     0.031 C 
ATOM     63  C   UNL A   1      43.135  28.452  33.937  1.00  0.00     0.034 A 
BRANCH  50  64
ATOM     64  C   UNL A   1      41.216  27.446  28.124  1.00  0.00     0.023 A 
ATOM     65  C   UNL A   1      40.801  26.105  28.056  1.00  0.00     0.031 A 
ATOM     66  C   UNL A   1      41.792  28.015  26.975  1.00  0.00     0.131 A 
ATOM     67  C   UNL A   1      41.048  25.353  26.899  1.00  0.00     0.055 A 
ATOM     68  C   UNL A   1      41.954  27.286  25.795  1.00  0.00     0.041 A 
ATOM     69  F   UNL A   1      42.225  29.285  26.984  1.00  0.00    -0.206 F 
ATOM     70  C   UNL A   1      41.598  25.940  25.758  1.00  0.00     0.022 A 
BRANCH  67  71
ATOM     71  S   UNL A   1      40.782  23.560  26.962  1.00  0.00     0.124 S 
ATOM     72  O   UNL A   1      39.356  23.465  26.654  1.00  0.00    -0.237 OA
ATOM     73  O   UNL A   1      41.691  23.069  25.934  1.00  0.00    -0.237 OA
ATOM     74  O   UNL A   1      41.140  23.209  28.335  1.00  0.00    -0.744 OA
ENDBRANCH  67  71
ENDBRANCH  50  64
BRANCH  51  75
ATOM     75  C   UNL A   1      39.702  32.751  36.483  1.00  0.00     0.023 A 
ATOM     76  C   UNL A   1      38.743  32.283  37.395  1.00  0.00     0.031 A 
ATOM     77  C   UNL A   1      40.375  33.947  36.789  1.00  0.00     0.131 A 
ATOM     78  C   UNL A   1      38.451  33.027  38.547  1.00  0.00     0.055 A 
ATOM     79  C   UNL A   1      40.117  34.658  37.962  1.00  0.00     0.041 A 
ATOM     80  F   UNL A   1      41.306  34.435  35.954  1.00  0.00    -0.206 F 
ATOM     81  C   UNL A   1      39.139  34.206  38.844  1.00  0.00     0.022 A 
BRANCH  78  82
ATOM     82  S   UNL A   1      37.096  32.472  39.619  1.00  0.00     0.124 S 
ATOM     83  O   UNL A   1      37.462  31.081  39.862  1.00  0.00    -0.237 OA
ATOM     84  O   UNL A   1      37.220  33.377  40.756  1.00  0.00    -0.237 OA
ATOM     85  O   UNL A   1      35.907  32.669  38.794  1.00  0.00    -0.744 OA
ENDBRANCH  78  82
ENDBRANCH  51  75
BRANCH  63  86
ATOM     86  C   UNL A   1      44.293  27.825  34.669  1.00  0.00     0.023 A 
ATOM     87  C   UNL A   1      44.148  26.642  35.414  1.00  0.00     0.031 A 
ATOM     88  C   UNL A   1      45.565  28.420  34.606  1.00  0.00     0.131 A 
ATOM     89  C   UNL A   1      45.253  26.110  36.096  1.00  0.00     0.055 A 
ATOM     90  C   UNL A   1      46.670  27.860  35.247  1.00  0.00     0.041 A 
ATOM     91  F   UNL A   1      45.755  29.552  33.908  1.00  0.00    -0.206 F 
ATOM     92  C   UNL A   1      46.516  26.703  36.004  1.00  0.00     0.022 A 
BRANCH  89  93
ATOM     93  S   UNL A   1      45.009  24.656  37.154  1.00  0.00     0.124 S 
ATOM     94  O   UNL A   1      46.013  24.863  38.191  1.00  0.00    -0.237 OA
ATOM     95  O   UNL A   1      43.619  24.802  37.572  1.00  0.00    -0.237 OA
ATOM     96  O   UNL A   1      45.268  23.532  36.255  1.00  0.00    -0.744 OA
ENDBRANCH  89  93
ENDBRANCH  63  86
ENDBRANCH  37  38
ENDBRANCH  29  32
ENDBRANCH  27  28
ENDBRANCH   1  27
TORSDOF 16
ENDMDL
