MODEL 1
REMARK VINA RESULT:     -12.8      0.000      0.000
REMARK SMILES COc1ccc(-c2cc([C@@H]3CC[N@@H+](CC(=O)NCCCNC(=O)c4ccc(-c5c6nc(c(-c7cc(S(=O)(=O)[O-])ccc7F)c7ccc([nH]7)c(-c7cc(S(=O)(=O)[O-])ccc7F)c7nc(c(-c8cc(S(=O)(=O)[O-])ccc8F)c8ccc5[nH]8)C=C7)C=C6)cc4)C3)ccn2)c2ccc(C)nc12
REMARK SMILES IDX 18 1 17 2 15 3 16 4 14 6 13 7 10 8 11 9 87 10 12 11 9 13
REMARK SMILES IDX 7 14 8 15 90 16 89 17 88 18 6 19 3 20 4 21 97 22 5 23 91 24
REMARK SMILES IDX 96 25 92 26 94 27 93 28 95 29 2 30 1 31 19 32 20 33 21 34
REMARK SMILES IDX 22 35 23 37 24 38 25 39 86 40 26 41 85 42 27 43 28 44 29 45
REMARK SMILES IDX 79 46 30 47 84 48 78 49 80 50 31 51 83 52 77 53 76 54 32 56
REMARK SMILES IDX 64 57 44 58 63 59 45 60 48 61 62 62 81 63 46 64 47 65 61 67
REMARK SMILES IDX 82 68 49 69 33 70 34 71 42 72 35 73 41 74 43 75 40 76 36 77
REMARK SMILES IDX 37 78 38 79 39 80 65 81 66 82 74 83 67 84 73 85 75 86 72 87
REMARK SMILES IDX 68 88 69 89 70 90 71 91 50 92 51 93 59 94 52 95 58 96 60 97
REMARK SMILES IDX 57 98 53 99 54 100 55 101 56 102
REMARK H PARENT 17 5 13 12 21 36 80 55 48 66
REMARK Flexibility Score: inf
ROOT
ATOM      1  C   UNL A   1      30.845  30.961  25.408  1.00  0.00     0.118 C 
ENDROOT
BRANCH   1   2
ATOM      2  N   UNL A   1      30.150  31.422  24.210  1.00  0.00    -0.351 N 
ATOM      3  C   UNL A   1      29.157  30.891  23.436  1.00  0.00     0.275 C 
ATOM      4  O   UNL A   1      28.767  31.577  22.483  1.00  0.00    -0.269 OA
ATOM      5  H   UNL A   1      30.464  32.300  23.893  1.00  0.00     0.163 HD
BRANCH   3   6
ATOM      6  C   UNL A   1      28.551  29.505  23.700  1.00  0.00     0.363 C 
BRANCH   6   7
ATOM      7  N   UNL A   1      29.095  28.397  22.877  1.00  0.00    -0.327 N 
ATOM      8  C   UNL A   1      31.189  27.218  23.376  1.00  0.00     0.080 C 
ATOM      9  C   UNL A   1      30.042  26.735  24.268  1.00  0.00     0.075 C 
ATOM     10  C   UNL A   1      30.557  28.424  22.636  1.00  0.00     0.271 C 
ATOM     11  C   UNL A   1      28.800  27.098  23.466  1.00  0.00     0.263 C 
ATOM     12  H   UNL A   1      28.626  28.538  21.983  1.00  0.00     0.348 HD
BRANCH   8  13
ATOM     13  C   UNL A   1      31.634  26.005  22.571  1.00  0.00    -0.035 A 
ATOM     14  C   UNL A   1      32.575  23.775  22.591  1.00  0.00     0.071 A 
ATOM     15  C   UNL A   1      31.766  24.751  23.171  1.00  0.00     0.033 A 
ATOM     16  N   UNL A   1      33.155  23.956  21.384  1.00  0.00    -0.256 NA
ATOM     17  C   UNL A   1      32.947  25.138  20.764  1.00  0.00     0.112 A 
ATOM     18  C   UNL A   1      32.217  26.183  21.314  1.00  0.00     0.024 A 
BRANCH  14  19
ATOM     19  C   UNL A   1      33.020  22.607  23.381  1.00  0.00     0.010 A 
ATOM     20  C   UNL A   1      33.891  20.218  24.551  1.00  0.00     0.145 A 
ATOM     21  C   UNL A   1      32.636  20.273  23.949  1.00  0.00     0.049 A 
ATOM     22  C   UNL A   1      34.758  21.322  24.574  1.00  0.00     0.113 A 
ATOM     23  C   UNL A   1      32.205  21.459  23.372  1.00  0.00     0.015 A 
ATOM     24  C   UNL A   1      34.295  22.539  24.021  1.00  0.00     0.013 A 
ATOM     25  N   UNL A   1      36.007  21.213  25.096  1.00  0.00    -0.249 NA
ATOM     26  C   UNL A   1      35.160  23.650  24.131  1.00  0.00     0.013 A 
ATOM     27  C   UNL A   1      36.829  22.285  25.116  1.00  0.00     0.038 A 
ATOM     28  C   UNL A   1      36.431  23.528  24.671  1.00  0.00     0.024 A 
ATOM     29  C   UNL A   1      38.194  22.079  25.695  1.00  0.00     0.067 C 
BRANCH  20  30
ATOM     30  O   UNL A   1      34.226  18.983  25.068  1.00  0.00    -0.494 OA
ATOM     31  C   UNL A   1      33.292  17.977  24.677  1.00  0.00     0.278 C 
ENDBRANCH  20  30
ENDBRANCH  14  19
ENDBRANCH   8  13
ENDBRANCH   6   7
ENDBRANCH   3   6
ENDBRANCH   1   2
BRANCH   1  32
ATOM     32  C   UNL A   1      30.998  31.996  26.541  1.00  0.00     0.042 C 
BRANCH  32  33
ATOM     33  C   UNL A   1      32.424  32.397  26.926  1.00  0.00     0.118 C 
BRANCH  33  34
ATOM     34  N   UNL A   1      32.471  33.773  27.371  1.00  0.00    -0.352 N 
ATOM     35  C   UNL A   1      33.201  34.332  28.393  1.00  0.00     0.251 C 
ATOM     36  H   UNL A   1      31.900  34.400  26.870  1.00  0.00     0.163 HD
ATOM     37  O   UNL A   1      32.840  35.420  28.839  1.00  0.00    -0.269 OA
BRANCH  35  38
ATOM     38  C   UNL A   1      34.405  33.666  28.959  1.00  0.00     0.039 A 
ATOM     39  C   UNL A   1      34.222  32.529  29.757  1.00  0.00     0.014 A 
ATOM     40  C   UNL A   1      35.687  34.213  28.832  1.00  0.00     0.014 A 
ATOM     41  C   UNL A   1      35.310  31.945  30.420  1.00  0.00     0.010 A 
ATOM     42  C   UNL A   1      36.780  33.606  29.466  1.00  0.00     0.010 A 
ATOM     43  C   UNL A   1      36.599  32.480  30.286  1.00  0.00    -0.014 A 
BRANCH  43  44
ATOM     44  C   UNL A   1      37.746  31.900  31.043  1.00  0.00     0.031 A 
ATOM     45  C   UNL A   1      38.565  30.782  30.447  1.00  0.00     0.074 A 
ATOM     46  C   UNL A   1      38.053  32.364  32.270  1.00  0.00     0.049 A 
ATOM     47  N   UNL A   1      39.571  30.121  30.964  1.00  0.00    -0.248 NA
ATOM     48  C   UNL A   1      38.188  30.342  29.097  1.00  0.00     0.031 C 
ATOM     49  C   UNL A   1      37.341  33.435  32.968  1.00  0.00     0.029 A 
ATOM     50  N   UNL A   1      39.038  31.990  33.151  1.00  0.00    -0.354 N 
ATOM     51  C   UNL A   1      39.946  29.184  30.006  1.00  0.00     0.074 A 
ATOM     52  C   UNL A   1      39.023  29.332  28.899  1.00  0.00     0.031 C 
ATOM     53  C   UNL A   1      37.918  33.638  34.164  1.00  0.00     0.029 A 
ATOM     54  C   UNL A   1      39.017  32.690  34.335  1.00  0.00     0.049 A 
ATOM     55  H   UNL A   1      39.699  31.287  32.954  1.00  0.00     0.167 HD
ATOM     56  C   UNL A   1      40.973  28.295  30.035  1.00  0.00     0.034 A 
ATOM     57  C   UNL A   1      39.783  32.577  35.439  1.00  0.00     0.034 A 
ATOM     58  C   UNL A   1      41.892  28.155  31.141  1.00  0.00     0.049 A 
ATOM     59  C   UNL A   1      40.892  31.555  35.468  1.00  0.00     0.074 A 
ATOM     60  C   UNL A   1      42.983  27.309  31.254  1.00  0.00     0.029 A 
ATOM     61  N   UNL A   1      41.826  28.871  32.329  1.00  0.00    -0.354 N 
ATOM     62  N   UNL A   1      41.245  30.693  34.544  1.00  0.00    -0.248 NA
ATOM     63  C   UNL A   1      41.710  31.502  36.687  1.00  0.00     0.031 C 
ATOM     64  C   UNL A   1      43.538  27.471  32.529  1.00  0.00     0.029 A 
ATOM     65  C   UNL A   1      42.838  28.467  33.188  1.00  0.00     0.049 A 
ATOM     66  H   UNL A   1      41.159  29.566  32.531  1.00  0.00     0.167 HD
ATOM     67  C   UNL A   1      42.345  30.012  35.063  1.00  0.00     0.074 A 
ATOM     68  C   UNL A   1      42.602  30.572  36.372  1.00  0.00     0.031 C 
ATOM     69  C   UNL A   1      43.079  29.018  34.501  1.00  0.00     0.034 A 
BRANCH  56  70
ATOM     70  C   UNL A   1      41.131  27.381  28.843  1.00  0.00     0.023 A 
ATOM     71  C   UNL A   1      42.150  27.577  27.894  1.00  0.00     0.031 A 
ATOM     72  C   UNL A   1      40.239  26.313  28.640  1.00  0.00     0.131 A 
ATOM     73  C   UNL A   1      42.207  26.766  26.749  1.00  0.00     0.055 A 
ATOM     74  C   UNL A   1      40.348  25.461  27.538  1.00  0.00     0.041 A 
ATOM     75  F   UNL A   1      39.236  26.087  29.501  1.00  0.00    -0.206 F 
ATOM     76  C   UNL A   1      41.328  25.695  26.577  1.00  0.00     0.022 A 
BRANCH  73  77
ATOM     77  S   UNL A   1      43.356  27.222  25.422  1.00  0.00     0.124 S 
ATOM     78  O   UNL A   1      43.843  25.913  24.992  1.00  0.00    -0.237 OA
ATOM     79  O   UNL A   1      42.490  27.924  24.482  1.00  0.00    -0.237 OA
ATOM     80  O   UNL A   1      44.348  28.055  26.099  1.00  0.00    -0.744 OA
ENDBRANCH  73  77
ENDBRANCH  56  70
BRANCH  57  81
ATOM     81  C   UNL A   1      39.520  33.439  36.624  1.00  0.00     0.023 A 
ATOM     82  C   UNL A   1      38.872  32.932  37.762  1.00  0.00     0.031 A 
ATOM     83  C   UNL A   1      39.883  34.797  36.619  1.00  0.00     0.131 A 
ATOM     84  C   UNL A   1      38.572  33.788  38.832  1.00  0.00     0.055 A 
ATOM     85  C   UNL A   1      39.624  35.634  37.706  1.00  0.00     0.041 A 
ATOM     86  F   UNL A   1      40.508  35.328  35.556  1.00  0.00    -0.206 F 
ATOM     87  C   UNL A   1      38.955  35.132  38.818  1.00  0.00     0.022 A 
BRANCH  84  88
ATOM     88  S   UNL A   1      37.612  33.132  40.225  1.00  0.00     0.124 S 
ATOM     89  O   UNL A   1      36.342  32.808  39.585  1.00  0.00    -0.237 OA
ATOM     90  O   UNL A   1      38.426  31.996  40.646  1.00  0.00    -0.237 OA
ATOM     91  O   UNL A   1      37.571  34.249  41.167  1.00  0.00    -0.744 OA
ENDBRANCH  84  88
ENDBRANCH  57  81
BRANCH  69  92
ATOM     92  C   UNL A   1      44.256  28.504  35.292  1.00  0.00     0.023 A 
ATOM     93  C   UNL A   1      44.121  27.471  36.237  1.00  0.00     0.031 A 
ATOM     94  C   UNL A   1      45.531  29.068  35.107  1.00  0.00     0.131 A 
ATOM     95  C   UNL A   1      45.230  27.069  36.997  1.00  0.00     0.055 A 
ATOM     96  C   UNL A   1      46.642  28.629  35.830  1.00  0.00     0.041 A 
ATOM     97  F   UNL A   1      45.717  30.059  34.219  1.00  0.00    -0.206 F 
ATOM     98  C   UNL A   1      46.493  27.632  36.789  1.00  0.00     0.022 A 
BRANCH  95  99
ATOM     99  S   UNL A   1      44.988  25.851  38.319  1.00  0.00     0.124 S 
ATOM    100  O   UNL A   1      43.996  24.956  37.730  1.00  0.00    -0.237 OA
ATOM    101  O   UNL A   1      46.328  25.298  38.484  1.00  0.00    -0.237 OA
ATOM    102  O   UNL A   1      44.507  26.654  39.443  1.00  0.00    -0.744 OA
ENDBRANCH  95  99
ENDBRANCH  69  92
ENDBRANCH  43  44
ENDBRANCH  35  38
ENDBRANCH  33  34
ENDBRANCH  32  33
ENDBRANCH   1  32
TORSDOF 17
ENDMDL
MODEL 2
REMARK VINA RESULT:     -12.7      1.463      7.514
REMARK SMILES COc1ccc(-c2cc([C@@H]3CC[N@@H+](CC(=O)NCCCNC(=O)c4ccc(-c5c6nc(c(-c7cc(S(=O)(=O)[O-])ccc7F)c7ccc([nH]7)c(-c7cc(S(=O)(=O)[O-])ccc7F)c7nc(c(-c8cc(S(=O)(=O)[O-])ccc8F)c8ccc5[nH]8)C=C7)C=C6)cc4)C3)ccn2)c2ccc(C)nc12
REMARK SMILES IDX 18 1 17 2 15 3 16 4 14 6 13 7 10 8 11 9 87 10 12 11 9 13
REMARK SMILES IDX 7 14 8 15 90 16 89 17 88 18 6 19 3 20 4 21 97 22 5 23 91 24
REMARK SMILES IDX 96 25 92 26 94 27 93 28 95 29 2 30 1 31 19 32 20 33 21 34
REMARK SMILES IDX 22 35 23 37 24 38 25 39 86 40 26 41 85 42 27 43 28 44 29 45
REMARK SMILES IDX 79 46 30 47 84 48 78 49 80 50 31 51 83 52 77 53 76 54 32 56
REMARK SMILES IDX 64 57 44 58 63 59 45 60 48 61 62 62 81 63 46 64 47 65 61 67
REMARK SMILES IDX 82 68 49 69 33 70 34 71 42 72 35 73 41 74 43 75 40 76 36 77
REMARK SMILES IDX 37 78 38 79 39 80 65 81 66 82 74 83 67 84 73 85 75 86 72 87
REMARK SMILES IDX 68 88 69 89 70 90 71 91 50 92 51 93 59 94 52 95 58 96 60 97
REMARK SMILES IDX 57 98 53 99 54 100 55 101 56 102
REMARK H PARENT 17 5 13 12 21 36 80 55 48 66
REMARK Flexibility Score: inf
ROOT
ATOM      1  C   UNL A   1      30.978  30.729  25.383  1.00  0.00     0.118 C 
ENDROOT
BRANCH   1   2
ATOM      2  N   UNL A   1      30.304  31.337  24.240  1.00  0.00    -0.351 N 
ATOM      3  C   UNL A   1      29.260  30.948  23.448  1.00  0.00     0.275 C 
ATOM      4  O   UNL A   1      28.911  31.735  22.561  1.00  0.00    -0.269 OA
ATOM      5  H   UNL A   1      30.682  32.210  23.985  1.00  0.00     0.163 HD
BRANCH   3   6
ATOM      6  C   UNL A   1      28.550  29.598  23.617  1.00  0.00     0.363 C 
BRANCH   6   7
ATOM      7  N   UNL A   1      29.117  28.470  22.837  1.00  0.00    -0.327 N 
ATOM      8  C   UNL A   1      31.295  27.441  23.299  1.00  0.00     0.080 C 
ATOM      9  C   UNL A   1      30.222  26.954  24.277  1.00  0.00     0.075 C 
ATOM     10  C   UNL A   1      30.561  28.560  22.520  1.00  0.00     0.271 C 
ATOM     11  C   UNL A   1      28.924  27.197  23.519  1.00  0.00     0.263 C 
ATOM     12  H   UNL A   1      28.597  28.528  21.961  1.00  0.00     0.348 HD
BRANCH   8  13
ATOM     13  C   UNL A   1      31.770  26.204  22.549  1.00  0.00    -0.035 A 
ATOM     14  C   UNL A   1      33.209  24.257  22.524  1.00  0.00     0.071 A 
ATOM     15  C   UNL A   1      32.392  25.148  23.219  1.00  0.00     0.033 A 
ATOM     16  N   UNL A   1      33.331  24.304  21.179  1.00  0.00    -0.256 NA
ATOM     17  C   UNL A   1      32.652  25.272  20.525  1.00  0.00     0.112 A 
ATOM     18  C   UNL A   1      31.881  26.239  21.156  1.00  0.00     0.024 A 
BRANCH  14  19
ATOM     19  C   UNL A   1      34.154  23.385  23.254  1.00  0.00     0.010 A 
ATOM     20  C   UNL A   1      35.909  21.974  24.917  1.00  0.00     0.145 A 
ATOM     21  C   UNL A   1      36.280  23.224  24.424  1.00  0.00     0.049 A 
ATOM     22  C   UNL A   1      34.662  21.397  24.627  1.00  0.00     0.113 A 
ATOM     23  C   UNL A   1      35.409  23.921  23.597  1.00  0.00     0.015 A 
ATOM     24  C   UNL A   1      33.797  22.093  23.750  1.00  0.00     0.013 A 
ATOM     25  N   UNL A   1      34.297  20.216  25.188  1.00  0.00    -0.249 NA
ATOM     26  C   UNL A   1      32.586  21.450  23.416  1.00  0.00     0.013 A 
ATOM     27  C   UNL A   1      33.096  19.670  24.897  1.00  0.00     0.038 A 
ATOM     28  C   UNL A   1      32.226  20.240  23.992  1.00  0.00     0.024 A 
ATOM     29  C   UNL A   1      32.763  18.374  25.567  1.00  0.00     0.067 C 
BRANCH  20  30
ATOM     30  O   UNL A   1      36.839  21.386  25.749  1.00  0.00    -0.494 OA
ATOM     31  C   UNL A   1      37.804  20.634  25.014  1.00  0.00     0.278 C 
ENDBRANCH  20  30
ENDBRANCH  14  19
ENDBRANCH   8  13
ENDBRANCH   6   7
ENDBRANCH   3   6
ENDBRANCH   1   2
BRANCH   1  32
ATOM     32  C   UNL A   1      31.124  31.620  26.633  1.00  0.00     0.042 C 
BRANCH  32  33
ATOM     33  C   UNL A   1      32.535  32.094  26.987  1.00  0.00     0.118 C 
BRANCH  33  34
ATOM     34  N   UNL A   1      32.551  33.515  27.261  1.00  0.00    -0.352 N 
ATOM     35  C   UNL A   1      33.193  34.200  28.265  1.00  0.00     0.251 C 
ATOM     36  H   UNL A   1      32.028  34.071  26.639  1.00  0.00     0.163 HD
ATOM     37  O   UNL A   1      32.800  35.332  28.540  1.00  0.00    -0.269 OA
BRANCH  35  38
ATOM     38  C   UNL A   1      34.341  33.616  29.010  1.00  0.00     0.039 A 
ATOM     39  C   UNL A   1      35.636  33.879  28.548  1.00  0.00     0.014 A 
ATOM     40  C   UNL A   1      34.161  32.713  30.065  1.00  0.00     0.014 A 
ATOM     41  C   UNL A   1      36.741  33.247  29.133  1.00  0.00     0.010 A 
ATOM     42  C   UNL A   1      35.271  32.110  30.674  1.00  0.00     0.010 A 
ATOM     43  C   UNL A   1      36.570  32.352  30.199  1.00  0.00    -0.014 A 
BRANCH  43  44
ATOM     44  C   UNL A   1      37.738  31.628  30.780  1.00  0.00     0.031 A 
ATOM     45  C   UNL A   1      38.219  31.953  32.172  1.00  0.00     0.074 A 
ATOM     46  C   UNL A   1      38.377  30.685  30.061  1.00  0.00     0.049 A 
ATOM     47  N   UNL A   1      39.238  31.464  32.834  1.00  0.00    -0.248 NA
ATOM     48  C   UNL A   1      37.461  32.975  32.906  1.00  0.00     0.031 C 
ATOM     49  C   UNL A   1      38.021  30.277  28.702  1.00  0.00     0.029 A 
ATOM     50  N   UNL A   1      39.464  29.903  30.370  1.00  0.00    -0.354 N 
ATOM     51  C   UNL A   1      39.248  32.121  34.061  1.00  0.00     0.074 A 
ATOM     52  C   UNL A   1      38.161  33.078  34.026  1.00  0.00     0.031 C 
ATOM     53  C   UNL A   1      38.868  29.316  28.297  1.00  0.00     0.029 A 
ATOM     54  C   UNL A   1      39.847  29.062  29.351  1.00  0.00     0.049 A 
ATOM     55  H   UNL A   1      39.925  29.941  31.239  1.00  0.00     0.167 HD
ATOM     56  C   UNL A   1      40.072  31.933  35.125  1.00  0.00     0.034 A 
ATOM     57  C   UNL A   1      40.877  28.194  29.267  1.00  0.00     0.034 A 
ATOM     58  C   UNL A   1      41.151  30.974  35.155  1.00  0.00     0.049 A 
ATOM     59  C   UNL A   1      41.805  28.030  30.443  1.00  0.00     0.074 A 
ATOM     60  C   UNL A   1      42.020  30.684  36.195  1.00  0.00     0.029 A 
ATOM     61  N   UNL A   1      41.518  30.152  34.097  1.00  0.00    -0.354 N 
ATOM     62  N   UNL A   1      41.785  28.644  31.603  1.00  0.00    -0.248 NA
ATOM     63  C   UNL A   1      42.887  27.048  30.300  1.00  0.00     0.031 C 
ATOM     64  C   UNL A   1      42.946  29.735  35.746  1.00  0.00     0.029 A 
ATOM     65  C   UNL A   1      42.615  29.378  34.449  1.00  0.00     0.049 A 
ATOM     66  H   UNL A   1      41.065  30.122  33.224  1.00  0.00     0.167 HD
ATOM     67  C   UNL A   1      42.837  28.101  32.337  1.00  0.00     0.074 A 
ATOM     68  C   UNL A   1      43.463  27.104  31.494  1.00  0.00     0.031 C 
ATOM     69  C   UNL A   1      43.244  28.397  33.598  1.00  0.00     0.034 A 
BRANCH  56  70
ATOM     70  C   UNL A   1      39.852  32.812  36.334  1.00  0.00     0.023 A 
ATOM     71  C   UNL A   1      39.045  32.400  37.409  1.00  0.00     0.031 A 
ATOM     72  C   UNL A   1      40.440  34.088  36.403  1.00  0.00     0.131 A 
ATOM     73  C   UNL A   1      38.787  33.282  38.470  1.00  0.00     0.055 A 
ATOM     74  C   UNL A   1      40.241  34.932  37.500  1.00  0.00     0.041 A 
ATOM     75  F   UNL A   1      41.205  34.544  35.401  1.00  0.00    -0.206 F 
ATOM     76  C   UNL A   1      39.398  34.535  38.534  1.00  0.00     0.022 A 
BRANCH  73  77
ATOM     77  S   UNL A   1      37.528  32.822  39.692  1.00  0.00     0.124 S 
ATOM     78  O   UNL A   1      36.368  32.569  38.840  1.00  0.00    -0.237 OA
ATOM     79  O   UNL A   1      38.121  31.652  40.330  1.00  0.00    -0.237 OA
ATOM     80  O   UNL A   1      37.423  34.009  40.539  1.00  0.00    -0.744 OA
ENDBRANCH  73  77
ENDBRANCH  56  70
BRANCH  57  81
ATOM     81  C   UNL A   1      41.104  27.423  28.013  1.00  0.00     0.023 A 
ATOM     82  C   UNL A   1      40.836  26.047  27.948  1.00  0.00     0.031 A 
ATOM     83  C   UNL A   1      41.628  28.051  26.869  1.00  0.00     0.131 A 
ATOM     84  C   UNL A   1      41.130  25.334  26.776  1.00  0.00     0.055 A 
ATOM     85  C   UNL A   1      41.875  27.346  25.689  1.00  0.00     0.041 A 
ATOM     86  F   UNL A   1      41.897  29.366  26.880  1.00  0.00    -0.206 F 
ATOM     87  C   UNL A   1      41.635  25.976  25.642  1.00  0.00     0.022 A 
BRANCH  84  88
ATOM     88  S   UNL A   1      40.901  23.534  26.775  1.00  0.00     0.124 S 
ATOM     89  O   UNL A   1      41.289  23.184  28.136  1.00  0.00    -0.237 OA
ATOM     90  O   UNL A   1      39.482  23.409  26.458  1.00  0.00    -0.237 OA
ATOM     91  O   UNL A   1      41.812  23.076  25.728  1.00  0.00    -0.744 OA
ENDBRANCH  84  88
ENDBRANCH  57  81
BRANCH  69  92
ATOM     92  C   UNL A   1      44.399  27.599  34.150  1.00  0.00     0.023 A 
ATOM     93  C   UNL A   1      44.207  26.358  34.785  1.00  0.00     0.031 A 
ATOM     94  C   UNL A   1      45.711  28.096  34.053  1.00  0.00     0.131 A 
ATOM     95  C   UNL A   1      45.303  25.681  35.342  1.00  0.00     0.055 A 
ATOM     96  C   UNL A   1      46.803  27.393  34.564  1.00  0.00     0.041 A 
ATOM     97  F   UNL A   1      45.952  29.276  33.459  1.00  0.00    -0.206 F 
ATOM     98  C   UNL A   1      46.602  26.184  35.223  1.00  0.00     0.022 A 
BRANCH  95  99
ATOM     99  S   UNL A   1      45.001  24.167  36.294  1.00  0.00     0.124 S 
ATOM    100  O   UNL A   1      44.889  24.681  37.656  1.00  0.00    -0.237 OA
ATOM    101  O   UNL A   1      43.768  23.664  35.699  1.00  0.00    -0.237 OA
ATOM    102  O   UNL A   1      46.189  23.355  36.035  1.00  0.00    -0.744 OA
ENDBRANCH  95  99
ENDBRANCH  69  92
ENDBRANCH  43  44
ENDBRANCH  35  38
ENDBRANCH  33  34
ENDBRANCH  32  33
ENDBRANCH   1  32
TORSDOF 17
ENDMDL
MODEL 3
REMARK VINA RESULT:     -12.7      1.518      7.592
REMARK SMILES COc1ccc(-c2cc([C@@H]3CC[N@@H+](CC(=O)NCCCNC(=O)c4ccc(-c5c6nc(c(-c7cc(S(=O)(=O)[O-])ccc7F)c7ccc([nH]7)c(-c7cc(S(=O)(=O)[O-])ccc7F)c7nc(c(-c8cc(S(=O)(=O)[O-])ccc8F)c8ccc5[nH]8)C=C7)C=C6)cc4)C3)ccn2)c2ccc(C)nc12
REMARK SMILES IDX 18 1 17 2 15 3 16 4 14 6 13 7 10 8 11 9 87 10 12 11 9 13
REMARK SMILES IDX 7 14 8 15 90 16 89 17 88 18 6 19 3 20 4 21 97 22 5 23 91 24
REMARK SMILES IDX 96 25 92 26 94 27 93 28 95 29 2 30 1 31 19 32 20 33 21 34
REMARK SMILES IDX 22 35 23 37 24 38 25 39 86 40 26 41 85 42 27 43 28 44 29 45
REMARK SMILES IDX 79 46 30 47 84 48 78 49 80 50 31 51 83 52 77 53 76 54 32 56
REMARK SMILES IDX 64 57 44 58 63 59 45 60 48 61 62 62 81 63 46 64 47 65 61 67
REMARK SMILES IDX 82 68 49 69 33 70 34 71 42 72 35 73 41 74 43 75 40 76 36 77
REMARK SMILES IDX 37 78 38 79 39 80 65 81 66 82 74 83 67 84 73 85 75 86 72 87
REMARK SMILES IDX 68 88 69 89 70 90 71 91 50 92 51 93 59 94 52 95 58 96 60 97
REMARK SMILES IDX 57 98 53 99 54 100 55 101 56 102
REMARK H PARENT 17 5 13 12 21 36 80 55 48 66
REMARK Flexibility Score: inf
ROOT
ATOM      1  C   UNL A   1      31.610  31.241  26.513  1.00  0.00     0.118 C 
ENDROOT
BRANCH   1   2
ATOM      2  N   UNL A   1      32.731  30.487  27.065  1.00  0.00    -0.351 N 
ATOM      3  C   UNL A   1      32.924  29.164  27.351  1.00  0.00     0.275 C 
ATOM      4  O   UNL A   1      34.034  28.847  27.796  1.00  0.00    -0.269 OA
ATOM      5  H   UNL A   1      33.510  31.049  27.278  1.00  0.00     0.163 HD
BRANCH   3   6
ATOM      6  C   UNL A   1      31.828  28.106  27.159  1.00  0.00     0.363 C 
BRANCH   6   7
ATOM      7  N   UNL A   1      32.177  26.973  26.268  1.00  0.00    -0.327 N 
ATOM      8  C   UNL A   1      31.047  26.503  24.141  1.00  0.00     0.080 C 
ATOM      9  C   UNL A   1      32.057  27.646  24.004  1.00  0.00     0.075 C 
ATOM     10  C   UNL A   1      31.035  26.244  25.668  1.00  0.00     0.271 C 
ATOM     11  C   UNL A   1      33.018  27.402  25.159  1.00  0.00     0.263 C 
ATOM     12  H   UNL A   1      32.659  26.336  26.902  1.00  0.00     0.348 HD
BRANCH   8  13
ATOM     13  C   UNL A   1      31.530  25.404  23.205  1.00  0.00    -0.035 A 
ATOM     14  C   UNL A   1      32.600  23.245  22.972  1.00  0.00     0.071 A 
ATOM     15  C   UNL A   1      31.759  24.108  23.673  1.00  0.00     0.033 A 
ATOM     16  N   UNL A   1      33.120  23.577  21.770  1.00  0.00    -0.256 NA
ATOM     17  C   UNL A   1      32.819  24.799  21.278  1.00  0.00     0.112 A 
ATOM     18  C   UNL A   1      32.051  25.738  21.953  1.00  0.00     0.024 A 
BRANCH  14  19
ATOM     19  C   UNL A   1      33.144  22.035  23.627  1.00  0.00     0.010 A 
ATOM     20  C   UNL A   1      34.204  19.605  24.524  1.00  0.00     0.145 A 
ATOM     21  C   UNL A   1      32.930  19.636  23.959  1.00  0.00     0.049 A 
ATOM     22  C   UNL A   1      34.997  20.757  24.641  1.00  0.00     0.113 A 
ATOM     23  C   UNL A   1      32.405  20.842  23.518  1.00  0.00     0.015 A 
ATOM     24  C   UNL A   1      34.439  21.990  24.227  1.00  0.00     0.013 A 
ATOM     25  N   UNL A   1      36.265  20.681  25.119  1.00  0.00    -0.249 NA
ATOM     26  C   UNL A   1      35.232  23.141  24.430  1.00  0.00     0.013 A 
ATOM     27  C   UNL A   1      37.015  21.799  25.230  1.00  0.00     0.038 A 
ATOM     28  C   UNL A   1      36.525  23.051  24.925  1.00  0.00     0.024 A 
ATOM     29  C   UNL A   1      38.407  21.629  25.754  1.00  0.00     0.067 C 
BRANCH  20  30
ATOM     30  O   UNL A   1      34.634  18.350  24.902  1.00  0.00    -0.494 OA
ATOM     31  C   UNL A   1      33.689  17.339  24.548  1.00  0.00     0.278 C 
ENDBRANCH  20  30
ENDBRANCH  14  19
ENDBRANCH   8  13
ENDBRANCH   6   7
ENDBRANCH   3   6
ENDBRANCH   1   2
BRANCH   1  32
ATOM     32  C   UNL A   1      31.603  32.755  26.810  1.00  0.00     0.042 C 
BRANCH  32  33
ATOM     33  C   UNL A   1      32.899  33.362  27.351  1.00  0.00     0.118 C 
BRANCH  33  34
ATOM     34  N   UNL A   1      32.659  34.669  27.923  1.00  0.00    -0.352 N 
ATOM     35  C   UNL A   1      33.099  35.190  29.117  1.00  0.00     0.251 C 
ATOM     36  H   UNL A   1      32.102  35.272  27.380  1.00  0.00     0.163 HD
ATOM     37  O   UNL A   1      32.505  36.161  29.582  1.00  0.00    -0.269 OA
BRANCH  35  38
ATOM     38  C   UNL A   1      34.266  34.621  29.844  1.00  0.00     0.039 A 
ATOM     39  C   UNL A   1      35.524  34.680  29.232  1.00  0.00     0.014 A 
ATOM     40  C   UNL A   1      34.123  33.917  31.045  1.00  0.00     0.014 A 
ATOM     41  C   UNL A   1      36.628  34.043  29.814  1.00  0.00     0.010 A 
ATOM     42  C   UNL A   1      35.236  33.312  31.646  1.00  0.00     0.010 A 
ATOM     43  C   UNL A   1      36.495  33.348  31.025  1.00  0.00    -0.014 A 
BRANCH  43  44
ATOM     44  C   UNL A   1      37.652  32.614  31.612  1.00  0.00     0.031 A 
ATOM     45  C   UNL A   1      38.246  33.055  32.926  1.00  0.00     0.074 A 
ATOM     46  C   UNL A   1      38.182  31.556  30.968  1.00  0.00     0.049 A 
ATOM     47  N   UNL A   1      39.276  32.573  33.577  1.00  0.00    -0.248 NA
ATOM     48  C   UNL A   1      37.604  34.201  33.585  1.00  0.00     0.031 C 
ATOM     49  C   UNL A   1      37.711  31.027  29.688  1.00  0.00     0.029 A 
ATOM     50  N   UNL A   1      39.238  30.740  31.297  1.00  0.00    -0.354 N 
ATOM     51  C   UNL A   1      39.409  33.358  34.719  1.00  0.00     0.074 A 
ATOM     52  C   UNL A   1      38.383  34.378  34.641  1.00  0.00     0.031 C 
ATOM     53  C   UNL A   1      38.467  29.971  29.344  1.00  0.00     0.029 A 
ATOM     54  C   UNL A   1      39.499  29.768  30.359  1.00  0.00     0.049 A 
ATOM     55  H   UNL A   1      39.758  30.841  32.127  1.00  0.00     0.167 HD
ATOM     56  C   UNL A   1      40.290  33.231  35.745  1.00  0.00     0.034 A 
ATOM     57  C   UNL A   1      40.465  28.828  30.312  1.00  0.00     0.034 A 
ATOM     58  C   UNL A   1      41.309  32.210  35.818  1.00  0.00     0.049 A 
ATOM     59  C   UNL A   1      41.459  28.730  31.441  1.00  0.00     0.074 A 
ATOM     60  C   UNL A   1      42.226  31.977  36.830  1.00  0.00     0.029 A 
ATOM     61  N   UNL A   1      41.551  31.254  34.841  1.00  0.00    -0.354 N 
ATOM     62  N   UNL A   1      41.555  29.467  32.523  1.00  0.00    -0.248 NA
ATOM     63  C   UNL A   1      42.467  27.666  31.345  1.00  0.00     0.031 C 
ATOM     64  C   UNL A   1      43.060  30.923  36.437  1.00  0.00     0.029 A 
ATOM     65  C   UNL A   1      42.620  30.450  35.211  1.00  0.00     0.049 A 
ATOM     66  H   UNL A   1      41.039  31.160  34.005  1.00  0.00     0.167 HD
ATOM     67  C   UNL A   1      42.620  28.937  33.248  1.00  0.00     0.074 A 
ATOM     68  C   UNL A   1      43.124  27.814  32.487  1.00  0.00     0.031 C 
ATOM     69  C   UNL A   1      43.129  29.341  34.440  1.00  0.00     0.034 A 
BRANCH  56  70
ATOM     70  C   UNL A   1      40.207  34.251  36.857  1.00  0.00     0.023 A 
ATOM     71  C   UNL A   1      39.678  33.925  38.118  1.00  0.00     0.031 A 
ATOM     72  C   UNL A   1      40.644  35.572  36.648  1.00  0.00     0.131 A 
ATOM     73  C   UNL A   1      39.528  34.923  39.094  1.00  0.00     0.055 A 
ATOM     74  C   UNL A   1      40.564  36.541  37.650  1.00  0.00     0.041 A 
ATOM     75  F   UNL A   1      41.142  35.947  35.460  1.00  0.00    -0.206 F 
ATOM     76  C   UNL A   1      39.989  36.222  38.877  1.00  0.00     0.022 A 
BRANCH  73  77
ATOM     77  S   UNL A   1      38.593  34.530  40.598  1.00  0.00     0.124 S 
ATOM     78  O   UNL A   1      38.192  35.860  41.052  1.00  0.00    -0.237 OA
ATOM     79  O   UNL A   1      37.524  33.677  40.091  1.00  0.00    -0.237 OA
ATOM     80  O   UNL A   1      39.576  33.860  41.447  1.00  0.00    -0.744 OA
ENDBRANCH  73  77
ENDBRANCH  56  70
BRANCH  57  81
ATOM     81  C   UNL A   1      40.558  27.910  29.142  1.00  0.00     0.023 A 
ATOM     82  C   UNL A   1      41.458  28.159  28.094  1.00  0.00     0.031 A 
ATOM     83  C   UNL A   1      39.719  26.787  29.042  1.00  0.00     0.131 A 
ATOM     84  C   UNL A   1      41.470  27.317  26.972  1.00  0.00     0.055 A 
ATOM     85  C   UNL A   1      39.767  25.925  27.945  1.00  0.00     0.041 A 
ATOM     86  F   UNL A   1      38.844  26.505  30.021  1.00  0.00    -0.206 F 
ATOM     87  C   UNL A   1      40.640  26.196  26.895  1.00  0.00     0.022 A 
BRANCH  84  88
ATOM     88  S   UNL A   1      42.546  27.748  25.576  1.00  0.00     0.124 S 
ATOM     89  O   UNL A   1      42.430  26.564  24.733  1.00  0.00    -0.237 OA
ATOM     90  O   UNL A   1      41.915  28.962  25.070  1.00  0.00    -0.237 OA
ATOM     91  O   UNL A   1      43.853  27.943  26.202  1.00  0.00    -0.744 OA
ENDBRANCH  84  88
ENDBRANCH  57  81
BRANCH  69  92
ATOM     92  C   UNL A   1      44.267  28.531  35.009  1.00  0.00     0.023 A 
ATOM     93  C   UNL A   1      44.046  27.341  35.725  1.00  0.00     0.031 A 
ATOM     94  C   UNL A   1      45.594  28.965  34.844  1.00  0.00     0.131 A 
ATOM     95  C   UNL A   1      45.130  26.654  36.292  1.00  0.00     0.055 A 
ATOM     96  C   UNL A   1      46.673  28.250  35.367  1.00  0.00     0.041 A 
ATOM     97  F   UNL A   1      45.864  30.095  34.170  1.00  0.00    -0.206 F 
ATOM     98  C   UNL A   1      46.444  27.094  36.106  1.00  0.00     0.022 A 
BRANCH  95  99
ATOM     99  S   UNL A   1      44.797  25.215  37.346  1.00  0.00     0.124 S 
ATOM    100  O   UNL A   1      46.086  24.530  37.342  1.00  0.00    -0.237 OA
ATOM    101  O   UNL A   1      44.408  25.835  38.608  1.00  0.00    -0.237 OA
ATOM    102  O   UNL A   1      43.722  24.515  36.644  1.00  0.00    -0.744 OA
ENDBRANCH  95  99
ENDBRANCH  69  92
ENDBRANCH  43  44
ENDBRANCH  35  38
ENDBRANCH  33  34
ENDBRANCH  32  33
ENDBRANCH   1  32
TORSDOF 17
ENDMDL
