MODEL 1
REMARK VINA RESULT:     -11.3      0.000      0.000
REMARK SMILES O=C(NCCCNC(=O)c1ccc(CN2CC(=O)N3CCCC[C@@H]3C2=O)o1)c1ccc(-c2c3nc(c(-c4cc(S(=O)(=O)[O-])ccc4F)c4ccc([nH]4)c(-c4cc(S(=O)(=O)[O-])ccc4F)c4nc(c(-c5cc(S(=O)(=O)[O-])ccc5F)c5ccc2[nH]5)C=C4)C=C3)cc1
REMARK SMILES IDX 4 1 3 2 1 3 2 4 28 6 29 7 90 8 30 9 89 10 31 11 32 12 33 13
REMARK SMILES IDX 83 14 34 15 88 16 82 17 84 18 35 19 87 20 81 21 80 22 36 24
REMARK SMILES IDX 68 25 48 26 67 27 49 28 52 29 66 30 85 31 50 32 51 33 65 35
REMARK SMILES IDX 86 36 53 37 37 38 38 39 46 40 39 41 45 42 47 43 44 44 40 45
REMARK SMILES IDX 41 46 42 47 43 48 69 49 70 50 78 51 71 52 77 53 79 54 76 55
REMARK SMILES IDX 72 56 73 57 74 58 75 59 54 60 55 61 63 62 56 63 62 64 64 65
REMARK SMILES IDX 61 66 57 67 58 68 59 69 60 70 5 71 6 72 7 73 8 74 9 76 10 77
REMARK SMILES IDX 11 78 27 79 12 80 13 81 14 82 15 83 16 84 25 85 17 86 24 87
REMARK SMILES IDX 26 88 18 89 19 90 23 91 20 92 22 93 21 94
REMARK H PARENT 3 5 84 23 52 34 7 75
REMARK Flexibility Score: inf
ROOT
ATOM      1  C   UNL A   1      42.104  21.303  26.394  1.00  0.00     0.118 C 
ENDROOT
BRANCH   1   2
ATOM      2  N   UNL A   1      40.677  21.337  26.077  1.00  0.00    -0.352 N 
ATOM      3  O   UNL A   1      38.528  21.986  26.112  1.00  0.00    -0.269 OA
ATOM      4  C   UNL A   1      39.726  22.282  26.329  1.00  0.00     0.251 C 
ATOM      5  H   UNL A   1      40.347  20.542  25.599  1.00  0.00     0.163 HD
BRANCH   4   6
ATOM      6  C   UNL A   1      40.048  23.619  26.862  1.00  0.00     0.039 A 
ATOM      7  C   UNL A   1      39.823  24.777  26.112  1.00  0.00     0.014 A 
ATOM      8  C   UNL A   1      40.529  23.730  28.174  1.00  0.00     0.014 A 
ATOM      9  C   UNL A   1      40.202  26.020  26.620  1.00  0.00     0.010 A 
ATOM     10  C   UNL A   1      40.851  24.984  28.705  1.00  0.00     0.010 A 
ATOM     11  C   UNL A   1      40.730  26.137  27.917  1.00  0.00    -0.014 A 
BRANCH  11  12
ATOM     12  C   UNL A   1      41.150  27.473  28.417  1.00  0.00     0.031 A 
ATOM     13  C   UNL A   1      42.590  27.904  28.338  1.00  0.00     0.074 A 
ATOM     14  C   UNL A   1      40.224  28.320  28.902  1.00  0.00     0.049 A 
ATOM     15  N   UNL A   1      43.124  29.063  28.630  1.00  0.00    -0.248 NA
ATOM     16  C   UNL A   1      43.559  26.894  27.887  1.00  0.00     0.031 C 
ATOM     17  C   UNL A   1      38.802  28.010  29.072  1.00  0.00     0.029 A 
ATOM     18  N   UNL A   1      40.332  29.623  29.315  1.00  0.00    -0.354 N 
ATOM     19  C   UNL A   1      44.490  28.920  28.419  1.00  0.00     0.074 A 
ATOM     20  C   UNL A   1      44.705  27.550  28.000  1.00  0.00     0.031 C 
ATOM     21  C   UNL A   1      38.163  29.108  29.508  1.00  0.00     0.029 A 
ATOM     22  C   UNL A   1      39.130  30.191  29.662  1.00  0.00     0.049 A 
ATOM     23  H   UNL A   1      41.190  30.106  29.358  1.00  0.00     0.167 HD
ATOM     24  C   UNL A   1      45.476  29.843  28.552  1.00  0.00     0.034 A 
ATOM     25  C   UNL A   1      38.835  31.448  30.044  1.00  0.00     0.034 A 
ATOM     26  C   UNL A   1      45.257  31.213  28.948  1.00  0.00     0.049 A 
ATOM     27  C   UNL A   1      39.929  32.473  30.119  1.00  0.00     0.074 A 
ATOM     28  C   UNL A   1      46.182  32.236  29.076  1.00  0.00     0.029 A 
ATOM     29  N   UNL A   1      44.022  31.752  29.280  1.00  0.00    -0.354 N 
ATOM     30  N   UNL A   1      41.213  32.326  29.891  1.00  0.00    -0.248 NA
ATOM     31  C   UNL A   1      39.531  33.836  30.495  1.00  0.00     0.031 C 
ATOM     32  C   UNL A   1      45.510  33.385  29.516  1.00  0.00     0.029 A 
ATOM     33  C   UNL A   1      44.161  33.088  29.624  1.00  0.00     0.049 A 
ATOM     34  H   UNL A   1      43.171  31.258  29.272  1.00  0.00     0.167 HD
ATOM     35  C   UNL A   1      41.775  33.580  30.094  1.00  0.00     0.074 A 
ATOM     36  C   UNL A   1      40.691  34.474  30.447  1.00  0.00     0.031 C 
ATOM     37  C   UNL A   1      43.074  33.958  29.997  1.00  0.00     0.034 A 
BRANCH  24  38
ATOM     38  C   UNL A   1      46.886  29.375  28.303  1.00  0.00     0.023 A 
ATOM     39  C   UNL A   1      47.676  28.838  29.335  1.00  0.00     0.031 A 
ATOM     40  C   UNL A   1      47.463  29.513  27.027  1.00  0.00     0.131 A 
ATOM     41  C   UNL A   1      49.021  28.523  29.089  1.00  0.00     0.055 A 
ATOM     42  C   UNL A   1      48.783  29.138  26.775  1.00  0.00     0.041 A 
ATOM     43  F   UNL A   1      46.757  30.039  26.014  1.00  0.00    -0.206 F 
ATOM     44  C   UNL A   1      49.575  28.652  27.812  1.00  0.00     0.022 A 
BRANCH  41  45
ATOM     45  S   UNL A   1      50.075  28.066  30.495  1.00  0.00     0.124 S 
ATOM     46  O   UNL A   1      51.065  29.137  30.487  1.00  0.00    -0.237 OA
ATOM     47  O   UNL A   1      49.133  28.076  31.610  1.00  0.00    -0.237 OA
ATOM     48  O   UNL A   1      50.589  26.751  30.125  1.00  0.00    -0.744 OA
ENDBRANCH  41  45
ENDBRANCH  24  38
BRANCH  25  49
ATOM     49  C   UNL A   1      37.432  31.809  30.374  1.00  0.00     0.023 A 
ATOM     50  C   UNL A   1      36.553  32.264  29.377  1.00  0.00     0.031 A 
ATOM     51  C   UNL A   1      36.961  31.705  31.695  1.00  0.00     0.131 A 
ATOM     52  C   UNL A   1      35.241  32.621  29.722  1.00  0.00     0.055 A 
ATOM     53  C   UNL A   1      35.648  32.040  32.029  1.00  0.00     0.041 A 
ATOM     54  F   UNL A   1      37.767  31.261  32.670  1.00  0.00    -0.206 F 
ATOM     55  C   UNL A   1      34.783  32.508  31.040  1.00  0.00     0.022 A 
BRANCH  52  56
ATOM     56  S   UNL A   1      34.143  33.262  28.422  1.00  0.00     0.124 S 
ATOM     57  O   UNL A   1      33.206  34.069  29.191  1.00  0.00    -0.237 OA
ATOM     58  O   UNL A   1      35.074  33.998  27.577  1.00  0.00    -0.237 OA
ATOM     59  O   UNL A   1      33.586  32.059  27.824  1.00  0.00    -0.744 OA
ENDBRANCH  52  56
ENDBRANCH  25  49
BRANCH  37  60
ATOM     60  C   UNL A   1      43.373  35.407  30.267  1.00  0.00     0.023 A 
ATOM     61  C   UNL A   1      43.349  36.359  29.233  1.00  0.00     0.031 A 
ATOM     62  C   UNL A   1      43.715  35.829  31.563  1.00  0.00     0.131 A 
ATOM     63  C   UNL A   1      43.703  37.688  29.505  1.00  0.00     0.055 A 
ATOM     64  C   UNL A   1      44.037  37.159  31.834  1.00  0.00     0.041 A 
ATOM     65  F   UNL A   1      43.753  34.952  32.579  1.00  0.00    -0.206 F 
ATOM     66  C   UNL A   1      44.041  38.094  30.802  1.00  0.00     0.022 A 
BRANCH  63  67
ATOM     67  S   UNL A   1      43.784  38.872  28.128  1.00  0.00     0.124 S 
ATOM     68  O   UNL A   1      43.655  38.000  26.967  1.00  0.00    -0.237 OA
ATOM     69  O   UNL A   1      42.645  39.741  28.401  1.00  0.00    -0.237 OA
ATOM     70  O   UNL A   1      45.090  39.496  28.290  1.00  0.00    -0.744 OA
ENDBRANCH  63  67
ENDBRANCH  37  60
ENDBRANCH  11  12
ENDBRANCH   4   6
ENDBRANCH   1   2
BRANCH   1  71
ATOM     71  C   UNL A   1      42.605  19.904  26.755  1.00  0.00     0.042 C 
BRANCH  71  72
ATOM     72  C   UNL A   1      43.162  19.096  25.587  1.00  0.00     0.118 C 
BRANCH  72  73
ATOM     73  N   UNL A   1      44.598  18.817  25.725  1.00  0.00    -0.349 N 
ATOM     74  C   UNL A   1      45.679  19.564  25.409  1.00  0.00     0.286 C 
ATOM     75  H   UNL A   1      44.809  17.938  26.114  1.00  0.00     0.163 HD
ATOM     76  O   UNL A   1      46.779  18.983  25.463  1.00  0.00    -0.266 OA
BRANCH  74  77
ATOM     77  C   UNL A   1      45.579  20.954  25.042  1.00  0.00     0.191 A 
ATOM     78  C   UNL A   1      45.308  21.622  23.831  1.00  0.00     0.056 A 
ATOM     79  O   UNL A   1      45.672  21.892  26.024  1.00  0.00    -0.454 OA
ATOM     80  C   UNL A   1      45.268  23.009  24.131  1.00  0.00     0.048 A 
ATOM     81  C   UNL A   1      45.488  23.128  25.487  1.00  0.00     0.124 A 
BRANCH  81  82
ATOM     82  C   UNL A   1      45.490  24.271  26.444  1.00  0.00     0.195 C 
BRANCH  82  83
ATOM     83  N   UNL A   1      46.788  24.920  26.324  1.00  0.00    -0.324 N 
ATOM     84  C   UNL A   1      47.769  24.749  27.378  1.00  0.00     0.220 C 
ATOM     85  C   UNL A   1      47.007  25.843  25.317  1.00  0.00     0.246 C 
ATOM     86  C   UNL A   1      49.236  24.908  26.970  1.00  0.00     0.242 C 
ATOM     87  C   UNL A   1      48.462  25.826  24.807  1.00  0.00     0.174 C 
ATOM     88  O   UNL A   1      46.088  26.395  24.702  1.00  0.00    -0.272 OA
ATOM     89  O   UNL A   1      50.136  24.493  27.705  1.00  0.00    -0.273 OA
ATOM     90  N   UNL A   1      49.477  25.732  25.871  1.00  0.00    -0.329 N 
ATOM     91  C   UNL A   1      48.697  27.023  23.875  1.00  0.00     0.035 C 
ATOM     92  C   UNL A   1      50.871  25.934  25.490  1.00  0.00     0.120 C 
ATOM     93  C   UNL A   1      50.137  27.086  23.386  1.00  0.00     0.004 C 
ATOM     94  C   UNL A   1      51.080  27.137  24.579  1.00  0.00     0.022 C 
ENDBRANCH  82  83
ENDBRANCH  81  82
ENDBRANCH  74  77
ENDBRANCH  72  73
ENDBRANCH  71  72
ENDBRANCH   1  71
TORSDOF 15
ENDMDL
MODEL 2
REMARK VINA RESULT:     -11.2      5.799     12.109
REMARK SMILES O=C(NCCCNC(=O)c1ccc(CN2CC(=O)N3CCCC[C@@H]3C2=O)o1)c1ccc(-c2c3nc(c(-c4cc(S(=O)(=O)[O-])ccc4F)c4ccc([nH]4)c(-c4cc(S(=O)(=O)[O-])ccc4F)c4nc(c(-c5cc(S(=O)(=O)[O-])ccc5F)c5ccc2[nH]5)C=C4)C=C3)cc1
REMARK SMILES IDX 4 1 3 2 1 3 2 4 28 6 29 7 90 8 30 9 89 10 31 11 32 12 33 13
REMARK SMILES IDX 83 14 34 15 88 16 82 17 84 18 35 19 87 20 81 21 80 22 36 24
REMARK SMILES IDX 68 25 48 26 67 27 49 28 52 29 66 30 85 31 50 32 51 33 65 35
REMARK SMILES IDX 86 36 53 37 37 38 38 39 46 40 39 41 45 42 47 43 44 44 40 45
REMARK SMILES IDX 41 46 42 47 43 48 69 49 70 50 78 51 71 52 77 53 79 54 76 55
REMARK SMILES IDX 72 56 73 57 74 58 75 59 54 60 55 61 63 62 56 63 62 64 64 65
REMARK SMILES IDX 61 66 57 67 58 68 59 69 60 70 5 71 6 72 7 73 8 74 9 76 10 77
REMARK SMILES IDX 11 78 27 79 12 80 13 81 14 82 15 83 16 84 25 85 17 86 24 87
REMARK SMILES IDX 26 88 18 89 19 90 23 91 20 92 22 93 21 94
REMARK H PARENT 3 5 84 23 52 34 7 75
REMARK Flexibility Score: inf
ROOT
ATOM      1  C   UNL A   1      32.838  29.489  26.812  1.00  0.00     0.118 C 
ENDROOT
BRANCH   1   2
ATOM      2  N   UNL A   1      32.875  30.943  26.967  1.00  0.00    -0.352 N 
ATOM      3  O   UNL A   1      33.478  32.963  27.739  1.00  0.00    -0.269 OA
ATOM      4  C   UNL A   1      33.775  31.754  27.593  1.00  0.00     0.251 C 
ATOM      5  H   UNL A   1      32.120  31.417  26.546  1.00  0.00     0.163 HD
BRANCH   4   6
ATOM      6  C   UNL A   1      35.063  31.264  28.118  1.00  0.00     0.039 A 
ATOM      7  C   UNL A   1      35.218  29.948  28.564  1.00  0.00     0.014 A 
ATOM      8  C   UNL A   1      36.172  32.123  28.105  1.00  0.00     0.014 A 
ATOM      9  C   UNL A   1      36.432  29.539  29.117  1.00  0.00     0.010 A 
ATOM     10  C   UNL A   1      37.406  31.690  28.603  1.00  0.00     0.010 A 
ATOM     11  C   UNL A   1      37.536  30.407  29.152  1.00  0.00    -0.014 A 
BRANCH  11  12
ATOM     12  C   UNL A   1      38.806  29.948  29.774  1.00  0.00     0.031 A 
ATOM     13  C   UNL A   1      39.184  30.388  31.163  1.00  0.00     0.074 A 
ATOM     14  C   UNL A   1      39.601  29.094  29.103  1.00  0.00     0.049 A 
ATOM     15  N   UNL A   1      40.197  30.014  31.902  1.00  0.00    -0.248 NA
ATOM     16  C   UNL A   1      38.319  31.394  31.797  1.00  0.00     0.031 C 
ATOM     17  C   UNL A   1      39.371  28.624  27.735  1.00  0.00     0.029 A 
ATOM     18  N   UNL A   1      40.747  28.448  29.489  1.00  0.00    -0.354 N 
ATOM     19  C   UNL A   1      40.105  30.749  33.079  1.00  0.00     0.074 A 
ATOM     20  C   UNL A   1      38.951  31.612  32.940  1.00  0.00     0.031 C 
ATOM     21  C   UNL A   1      40.319  27.728  27.415  1.00  0.00     0.029 A 
ATOM     22  C   UNL A   1      41.229  27.573  28.546  1.00  0.00     0.049 A 
ATOM     23  H   UNL A   1      41.183  28.597  30.360  1.00  0.00     0.167 HD
ATOM     24  C   UNL A   1      40.901  30.704  34.177  1.00  0.00     0.034 A 
ATOM     25  C   UNL A   1      42.275  26.726  28.592  1.00  0.00     0.034 A 
ATOM     26  C   UNL A   1      42.037  29.827  34.322  1.00  0.00     0.049 A 
ATOM     27  C   UNL A   1      43.103  26.643  29.842  1.00  0.00     0.074 A 
ATOM     28  C   UNL A   1      42.885  29.679  35.407  1.00  0.00     0.029 A 
ATOM     29  N   UNL A   1      42.486  28.947  33.347  1.00  0.00    -0.354 N 
ATOM     30  N   UNL A   1      42.985  27.328  30.955  1.00  0.00    -0.248 NA
ATOM     31  C   UNL A   1      44.198  25.664  29.843  1.00  0.00     0.031 C 
ATOM     32  C   UNL A   1      43.864  28.732  35.076  1.00  0.00     0.029 A 
ATOM     33  C   UNL A   1      43.603  28.262  33.799  1.00  0.00     0.049 A 
ATOM     34  H   UNL A   1      42.070  28.826  32.462  1.00  0.00     0.167 HD
ATOM     35  C   UNL A   1      43.993  26.860  31.790  1.00  0.00     0.074 A 
ATOM     36  C   UNL A   1      44.696  25.825  31.060  1.00  0.00     0.031 C 
ATOM     37  C   UNL A   1      44.306  27.252  33.050  1.00  0.00     0.034 A 
BRANCH  24  38
ATOM     38  C   UNL A   1      40.582  31.669  35.289  1.00  0.00     0.023 A 
ATOM     39  C   UNL A   1      39.544  31.419  36.205  1.00  0.00     0.031 A 
ATOM     40  C   UNL A   1      41.294  32.877  35.405  1.00  0.00     0.131 A 
ATOM     41  C   UNL A   1      39.203  32.395  37.154  1.00  0.00     0.055 A 
ATOM     42  C   UNL A   1      40.990  33.816  36.392  1.00  0.00     0.041 A 
ATOM     43  F   UNL A   1      42.280  33.172  34.544  1.00  0.00    -0.206 F 
ATOM     44  C   UNL A   1      39.930  33.584  37.265  1.00  0.00     0.022 A 
BRANCH  41  45
ATOM     45  S   UNL A   1      37.708  32.147  38.154  1.00  0.00     0.124 S 
ATOM     46  O   UNL A   1      37.364  30.765  37.839  1.00  0.00    -0.237 OA
ATOM     47  O   UNL A   1      38.192  32.392  39.508  1.00  0.00    -0.237 OA
ATOM     48  O   UNL A   1      36.778  33.145  37.634  1.00  0.00    -0.744 OA
ENDBRANCH  41  45
ENDBRANCH  24  38
BRANCH  25  49
ATOM     49  C   UNL A   1      42.591  25.878  27.414  1.00  0.00     0.023 A 
ATOM     50  C   UNL A   1      42.180  24.536  27.364  1.00  0.00     0.031 A 
ATOM     51  C   UNL A   1      43.311  26.405  26.328  1.00  0.00     0.131 A 
ATOM     52  C   UNL A   1      42.513  23.751  26.250  1.00  0.00     0.055 A 
ATOM     53  C   UNL A   1      43.621  25.627  25.212  1.00  0.00     0.041 A 
ATOM     54  F   UNL A   1      43.708  27.686  26.334  1.00  0.00    -0.206 F 
ATOM     55  C   UNL A   1      43.227  24.290  25.173  1.00  0.00     0.022 A 
BRANCH  52  56
ATOM     56  S   UNL A   1      42.020  22.001  26.239  1.00  0.00     0.124 S 
ATOM     57  O   UNL A   1      42.850  21.462  25.170  1.00  0.00    -0.237 OA
ATOM     58  O   UNL A   1      42.368  21.581  27.590  1.00  0.00    -0.237 OA
ATOM     59  O   UNL A   1      40.594  22.052  25.956  1.00  0.00    -0.744 OA
ENDBRANCH  52  56
ENDBRANCH  25  49
BRANCH  37  60
ATOM     60  C   UNL A   1      45.456  26.539  33.707  1.00  0.00     0.023 A 
ATOM     61  C   UNL A   1      45.251  25.372  34.464  1.00  0.00     0.031 A 
ATOM     62  C   UNL A   1      46.760  27.052  33.600  1.00  0.00     0.131 A 
ATOM     63  C   UNL A   1      46.333  24.773  35.123  1.00  0.00     0.055 A 
ATOM     64  C   UNL A   1      47.839  26.434  34.234  1.00  0.00     0.041 A 
ATOM     65  F   UNL A   1      47.000  28.166  32.890  1.00  0.00    -0.206 F 
ATOM     66  C   UNL A   1      47.627  25.295  35.007  1.00  0.00     0.022 A 
BRANCH  63  67
ATOM     67  S   UNL A   1      46.021  23.338  36.194  1.00  0.00     0.124 S 
ATOM     68  O   UNL A   1      45.004  22.612  35.443  1.00  0.00    -0.237 OA
ATOM     69  O   UNL A   1      47.334  22.709  36.259  1.00  0.00    -0.237 OA
ATOM     70  O   UNL A   1      45.559  23.936  37.440  1.00  0.00    -0.744 OA
ENDBRANCH  63  67
ENDBRANCH  37  60
ENDBRANCH  11  12
ENDBRANCH   4   6
ENDBRANCH   1   2
BRANCH   1  71
ATOM     71  C   UNL A   1      31.871  29.027  25.720  1.00  0.00     0.042 C 
BRANCH  71  72
ATOM     72  C   UNL A   1      32.326  29.314  24.292  1.00  0.00     0.118 C 
BRANCH  72  73
ATOM     73  N   UNL A   1      31.204  29.398  23.347  1.00  0.00    -0.349 N 
ATOM     74  C   UNL A   1      30.656  28.463  22.538  1.00  0.00     0.286 C 
ATOM     75  H   UNL A   1      30.779  30.284  23.293  1.00  0.00     0.163 HD
ATOM     76  O   UNL A   1      29.832  28.879  21.702  1.00  0.00    -0.266 OA
BRANCH  74  77
ATOM     77  C   UNL A   1      30.988  27.064  22.638  1.00  0.00     0.191 A 
ATOM     78  C   UNL A   1      31.701  26.174  21.810  1.00  0.00     0.056 A 
ATOM     79  O   UNL A   1      30.649  26.396  23.774  1.00  0.00    -0.454 OA
ATOM     80  C   UNL A   1      31.753  24.932  22.496  1.00  0.00     0.048 A 
ATOM     81  C   UNL A   1      31.103  25.117  23.699  1.00  0.00     0.124 A 
BRANCH  81  82
ATOM     82  C   UNL A   1      30.876  24.263  24.900  1.00  0.00     0.195 C 
BRANCH  82  83
ATOM     83  N   UNL A   1      32.092  23.490  25.105  1.00  0.00    -0.324 N 
ATOM     84  C   UNL A   1      32.041  22.044  25.009  1.00  0.00     0.220 C 
ATOM     85  C   UNL A   1      33.234  24.113  25.577  1.00  0.00     0.246 C 
ATOM     86  C   UNL A   1      33.349  21.343  24.634  1.00  0.00     0.242 C 
ATOM     87  C   UNL A   1      34.525  23.487  25.013  1.00  0.00     0.174 C 
ATOM     88  O   UNL A   1      33.213  25.214  26.139  1.00  0.00    -0.272 OA
ATOM     89  O   UNL A   1      33.339  20.174  24.240  1.00  0.00    -0.273 OA
ATOM     90  N   UNL A   1      34.521  22.014  24.982  1.00  0.00    -0.329 N 
ATOM     91  C   UNL A   1      35.742  24.056  25.754  1.00  0.00     0.035 C 
ATOM     92  C   UNL A   1      35.781  21.345  24.673  1.00  0.00     0.120 C 
ATOM     93  C   UNL A   1      37.042  23.428  25.273  1.00  0.00     0.004 C 
ATOM     94  C   UNL A   1      36.971  21.917  25.433  1.00  0.00     0.022 C 
ENDBRANCH  82  83
ENDBRANCH  81  82
ENDBRANCH  74  77
ENDBRANCH  72  73
ENDBRANCH  71  72
ENDBRANCH   1  71
TORSDOF 15
ENDMDL
MODEL 3
REMARK VINA RESULT:     -11.1      5.800     12.102
REMARK SMILES O=C(NCCCNC(=O)c1ccc(CN2CC(=O)N3CCCC[C@@H]3C2=O)o1)c1ccc(-c2c3nc(c(-c4cc(S(=O)(=O)[O-])ccc4F)c4ccc([nH]4)c(-c4cc(S(=O)(=O)[O-])ccc4F)c4nc(c(-c5cc(S(=O)(=O)[O-])ccc5F)c5ccc2[nH]5)C=C4)C=C3)cc1
REMARK SMILES IDX 4 1 3 2 1 3 2 4 28 6 29 7 90 8 30 9 89 10 31 11 32 12 33 13
REMARK SMILES IDX 83 14 34 15 88 16 82 17 84 18 35 19 87 20 81 21 80 22 36 24
REMARK SMILES IDX 68 25 48 26 67 27 49 28 52 29 66 30 85 31 50 32 51 33 65 35
REMARK SMILES IDX 86 36 53 37 37 38 38 39 46 40 39 41 45 42 47 43 44 44 40 45
REMARK SMILES IDX 41 46 42 47 43 48 69 49 70 50 78 51 71 52 77 53 79 54 76 55
REMARK SMILES IDX 72 56 73 57 74 58 75 59 54 60 55 61 63 62 56 63 62 64 64 65
REMARK SMILES IDX 61 66 57 67 58 68 59 69 60 70 5 71 6 72 7 73 8 74 9 76 10 77
REMARK SMILES IDX 11 78 27 79 12 80 13 81 14 82 15 83 16 84 25 85 17 86 24 87
REMARK SMILES IDX 26 88 18 89 19 90 23 91 20 92 22 93 21 94
REMARK H PARENT 3 5 84 23 52 34 7 75
REMARK Flexibility Score: inf
ROOT
ATOM      1  C   UNL A   1      32.585  30.056  26.039  1.00  0.00     0.118 C 
ENDROOT
BRANCH   1   2
ATOM      2  N   UNL A   1      32.445  31.465  26.405  1.00  0.00    -0.352 N 
ATOM      3  O   UNL A   1      32.727  33.385  27.534  1.00  0.00    -0.269 OA
ATOM      4  C   UNL A   1      33.168  32.244  27.258  1.00  0.00     0.251 C 
ATOM      5  H   UNL A   1      31.701  31.930  25.957  1.00  0.00     0.163 HD
BRANCH   4   6
ATOM      6  C   UNL A   1      34.429  31.795  27.879  1.00  0.00     0.039 A 
ATOM      7  C   UNL A   1      34.603  30.475  28.306  1.00  0.00     0.014 A 
ATOM      8  C   UNL A   1      35.496  32.699  27.981  1.00  0.00     0.014 A 
ATOM      9  C   UNL A   1      35.783  30.101  28.950  1.00  0.00     0.010 A 
ATOM     10  C   UNL A   1      36.702  32.305  28.571  1.00  0.00     0.010 A 
ATOM     11  C   UNL A   1      36.841  31.014  29.099  1.00  0.00    -0.014 A 
BRANCH  11  12
ATOM     12  C   UNL A   1      38.073  30.591  29.816  1.00  0.00     0.031 A 
ATOM     13  C   UNL A   1      38.307  30.996  31.247  1.00  0.00     0.074 A 
ATOM     14  C   UNL A   1      38.965  29.800  29.190  1.00  0.00     0.049 A 
ATOM     15  N   UNL A   1      39.269  30.642  32.060  1.00  0.00    -0.248 NA
ATOM     16  C   UNL A   1      37.341  31.937  31.834  1.00  0.00     0.031 C 
ATOM     17  C   UNL A   1      38.878  29.371  27.793  1.00  0.00     0.029 A 
ATOM     18  N   UNL A   1      40.103  29.194  29.655  1.00  0.00    -0.354 N 
ATOM     19  C   UNL A   1      39.040  31.328  33.247  1.00  0.00     0.074 A 
ATOM     20  C   UNL A   1      37.860  32.142  33.035  1.00  0.00     0.031 C 
ATOM     21  C   UNL A   1      39.893  28.532  27.528  1.00  0.00     0.029 A 
ATOM     22  C   UNL A   1      40.708  28.377  28.729  1.00  0.00     0.049 A 
ATOM     23  H   UNL A   1      40.454  29.331  30.565  1.00  0.00     0.167 HD
ATOM     24  C   UNL A   1      39.738  31.280  34.409  1.00  0.00     0.034 A 
ATOM     25  C   UNL A   1      41.786  27.579  28.840  1.00  0.00     0.034 A 
ATOM     26  C   UNL A   1      40.899  30.451  34.625  1.00  0.00     0.049 A 
ATOM     27  C   UNL A   1      42.506  27.488  30.155  1.00  0.00     0.074 A 
ATOM     28  C   UNL A   1      41.656  30.302  35.776  1.00  0.00     0.029 A 
ATOM     29  N   UNL A   1      41.473  29.629  33.666  1.00  0.00    -0.354 N 
ATOM     30  N   UNL A   1      42.258  28.125  31.276  1.00  0.00    -0.248 NA
ATOM     31  C   UNL A   1      43.643  26.561  30.221  1.00  0.00     0.031 C 
ATOM     32  C   UNL A   1      42.705  29.414  35.502  1.00  0.00     0.029 A 
ATOM     33  C   UNL A   1      42.579  28.980  34.193  1.00  0.00     0.049 A 
ATOM     34  H   UNL A   1      41.143  29.523  32.744  1.00  0.00     0.167 HD
ATOM     35  C   UNL A   1      43.211  27.673  32.181  1.00  0.00     0.074 A 
ATOM     36  C   UNL A   1      44.026  26.699  31.482  1.00  0.00     0.031 C 
ATOM     37  C   UNL A   1      43.394  28.033  33.476  1.00  0.00     0.034 A 
BRANCH  24  38
ATOM     38  C   UNL A   1      39.276  32.187  35.520  1.00  0.00     0.023 A 
ATOM     39  C   UNL A   1      39.690  33.529  35.593  1.00  0.00     0.031 A 
ATOM     40  C   UNL A   1      38.451  31.689  36.544  1.00  0.00     0.131 A 
ATOM     41  C   UNL A   1      39.332  34.308  36.704  1.00  0.00     0.055 A 
ATOM     42  C   UNL A   1      38.047  32.489  37.615  1.00  0.00     0.041 A 
ATOM     43  F   UNL A   1      38.046  30.410  36.532  1.00  0.00    -0.206 F 
ATOM     44  C   UNL A   1      38.500  33.802  37.707  1.00  0.00     0.022 A 
BRANCH  41  45
ATOM     45  S   UNL A   1      40.082  35.952  36.888  1.00  0.00     0.124 S 
ATOM     46  O   UNL A   1      41.480  35.617  37.136  1.00  0.00    -0.237 OA
ATOM     47  O   UNL A   1      39.793  36.575  35.601  1.00  0.00    -0.237 OA
ATOM     48  O   UNL A   1      39.375  36.525  38.030  1.00  0.00    -0.744 OA
ENDBRANCH  41  45
ENDBRANCH  24  38
BRANCH  25  49
ATOM     49  C   UNL A   1      42.245  26.790  27.668  1.00  0.00     0.023 A 
ATOM     50  C   UNL A   1      41.923  25.428  27.548  1.00  0.00     0.031 A 
ATOM     51  C   UNL A   1      43.013  27.395  26.658  1.00  0.00     0.131 A 
ATOM     52  C   UNL A   1      42.390  24.702  26.442  1.00  0.00     0.055 A 
ATOM     53  C   UNL A   1      43.456  26.674  25.549  1.00  0.00     0.041 A 
ATOM     54  F   UNL A   1      43.328  28.697  26.732  1.00  0.00    -0.206 F 
ATOM     55  C   UNL A   1      43.150  25.318  25.441  1.00  0.00     0.022 A 
BRANCH  52  56
ATOM     56  S   UNL A   1      42.008  22.927  26.342  1.00  0.00     0.124 S 
ATOM     57  O   UNL A   1      40.562  22.921  26.508  1.00  0.00    -0.237 OA
ATOM     58  O   UNL A   1      42.499  22.588  25.012  1.00  0.00    -0.237 OA
ATOM     59  O   UNL A   1      42.766  22.354  27.443  1.00  0.00    -0.744 OA
ENDBRANCH  52  56
ENDBRANCH  25  49
BRANCH  37  60
ATOM     60  C   UNL A   1      44.517  27.350  34.208  1.00  0.00     0.023 A 
ATOM     61  C   UNL A   1      44.340  26.082  34.788  1.00  0.00     0.031 A 
ATOM     62  C   UNL A   1      45.759  27.989  34.353  1.00  0.00     0.131 A 
ATOM     63  C   UNL A   1      45.383  25.504  35.526  1.00  0.00     0.055 A 
ATOM     64  C   UNL A   1      46.805  27.397  35.063  1.00  0.00     0.041 A 
ATOM     65  F   UNL A   1      45.969  29.202  33.818  1.00  0.00    -0.206 F 
ATOM     66  C   UNL A   1      46.616  26.153  35.662  1.00  0.00     0.022 A 
BRANCH  63  67
ATOM     67  S   UNL A   1      45.088  23.920  36.369  1.00  0.00     0.124 S 
ATOM     68  O   UNL A   1      44.949  24.335  37.759  1.00  0.00    -0.237 OA
ATOM     69  O   UNL A   1      43.870  23.448  35.721  1.00  0.00    -0.237 OA
ATOM     70  O   UNL A   1      46.286  23.147  36.071  1.00  0.00    -0.744 OA
ENDBRANCH  63  67
ENDBRANCH  37  60
ENDBRANCH  11  12
ENDBRANCH   4   6
ENDBRANCH   1   2
BRANCH   1  71
ATOM     71  C   UNL A   1      31.660  29.135  26.838  1.00  0.00     0.042 C 
BRANCH  71  72
ATOM     72  C   UNL A   1      32.218  27.742  27.114  1.00  0.00     0.118 C 
BRANCH  72  73
ATOM     73  N   UNL A   1      31.175  26.707  27.127  1.00  0.00    -0.349 N 
ATOM     74  C   UNL A   1      30.517  26.101  26.114  1.00  0.00     0.286 C 
ATOM     75  H   UNL A   1      30.911  26.403  28.026  1.00  0.00     0.163 HD
ATOM     76  O   UNL A   1      29.544  25.395  26.440  1.00  0.00    -0.266 OA
BRANCH  74  77
ATOM     77  C   UNL A   1      30.917  26.244  24.737  1.00  0.00     0.191 A 
ATOM     78  C   UNL A   1      30.384  26.949  23.639  1.00  0.00     0.056 A 
ATOM     79  O   UNL A   1      32.088  25.676  24.339  1.00  0.00    -0.454 OA
ATOM     80  C   UNL A   1      31.282  26.757  22.557  1.00  0.00     0.048 A 
ATOM     81  C   UNL A   1      32.316  25.978  23.033  1.00  0.00     0.124 A 
BRANCH  81  82
ATOM     82  C   UNL A   1      33.601  25.489  22.456  1.00  0.00     0.195 C 
BRANCH  82  83
ATOM     83  N   UNL A   1      33.902  24.223  23.107  1.00  0.00    -0.324 N 
ATOM     84  C   UNL A   1      34.947  24.168  24.111  1.00  0.00     0.220 C 
ATOM     85  C   UNL A   1      33.334  23.052  22.635  1.00  0.00     0.246 C 
ATOM     86  C   UNL A   1      34.829  23.053  25.153  1.00  0.00     0.242 C 
ATOM     87  C   UNL A   1      33.057  22.034  23.759  1.00  0.00     0.174 C 
ATOM     88  O   UNL A   1      32.840  22.956  21.506  1.00  0.00    -0.272 OA
ATOM     89  O   UNL A   1      35.481  23.106  26.198  1.00  0.00    -0.273 OA
ATOM     90  N   UNL A   1      34.145  21.909  24.745  1.00  0.00    -0.329 N 
ATOM     91  C   UNL A   1      32.660  20.684  23.147  1.00  0.00     0.035 C 
ATOM     92  C   UNL A   1      34.056  20.815  25.707  1.00  0.00     0.120 C 
ATOM     93  C   UNL A   1      32.429  19.625  24.215  1.00  0.00     0.004 C 
ATOM     94  C   UNL A   1      33.677  19.483  25.073  1.00  0.00     0.022 C 
ENDBRANCH  82  83
ENDBRANCH  81  82
ENDBRANCH  74  77
ENDBRANCH  72  73
ENDBRANCH  71  72
ENDBRANCH   1  71
TORSDOF 15
ENDMDL
