MODEL 1
REMARK VINA RESULT:     -10.3      0.000      0.000
REMARK SMILES C[C@@H]1[C@H](C(=O)NCCCNC(=O)c2ccc(-c3c4nc(c(-c5cc(S(=O)(=O)[O-])ccc5F)c5ccc([nH]5)c(-c5cc(S(=O)(=O)[O-])ccc5F)c5nc(c(-c6cc(S(=O)(=O)[O-])ccc6F)c6ccc3[nH]6)C=C5)C=C4)cc2)CCN1C(=O)C1CC1
REMARK SMILES IDX 8 1 7 2 6 3 4 4 5 5 3 7 1 8 2 9 78 10 76 11 77 12 79 13
REMARK SMILES IDX 80 14 81 15 82 16 83 17 9 18 10 19 11 20 12 22 13 23 14 24
REMARK SMILES IDX 75 25 15 26 74 27 16 28 17 29 18 30 68 31 19 32 73 33 67 34
REMARK SMILES IDX 69 35 20 36 72 37 66 38 65 39 21 41 53 42 33 43 52 44 34 45
REMARK SMILES IDX 37 46 51 47 70 48 35 49 36 50 50 52 71 53 38 54 22 55 23 56
REMARK SMILES IDX 31 57 24 58 30 59 32 60 29 61 25 62 26 63 27 64 28 65 54 66
REMARK SMILES IDX 55 67 63 68 56 69 62 70 64 71 61 72 57 73 58 74 59 75 60 76
REMARK SMILES IDX 39 77 40 78 48 79 41 80 47 81 49 82 46 83 42 84 43 85 44 86
REMARK SMILES IDX 45 87
REMARK H PARENT 6 6 10 21 69 40 37 51
REMARK Flexibility Score: inf
ROOT
ATOM      1  C   UNL A   1      34.209  34.579  27.811  1.00  0.00     0.042 C 
ENDROOT
BRANCH   1   2
ATOM      2  C   UNL A   1      34.425  35.683  28.850  1.00  0.00     0.117 C 
BRANCH   2   3
ATOM      3  N   UNL A   1      33.622  35.523  30.059  1.00  0.00    -0.356 N 
ATOM      4  C   UNL A   1      33.797  34.875  31.241  1.00  0.00     0.225 C 
ATOM      5  O   UNL A   1      32.870  34.974  32.053  1.00  0.00    -0.275 OA
ATOM      6  H   UNL A   1      32.756  35.990  30.007  1.00  0.00     0.163 HD
BRANCH   4   7
ATOM      7  C   UNL A   1      35.018  34.041  31.619  1.00  0.00     0.102 C 
ATOM      8  C   UNL A   1      35.018  35.178  33.919  1.00  0.00     0.032 C 
ATOM      9  C   UNL A   1      35.837  34.464  32.860  1.00  0.00     0.094 C 
ATOM     10  N   UNL A   1      36.415  33.210  33.362  1.00  0.00    -0.339 N 
ATOM     11  C   UNL A   1      34.788  32.543  31.732  1.00  0.00     0.037 C 
ATOM     12  C   UNL A   1      35.893  32.056  32.645  1.00  0.00     0.120 C 
BRANCH  10  13
ATOM     13  C   UNL A   1      37.396  32.955  34.313  1.00  0.00     0.225 C 
ATOM     14  O   UNL A   1      37.136  32.247  35.287  1.00  0.00    -0.275 OA
BRANCH  13  15
ATOM     15  C   UNL A   1      38.807  33.430  34.232  1.00  0.00     0.079 C 
ATOM     16  C   UNL A   1      39.511  34.380  33.314  1.00  0.00     0.014 C 
ATOM     17  C   UNL A   1      39.126  34.835  34.694  1.00  0.00     0.014 C 
ENDBRANCH  13  15
ENDBRANCH  10  13
ENDBRANCH   4   7
ENDBRANCH   2   3
ENDBRANCH   1   2
BRANCH   1  18
ATOM     18  C   UNL A   1      34.856  33.244  28.139  1.00  0.00     0.118 C 
BRANCH  18  19
ATOM     19  N   UNL A   1      34.021  32.129  27.736  1.00  0.00    -0.352 N 
ATOM     20  C   UNL A   1      34.353  30.808  27.541  1.00  0.00     0.251 C 
ATOM     21  H   UNL A   1      33.076  32.351  27.579  1.00  0.00     0.163 HD
ATOM     22  O   UNL A   1      33.569  30.094  26.922  1.00  0.00    -0.269 OA
BRANCH  20  23
ATOM     23  C   UNL A   1      35.633  30.245  28.041  1.00  0.00     0.039 A 
ATOM     24  C   UNL A   1      35.682  29.736  29.344  1.00  0.00     0.014 A 
ATOM     25  C   UNL A   1      36.803  30.275  27.278  1.00  0.00     0.014 A 
ATOM     26  C   UNL A   1      36.882  29.228  29.857  1.00  0.00     0.010 A 
ATOM     27  C   UNL A   1      37.974  29.683  27.756  1.00  0.00     0.010 A 
ATOM     28  C   UNL A   1      38.035  29.173  29.060  1.00  0.00    -0.014 A 
BRANCH  28  29
ATOM     29  C   UNL A   1      39.322  28.637  29.587  1.00  0.00     0.031 A 
ATOM     30  C   UNL A   1      39.950  29.255  30.812  1.00  0.00     0.074 A 
ATOM     31  C   UNL A   1      39.950  27.631  28.946  1.00  0.00     0.049 A 
ATOM     32  N   UNL A   1      41.099  28.990  31.380  1.00  0.00    -0.248 NA
ATOM     33  C   UNL A   1      39.197  30.336  31.465  1.00  0.00     0.031 C 
ATOM     34  C   UNL A   1      39.464  26.968  27.735  1.00  0.00     0.029 A 
ATOM     35  N   UNL A   1      41.136  26.993  29.218  1.00  0.00    -0.354 N 
ATOM     36  C   UNL A   1      41.215  29.881  32.444  1.00  0.00     0.074 A 
ATOM     37  C   UNL A   1      40.048  30.736  32.397  1.00  0.00     0.031 C 
ATOM     38  C   UNL A   1      40.328  26.001  27.386  1.00  0.00     0.029 A 
ATOM     39  C   UNL A   1      41.453  26.004  28.316  1.00  0.00     0.049 A 
ATOM     40  H   UNL A   1      41.706  27.223  29.988  1.00  0.00     0.167 HD
ATOM     41  C   UNL A   1      42.188  29.964  33.385  1.00  0.00     0.034 A 
ATOM     42  C   UNL A   1      42.531  25.198  28.240  1.00  0.00     0.034 A 
ATOM     43  C   UNL A   1      43.336  29.092  33.433  1.00  0.00     0.049 A 
ATOM     44  C   UNL A   1      43.612  25.323  29.285  1.00  0.00     0.074 A 
ATOM     45  C   UNL A   1      44.354  29.055  34.369  1.00  0.00     0.029 A 
ATOM     46  N   UNL A   1      43.622  28.102  32.500  1.00  0.00    -0.354 N 
ATOM     47  N   UNL A   1      43.685  26.147  30.305  1.00  0.00    -0.248 NA
ATOM     48  C   UNL A   1      44.750  24.400  29.173  1.00  0.00     0.031 C 
ATOM     49  C   UNL A   1      45.286  28.091  33.970  1.00  0.00     0.029 A 
ATOM     50  C   UNL A   1      44.813  27.470  32.825  1.00  0.00     0.049 A 
ATOM     51  H   UNL A   1      43.060  27.882  31.722  1.00  0.00     0.167 HD
ATOM     52  C   UNL A   1      44.862  25.818  30.974  1.00  0.00     0.074 A 
ATOM     53  C   UNL A   1      45.456  24.713  30.250  1.00  0.00     0.031 C 
ATOM     54  C   UNL A   1      45.400  26.375  32.088  1.00  0.00     0.034 A 
BRANCH  41  55
ATOM     55  C   UNL A   1      42.057  31.053  34.426  1.00  0.00     0.023 A 
ATOM     56  C   UNL A   1      42.622  32.328  34.239  1.00  0.00     0.031 A 
ATOM     57  C   UNL A   1      41.384  30.808  35.637  1.00  0.00     0.131 A 
ATOM     58  C   UNL A   1      42.577  33.275  35.272  1.00  0.00     0.055 A 
ATOM     59  C   UNL A   1      41.267  31.785  36.627  1.00  0.00     0.041 A 
ATOM     60  F   UNL A   1      40.841  29.606  35.884  1.00  0.00    -0.206 F 
ATOM     61  C   UNL A   1      41.880  33.023  36.455  1.00  0.00     0.022 A 
BRANCH  58  62
ATOM     62  S   UNL A   1      43.570  34.783  35.106  1.00  0.00     0.124 S 
ATOM     63  O   UNL A   1      44.245  34.834  36.402  1.00  0.00    -0.237 OA
ATOM     64  O   UNL A   1      44.414  34.482  33.957  1.00  0.00    -0.237 OA
ATOM     65  O   UNL A   1      42.573  35.830  34.891  1.00  0.00    -0.744 OA
ENDBRANCH  58  62
ENDBRANCH  41  55
BRANCH  42  66
ATOM     66  C   UNL A   1      42.655  24.203  27.135  1.00  0.00     0.023 A 
ATOM     67  C   UNL A   1      42.029  22.950  27.218  1.00  0.00     0.031 A 
ATOM     68  C   UNL A   1      43.437  24.476  25.999  1.00  0.00     0.131 A 
ATOM     69  C   UNL A   1      42.233  21.997  26.207  1.00  0.00     0.055 A 
ATOM     70  C   UNL A   1      43.594  23.544  24.970  1.00  0.00     0.041 A 
ATOM     71  F   UNL A   1      44.054  25.661  25.867  1.00  0.00    -0.206 F 
ATOM     72  C   UNL A   1      42.999  22.290  25.078  1.00  0.00     0.022 A 
BRANCH  69  73
ATOM     73  S   UNL A   1      41.549  20.332  26.432  1.00  0.00     0.124 S 
ATOM     74  O   UNL A   1      42.239  19.584  25.388  1.00  0.00    -0.237 OA
ATOM     75  O   UNL A   1      41.939  20.028  27.805  1.00  0.00    -0.237 OA
ATOM     76  O   UNL A   1      40.116  20.523  26.221  1.00  0.00    -0.744 OA
ENDBRANCH  69  73
ENDBRANCH  42  66
BRANCH  54  77
ATOM     77  C   UNL A   1      46.673  25.761  32.617  1.00  0.00     0.023 A 
ATOM     78  C   UNL A   1      47.930  26.082  32.077  1.00  0.00     0.031 A 
ATOM     79  C   UNL A   1      46.624  24.830  33.670  1.00  0.00     0.131 A 
ATOM     80  C   UNL A   1      49.082  25.437  32.554  1.00  0.00     0.055 A 
ATOM     81  C   UNL A   1      47.778  24.236  34.181  1.00  0.00     0.041 A 
ATOM     82  F   UNL A   1      45.449  24.485  34.222  1.00  0.00    -0.206 F 
ATOM     83  C   UNL A   1      49.015  24.529  33.614  1.00  0.00     0.022 A 
BRANCH  80  84
ATOM     84  S   UNL A   1      50.660  25.733  31.711  1.00  0.00     0.124 S 
ATOM     85  O   UNL A   1      50.761  27.188  31.759  1.00  0.00    -0.237 OA
ATOM     86  O   UNL A   1      51.604  25.000  32.547  1.00  0.00    -0.237 OA
ATOM     87  O   UNL A   1      50.448  25.172  30.378  1.00  0.00    -0.744 OA
ENDBRANCH  80  84
ENDBRANCH  54  77
ENDBRANCH  28  29
ENDBRANCH  20  23
ENDBRANCH  18  19
ENDBRANCH   1  18
TORSDOF 15
ENDMDL
MODEL 2
REMARK VINA RESULT:     -10.2      4.387     10.195
REMARK SMILES C[C@@H]1[C@H](C(=O)NCCCNC(=O)c2ccc(-c3c4nc(c(-c5cc(S(=O)(=O)[O-])ccc5F)c5ccc([nH]5)c(-c5cc(S(=O)(=O)[O-])ccc5F)c5nc(c(-c6cc(S(=O)(=O)[O-])ccc6F)c6ccc3[nH]6)C=C5)C=C4)cc2)CCN1C(=O)C1CC1
REMARK SMILES IDX 8 1 7 2 6 3 4 4 5 5 3 7 1 8 2 9 78 10 76 11 77 12 79 13
REMARK SMILES IDX 80 14 81 15 82 16 83 17 9 18 10 19 11 20 12 22 13 23 14 24
REMARK SMILES IDX 75 25 15 26 74 27 16 28 17 29 18 30 68 31 19 32 73 33 67 34
REMARK SMILES IDX 69 35 20 36 72 37 66 38 65 39 21 41 53 42 33 43 52 44 34 45
REMARK SMILES IDX 37 46 51 47 70 48 35 49 36 50 50 52 71 53 38 54 22 55 23 56
REMARK SMILES IDX 31 57 24 58 30 59 32 60 29 61 25 62 26 63 27 64 28 65 54 66
REMARK SMILES IDX 55 67 63 68 56 69 62 70 64 71 61 72 57 73 58 74 59 75 60 76
REMARK SMILES IDX 39 77 40 78 48 79 41 80 47 81 49 82 46 83 42 84 43 85 44 86
REMARK SMILES IDX 45 87
REMARK H PARENT 6 6 10 21 69 40 37 51
REMARK Flexibility Score: inf
ROOT
ATOM      1  C   UNL A   1      31.385  32.028  26.485  1.00  0.00     0.042 C 
ENDROOT
BRANCH   1   2
ATOM      2  C   UNL A   1      31.461  30.666  25.790  1.00  0.00     0.117 C 
BRANCH   2   3
ATOM      3  N   UNL A   1      31.442  29.530  26.708  1.00  0.00    -0.356 N 
ATOM      4  C   UNL A   1      31.462  28.180  26.552  1.00  0.00     0.225 C 
ATOM      5  O   UNL A   1      31.438  27.517  27.596  1.00  0.00    -0.275 OA
ATOM      6  H   UNL A   1      31.404  29.804  27.653  1.00  0.00     0.163 HD
BRANCH   4   7
ATOM      7  C   UNL A   1      31.493  27.445  25.216  1.00  0.00     0.102 C 
ATOM      8  C   UNL A   1      34.009  27.064  25.541  1.00  0.00     0.032 C 
ATOM      9  C   UNL A   1      32.866  27.190  24.553  1.00  0.00     0.094 C 
ATOM     10  N   UNL A   1      32.673  25.959  23.773  1.00  0.00    -0.339 N 
ATOM     11  C   UNL A   1      30.728  26.131  25.165  1.00  0.00     0.037 C 
ATOM     12  C   UNL A   1      31.372  25.359  24.033  1.00  0.00     0.120 C 
BRANCH  10  13
ATOM     13  C   UNL A   1      33.458  25.338  22.809  1.00  0.00     0.225 C 
ATOM     14  O   UNL A   1      33.658  25.896  21.729  1.00  0.00    -0.275 OA
BRANCH  13  15
ATOM     15  C   UNL A   1      34.157  24.034  22.989  1.00  0.00     0.079 C 
ATOM     16  C   UNL A   1      34.035  22.943  24.007  1.00  0.00     0.014 C 
ATOM     17  C   UNL A   1      33.411  22.760  22.651  1.00  0.00     0.014 C 
ENDBRANCH  13  15
ENDBRANCH  10  13
ENDBRANCH   4   7
ENDBRANCH   2   3
ENDBRANCH   1   2
BRANCH   1  18
ATOM     18  C   UNL A   1      32.635  32.437  27.246  1.00  0.00     0.118 C 
BRANCH  18  19
ATOM     19  N   UNL A   1      32.601  33.838  27.621  1.00  0.00    -0.352 N 
ATOM     20  C   UNL A   1      33.283  34.498  28.618  1.00  0.00     0.251 C 
ATOM     21  H   UNL A   1      32.001  34.400  27.081  1.00  0.00     0.163 HD
ATOM     22  O   UNL A   1      32.892  35.613  28.953  1.00  0.00    -0.269 OA
BRANCH  20  23
ATOM     23  C   UNL A   1      34.452  33.885  29.298  1.00  0.00     0.039 A 
ATOM     24  C   UNL A   1      34.228  32.899  30.266  1.00  0.00     0.014 A 
ATOM     25  C   UNL A   1      35.759  34.313  29.053  1.00  0.00     0.014 A 
ATOM     26  C   UNL A   1      35.307  32.323  30.948  1.00  0.00     0.010 A 
ATOM     27  C   UNL A   1      36.839  33.673  29.665  1.00  0.00     0.010 A 
ATOM     28  C   UNL A   1      36.626  32.687  30.638  1.00  0.00    -0.014 A 
BRANCH  28  29
ATOM     29  C   UNL A   1      37.788  32.088  31.353  1.00  0.00     0.031 A 
ATOM     30  C   UNL A   1      38.587  30.986  30.703  1.00  0.00     0.074 A 
ATOM     31  C   UNL A   1      38.099  32.496  32.600  1.00  0.00     0.049 A 
ATOM     32  N   UNL A   1      39.578  30.281  31.188  1.00  0.00    -0.248 NA
ATOM     33  C   UNL A   1      38.196  30.606  29.337  1.00  0.00     0.031 C 
ATOM     34  C   UNL A   1      37.388  33.532  33.352  1.00  0.00     0.029 A 
ATOM     35  N   UNL A   1      39.091  32.088  33.458  1.00  0.00    -0.354 N 
ATOM     36  C   UNL A   1      39.917  29.365  30.195  1.00  0.00     0.074 A 
ATOM     37  C   UNL A   1      38.979  29.563  29.110  1.00  0.00     0.031 C 
ATOM     38  C   UNL A   1      37.982  33.696  34.545  1.00  0.00     0.029 A 
ATOM     39  C   UNL A   1      39.085  32.748  34.666  1.00  0.00     0.049 A 
ATOM     40  H   UNL A   1      39.745  31.389  33.230  1.00  0.00     0.167 HD
ATOM     41  C   UNL A   1      40.928  28.461  30.178  1.00  0.00     0.034 A 
ATOM     42  C   UNL A   1      39.871  32.600  35.751  1.00  0.00     0.034 A 
ATOM     43  C   UNL A   1      41.869  28.288  31.257  1.00  0.00     0.049 A 
ATOM     44  C   UNL A   1      40.976  31.573  35.719  1.00  0.00     0.074 A 
ATOM     45  C   UNL A   1      42.960  27.439  31.324  1.00  0.00     0.029 A 
ATOM     46  N   UNL A   1      41.829  28.975  32.465  1.00  0.00    -0.354 N 
ATOM     47  N   UNL A   1      41.305  30.742  34.756  1.00  0.00    -0.248 NA
ATOM     48  C   UNL A   1      41.823  31.472  36.915  1.00  0.00     0.031 C 
ATOM     49  C   UNL A   1      43.540  27.565  32.591  1.00  0.00     0.029 A 
ATOM     50  C   UNL A   1      42.859  28.549  33.291  1.00  0.00     0.049 A 
ATOM     51  H   UNL A   1      41.167  29.664  32.699  1.00  0.00     0.167 HD
ATOM     52  C   UNL A   1      42.416  30.044  35.221  1.00  0.00     0.074 A 
ATOM     53  C   UNL A   1      42.709  30.561  36.542  1.00  0.00     0.031 C 
ATOM     54  C   UNL A   1      43.134  29.067  34.610  1.00  0.00     0.034 A 
BRANCH  41  55
ATOM     55  C   UNL A   1      41.050  27.577  28.956  1.00  0.00     0.023 A 
ATOM     56  C   UNL A   1      42.045  27.790  27.985  1.00  0.00     0.031 A 
ATOM     57  C   UNL A   1      40.142  26.525  28.742  1.00  0.00     0.131 A 
ATOM     58  C   UNL A   1      42.058  27.022  26.812  1.00  0.00     0.055 A 
ATOM     59  C   UNL A   1      40.214  25.707  27.613  1.00  0.00     0.041 A 
ATOM     60  F   UNL A   1      39.157  26.282  29.622  1.00  0.00    -0.206 F 
ATOM     61  C   UNL A   1      41.166  25.963  26.631  1.00  0.00     0.022 A 
BRANCH  58  62
ATOM     62  S   UNL A   1      43.159  27.524  25.462  1.00  0.00     0.124 S 
ATOM     63  O   UNL A   1      43.633  26.230  24.972  1.00  0.00    -0.237 OA
ATOM     64  O   UNL A   1      42.261  28.253  24.575  1.00  0.00    -0.237 OA
ATOM     65  O   UNL A   1      44.173  28.337  26.130  1.00  0.00    -0.744 OA
ENDBRANCH  58  62
ENDBRANCH  41  55
BRANCH  42  66
ATOM     66  C   UNL A   1      39.646  33.434  36.968  1.00  0.00     0.023 A 
ATOM     67  C   UNL A   1      38.957  32.920  38.077  1.00  0.00     0.031 A 
ATOM     68  C   UNL A   1      40.080  34.770  37.021  1.00  0.00     0.131 A 
ATOM     69  C   UNL A   1      38.679  33.752  39.175  1.00  0.00     0.055 A 
ATOM     70  C   UNL A   1      39.848  35.578  38.136  1.00  0.00     0.041 A 
ATOM     71  F   UNL A   1      40.747  35.310  35.988  1.00  0.00    -0.206 F 
ATOM     72  C   UNL A   1      39.132  35.072  39.217  1.00  0.00     0.022 A 
BRANCH  69  73
ATOM     73  S   UNL A   1      37.641  33.104  40.513  1.00  0.00     0.124 S 
ATOM     74  O   UNL A   1      37.628  34.224  41.447  1.00  0.00    -0.237 OA
ATOM     75  O   UNL A   1      36.387  32.833  39.818  1.00  0.00    -0.237 OA
ATOM     76  O   UNL A   1      38.369  31.921  40.966  1.00  0.00    -0.744 OA
ENDBRANCH  69  73
ENDBRANCH  42  66
BRANCH  54  77
ATOM     77  C   UNL A   1      44.335  28.532  35.350  1.00  0.00     0.023 A 
ATOM     78  C   UNL A   1      44.219  27.520  36.318  1.00  0.00     0.031 A 
ATOM     79  C   UNL A   1      45.615  29.055  35.090  1.00  0.00     0.131 A 
ATOM     80  C   UNL A   1      45.353  27.099  37.031  1.00  0.00     0.055 A 
ATOM     81  C   UNL A   1      46.749  28.591  35.759  1.00  0.00     0.041 A 
ATOM     82  F   UNL A   1      45.784  30.025  34.177  1.00  0.00    -0.206 F 
ATOM     83  C   UNL A   1      46.620  27.617  36.745  1.00  0.00     0.022 A 
BRANCH  80  84
ATOM     84  S   UNL A   1      45.139  25.930  38.400  1.00  0.00     0.124 S 
ATOM     85  O   UNL A   1      44.368  26.720  39.355  1.00  0.00    -0.237 OA
ATOM     86  O   UNL A   1      44.427  24.829  37.762  1.00  0.00    -0.237 OA
ATOM     87  O   UNL A   1      46.509  25.627  38.811  1.00  0.00    -0.744 OA
ENDBRANCH  80  84
ENDBRANCH  54  77
ENDBRANCH  28  29
ENDBRANCH  20  23
ENDBRANCH  18  19
ENDBRANCH   1  18
TORSDOF 15
ENDMDL
MODEL 3
REMARK VINA RESULT:     -10.0      4.052     10.116
REMARK SMILES C[C@@H]1[C@H](C(=O)NCCCNC(=O)c2ccc(-c3c4nc(c(-c5cc(S(=O)(=O)[O-])ccc5F)c5ccc([nH]5)c(-c5cc(S(=O)(=O)[O-])ccc5F)c5nc(c(-c6cc(S(=O)(=O)[O-])ccc6F)c6ccc3[nH]6)C=C5)C=C4)cc2)CCN1C(=O)C1CC1
REMARK SMILES IDX 8 1 7 2 6 3 4 4 5 5 3 7 1 8 2 9 78 10 76 11 77 12 79 13
REMARK SMILES IDX 80 14 81 15 82 16 83 17 9 18 10 19 11 20 12 22 13 23 14 24
REMARK SMILES IDX 75 25 15 26 74 27 16 28 17 29 18 30 68 31 19 32 73 33 67 34
REMARK SMILES IDX 69 35 20 36 72 37 66 38 65 39 21 41 53 42 33 43 52 44 34 45
REMARK SMILES IDX 37 46 51 47 70 48 35 49 36 50 50 52 71 53 38 54 22 55 23 56
REMARK SMILES IDX 31 57 24 58 30 59 32 60 29 61 25 62 26 63 27 64 28 65 54 66
REMARK SMILES IDX 55 67 63 68 56 69 62 70 64 71 61 72 57 73 58 74 59 75 60 76
REMARK SMILES IDX 39 77 40 78 48 79 41 80 47 81 49 82 46 83 42 84 43 85 44 86
REMARK SMILES IDX 45 87
REMARK H PARENT 6 6 10 21 69 40 37 51
REMARK Flexibility Score: inf
ROOT
ATOM      1  C   UNL A   1      32.298  27.972  25.130  1.00  0.00     0.042 C 
ENDROOT
BRANCH   1   2
ATOM      2  C   UNL A   1      32.264  27.319  26.515  1.00  0.00     0.117 C 
BRANCH   2   3
ATOM      3  N   UNL A   1      31.265  26.261  26.647  1.00  0.00    -0.356 N 
ATOM      4  C   UNL A   1      31.143  25.000  26.156  1.00  0.00     0.225 C 
ATOM      5  O   UNL A   1      30.128  24.383  26.502  1.00  0.00    -0.275 OA
ATOM      6  H   UNL A   1      30.508  26.522  27.220  1.00  0.00     0.163 HD
BRANCH   4   7
ATOM      7  C   UNL A   1      32.134  24.317  25.219  1.00  0.00     0.102 C 
ATOM      8  C   UNL A   1      33.032  22.987  27.221  1.00  0.00     0.032 C 
ATOM      9  C   UNL A   1      33.324  23.551  25.844  1.00  0.00     0.094 C 
ATOM     10  N   UNL A   1      33.632  22.496  24.870  1.00  0.00    -0.339 N 
ATOM     11  C   UNL A   1      31.528  23.404  24.165  1.00  0.00     0.037 C 
ATOM     12  C   UNL A   1      32.644  22.447  23.802  1.00  0.00     0.120 C 
BRANCH  10  13
ATOM     13  C   UNL A   1      34.708  21.623  24.756  1.00  0.00     0.225 C 
ATOM     14  O   UNL A   1      34.563  20.432  25.034  1.00  0.00    -0.275 OA
BRANCH  13  15
ATOM     15  C   UNL A   1      36.061  21.998  24.253  1.00  0.00     0.079 C 
ATOM     16  C   UNL A   1      36.528  22.960  23.207  1.00  0.00     0.014 C 
ATOM     17  C   UNL A   1      36.638  23.337  24.658  1.00  0.00     0.014 C 
ENDBRANCH  13  15
ENDBRANCH  10  13
ENDBRANCH   4   7
ENDBRANCH   2   3
ENDBRANCH   1   2
BRANCH   1  18
ATOM     18  C   UNL A   1      33.249  29.149  24.992  1.00  0.00     0.118 C 
BRANCH  18  19
ATOM     19  N   UNL A   1      32.662  30.375  25.494  1.00  0.00    -0.352 N 
ATOM     20  C   UNL A   1      32.931  31.071  26.651  1.00  0.00     0.251 C 
ATOM     21  H   UNL A   1      31.966  30.771  24.922  1.00  0.00     0.163 HD
ATOM     22  O   UNL A   1      32.124  31.916  27.027  1.00  0.00    -0.269 OA
BRANCH  20  23
ATOM     23  C   UNL A   1      34.155  30.804  27.451  1.00  0.00     0.039 A 
ATOM     24  C   UNL A   1      35.084  31.836  27.625  1.00  0.00     0.014 A 
ATOM     25  C   UNL A   1      34.437  29.538  27.972  1.00  0.00     0.014 A 
ATOM     26  C   UNL A   1      36.262  31.609  28.346  1.00  0.00     0.010 A 
ATOM     27  C   UNL A   1      35.565  29.339  28.769  1.00  0.00     0.010 A 
ATOM     28  C   UNL A   1      36.504  30.364  28.948  1.00  0.00    -0.014 A 
BRANCH  28  29
ATOM     29  C   UNL A   1      37.752  30.101  29.718  1.00  0.00     0.031 A 
ATOM     30  C   UNL A   1      38.819  29.203  29.142  1.00  0.00     0.074 A 
ATOM     31  C   UNL A   1      37.912  30.627  30.950  1.00  0.00     0.049 A 
ATOM     32  N   UNL A   1      39.936  28.786  29.683  1.00  0.00    -0.248 NA
ATOM     33  C   UNL A   1      38.581  28.682  27.788  1.00  0.00     0.031 C 
ATOM     34  C   UNL A   1      36.943  31.486  31.633  1.00  0.00     0.029 A 
ATOM     35  N   UNL A   1      38.943  30.512  31.849  1.00  0.00    -0.354 N 
ATOM     36  C   UNL A   1      40.523  27.940  28.745  1.00  0.00     0.074 A 
ATOM     37  C   UNL A   1      39.602  27.855  27.631  1.00  0.00     0.031 C 
ATOM     38  C   UNL A   1      37.438  31.842  32.830  1.00  0.00     0.029 A 
ATOM     39  C   UNL A   1      38.735  31.201  33.022  1.00  0.00     0.049 A 
ATOM     40  H   UNL A   1      39.757  29.987  31.671  1.00  0.00     0.167 HD
ATOM     41  C   UNL A   1      41.725  27.314  28.795  1.00  0.00     0.034 A 
ATOM     42  C   UNL A   1      39.496  31.298  34.131  1.00  0.00     0.034 A 
ATOM     43  C   UNL A   1      42.642  27.424  29.903  1.00  0.00     0.049 A 
ATOM     44  C   UNL A   1      40.819  30.574  34.175  1.00  0.00     0.074 A 
ATOM     45  C   UNL A   1      43.905  26.874  30.037  1.00  0.00     0.029 A 
ATOM     46  N   UNL A   1      42.394  28.131  31.074  1.00  0.00    -0.354 N 
ATOM     47  N   UNL A   1      41.374  29.810  33.262  1.00  0.00    -0.248 NA
ATOM     48  C   UNL A   1      41.623  30.737  35.393  1.00  0.00     0.031 C 
ATOM     49  C   UNL A   1      44.392  27.193  31.309  1.00  0.00     0.029 A 
ATOM     50  C   UNL A   1      43.467  28.008  31.943  1.00  0.00     0.049 A 
ATOM     51  H   UNL A   1      41.575  28.644  31.259  1.00  0.00     0.167 HD
ATOM     52  C   UNL A   1      42.606  29.428  33.786  1.00  0.00     0.074 A 
ATOM     53  C   UNL A   1      42.717  30.057  35.086  1.00  0.00     0.031 C 
ATOM     54  C   UNL A   1      43.562  28.633  33.241  1.00  0.00     0.034 A 
BRANCH  41  55
ATOM     55  C   UNL A   1      42.101  26.436  27.623  1.00  0.00     0.023 A 
ATOM     56  C   UNL A   1      41.768  25.070  27.584  1.00  0.00     0.031 A 
ATOM     57  C   UNL A   1      42.829  26.963  26.541  1.00  0.00     0.131 A 
ATOM     58  C   UNL A   1      42.230  24.264  26.534  1.00  0.00     0.055 A 
ATOM     59  C   UNL A   1      43.213  26.173  25.455  1.00  0.00     0.041 A 
ATOM     60  F   UNL A   1      43.196  28.254  26.528  1.00  0.00    -0.206 F 
ATOM     61  C   UNL A   1      42.928  24.811  25.455  1.00  0.00     0.022 A 
BRANCH  58  62
ATOM     62  S   UNL A   1      42.038  22.466  26.674  1.00  0.00     0.124 S 
ATOM     63  O   UNL A   1      42.883  22.169  27.830  1.00  0.00    -0.237 OA
ATOM     64  O   UNL A   1      40.603  22.316  26.876  1.00  0.00    -0.237 OA
ATOM     65  O   UNL A   1      42.545  21.966  25.398  1.00  0.00    -0.744 OA
ENDBRANCH  58  62
ENDBRANCH  41  55
BRANCH  42  66
ATOM     66  C   UNL A   1      39.032  32.101  35.299  1.00  0.00     0.023 A 
ATOM     67  C   UNL A   1      38.458  31.481  36.420  1.00  0.00     0.031 A 
ATOM     68  C   UNL A   1      39.116  33.505  35.293  1.00  0.00     0.131 A 
ATOM     69  C   UNL A   1      37.947  32.264  37.468  1.00  0.00     0.055 A 
ATOM     70  C   UNL A   1      38.655  34.277  36.362  1.00  0.00     0.041 A 
ATOM     71  F   UNL A   1      39.660  34.149  34.248  1.00  0.00    -0.206 F 
ATOM     72  C   UNL A   1      38.054  33.656  37.453  1.00  0.00     0.022 A 
BRANCH  69  73
ATOM     73  S   UNL A   1      37.061  31.436  38.817  1.00  0.00     0.124 S 
ATOM     74  O   UNL A   1      35.847  32.239  38.911  1.00  0.00    -0.237 OA
ATOM     75  O   UNL A   1      36.899  30.086  38.288  1.00  0.00    -0.237 OA
ATOM     76  O   UNL A   1      37.978  31.555  39.948  1.00  0.00    -0.744 OA
ENDBRANCH  69  73
ENDBRANCH  42  66
BRANCH  54  77
ATOM     77  C   UNL A   1      44.831  28.443  34.034  1.00  0.00     0.023 A 
ATOM     78  C   UNL A   1      44.962  27.422  34.991  1.00  0.00     0.031 A 
ATOM     79  C   UNL A   1      45.924  29.307  33.836  1.00  0.00     0.131 A 
ATOM     80  C   UNL A   1      46.136  27.323  35.754  1.00  0.00     0.055 A 
ATOM     81  C   UNL A   1      47.112  29.168  34.555  1.00  0.00     0.041 A 
ATOM     82  F   UNL A   1      45.853  30.301  32.936  1.00  0.00    -0.206 F 
ATOM     83  C   UNL A   1      47.218  28.179  35.529  1.00  0.00     0.022 A 
BRANCH  80  84
ATOM     84  S   UNL A   1      46.199  26.117  37.106  1.00  0.00     0.124 S 
ATOM     85  O   UNL A   1      46.906  25.002  36.485  1.00  0.00    -0.237 OA
ATOM     86  O   UNL A   1      46.932  26.842  38.138  1.00  0.00    -0.237 OA
ATOM     87  O   UNL A   1      44.791  25.866  37.408  1.00  0.00    -0.744 OA
ENDBRANCH  80  84
ENDBRANCH  54  77
ENDBRANCH  28  29
ENDBRANCH  20  23
ENDBRANCH  18  19
ENDBRANCH   1  18
TORSDOF 15
ENDMDL
