MODEL 1
REMARK VINA RESULT:     -12.5      0.000      0.000
REMARK SMILES CC(C)Cc1cc2c(cc1Cl)C=C(C(=O)NCCCNC(=O)c1ccc(-c3c4nc(c(-c5cc(S(=O)(=O)[O-])ccc5F)c5ccc([nH]5)c(-c5cc(S(=O)(=O)[O-])ccc5F)c5nc(c(-c6cc(S(=O)(=O)[O-])ccc6F)c6ccc3[nH]6)C=C5)C=C4)cc1)[C@@H](C(F)(F)F)O2
REMARK SMILES IDX 18 1 17 2 16 3 14 4 15 5 13 7 5 8 6 9 10 10 7 11 9 12 11 13
REMARK SMILES IDX 8 14 91 15 12 16 86 17 4 18 2 19 1 20 3 21 87 22 88 23 89 24
REMARK SMILES IDX 90 25 19 26 20 27 21 28 22 30 23 31 24 32 85 33 25 34 84 35
REMARK SMILES IDX 26 36 27 37 28 38 78 39 29 40 83 41 77 42 79 43 30 44 82 45
REMARK SMILES IDX 76 46 75 47 31 49 63 50 43 51 62 52 44 53 47 54 61 55 80 56
REMARK SMILES IDX 45 57 46 58 60 60 81 61 48 62 32 63 33 64 41 65 34 66 40 67
REMARK SMILES IDX 42 68 39 69 35 70 36 71 37 72 38 73 64 74 65 75 73 76 66 77
REMARK SMILES IDX 72 78 74 79 71 80 67 81 68 82 69 83 70 84 49 85 50 86 58 87
REMARK SMILES IDX 51 88 57 89 59 90 56 91 52 92 53 93 54 94 55 95
REMARK H PARENT 16 6 20 29 79 48 47 59
REMARK Flexibility Score: inf
ROOT
ATOM      1  C   UNL A   1      32.822  29.162  24.637  1.00  0.00     0.042 C 
ENDROOT
BRANCH   1   2
ATOM      2  C   UNL A   1      31.585  29.017  23.767  1.00  0.00     0.118 C 
BRANCH   2   3
ATOM      3  N   UNL A   1      30.680  27.995  24.272  1.00  0.00    -0.352 N 
ATOM      4  C   UNL A   1      30.693  26.654  24.443  1.00  0.00     0.251 C 
ATOM      5  O   UNL A   1      29.668  26.177  24.943  1.00  0.00    -0.270 OA
ATOM      6  H   UNL A   1      29.827  28.386  24.570  1.00  0.00     0.163 HD
BRANCH   4   7
ATOM      7  C   UNL A   1      31.823  25.752  24.081  1.00  0.00     0.067 C 
ATOM      8  C   UNL A   1      36.004  22.926  24.222  1.00  0.00    -0.025 A 
ATOM      9  C   UNL A   1      34.854  22.948  23.419  1.00  0.00     0.052 A 
ATOM     10  C   UNL A   1      36.124  23.880  25.246  1.00  0.00     0.045 A 
ATOM     11  C   UNL A   1      33.841  23.871  23.656  1.00  0.00     0.128 A 
ATOM     12  C   UNL A   1      35.095  24.797  25.490  1.00  0.00     0.032 A 
ATOM     13  Cl  UNL A   1      37.523  23.962  26.257  1.00  0.00    -0.084 Cl
ATOM     14  C   UNL A   1      33.943  24.785  24.703  1.00  0.00     0.019 A 
ATOM     15  O   UNL A   1      32.740  23.788  22.854  1.00  0.00    -0.475 OA
ATOM     16  C   UNL A   1      32.813  25.661  24.987  1.00  0.00     0.025 C 
ATOM     17  C   UNL A   1      31.913  24.982  22.793  1.00  0.00     0.314 C 
BRANCH   8  18
ATOM     18  C   UNL A   1      37.013  21.825  23.989  1.00  0.00     0.040 C 
BRANCH  18  19
ATOM     19  C   UNL A   1      36.933  20.692  25.034  1.00  0.00    -0.013 C 
ATOM     20  C   UNL A   1      35.576  19.980  25.033  1.00  0.00     0.008 C 
ATOM     21  C   UNL A   1      38.044  19.674  24.778  1.00  0.00     0.008 C 
ENDBRANCH  18  19
ENDBRANCH   8  18
BRANCH  17  22
ATOM     22  C   UNL A   1      32.379  25.865  21.618  1.00  0.00     0.429 C 
ATOM     23  F   UNL A   1      31.356  26.627  21.158  1.00  0.00    -0.167 F 
ATOM     24  F   UNL A   1      33.369  26.719  21.968  1.00  0.00    -0.167 F 
ATOM     25  F   UNL A   1      32.846  25.142  20.573  1.00  0.00    -0.167 F 
ENDBRANCH  17  22
ENDBRANCH   4   7
ENDBRANCH   2   3
ENDBRANCH   1   2
BRANCH   1  26
ATOM     26  C   UNL A   1      32.477  29.442  26.093  1.00  0.00     0.118 C 
BRANCH  26  27
ATOM     27  N   UNL A   1      32.201  30.858  26.329  1.00  0.00    -0.352 N 
ATOM     28  C   UNL A   1      32.855  31.776  27.115  1.00  0.00     0.251 C 
ATOM     29  H   UNL A   1      31.419  31.212  25.845  1.00  0.00     0.163 HD
ATOM     30  O   UNL A   1      32.310  32.848  27.368  1.00  0.00    -0.269 OA
BRANCH  28  31
ATOM     31  C   UNL A   1      34.189  31.465  27.666  1.00  0.00     0.039 A 
ATOM     32  C   UNL A   1      34.516  30.155  28.012  1.00  0.00     0.014 A 
ATOM     33  C   UNL A   1      35.130  32.485  27.836  1.00  0.00     0.014 A 
ATOM     34  C   UNL A   1      35.681  29.900  28.718  1.00  0.00     0.010 A 
ATOM     35  C   UNL A   1      36.362  32.201  28.434  1.00  0.00     0.010 A 
ATOM     36  C   UNL A   1      36.628  30.916  28.929  1.00  0.00    -0.014 A 
BRANCH  36  37
ATOM     37  C   UNL A   1      37.889  30.578  29.641  1.00  0.00     0.031 A 
ATOM     38  C   UNL A   1      38.125  31.018  31.060  1.00  0.00     0.074 A 
ATOM     39  C   UNL A   1      38.790  29.793  29.015  1.00  0.00     0.049 A 
ATOM     40  N   UNL A   1      39.129  30.734  31.848  1.00  0.00    -0.248 NA
ATOM     41  C   UNL A   1      37.114  31.892  31.675  1.00  0.00     0.031 C 
ATOM     42  C   UNL A   1      38.660  29.315  27.636  1.00  0.00     0.029 A 
ATOM     43  N   UNL A   1      39.956  29.221  29.454  1.00  0.00    -0.354 N 
ATOM     44  C   UNL A   1      38.887  31.410  33.039  1.00  0.00     0.074 A 
ATOM     45  C   UNL A   1      37.654  32.144  32.861  1.00  0.00     0.031 C 
ATOM     46  C   UNL A   1      39.649  28.453  27.375  1.00  0.00     0.029 A 
ATOM     47  C   UNL A   1      40.540  28.384  28.528  1.00  0.00     0.049 A 
ATOM     48  H   UNL A   1      40.340  29.392  30.344  1.00  0.00     0.167 HD
ATOM     49  C   UNL A   1      39.622  31.405  34.176  1.00  0.00     0.034 A 
ATOM     50  C   UNL A   1      41.667  27.646  28.592  1.00  0.00     0.034 A 
ATOM     51  C   UNL A   1      40.832  30.639  34.344  1.00  0.00     0.049 A 
ATOM     52  C   UNL A   1      42.467  27.669  29.866  1.00  0.00     0.074 A 
ATOM     53  C   UNL A   1      41.626  30.536  35.472  1.00  0.00     0.029 A 
ATOM     54  N   UNL A   1      41.421  29.846  33.369  1.00  0.00    -0.354 N 
ATOM     55  N   UNL A   1      42.198  28.278  30.997  1.00  0.00    -0.248 NA
ATOM     56  C   UNL A   1      43.726  26.912  29.877  1.00  0.00     0.031 C 
ATOM     57  C   UNL A   1      42.726  29.737  35.160  1.00  0.00     0.029 A 
ATOM     58  C   UNL A   1      42.584  29.277  33.861  1.00  0.00     0.049 A 
ATOM     59  H   UNL A   1      41.065  29.708  32.461  1.00  0.00     0.167 HD
ATOM     60  C   UNL A   1      43.248  27.973  31.856  1.00  0.00     0.074 A 
ATOM     61  C   UNL A   1      44.138  27.093  31.125  1.00  0.00     0.031 C 
ATOM     62  C   UNL A   1      43.462  28.395  33.128  1.00  0.00     0.034 A 
BRANCH  49  63
ATOM     63  C   UNL A   1      39.158  32.236  35.348  1.00  0.00     0.023 A 
ATOM     64  C   UNL A   1      39.640  33.549  35.509  1.00  0.00     0.031 A 
ATOM     65  C   UNL A   1      38.362  31.690  36.371  1.00  0.00     0.131 A 
ATOM     66  C   UNL A   1      39.355  34.258  36.683  1.00  0.00     0.055 A 
ATOM     67  C   UNL A   1      38.046  32.417  37.521  1.00  0.00     0.041 A 
ATOM     68  F   UNL A   1      37.877  30.443  36.266  1.00  0.00    -0.206 F 
ATOM     69  C   UNL A   1      38.556  33.702  37.686  1.00  0.00     0.022 A 
BRANCH  66  70
ATOM     70  S   UNL A   1      40.066  35.900  36.985  1.00  0.00     0.124 S 
ATOM     71  O   UNL A   1      39.405  36.287  38.229  1.00  0.00    -0.237 OA
ATOM     72  O   UNL A   1      41.489  35.598  37.102  1.00  0.00    -0.237 OA
ATOM     73  O   UNL A   1      39.678  36.672  35.810  1.00  0.00    -0.744 OA
ENDBRANCH  66  70
ENDBRANCH  49  63
BRANCH  50  74
ATOM     74  C   UNL A   1      42.054  26.803  27.423  1.00  0.00     0.023 A 
ATOM     75  C   UNL A   1      41.863  25.409  27.441  1.00  0.00     0.031 A 
ATOM     76  C   UNL A   1      42.732  27.360  26.325  1.00  0.00     0.131 A 
ATOM     77  C   UNL A   1      42.422  24.613  26.433  1.00  0.00     0.055 A 
ATOM     78  C   UNL A   1      43.213  26.570  25.279  1.00  0.00     0.041 A 
ATOM     79  F   UNL A   1      42.948  28.683  26.265  1.00  0.00    -0.206 F 
ATOM     80  C   UNL A   1      43.079  25.187  25.342  1.00  0.00     0.022 A 
BRANCH  77  81
ATOM     81  S   UNL A   1      42.453  22.805  26.591  1.00  0.00     0.124 S 
ATOM     82  O   UNL A   1      43.819  22.564  27.047  1.00  0.00    -0.237 OA
ATOM     83  O   UNL A   1      41.406  22.574  27.583  1.00  0.00    -0.237 OA
ATOM     84  O   UNL A   1      42.143  22.337  25.245  1.00  0.00    -0.744 OA
ENDBRANCH  77  81
ENDBRANCH  50  74
BRANCH  62  85
ATOM     85  C   UNL A   1      44.710  27.930  33.836  1.00  0.00     0.023 A 
ATOM     86  C   UNL A   1      44.683  26.757  34.615  1.00  0.00     0.031 A 
ATOM     87  C   UNL A   1      45.873  28.720  33.862  1.00  0.00     0.131 A 
ATOM     88  C   UNL A   1      45.781  26.431  35.420  1.00  0.00     0.055 A 
ATOM     89  C   UNL A   1      46.983  28.364  34.627  1.00  0.00     0.041 A 
ATOM     90  F   UNL A   1      45.942  29.853  33.145  1.00  0.00    -0.206 F 
ATOM     91  C   UNL A   1      46.935  27.222  35.423  1.00  0.00     0.022 A 
BRANCH  88  92
ATOM     92  S   UNL A   1      45.718  25.024  36.563  1.00  0.00     0.124 S 
ATOM     93  O   UNL A   1      44.282  24.893  36.801  1.00  0.00    -0.237 OA
ATOM     94  O   UNL A   1      46.319  23.955  35.770  1.00  0.00    -0.237 OA
ATOM     95  O   UNL A   1      46.500  25.468  37.712  1.00  0.00    -0.744 OA
ENDBRANCH  88  92
ENDBRANCH  62  85
ENDBRANCH  36  37
ENDBRANCH  28  31
ENDBRANCH  26  27
ENDBRANCH   1  26
TORSDOF 16
ENDMDL
MODEL 2
REMARK VINA RESULT:     -12.3      2.216      2.860
REMARK SMILES CC(C)Cc1cc2c(cc1Cl)C=C(C(=O)NCCCNC(=O)c1ccc(-c3c4nc(c(-c5cc(S(=O)(=O)[O-])ccc5F)c5ccc([nH]5)c(-c5cc(S(=O)(=O)[O-])ccc5F)c5nc(c(-c6cc(S(=O)(=O)[O-])ccc6F)c6ccc3[nH]6)C=C5)C=C4)cc1)[C@@H](C(F)(F)F)O2
REMARK SMILES IDX 18 1 17 2 16 3 14 4 15 5 13 7 5 8 6 9 10 10 7 11 9 12 11 13
REMARK SMILES IDX 8 14 91 15 12 16 86 17 4 18 2 19 1 20 3 21 87 22 88 23 89 24
REMARK SMILES IDX 90 25 19 26 20 27 21 28 22 30 23 31 24 32 85 33 25 34 84 35
REMARK SMILES IDX 26 36 27 37 28 38 78 39 29 40 83 41 77 42 79 43 30 44 82 45
REMARK SMILES IDX 76 46 75 47 31 49 63 50 43 51 62 52 44 53 47 54 61 55 80 56
REMARK SMILES IDX 45 57 46 58 60 60 81 61 48 62 32 63 33 64 41 65 34 66 40 67
REMARK SMILES IDX 42 68 39 69 35 70 36 71 37 72 38 73 64 74 65 75 73 76 66 77
REMARK SMILES IDX 72 78 74 79 71 80 67 81 68 82 69 83 70 84 49 85 50 86 58 87
REMARK SMILES IDX 51 88 57 89 59 90 56 91 52 92 53 93 54 94 55 95
REMARK H PARENT 16 6 20 29 79 48 47 59
REMARK Flexibility Score: inf
ROOT
ATOM      1  C   UNL A   1      31.393  31.659  26.553  1.00  0.00     0.042 C 
ENDROOT
BRANCH   1   2
ATOM      2  C   UNL A   1      31.660  30.467  25.648  1.00  0.00     0.118 C 
BRANCH   2   3
ATOM      3  N   UNL A   1      30.699  30.384  24.558  1.00  0.00    -0.352 N 
ATOM      4  C   UNL A   1      30.317  29.470  23.638  1.00  0.00     0.251 C 
ATOM      5  O   UNL A   1      29.410  29.833  22.881  1.00  0.00    -0.270 OA
ATOM      6  H   UNL A   1      30.188  31.221  24.466  1.00  0.00     0.163 HD
BRANCH   4   7
ATOM      7  C   UNL A   1      30.898  28.106  23.490  1.00  0.00     0.067 C 
ATOM      8  C   UNL A   1      31.749  23.140  23.814  1.00  0.00    -0.025 A 
ATOM      9  C   UNL A   1      32.111  24.147  22.905  1.00  0.00     0.052 A 
ATOM     10  C   UNL A   1      30.983  23.495  24.936  1.00  0.00     0.045 A 
ATOM     11  C   UNL A   1      31.688  25.458  23.096  1.00  0.00     0.128 A 
ATOM     12  C   UNL A   1      30.548  24.814  25.115  1.00  0.00     0.032 A 
ATOM     13  Cl  UNL A   1      30.529  22.335  26.134  1.00  0.00    -0.084 Cl
ATOM     14  C   UNL A   1      30.889  25.797  24.185  1.00  0.00     0.019 A 
ATOM     15  O   UNL A   1      32.049  26.360  22.137  1.00  0.00    -0.475 OA
ATOM     16  C   UNL A   1      30.376  27.157  24.289  1.00  0.00     0.025 C 
ATOM     17  C   UNL A   1      32.008  27.757  22.538  1.00  0.00     0.314 C 
BRANCH   8  18
ATOM     18  C   UNL A   1      32.139  21.716  23.489  1.00  0.00     0.040 C 
BRANCH  18  19
ATOM     19  C   UNL A   1      33.148  21.117  24.492  1.00  0.00    -0.013 C 
ATOM     20  C   UNL A   1      33.280  19.595  24.361  1.00  0.00     0.008 C 
ATOM     21  C   UNL A   1      34.519  21.767  24.297  1.00  0.00     0.008 C 
ENDBRANCH  18  19
ENDBRANCH   8  18
BRANCH  17  22
ATOM     22  C   UNL A   1      33.391  28.172  23.078  1.00  0.00     0.429 C 
ATOM     23  F   UNL A   1      33.558  29.515  22.981  1.00  0.00    -0.167 F 
ATOM     24  F   UNL A   1      33.556  27.857  24.385  1.00  0.00    -0.167 F 
ATOM     25  F   UNL A   1      34.411  27.589  22.408  1.00  0.00    -0.167 F 
ENDBRANCH  17  22
ENDBRANCH   4   7
ENDBRANCH   2   3
ENDBRANCH   1   2
BRANCH   1  26
ATOM     26  C   UNL A   1      32.664  32.186  27.205  1.00  0.00     0.118 C 
BRANCH  26  27
ATOM     27  N   UNL A   1      32.567  33.609  27.526  1.00  0.00    -0.352 N 
ATOM     28  C   UNL A   1      33.220  34.357  28.475  1.00  0.00     0.251 C 
ATOM     29  H   UNL A   1      31.929  34.114  26.970  1.00  0.00     0.163 HD
ATOM     30  O   UNL A   1      32.807  35.482  28.744  1.00  0.00    -0.269 OA
BRANCH  28  31
ATOM     31  C   UNL A   1      34.394  33.801  29.179  1.00  0.00     0.039 A 
ATOM     32  C   UNL A   1      35.676  34.241  28.857  1.00  0.00     0.014 A 
ATOM     33  C   UNL A   1      34.218  32.835  30.174  1.00  0.00     0.014 A 
ATOM     34  C   UNL A   1      36.780  33.574  29.365  1.00  0.00     0.010 A 
ATOM     35  C   UNL A   1      35.335  32.251  30.781  1.00  0.00     0.010 A 
ATOM     36  C   UNL A   1      36.628  32.578  30.344  1.00  0.00    -0.014 A 
BRANCH  36  37
ATOM     37  C   UNL A   1      37.847  31.932  30.899  1.00  0.00     0.031 A 
ATOM     38  C   UNL A   1      38.284  32.182  32.316  1.00  0.00     0.074 A 
ATOM     39  C   UNL A   1      38.513  31.048  30.128  1.00  0.00     0.049 A 
ATOM     40  N   UNL A   1      39.270  31.632  32.977  1.00  0.00    -0.248 NA
ATOM     41  C   UNL A   1      37.528  33.176  33.093  1.00  0.00     0.031 C 
ATOM     42  C   UNL A   1      38.174  30.736  28.738  1.00  0.00     0.029 A 
ATOM     43  N   UNL A   1      39.569  30.218  30.404  1.00  0.00    -0.354 N 
ATOM     44  C   UNL A   1      39.271  32.228  34.233  1.00  0.00     0.074 A 
ATOM     45  C   UNL A   1      38.205  33.204  34.235  1.00  0.00     0.031 C 
ATOM     46  C   UNL A   1      38.941  29.725  28.315  1.00  0.00     0.029 A 
ATOM     47  C   UNL A   1      39.891  29.373  29.365  1.00  0.00     0.049 A 
ATOM     48  H   UNL A   1      40.052  30.226  31.262  1.00  0.00     0.167 HD
ATOM     49  C   UNL A   1      40.080  31.971  35.288  1.00  0.00     0.034 A 
ATOM     50  C   UNL A   1      40.844  28.425  29.260  1.00  0.00     0.034 A 
ATOM     51  C   UNL A   1      41.118  30.970  35.275  1.00  0.00     0.049 A 
ATOM     52  C   UNL A   1      41.734  28.169  30.446  1.00  0.00     0.074 A 
ATOM     53  C   UNL A   1      41.964  30.606  36.308  1.00  0.00     0.029 A 
ATOM     54  N   UNL A   1      41.449  30.172  34.189  1.00  0.00    -0.354 N 
ATOM     55  N   UNL A   1      41.690  28.711  31.640  1.00  0.00    -0.248 NA
ATOM     56  C   UNL A   1      42.808  27.182  30.274  1.00  0.00     0.031 C 
ATOM     57  C   UNL A   1      42.848  29.639  35.829  1.00  0.00     0.029 A 
ATOM     58  C   UNL A   1      42.507  29.340  34.519  1.00  0.00     0.049 A 
ATOM     59  H   UNL A   1      40.999  30.192  33.314  1.00  0.00     0.167 HD
ATOM     60  C   UNL A   1      42.723  28.126  32.365  1.00  0.00     0.074 A 
ATOM     61  C   UNL A   1      43.350  27.160  31.485  1.00  0.00     0.031 C 
ATOM     62  C   UNL A   1      43.122  28.375  33.637  1.00  0.00     0.034 A 
BRANCH  49  63
ATOM     63  C   UNL A   1      39.895  32.764  36.559  1.00  0.00     0.023 A 
ATOM     64  C   UNL A   1      38.966  32.331  37.524  1.00  0.00     0.031 A 
ATOM     65  C   UNL A   1      40.523  34.007  36.752  1.00  0.00     0.131 A 
ATOM     66  C   UNL A   1      38.661  33.152  38.618  1.00  0.00     0.055 A 
ATOM     67  C   UNL A   1      40.247  34.803  37.866  1.00  0.00     0.041 A 
ATOM     68  F   UNL A   1      41.417  34.465  35.862  1.00  0.00    -0.206 F 
ATOM     69  C   UNL A   1      39.302  34.382  38.797  1.00  0.00     0.022 A 
BRANCH  66  70
ATOM     70  S   UNL A   1      37.375  32.690  39.811  1.00  0.00     0.124 S 
ATOM     71  O   UNL A   1      37.416  33.814  40.744  1.00  0.00    -0.237 OA
ATOM     72  O   UNL A   1      36.187  32.623  38.966  1.00  0.00    -0.237 OA
ATOM     73  O   UNL A   1      37.839  31.417  40.352  1.00  0.00    -0.744 OA
ENDBRANCH  66  70
ENDBRANCH  49  63
BRANCH  50  74
ATOM     74  C   UNL A   1      40.952  27.636  27.998  1.00  0.00     0.023 A 
ATOM     75  C   UNL A   1      40.545  26.290  27.949  1.00  0.00     0.031 A 
ATOM     76  C   UNL A   1      41.577  28.176  26.861  1.00  0.00     0.131 A 
ATOM     77  C   UNL A   1      40.848  25.508  26.827  1.00  0.00     0.055 A 
ATOM     78  C   UNL A   1      41.801  27.415  25.712  1.00  0.00     0.041 A 
ATOM     79  F   UNL A   1      41.994  29.452  26.860  1.00  0.00    -0.206 F 
ATOM     80  C   UNL A   1      41.456  26.068  25.700  1.00  0.00     0.022 A 
BRANCH  77  81
ATOM     81  S   UNL A   1      40.608  23.709  26.860  1.00  0.00     0.124 S 
ATOM     82  O   UNL A   1      41.611  23.252  25.903  1.00  0.00    -0.237 OA
ATOM     83  O   UNL A   1      40.883  23.397  28.262  1.00  0.00    -0.237 OA
ATOM     84  O   UNL A   1      39.219  23.539  26.450  1.00  0.00    -0.744 OA
ENDBRANCH  77  81
ENDBRANCH  50  74
BRANCH  62  85
ATOM     85  C   UNL A   1      44.303  27.609  34.181  1.00  0.00     0.023 A 
ATOM     86  C   UNL A   1      44.097  26.432  34.926  1.00  0.00     0.031 A 
ATOM     87  C   UNL A   1      45.610  28.120  34.090  1.00  0.00     0.131 A 
ATOM     88  C   UNL A   1      45.174  25.829  35.586  1.00  0.00     0.055 A 
ATOM     89  C   UNL A   1      46.688  27.487  34.709  1.00  0.00     0.041 A 
ATOM     90  F   UNL A   1      45.855  29.245  33.401  1.00  0.00    -0.206 F 
ATOM     91  C   UNL A   1      46.470  26.344  35.474  1.00  0.00     0.022 A 
BRANCH  88  92
ATOM     92  S   UNL A   1      44.920  24.412  36.690  1.00  0.00     0.124 S 
ATOM     93  O   UNL A   1      46.267  24.191  37.211  1.00  0.00    -0.237 OA
ATOM     94  O   UNL A   1      43.958  24.941  37.653  1.00  0.00    -0.237 OA
ATOM     95  O   UNL A   1      44.415  23.365  35.809  1.00  0.00    -0.744 OA
ENDBRANCH  88  92
ENDBRANCH  62  85
ENDBRANCH  36  37
ENDBRANCH  28  31
ENDBRANCH  26  27
ENDBRANCH   1  26
TORSDOF 16
ENDMDL
MODEL 3
REMARK VINA RESULT:     -12.2      2.308      3.084
REMARK SMILES CC(C)Cc1cc2c(cc1Cl)C=C(C(=O)NCCCNC(=O)c1ccc(-c3c4nc(c(-c5cc(S(=O)(=O)[O-])ccc5F)c5ccc([nH]5)c(-c5cc(S(=O)(=O)[O-])ccc5F)c5nc(c(-c6cc(S(=O)(=O)[O-])ccc6F)c6ccc3[nH]6)C=C5)C=C4)cc1)[C@@H](C(F)(F)F)O2
REMARK SMILES IDX 18 1 17 2 16 3 14 4 15 5 13 7 5 8 6 9 10 10 7 11 9 12 11 13
REMARK SMILES IDX 8 14 91 15 12 16 86 17 4 18 2 19 1 20 3 21 87 22 88 23 89 24
REMARK SMILES IDX 90 25 19 26 20 27 21 28 22 30 23 31 24 32 85 33 25 34 84 35
REMARK SMILES IDX 26 36 27 37 28 38 78 39 29 40 83 41 77 42 79 43 30 44 82 45
REMARK SMILES IDX 76 46 75 47 31 49 63 50 43 51 62 52 44 53 47 54 61 55 80 56
REMARK SMILES IDX 45 57 46 58 60 60 81 61 48 62 32 63 33 64 41 65 34 66 40 67
REMARK SMILES IDX 42 68 39 69 35 70 36 71 37 72 38 73 64 74 65 75 73 76 66 77
REMARK SMILES IDX 72 78 74 79 71 80 67 81 68 82 69 83 70 84 49 85 50 86 58 87
REMARK SMILES IDX 51 88 57 89 59 90 56 91 52 92 53 93 54 94 55 95
REMARK H PARENT 16 6 20 29 79 48 47 59
REMARK Flexibility Score: inf
ROOT
ATOM      1  C   UNL A   1      31.387  31.900  26.613  1.00  0.00     0.042 C 
ENDROOT
BRANCH   1   2
ATOM      2  C   UNL A   1      31.548  30.614  25.819  1.00  0.00     0.118 C 
BRANCH   2   3
ATOM      3  N   UNL A   1      30.643  30.559  24.681  1.00  0.00    -0.352 N 
ATOM      4  C   UNL A   1      30.300  29.665  23.727  1.00  0.00     0.251 C 
ATOM      5  O   UNL A   1      29.436  30.050  22.931  1.00  0.00    -0.270 OA
ATOM      6  H   UNL A   1      30.145  31.403  24.577  1.00  0.00     0.163 HD
BRANCH   4   7
ATOM      7  C   UNL A   1      30.875  28.297  23.584  1.00  0.00     0.067 C 
ATOM      8  C   UNL A   1      31.693  23.326  23.912  1.00  0.00    -0.025 A 
ATOM      9  C   UNL A   1      32.074  24.333  23.010  1.00  0.00     0.052 A 
ATOM     10  C   UNL A   1      30.914  23.684  25.024  1.00  0.00     0.045 A 
ATOM     11  C   UNL A   1      31.656  25.646  23.197  1.00  0.00     0.128 A 
ATOM     12  C   UNL A   1      30.484  25.004  25.199  1.00  0.00     0.032 A 
ATOM     13  Cl  UNL A   1      30.437  22.524  26.213  1.00  0.00    -0.084 Cl
ATOM     14  C   UNL A   1      30.843  25.987  24.276  1.00  0.00     0.019 A 
ATOM     15  O   UNL A   1      32.035  26.547  22.245  1.00  0.00    -0.475 OA
ATOM     16  C   UNL A   1      30.337  27.350  24.375  1.00  0.00     0.025 C 
ATOM     17  C   UNL A   1      31.996  27.943  22.648  1.00  0.00     0.314 C 
BRANCH   8  18
ATOM     18  C   UNL A   1      32.080  21.901  23.590  1.00  0.00     0.040 C 
BRANCH  18  19
ATOM     19  C   UNL A   1      33.161  21.334  24.535  1.00  0.00    -0.013 C 
ATOM     20  C   UNL A   1      33.305  19.812  24.426  1.00  0.00     0.008 C 
ATOM     21  C   UNL A   1      34.507  21.997  24.238  1.00  0.00     0.008 C 
ENDBRANCH  18  19
ENDBRANCH   8  18
BRANCH  17  22
ATOM     22  C   UNL A   1      33.374  28.350  23.208  1.00  0.00     0.429 C 
ATOM     23  F   UNL A   1      34.348  27.550  22.709  1.00  0.00    -0.167 F 
ATOM     24  F   UNL A   1      33.714  29.620  22.882  1.00  0.00    -0.167 F 
ATOM     25  F   UNL A   1      33.436  28.269  24.557  1.00  0.00    -0.167 F 
ENDBRANCH  17  22
ENDBRANCH   4   7
ENDBRANCH   2   3
ENDBRANCH   1   2
BRANCH   1  26
ATOM     26  C   UNL A   1      32.724  32.482  27.050  1.00  0.00     0.118 C 
BRANCH  26  27
ATOM     27  N   UNL A   1      32.577  33.806  27.651  1.00  0.00    -0.352 N 
ATOM     28  C   UNL A   1      33.236  34.384  28.709  1.00  0.00     0.251 C 
ATOM     29  H   UNL A   1      31.894  34.377  27.229  1.00  0.00     0.163 HD
ATOM     30  O   UNL A   1      32.784  35.411  29.211  1.00  0.00    -0.269 OA
BRANCH  28  31
ATOM     31  C   UNL A   1      34.462  33.763  29.249  1.00  0.00     0.039 A 
ATOM     32  C   UNL A   1      34.372  32.694  30.139  1.00  0.00     0.014 A 
ATOM     33  C   UNL A   1      35.716  34.244  28.863  1.00  0.00     0.014 A 
ATOM     34  C   UNL A   1      35.507  32.254  30.801  1.00  0.00     0.010 A 
ATOM     35  C   UNL A   1      36.873  33.708  29.438  1.00  0.00     0.010 A 
ATOM     36  C   UNL A   1      36.777  32.744  30.452  1.00  0.00    -0.014 A 
BRANCH  36  37
ATOM     37  C   UNL A   1      37.969  32.196  31.152  1.00  0.00     0.031 A 
ATOM     38  C   UNL A   1      38.319  32.627  32.550  1.00  0.00     0.074 A 
ATOM     39  C   UNL A   1      38.690  31.237  30.536  1.00  0.00     0.049 A 
ATOM     40  N   UNL A   1      39.271  32.183  33.328  1.00  0.00    -0.248 NA
ATOM     41  C   UNL A   1      37.505  33.694  33.153  1.00  0.00     0.031 C 
ATOM     42  C   UNL A   1      38.439  30.751  29.178  1.00  0.00     0.029 A 
ATOM     43  N   UNL A   1      39.739  30.469  30.973  1.00  0.00    -0.354 N 
ATOM     44  C   UNL A   1      39.190  32.928  34.499  1.00  0.00     0.074 A 
ATOM     45  C   UNL A   1      38.113  33.875  34.319  1.00  0.00     0.031 C 
ATOM     46  C   UNL A   1      39.241  29.710  28.928  1.00  0.00     0.029 A 
ATOM     47  C   UNL A   1      40.132  29.509  30.066  1.00  0.00     0.049 A 
ATOM     48  H   UNL A   1      40.171  30.591  31.849  1.00  0.00     0.167 HD
ATOM     49  C   UNL A   1      39.939  32.819  35.622  1.00  0.00     0.034 A 
ATOM     50  C   UNL A   1      41.102  28.574  30.134  1.00  0.00     0.034 A 
ATOM     51  C   UNL A   1      40.987  31.845  35.793  1.00  0.00     0.049 A 
ATOM     52  C   UNL A   1      41.924  28.485  31.391  1.00  0.00     0.074 A 
ATOM     53  C   UNL A   1      41.776  31.628  36.910  1.00  0.00     0.029 A 
ATOM     54  N   UNL A   1      41.393  30.926  34.835  1.00  0.00    -0.354 N 
ATOM     55  N   UNL A   1      41.802  29.168  32.505  1.00  0.00    -0.248 NA
ATOM     56  C   UNL A   1      43.019  27.505  31.405  1.00  0.00     0.031 C 
ATOM     57  C   UNL A   1      42.699  30.627  36.605  1.00  0.00     0.029 A 
ATOM     58  C   UNL A   1      42.440  30.163  35.325  1.00  0.00     0.049 A 
ATOM     59  H   UNL A   1      40.995  30.830  33.940  1.00  0.00     0.167 HD
ATOM     60  C   UNL A   1      42.798  28.697  33.355  1.00  0.00     0.074 A 
ATOM     61  C   UNL A   1      43.488  27.643  32.638  1.00  0.00     0.031 C 
ATOM     62  C   UNL A   1      43.118  29.109  34.606  1.00  0.00     0.034 A 
BRANCH  49  63
ATOM     63  C   UNL A   1      39.669  33.759  36.773  1.00  0.00     0.023 A 
ATOM     64  C   UNL A   1      40.586  34.785  37.068  1.00  0.00     0.031 A 
ATOM     65  C   UNL A   1      38.593  33.554  37.655  1.00  0.00     0.131 A 
ATOM     66  C   UNL A   1      40.433  35.543  38.237  1.00  0.00     0.055 A 
ATOM     67  C   UNL A   1      38.422  34.340  38.797  1.00  0.00     0.041 A 
ATOM     68  F   UNL A   1      37.691  32.589  37.419  1.00  0.00    -0.206 F 
ATOM     69  C   UNL A   1      39.352  35.330  39.098  1.00  0.00     0.022 A 
BRANCH  66  70
ATOM     70  S   UNL A   1      41.665  36.784  38.719  1.00  0.00     0.124 S 
ATOM     71  O   UNL A   1      42.405  36.079  39.764  1.00  0.00    -0.237 OA
ATOM     72  O   UNL A   1      42.392  36.992  37.471  1.00  0.00    -0.237 OA
ATOM     73  O   UNL A   1      40.864  37.912  39.181  1.00  0.00    -0.744 OA
ENDBRANCH  66  70
ENDBRANCH  49  63
BRANCH  50  74
ATOM     74  C   UNL A   1      41.295  27.639  28.987  1.00  0.00     0.023 A 
ATOM     75  C   UNL A   1      42.309  27.860  28.037  1.00  0.00     0.031 A 
ATOM     76  C   UNL A   1      40.394  26.586  28.756  1.00  0.00     0.131 A 
ATOM     77  C   UNL A   1      42.342  27.101  26.861  1.00  0.00     0.055 A 
ATOM     78  C   UNL A   1      40.483  25.776  27.621  1.00  0.00     0.041 A 
ATOM     79  F   UNL A   1      39.403  26.340  29.626  1.00  0.00    -0.206 F 
ATOM     80  C   UNL A   1      41.447  26.047  26.656  1.00  0.00     0.022 A 
BRANCH  77  81
ATOM     81  S   UNL A   1      43.441  27.561  25.492  1.00  0.00     0.124 S 
ATOM     82  O   UNL A   1      44.219  28.648  26.079  1.00  0.00    -0.237 OA
ATOM     83  O   UNL A   1      44.170  26.315  25.261  1.00  0.00    -0.237 OA
ATOM     84  O   UNL A   1      42.522  27.945  24.426  1.00  0.00    -0.744 OA
ENDBRANCH  77  81
ENDBRANCH  50  74
BRANCH  62  85
ATOM     85  C   UNL A   1      44.275  28.439  35.307  1.00  0.00     0.023 A 
ATOM     86  C   UNL A   1      44.033  27.421  36.249  1.00  0.00     0.031 A 
ATOM     87  C   UNL A   1      45.591  28.907  35.155  1.00  0.00     0.131 A 
ATOM     88  C   UNL A   1      45.086  26.934  37.033  1.00  0.00     0.055 A 
ATOM     89  C   UNL A   1      46.646  28.383  35.903  1.00  0.00     0.041 A 
ATOM     90  F   UNL A   1      45.870  29.884  34.278  1.00  0.00    -0.206 F 
ATOM     91  C   UNL A   1      46.393  27.403  36.858  1.00  0.00     0.022 A 
BRANCH  88  92
ATOM     92  S   UNL A   1      44.786  25.747  38.371  1.00  0.00     0.124 S 
ATOM     93  O   UNL A   1      46.145  25.436  38.809  1.00  0.00    -0.237 OA
ATOM     94  O   UNL A   1      43.993  26.535  39.310  1.00  0.00    -0.237 OA
ATOM     95  O   UNL A   1      44.078  24.651  37.717  1.00  0.00    -0.744 OA
ENDBRANCH  88  92
ENDBRANCH  62  85
ENDBRANCH  36  37
ENDBRANCH  28  31
ENDBRANCH  26  27
ENDBRANCH   1  26
TORSDOF 16
ENDMDL
