MODEL 1
REMARK VINA RESULT:     -11.4      0.000      0.000
REMARK SMILES Cc1ccc2c(c1)C=C(C(=O)NCCCNC(=O)c1ccc(-c3c4nc(c(-c5cc(S(=O)(=O)[O-])ccc5F)c5ccc([nH]5)c(-c5cc(S(=O)(=O)[O-])ccc5F)c5nc(c(-c6cc(S(=O)(=O)[O-])ccc6F)c6ccc3[nH]6)C=C5)C=C4)cc1)CO2
REMARK SMILES IDX 16 1 17 2 18 3 15 5 14 6 13 7 12 8 10 9 11 10 9 12 1 13 2 14
REMARK SMILES IDX 3 15 7 16 4 17 6 18 5 19 8 20 83 21 82 22 19 23 20 24 81 25
REMARK SMILES IDX 21 26 80 27 22 28 23 29 24 30 74 31 25 32 79 33 73 34 75 35
REMARK SMILES IDX 26 36 78 37 72 38 71 39 27 41 59 42 39 43 58 44 40 45 43 46
REMARK SMILES IDX 57 47 76 48 41 49 42 50 56 52 77 53 44 54 28 55 29 56 37 57
REMARK SMILES IDX 30 58 36 59 38 60 35 61 31 62 32 63 33 64 34 65 60 66 61 67
REMARK SMILES IDX 69 68 62 69 68 70 70 71 67 72 63 73 64 74 65 75 66 76 45 77
REMARK SMILES IDX 46 78 54 79 47 80 53 81 55 82 52 83 48 84 49 85 50 86 51 87
REMARK H PARENT 16 4 12 11 75 40 43 51
REMARK Flexibility Score: inf
ROOT
ATOM      1  N   UNL A   1      33.600  32.789  28.146  1.00  0.00    -0.352 N 
ATOM      2  C   UNL A   1      34.029  31.579  27.652  1.00  0.00     0.251 C 
ATOM      3  O   UNL A   1      33.314  30.965  26.863  1.00  0.00    -0.269 OA
ATOM      4  H   UNL A   1      32.656  32.998  27.963  1.00  0.00     0.163 HD
ENDROOT
BRANCH   1   5
ATOM      5  C   UNL A   1      34.320  33.813  28.898  1.00  0.00     0.118 C 
BRANCH   5   6
ATOM      6  C   UNL A   1      33.468  35.055  29.150  1.00  0.00     0.042 C 
BRANCH   6   7
ATOM      7  C   UNL A   1      33.642  35.624  30.554  1.00  0.00     0.118 C 
BRANCH   7   8
ATOM      8  N   UNL A   1      33.291  34.656  31.577  1.00  0.00    -0.352 N 
ATOM      9  C   UNL A   1      33.963  34.011  32.562  1.00  0.00     0.250 C 
ATOM     10  O   UNL A   1      33.284  33.247  33.256  1.00  0.00    -0.270 OA
ATOM     11  H   UNL A   1      32.339  34.407  31.548  1.00  0.00     0.163 HD
BRANCH   9  12
ATOM     12  C   UNL A   1      35.416  34.194  32.849  1.00  0.00     0.055 C 
ATOM     13  C   UNL A   1      40.874  34.372  29.932  1.00  0.00     0.044 C 
ATOM     14  C   UNL A   1      39.918  34.452  31.085  1.00  0.00    -0.050 A 
ATOM     15  C   UNL A   1      40.406  34.636  32.386  1.00  0.00     0.007 A 
ATOM     16  C   UNL A   1      38.536  34.326  30.885  1.00  0.00     0.015 A 
ATOM     17  C   UNL A   1      39.524  34.720  33.463  1.00  0.00     0.047 A 
ATOM     18  C   UNL A   1      37.651  34.395  31.968  1.00  0.00     0.017 A 
ATOM     19  C   UNL A   1      38.152  34.599  33.252  1.00  0.00     0.127 A 
ATOM     20  C   UNL A   1      36.214  34.269  31.769  1.00  0.00     0.025 C 
ATOM     21  O   UNL A   1      37.354  34.734  34.351  1.00  0.00    -0.488 OA
ATOM     22  C   UNL A   1      35.993  34.284  34.225  1.00  0.00     0.271 C 
ENDBRANCH   9  12
ENDBRANCH   7   8
ENDBRANCH   6   7
ENDBRANCH   5   6
ENDBRANCH   1   5
BRANCH   2  23
ATOM     23  C   UNL A   1      35.347  31.034  28.043  1.00  0.00     0.039 A 
ATOM     24  C   UNL A   1      35.480  29.702  28.433  1.00  0.00     0.014 A 
ATOM     25  C   UNL A   1      36.470  31.868  28.018  1.00  0.00     0.014 A 
ATOM     26  C   UNL A   1      36.681  29.257  28.973  1.00  0.00     0.010 A 
ATOM     27  C   UNL A   1      37.703  31.390  28.471  1.00  0.00     0.010 A 
ATOM     28  C   UNL A   1      37.805  30.098  29.008  1.00  0.00    -0.014 A 
BRANCH  28  29
ATOM     29  C   UNL A   1      39.067  29.599  29.617  1.00  0.00     0.031 A 
ATOM     30  C   UNL A   1      39.483  30.041  30.995  1.00  0.00     0.074 A 
ATOM     31  C   UNL A   1      39.801  28.685  28.953  1.00  0.00     0.049 A 
ATOM     32  N   UNL A   1      40.513  29.659  31.706  1.00  0.00    -0.248 NA
ATOM     33  C   UNL A   1      38.636  31.043  31.662  1.00  0.00     0.031 C 
ATOM     34  C   UNL A   1      39.486  28.179  27.617  1.00  0.00     0.029 A 
ATOM     35  N   UNL A   1      40.930  27.993  29.314  1.00  0.00    -0.354 N 
ATOM     36  C   UNL A   1      40.443  30.375  32.895  1.00  0.00     0.074 A 
ATOM     37  C   UNL A   1      39.298  31.252  32.792  1.00  0.00     0.031 C 
ATOM     38  C   UNL A   1      40.355  27.211  27.300  1.00  0.00     0.029 A 
ATOM     39  C   UNL A   1      41.334  27.074  28.374  1.00  0.00     0.049 A 
ATOM     40  H   UNL A   1      41.405  28.142  30.163  1.00  0.00     0.167 HD
ATOM     41  C   UNL A   1      41.249  30.295  33.982  1.00  0.00     0.034 A 
ATOM     42  C   UNL A   1      42.375  26.214  28.371  1.00  0.00     0.034 A 
ATOM     43  C   UNL A   1      42.384  29.410  34.073  1.00  0.00     0.049 A 
ATOM     44  C   UNL A   1      43.279  26.167  29.575  1.00  0.00     0.074 A 
ATOM     45  C   UNL A   1      43.265  29.255  35.128  1.00  0.00     0.029 A 
ATOM     46  N   UNL A   1      42.792  28.528  33.081  1.00  0.00    -0.354 N 
ATOM     47  N   UNL A   1      43.187  26.838  30.700  1.00  0.00    -0.248 NA
ATOM     48  C   UNL A   1      44.427  25.253  29.515  1.00  0.00     0.031 C 
ATOM     49  C   UNL A   1      44.234  28.323  34.755  1.00  0.00     0.029 A 
ATOM     50  C   UNL A   1      43.921  27.841  33.493  1.00  0.00     0.049 A 
ATOM     51  H   UNL A   1      42.343  28.408  32.213  1.00  0.00     0.167 HD
ATOM     52  C   UNL A   1      44.254  26.417  31.487  1.00  0.00     0.074 A 
ATOM     53  C   UNL A   1      44.962  25.412  30.719  1.00  0.00     0.031 C 
ATOM     54  C   UNL A   1      44.616  26.832  32.728  1.00  0.00     0.034 A 
BRANCH  41  55
ATOM     55  C   UNL A   1      40.939  31.171  35.172  1.00  0.00     0.023 A 
ATOM     56  C   UNL A   1      39.754  30.977  35.907  1.00  0.00     0.031 A 
ATOM     57  C   UNL A   1      41.763  32.257  35.519  1.00  0.00     0.131 A 
ATOM     58  C   UNL A   1      39.416  31.868  36.933  1.00  0.00     0.055 A 
ATOM     59  C   UNL A   1      41.442  33.119  36.568  1.00  0.00     0.041 A 
ATOM     60  F   UNL A   1      42.906  32.486  34.851  1.00  0.00    -0.206 F 
ATOM     61  C   UNL A   1      40.257  32.932  37.273  1.00  0.00     0.022 A 
BRANCH  58  62
ATOM     62  S   UNL A   1      37.846  31.719  37.830  1.00  0.00     0.124 S 
ATOM     63  O   UNL A   1      37.026  32.728  37.163  1.00  0.00    -0.237 OA
ATOM     64  O   UNL A   1      37.469  30.334  37.562  1.00  0.00    -0.237 OA
ATOM     65  O   UNL A   1      38.200  32.020  39.212  1.00  0.00    -0.744 OA
ENDBRANCH  58  62
ENDBRANCH  41  55
BRANCH  42  66
ATOM     66  C   UNL A   1      42.552  25.301  27.204  1.00  0.00     0.023 A 
ATOM     67  C   UNL A   1      41.988  24.012  27.205  1.00  0.00     0.031 A 
ATOM     68  C   UNL A   1      43.403  25.650  26.143  1.00  0.00     0.131 A 
ATOM     69  C   UNL A   1      42.355  23.091  26.215  1.00  0.00     0.055 A 
ATOM     70  C   UNL A   1      43.703  24.753  25.115  1.00  0.00     0.041 A 
ATOM     71  F   UNL A   1      43.973  26.863  26.105  1.00  0.00    -0.206 F 
ATOM     72  C   UNL A   1      43.195  23.458  25.161  1.00  0.00     0.022 A 
BRANCH  69  73
ATOM     73  S   UNL A   1      41.877  21.345  26.351  1.00  0.00     0.124 S 
ATOM     74  O   UNL A   1      42.148  21.063  27.757  1.00  0.00    -0.237 OA
ATOM     75  O   UNL A   1      40.465  21.395  25.977  1.00  0.00    -0.237 OA
ATOM     76  O   UNL A   1      42.748  20.673  25.393  1.00  0.00    -0.744 OA
ENDBRANCH  69  73
ENDBRANCH  42  66
BRANCH  54  77
ATOM     77  C   UNL A   1      45.838  26.216  33.366  1.00  0.00     0.023 A 
ATOM     78  C   UNL A   1      45.724  25.006  34.079  1.00  0.00     0.031 A 
ATOM     79  C   UNL A   1      47.066  26.897  33.403  1.00  0.00     0.131 A 
ATOM     80  C   UNL A   1      46.806  24.538  34.834  1.00  0.00     0.055 A 
ATOM     81  C   UNL A   1      48.157  26.403  34.120  1.00  0.00     0.041 A 
ATOM     82  F   UNL A   1      47.220  28.059  32.749  1.00  0.00    -0.206 F 
ATOM     83  C   UNL A   1      48.024  25.226  34.852  1.00  0.00     0.022 A 
BRANCH  80  84
ATOM     84  S   UNL A   1      46.646  23.074  35.894  1.00  0.00     0.124 S 
ATOM     85  O   UNL A   1      47.209  22.025  35.047  1.00  0.00    -0.237 OA
ATOM     86  O   UNL A   1      47.456  23.443  37.051  1.00  0.00    -0.237 OA
ATOM     87  O   UNL A   1      45.211  22.972  36.139  1.00  0.00    -0.744 OA
ENDBRANCH  80  84
ENDBRANCH  54  77
ENDBRANCH  28  29
ENDBRANCH   2  23
TORSDOF 13
ENDMDL
MODEL 2
REMARK VINA RESULT:     -11.3      0.463      7.803
REMARK SMILES Cc1ccc2c(c1)C=C(C(=O)NCCCNC(=O)c1ccc(-c3c4nc(c(-c5cc(S(=O)(=O)[O-])ccc5F)c5ccc([nH]5)c(-c5cc(S(=O)(=O)[O-])ccc5F)c5nc(c(-c6cc(S(=O)(=O)[O-])ccc6F)c6ccc3[nH]6)C=C5)C=C4)cc1)CO2
REMARK SMILES IDX 16 1 17 2 18 3 15 5 14 6 13 7 12 8 10 9 11 10 9 12 1 13 2 14
REMARK SMILES IDX 3 15 7 16 4 17 6 18 5 19 8 20 83 21 82 22 19 23 20 24 81 25
REMARK SMILES IDX 21 26 80 27 22 28 23 29 24 30 74 31 25 32 79 33 73 34 75 35
REMARK SMILES IDX 26 36 78 37 72 38 71 39 27 41 59 42 39 43 58 44 40 45 43 46
REMARK SMILES IDX 57 47 76 48 41 49 42 50 56 52 77 53 44 54 28 55 29 56 37 57
REMARK SMILES IDX 30 58 36 59 38 60 35 61 31 62 32 63 33 64 34 65 60 66 61 67
REMARK SMILES IDX 69 68 62 69 68 70 70 71 67 72 63 73 64 74 65 75 66 76 45 77
REMARK SMILES IDX 46 78 54 79 47 80 53 81 55 82 52 83 48 84 49 85 50 86 51 87
REMARK H PARENT 16 4 12 11 75 40 43 51
REMARK Flexibility Score: inf
ROOT
ATOM      1  N   UNL A   1      33.625  32.863  28.102  1.00  0.00    -0.352 N 
ATOM      2  C   UNL A   1      34.064  31.669  27.580  1.00  0.00     0.251 C 
ATOM      3  O   UNL A   1      33.416  31.129  26.687  1.00  0.00    -0.269 OA
ATOM      4  H   UNL A   1      32.712  33.118  27.836  1.00  0.00     0.163 HD
ENDROOT
BRANCH   1   5
ATOM      5  C   UNL A   1      34.295  33.813  28.985  1.00  0.00     0.118 C 
BRANCH   5   6
ATOM      6  C   UNL A   1      33.476  35.084  29.199  1.00  0.00     0.042 C 
BRANCH   6   7
ATOM      7  C   UNL A   1      33.576  35.628  30.620  1.00  0.00     0.118 C 
BRANCH   7   8
ATOM      8  N   UNL A   1      33.242  34.621  31.610  1.00  0.00    -0.352 N 
ATOM      9  C   UNL A   1      33.924  33.954  32.573  1.00  0.00     0.250 C 
ATOM     10  O   UNL A   1      33.257  33.157  33.241  1.00  0.00    -0.270 OA
ATOM     11  H   UNL A   1      32.293  34.358  31.572  1.00  0.00     0.163 HD
BRANCH   9  12
ATOM     12  C   UNL A   1      35.374  34.151  32.865  1.00  0.00     0.055 C 
ATOM     13  C   UNL A   1      40.863  34.177  30.002  1.00  0.00     0.044 C 
ATOM     14  C   UNL A   1      39.896  34.315  31.139  1.00  0.00    -0.050 A 
ATOM     15  C   UNL A   1      40.369  34.565  32.434  1.00  0.00     0.007 A 
ATOM     16  C   UNL A   1      38.515  34.181  30.931  1.00  0.00     0.015 A 
ATOM     17  C   UNL A   1      39.476  34.705  33.496  1.00  0.00     0.047 A 
ATOM     18  C   UNL A   1      37.618  34.305  31.999  1.00  0.00     0.017 A 
ATOM     19  C   UNL A   1      38.106  34.574  33.277  1.00  0.00     0.127 A 
ATOM     20  C   UNL A   1      36.184  34.170  31.792  1.00  0.00     0.025 C 
ATOM     21  O   UNL A   1      37.296  34.764  34.359  1.00  0.00    -0.488 OA
ATOM     22  C   UNL A   1      35.936  34.309  34.241  1.00  0.00     0.271 C 
ENDBRANCH   9  12
ENDBRANCH   7   8
ENDBRANCH   6   7
ENDBRANCH   5   6
ENDBRANCH   1   5
BRANCH   2  23
ATOM     23  C   UNL A   1      35.317  31.052  28.070  1.00  0.00     0.039 A 
ATOM     24  C   UNL A   1      35.343  29.717  28.474  1.00  0.00     0.014 A 
ATOM     25  C   UNL A   1      36.484  31.820  28.124  1.00  0.00     0.014 A 
ATOM     26  C   UNL A   1      36.473  29.209  29.103  1.00  0.00     0.010 A 
ATOM     27  C   UNL A   1      37.651  31.275  28.669  1.00  0.00     0.010 A 
ATOM     28  C   UNL A   1      37.639  29.984  29.217  1.00  0.00    -0.014 A 
BRANCH  28  29
ATOM     29  C   UNL A   1      38.822  29.419  29.920  1.00  0.00     0.031 A 
ATOM     30  C   UNL A   1      39.713  28.415  29.240  1.00  0.00     0.074 A 
ATOM     31  C   UNL A   1      39.134  29.874  31.149  1.00  0.00     0.049 A 
ATOM     32  N   UNL A   1      40.821  27.870  29.675  1.00  0.00    -0.248 NA
ATOM     33  C   UNL A   1      39.312  27.961  27.898  1.00  0.00     0.031 C 
ATOM     34  C   UNL A   1      38.345  30.853  31.898  1.00  0.00     0.029 A 
ATOM     35  N   UNL A   1      40.202  29.609  31.969  1.00  0.00    -0.354 N 
ATOM     36  C   UNL A   1      41.242  27.006  28.670  1.00  0.00     0.074 A 
ATOM     37  C   UNL A   1      40.247  27.062  27.622  1.00  0.00     0.031 C 
ATOM     38  C   UNL A   1      38.990  31.159  33.031  1.00  0.00     0.029 A 
ATOM     39  C   UNL A   1      40.200  30.348  33.129  1.00  0.00     0.049 A 
ATOM     40  H   UNL A   1      40.902  28.953  31.748  1.00  0.00     0.167 HD
ATOM     41  C   UNL A   1      42.366  26.251  28.617  1.00  0.00     0.034 A 
ATOM     42  C   UNL A   1      41.070  30.374  34.160  1.00  0.00     0.034 A 
ATOM     43  C   UNL A   1      43.353  26.212  29.668  1.00  0.00     0.049 A 
ATOM     44  C   UNL A   1      42.295  29.499  34.097  1.00  0.00     0.074 A 
ATOM     45  C   UNL A   1      44.525  25.477  29.712  1.00  0.00     0.029 A 
ATOM     46  N   UNL A   1      43.293  26.937  30.850  1.00  0.00    -0.354 N 
ATOM     47  N   UNL A   1      42.689  28.704  33.130  1.00  0.00    -0.248 NA
ATOM     48  C   UNL A   1      43.194  29.521  35.258  1.00  0.00     0.031 C 
ATOM     49  C   UNL A   1      45.144  25.715  30.941  1.00  0.00     0.029 A 
ATOM     50  C   UNL A   1      44.396  26.653  31.638  1.00  0.00     0.049 A 
ATOM     51  H   UNL A   1      42.571  27.562  31.093  1.00  0.00     0.167 HD
ATOM     52  C   UNL A   1      43.887  28.141  33.558  1.00  0.00     0.074 A 
ATOM     53  C   UNL A   1      44.168  28.711  34.860  1.00  0.00     0.031 C 
ATOM     54  C   UNL A   1      44.676  27.231  32.931  1.00  0.00     0.034 A 
BRANCH  41  55
ATOM     55  C   UNL A   1      42.610  25.411  27.387  1.00  0.00     0.023 A 
ATOM     56  C   UNL A   1      42.190  24.068  27.349  1.00  0.00     0.031 A 
ATOM     57  C   UNL A   1      43.345  25.907  26.294  1.00  0.00     0.131 A 
ATOM     58  C   UNL A   1      42.527  23.263  26.254  1.00  0.00     0.055 A 
ATOM     59  C   UNL A   1      43.644  25.111  25.187  1.00  0.00     0.041 A 
ATOM     60  F   UNL A   1      43.768  27.182  26.279  1.00  0.00    -0.206 F 
ATOM     61  C   UNL A   1      43.243  23.779  25.169  1.00  0.00     0.022 A 
BRANCH  58  62
ATOM     62  S   UNL A   1      42.101  21.500  26.216  1.00  0.00     0.124 S 
ATOM     63  O   UNL A   1      43.038  20.989  25.217  1.00  0.00    -0.237 OA
ATOM     64  O   UNL A   1      42.371  21.089  27.591  1.00  0.00    -0.237 OA
ATOM     65  O   UNL A   1      40.698  21.485  25.818  1.00  0.00    -0.744 OA
ENDBRANCH  58  62
ENDBRANCH  41  55
BRANCH  42  66
ATOM     66  C   UNL A   1      40.819  31.313  35.293  1.00  0.00     0.023 A 
ATOM     67  C   UNL A   1      39.731  31.116  36.165  1.00  0.00     0.031 A 
ATOM     68  C   UNL A   1      41.573  32.490  35.430  1.00  0.00     0.131 A 
ATOM     69  C   UNL A   1      39.375  32.124  37.070  1.00  0.00     0.055 A 
ATOM     70  C   UNL A   1      41.260  33.456  36.389  1.00  0.00     0.041 A 
ATOM     71  F   UNL A   1      42.611  32.727  34.615  1.00  0.00    -0.206 F 
ATOM     72  C   UNL A   1      40.141  33.285  37.200  1.00  0.00     0.022 A 
BRANCH  69  73
ATOM     73  S   UNL A   1      37.817  32.027  37.998  1.00  0.00     0.124 S 
ATOM     74  O   UNL A   1      37.015  33.065  37.357  1.00  0.00    -0.237 OA
ATOM     75  O   UNL A   1      37.400  30.652  37.733  1.00  0.00    -0.237 OA
ATOM     76  O   UNL A   1      38.217  32.299  39.374  1.00  0.00    -0.744 OA
ENDBRANCH  69  73
ENDBRANCH  42  66
BRANCH  54  77
ATOM     77  C   UNL A   1      45.935  26.770  33.625  1.00  0.00     0.023 A 
ATOM     78  C   UNL A   1      45.887  25.684  34.520  1.00  0.00     0.031 A 
ATOM     79  C   UNL A   1      47.134  27.496  33.524  1.00  0.00     0.131 A 
ATOM     80  C   UNL A   1      47.002  25.383  35.311  1.00  0.00     0.055 A 
ATOM     81  C   UNL A   1      48.258  27.162  34.279  1.00  0.00     0.041 A 
ATOM     82  F   UNL A   1      47.225  28.546  32.692  1.00  0.00    -0.206 F 
ATOM     83  C   UNL A   1      48.191  26.111  35.189  1.00  0.00     0.022 A 
BRANCH  80  84
ATOM     84  S   UNL A   1      46.925  24.097  36.590  1.00  0.00     0.124 S 
ATOM     85  O   UNL A   1      46.082  24.729  37.602  1.00  0.00    -0.237 OA
ATOM     86  O   UNL A   1      46.311  22.986  35.871  1.00  0.00    -0.237 OA
ATOM     87  O   UNL A   1      48.319  23.902  36.976  1.00  0.00    -0.744 OA
ENDBRANCH  80  84
ENDBRANCH  54  77
ENDBRANCH  28  29
ENDBRANCH   2  23
TORSDOF 13
ENDMDL
MODEL 3
REMARK VINA RESULT:     -11.3      5.461     11.527
REMARK SMILES Cc1ccc2c(c1)C=C(C(=O)NCCCNC(=O)c1ccc(-c3c4nc(c(-c5cc(S(=O)(=O)[O-])ccc5F)c5ccc([nH]5)c(-c5cc(S(=O)(=O)[O-])ccc5F)c5nc(c(-c6cc(S(=O)(=O)[O-])ccc6F)c6ccc3[nH]6)C=C5)C=C4)cc1)CO2
REMARK SMILES IDX 16 1 17 2 18 3 15 5 14 6 13 7 12 8 10 9 11 10 9 12 1 13 2 14
REMARK SMILES IDX 3 15 7 16 4 17 6 18 5 19 8 20 83 21 82 22 19 23 20 24 81 25
REMARK SMILES IDX 21 26 80 27 22 28 23 29 24 30 74 31 25 32 79 33 73 34 75 35
REMARK SMILES IDX 26 36 78 37 72 38 71 39 27 41 59 42 39 43 58 44 40 45 43 46
REMARK SMILES IDX 57 47 76 48 41 49 42 50 56 52 77 53 44 54 28 55 29 56 37 57
REMARK SMILES IDX 30 58 36 59 38 60 35 61 31 62 32 63 33 64 34 65 60 66 61 67
REMARK SMILES IDX 69 68 62 69 68 70 70 71 67 72 63 73 64 74 65 75 66 76 45 77
REMARK SMILES IDX 46 78 54 79 47 80 53 81 55 82 52 83 48 84 49 85 50 86 51 87
REMARK H PARENT 16 4 12 11 75 40 43 51
REMARK Flexibility Score: inf
ROOT
ATOM      1  N   UNL A   1      37.903  20.790  25.415  1.00  0.00    -0.352 N 
ATOM      2  C   UNL A   1      39.165  20.863  25.958  1.00  0.00     0.251 C 
ATOM      3  O   UNL A   1      39.881  19.864  25.951  1.00  0.00    -0.269 OA
ATOM      4  H   UNL A   1      37.595  19.877  25.211  1.00  0.00     0.163 HD
ENDROOT
BRANCH   1   5
ATOM      5  C   UNL A   1      36.949  21.847  25.093  1.00  0.00     0.118 C 
BRANCH   5   6
ATOM      6  C   UNL A   1      35.684  21.766  25.945  1.00  0.00     0.042 C 
BRANCH   6   7
ATOM      7  C   UNL A   1      34.455  21.337  25.152  1.00  0.00     0.118 C 
BRANCH   7   8
ATOM      8  N   UNL A   1      34.402  21.977  23.849  1.00  0.00    -0.352 N 
ATOM      9  C   UNL A   1      33.878  23.128  23.363  1.00  0.00     0.250 C 
ATOM     10  O   UNL A   1      34.061  23.327  22.157  1.00  0.00    -0.270 OA
ATOM     11  H   UNL A   1      34.853  21.446  23.152  1.00  0.00     0.163 HD
BRANCH   9  12
ATOM     12  C   UNL A   1      33.145  24.133  24.188  1.00  0.00     0.055 C 
ATOM     13  C   UNL A   1      34.150  29.331  27.395  1.00  0.00     0.044 C 
ATOM     14  C   UNL A   1      33.359  28.208  26.794  1.00  0.00    -0.050 A 
ATOM     15  C   UNL A   1      31.988  28.096  27.061  1.00  0.00     0.007 A 
ATOM     16  C   UNL A   1      33.976  27.249  25.978  1.00  0.00     0.015 A 
ATOM     17  C   UNL A   1      31.243  27.060  26.499  1.00  0.00     0.047 A 
ATOM     18  C   UNL A   1      33.232  26.199  25.426  1.00  0.00     0.017 A 
ATOM     19  C   UNL A   1      31.865  26.115  25.685  1.00  0.00     0.127 A 
ATOM     20  C   UNL A   1      33.863  25.201  24.575  1.00  0.00     0.025 C 
ATOM     21  O   UNL A   1      31.060  25.157  25.141  1.00  0.00    -0.488 OA
ATOM     22  C   UNL A   1      31.711  23.998  24.589  1.00  0.00     0.271 C 
ENDBRANCH   9  12
ENDBRANCH   7   8
ENDBRANCH   6   7
ENDBRANCH   5   6
ENDBRANCH   1   5
BRANCH   2  23
ATOM     23  C   UNL A   1      39.666  22.136  26.522  1.00  0.00     0.039 A 
ATOM     24  C   UNL A   1      39.129  23.356  26.113  1.00  0.00     0.014 A 
ATOM     25  C   UNL A   1      40.687  22.108  27.478  1.00  0.00     0.014 A 
ATOM     26  C   UNL A   1      39.734  24.544  26.509  1.00  0.00     0.010 A 
ATOM     27  C   UNL A   1      41.230  23.307  27.950  1.00  0.00     0.010 A 
ATOM     28  C   UNL A   1      40.798  24.534  27.426  1.00  0.00    -0.014 A 
BRANCH  28  29
ATOM     29  C   UNL A   1      41.440  25.820  27.808  1.00  0.00     0.031 A 
ATOM     30  C   UNL A   1      42.811  26.176  27.300  1.00  0.00     0.074 A 
ATOM     31  C   UNL A   1      40.748  26.702  28.556  1.00  0.00     0.049 A 
ATOM     32  N   UNL A   1      43.494  27.278  27.477  1.00  0.00    -0.248 NA
ATOM     33  C   UNL A   1      43.510  25.165  26.490  1.00  0.00     0.031 C 
ATOM     34  C   UNL A   1      39.409  26.465  29.094  1.00  0.00     0.029 A 
ATOM     35  N   UNL A   1      41.049  27.978  28.962  1.00  0.00    -0.354 N 
ATOM     36  C   UNL A   1      44.700  27.092  26.811  1.00  0.00     0.074 A 
ATOM     37  C   UNL A   1      44.677  25.753  26.267  1.00  0.00     0.031 C 
ATOM     38  C   UNL A   1      38.975  27.579  29.696  1.00  0.00     0.029 A 
ATOM     39  C   UNL A   1      40.030  28.588  29.655  1.00  0.00     0.049 A 
ATOM     40  H   UNL A   1      41.912  28.414  28.776  1.00  0.00     0.167 HD
ATOM     41  C   UNL A   1      45.723  27.965  26.651  1.00  0.00     0.034 A 
ATOM     42  C   UNL A   1      39.946  29.821  30.198  1.00  0.00     0.034 A 
ATOM     43  C   UNL A   1      45.728  29.301  27.193  1.00  0.00     0.049 A 
ATOM     44  C   UNL A   1      41.111  30.763  30.039  1.00  0.00     0.074 A 
ATOM     45  C   UNL A   1      46.717  30.263  27.090  1.00  0.00     0.029 A 
ATOM     46  N   UNL A   1      44.698  29.868  27.932  1.00  0.00    -0.354 N 
ATOM     47  N   UNL A   1      42.236  30.577  29.389  1.00  0.00    -0.248 NA
ATOM     48  C   UNL A   1      41.001  32.078  30.684  1.00  0.00     0.031 C 
ATOM     49  C   UNL A   1      46.311  31.388  27.810  1.00  0.00     0.029 A 
ATOM     50  C   UNL A   1      45.036  31.158  28.305  1.00  0.00     0.049 A 
ATOM     51  H   UNL A   1      43.850  29.419  28.156  1.00  0.00     0.167 HD
ATOM     52  C   UNL A   1      42.962  31.755  29.533  1.00  0.00     0.074 A 
ATOM     53  C   UNL A   1      42.136  32.657  30.309  1.00  0.00     0.031 C 
ATOM     54  C   UNL A   1      44.203  32.056  29.070  1.00  0.00     0.034 A 
BRANCH  41  55
ATOM     55  C   UNL A   1      46.925  27.525  25.850  1.00  0.00     0.023 A 
ATOM     56  C   UNL A   1      47.046  27.886  24.495  1.00  0.00     0.031 A 
ATOM     57  C   UNL A   1      47.897  26.667  26.396  1.00  0.00     0.131 A 
ATOM     58  C   UNL A   1      48.100  27.375  23.728  1.00  0.00     0.055 A 
ATOM     59  C   UNL A   1      48.968  26.191  25.638  1.00  0.00     0.041 A 
ATOM     60  F   UNL A   1      47.829  26.292  27.684  1.00  0.00    -0.206 F 
ATOM     61  C   UNL A   1      49.066  26.536  24.294  1.00  0.00     0.022 A 
BRANCH  58  62
ATOM     62  S   UNL A   1      48.230  27.726  21.952  1.00  0.00     0.124 S 
ATOM     63  O   UNL A   1      49.391  28.612  21.908  1.00  0.00    -0.237 OA
ATOM     64  O   UNL A   1      48.440  26.395  21.391  1.00  0.00    -0.237 OA
ATOM     65  O   UNL A   1      46.956  28.354  21.624  1.00  0.00    -0.744 OA
ENDBRANCH  58  62
ENDBRANCH  41  55
BRANCH  42  66
ATOM     66  C   UNL A   1      38.682  30.224  30.881  1.00  0.00     0.023 A 
ATOM     67  C   UNL A   1      37.709  30.984  30.205  1.00  0.00     0.031 A 
ATOM     68  C   UNL A   1      38.496  29.979  32.251  1.00  0.00     0.131 A 
ATOM     69  C   UNL A   1      36.645  31.548  30.922  1.00  0.00     0.055 A 
ATOM     70  C   UNL A   1      37.392  30.479  32.944  1.00  0.00     0.041 A 
ATOM     71  F   UNL A   1      39.403  29.270  32.940  1.00  0.00    -0.206 F 
ATOM     72  C   UNL A   1      36.471  31.286  32.283  1.00  0.00     0.022 A 
BRANCH  69  73
ATOM     73  S   UNL A   1      35.544  32.763  30.143  1.00  0.00     0.124 S 
ATOM     74  O   UNL A   1      36.331  33.988  30.230  1.00  0.00    -0.237 OA
ATOM     75  O   UNL A   1      35.389  32.205  28.802  1.00  0.00    -0.237 OA
ATOM     76  O   UNL A   1      34.344  32.723  30.973  1.00  0.00    -0.744 OA
ENDBRANCH  69  73
ENDBRANCH  42  66
BRANCH  54  77
ATOM     77  C   UNL A   1      44.775  33.419  29.377  1.00  0.00     0.023 A 
ATOM     78  C   UNL A   1      44.542  34.495  28.498  1.00  0.00     0.031 A 
ATOM     79  C   UNL A   1      45.672  33.613  30.442  1.00  0.00     0.131 A 
ATOM     80  C   UNL A   1      45.231  35.700  28.673  1.00  0.00     0.055 A 
ATOM     81  C   UNL A   1      46.321  34.833  30.640  1.00  0.00     0.041 A 
ATOM     82  F   UNL A   1      45.936  32.615  31.300  1.00  0.00    -0.206 F 
ATOM     83  C   UNL A   1      46.113  35.878  29.745  1.00  0.00     0.022 A 
BRANCH  80  84
ATOM     84  S   UNL A   1      45.080  37.050  27.469  1.00  0.00     0.124 S 
ATOM     85  O   UNL A   1      43.760  36.797  26.897  1.00  0.00    -0.237 OA
ATOM     86  O   UNL A   1      45.175  38.232  28.320  1.00  0.00    -0.237 OA
ATOM     87  O   UNL A   1      46.202  36.838  26.561  1.00  0.00    -0.744 OA
ENDBRANCH  80  84
ENDBRANCH  54  77
ENDBRANCH  28  29
ENDBRANCH   2  23
TORSDOF 13
ENDMDL
