MODEL 1
REMARK VINA RESULT:     -10.6      0.000      0.000
REMARK SMILES C[C@H](Sc1ccc(N)c(Cl)c1)C(=O)NCCCNC(=O)c1ccc(-c2c3nc(c(-c4cc(S(=O)(=O)[O-])ccc4F)c4ccc([nH]4)c(-c4cc(S(=O)(=O)[O-])ccc4F)c4nc(c(-c5cc(S(=O)(=O)[O-])ccc5F)c5ccc2[nH]5)C=C4)C=C3)cc1
REMARK SMILES IDX 16 1 15 2 14 3 12 4 13 5 2 7 1 8 3 9 4 10 5 11 11 12 6 13
REMARK SMILES IDX 9 14 7 15 10 16 8 17 17 20 18 21 19 22 20 24 21 25 22 26
REMARK SMILES IDX 83 27 23 28 82 29 24 30 25 31 26 32 76 33 27 34 81 35 75 36
REMARK SMILES IDX 77 37 28 38 80 39 74 40 73 41 29 43 61 44 41 45 60 46 42 47
REMARK SMILES IDX 45 48 59 49 78 50 43 51 44 52 58 54 79 55 46 56 30 57 31 58
REMARK SMILES IDX 39 59 32 60 38 61 40 62 37 63 33 64 34 65 35 66 36 67 62 68
REMARK SMILES IDX 63 69 71 70 64 71 70 72 72 73 69 74 65 75 66 76 67 77 68 78
REMARK SMILES IDX 47 79 48 80 56 81 49 82 55 83 57 84 54 85 50 86 51 87 52 88
REMARK SMILES IDX 53 89
REMARK H PARENT 14 6 8 18 8 19 18 23 77 42 45 53
REMARK Flexibility Score: inf
ROOT
ATOM      1  C   UNL A   1      32.501  28.021  25.543  1.00  0.00     0.042 C 
ENDROOT
BRANCH   1   2
ATOM      2  C   UNL A   1      33.275  26.709  25.534  1.00  0.00     0.117 C 
BRANCH   2   3
ATOM      3  N   UNL A   1      33.687  26.340  24.200  1.00  0.00    -0.355 N 
ATOM      4  C   UNL A   1      33.441  25.212  23.481  1.00  0.00     0.233 C 
ATOM      5  O   UNL A   1      33.982  25.146  22.370  1.00  0.00    -0.274 OA
ATOM      6  H   UNL A   1      34.234  27.014  23.736  1.00  0.00     0.163 HD
BRANCH   4   7
ATOM      7  C   UNL A   1      32.479  24.108  23.934  1.00  0.00     0.137 C 
ATOM      8  C   UNL A   1      31.011  24.408  23.678  1.00  0.00     0.030 C 
BRANCH   7   9
ATOM      9  S   UNL A   1      32.991  23.234  25.474  1.00  0.00    -0.113 SA
BRANCH   9  10
ATOM     10  C   UNL A   1      34.681  22.674  25.367  1.00  0.00     0.010 A 
ATOM     11  C   UNL A   1      35.127  21.493  24.777  1.00  0.00     0.017 A 
ATOM     12  C   UNL A   1      35.652  23.555  25.866  1.00  0.00     0.037 A 
ATOM     13  C   UNL A   1      36.481  21.126  24.819  1.00  0.00     0.028 A 
ATOM     14  C   UNL A   1      37.010  23.212  25.863  1.00  0.00     0.065 A 
ATOM     15  C   UNL A   1      37.437  21.959  25.401  1.00  0.00     0.050 A 
ATOM     16  Cl  UNL A   1      38.151  24.359  26.476  1.00  0.00    -0.082 Cl
BRANCH  15  17
ATOM     17  N   UNL A   1      38.778  21.588  25.377  1.00  0.00    -0.398 N 
ATOM     18  H   UNL A   1      39.425  22.041  25.964  1.00  0.00     0.156 HD
ATOM     19  H   UNL A   1      39.078  20.871  24.773  1.00  0.00     0.156 HD
ENDBRANCH  15  17
ENDBRANCH   9  10
ENDBRANCH   7   9
ENDBRANCH   4   7
ENDBRANCH   2   3
ENDBRANCH   1   2
BRANCH   1  20
ATOM     20  C   UNL A   1      33.371  29.224  25.209  1.00  0.00     0.118 C 
BRANCH  20  21
ATOM     21  N   UNL A   1      32.831  30.454  25.780  1.00  0.00    -0.352 N 
ATOM     22  C   UNL A   1      33.194  31.136  26.915  1.00  0.00     0.251 C 
ATOM     23  H   UNL A   1      32.090  30.857  25.273  1.00  0.00     0.163 HD
ATOM     24  O   UNL A   1      32.443  31.998  27.360  1.00  0.00    -0.269 OA
BRANCH  22  25
ATOM     25  C   UNL A   1      34.468  30.824  27.600  1.00  0.00     0.039 A 
ATOM     26  C   UNL A   1      35.461  31.804  27.670  1.00  0.00     0.014 A 
ATOM     27  C   UNL A   1      34.692  29.562  28.156  1.00  0.00     0.014 A 
ATOM     28  C   UNL A   1      36.647  31.539  28.358  1.00  0.00     0.010 A 
ATOM     29  C   UNL A   1      35.831  29.333  28.919  1.00  0.00     0.010 A 
ATOM     30  C   UNL A   1      36.824  30.316  29.024  1.00  0.00    -0.014 A 
BRANCH  30  31
ATOM     31  C   UNL A   1      38.043  30.034  29.826  1.00  0.00     0.031 A 
ATOM     32  C   UNL A   1      39.076  29.071  29.307  1.00  0.00     0.074 A 
ATOM     33  C   UNL A   1      38.178  30.583  31.049  1.00  0.00     0.049 A 
ATOM     34  N   UNL A   1      40.145  28.605  29.898  1.00  0.00    -0.248 NA
ATOM     35  C   UNL A   1      38.856  28.536  27.954  1.00  0.00     0.031 C 
ATOM     36  C   UNL A   1      37.224  31.504  31.673  1.00  0.00     0.029 A 
ATOM     37  N   UNL A   1      39.163  30.441  31.994  1.00  0.00    -0.354 N 
ATOM     38  C   UNL A   1      40.716  27.710  28.998  1.00  0.00     0.074 A 
ATOM     39  C   UNL A   1      39.836  27.651  27.851  1.00  0.00     0.031 C 
ATOM     40  C   UNL A   1      37.683  31.862  32.881  1.00  0.00     0.029 A 
ATOM     41  C   UNL A   1      38.932  31.156  33.147  1.00  0.00     0.049 A 
ATOM     42  H   UNL A   1      39.962  29.881  31.859  1.00  0.00     0.167 HD
ATOM     43  C   UNL A   1      41.878  27.019  29.111  1.00  0.00     0.034 A 
ATOM     44  C   UNL A   1      39.635  31.216  34.296  1.00  0.00     0.034 A 
ATOM     45  C   UNL A   1      42.745  27.101  30.260  1.00  0.00     0.049 A 
ATOM     46  C   UNL A   1      40.903  30.408  34.415  1.00  0.00     0.074 A 
ATOM     47  C   UNL A   1      43.971  26.490  30.459  1.00  0.00     0.029 A 
ATOM     48  N   UNL A   1      42.476  27.832  31.411  1.00  0.00    -0.354 N 
ATOM     49  N   UNL A   1      41.454  29.603  33.535  1.00  0.00    -0.248 NA
ATOM     50  C   UNL A   1      41.647  30.523  35.675  1.00  0.00     0.031 C 
ATOM     51  C   UNL A   1      44.403  26.786  31.756  1.00  0.00     0.029 A 
ATOM     52  C   UNL A   1      43.494  27.657  32.335  1.00  0.00     0.049 A 
ATOM     53  H   UNL A   1      41.679  28.393  31.549  1.00  0.00     0.167 HD
ATOM     54  C   UNL A   1      42.628  29.143  34.127  1.00  0.00     0.074 A 
ATOM     55  C   UNL A   1      42.709  29.770  35.429  1.00  0.00     0.031 C 
ATOM     56  C   UNL A   1      43.558  28.286  33.633  1.00  0.00     0.034 A 
BRANCH  43  57
ATOM     57  C   UNL A   1      42.256  26.100  27.973  1.00  0.00     0.023 A 
ATOM     58  C   UNL A   1      41.781  24.778  27.901  1.00  0.00     0.031 A 
ATOM     59  C   UNL A   1      43.122  26.541  26.957  1.00  0.00     0.131 A 
ATOM     60  C   UNL A   1      42.236  23.923  26.885  1.00  0.00     0.055 A 
ATOM     61  C   UNL A   1      43.500  25.713  25.898  1.00  0.00     0.041 A 
ATOM     62  F   UNL A   1      43.627  27.785  26.982  1.00  0.00    -0.206 F 
ATOM     63  C   UNL A   1      43.070  24.390  25.867  1.00  0.00     0.022 A 
BRANCH  60  64
ATOM     64  S   UNL A   1      41.845  22.156  27.003  1.00  0.00     0.124 S 
ATOM     65  O   UNL A   1      40.524  22.187  27.628  1.00  0.00    -0.237 OA
ATOM     66  O   UNL A   1      41.881  21.731  25.608  1.00  0.00    -0.237 OA
ATOM     67  O   UNL A   1      42.912  21.624  27.846  1.00  0.00    -0.744 OA
ENDBRANCH  60  64
ENDBRANCH  43  57
BRANCH  44  68
ATOM     68  C   UNL A   1      39.155  32.056  35.433  1.00  0.00     0.023 A 
ATOM     69  C   UNL A   1      38.511  31.478  36.537  1.00  0.00     0.031 A 
ATOM     70  C   UNL A   1      39.295  33.456  35.411  1.00  0.00     0.131 A 
ATOM     71  C   UNL A   1      37.986  32.295  37.551  1.00  0.00     0.055 A 
ATOM     72  C   UNL A   1      38.826  34.261  36.451  1.00  0.00     0.041 A 
ATOM     73  F   UNL A   1      39.903  34.062  34.380  1.00  0.00    -0.206 F 
ATOM     74  C   UNL A   1      38.154  33.682  37.523  1.00  0.00     0.022 A 
BRANCH  71  75
ATOM     75  S   UNL A   1      36.993  31.527  38.859  1.00  0.00     0.124 S 
ATOM     76  O   UNL A   1      36.839  30.168  38.354  1.00  0.00    -0.237 OA
ATOM     77  O   UNL A   1      37.855  31.684  40.026  1.00  0.00    -0.237 OA
ATOM     78  O   UNL A   1      35.772  32.330  38.875  1.00  0.00    -0.744 OA
ENDBRANCH  71  75
ENDBRANCH  44  68
BRANCH  56  79
ATOM     79  C   UNL A   1      44.775  28.021  34.489  1.00  0.00     0.023 A 
ATOM     80  C   UNL A   1      44.831  26.944  35.390  1.00  0.00     0.031 A 
ATOM     81  C   UNL A   1      45.901  28.859  34.387  1.00  0.00     0.131 A 
ATOM     82  C   UNL A   1      45.970  26.762  36.189  1.00  0.00     0.055 A 
ATOM     83  C   UNL A   1      47.055  28.634  35.137  1.00  0.00     0.041 A 
ATOM     84  F   UNL A   1      45.900  29.905  33.544  1.00  0.00    -0.206 F 
ATOM     85  C   UNL A   1      47.089  27.588  36.053  1.00  0.00     0.022 A 
BRANCH  82  86
ATOM     86  S   UNL A   1      45.940  25.482  37.472  1.00  0.00     0.124 S 
ATOM     87  O   UNL A   1      45.229  26.155  38.555  1.00  0.00    -0.237 OA
ATOM     88  O   UNL A   1      45.219  24.396  36.815  1.00  0.00    -0.237 OA
ATOM     89  O   UNL A   1      47.355  25.218  37.728  1.00  0.00    -0.744 OA
ENDBRANCH  82  86
ENDBRANCH  56  79
ENDBRANCH  30  31
ENDBRANCH  22  25
ENDBRANCH  20  21
ENDBRANCH   1  20
TORSDOF 16
ENDMDL
MODEL 2
REMARK VINA RESULT:     -10.5      3.182      8.434
REMARK SMILES C[C@H](Sc1ccc(N)c(Cl)c1)C(=O)NCCCNC(=O)c1ccc(-c2c3nc(c(-c4cc(S(=O)(=O)[O-])ccc4F)c4ccc([nH]4)c(-c4cc(S(=O)(=O)[O-])ccc4F)c4nc(c(-c5cc(S(=O)(=O)[O-])ccc5F)c5ccc2[nH]5)C=C4)C=C3)cc1
REMARK SMILES IDX 16 1 15 2 14 3 12 4 13 5 2 7 1 8 3 9 4 10 5 11 11 12 6 13
REMARK SMILES IDX 9 14 7 15 10 16 8 17 17 20 18 21 19 22 20 24 21 25 22 26
REMARK SMILES IDX 83 27 23 28 82 29 24 30 25 31 26 32 76 33 27 34 81 35 75 36
REMARK SMILES IDX 77 37 28 38 80 39 74 40 73 41 29 43 61 44 41 45 60 46 42 47
REMARK SMILES IDX 45 48 59 49 78 50 43 51 44 52 58 54 79 55 46 56 30 57 31 58
REMARK SMILES IDX 39 59 32 60 38 61 40 62 37 63 33 64 34 65 35 66 36 67 62 68
REMARK SMILES IDX 63 69 71 70 64 71 70 72 72 73 69 74 65 75 66 76 67 77 68 78
REMARK SMILES IDX 47 79 48 80 56 81 49 82 55 83 57 84 54 85 50 86 51 87 52 88
REMARK SMILES IDX 53 89
REMARK H PARENT 14 6 8 18 8 19 18 23 77 42 45 53
REMARK Flexibility Score: inf
ROOT
ATOM      1  C   UNL A   1      32.124  28.025  26.910  1.00  0.00     0.042 C 
ENDROOT
BRANCH   1   2
ATOM      2  C   UNL A   1      32.037  26.755  26.073  1.00  0.00     0.117 C 
BRANCH   2   3
ATOM      3  N   UNL A   1      31.390  25.682  26.792  1.00  0.00    -0.355 N 
ATOM      4  C   UNL A   1      31.169  24.389  26.435  1.00  0.00     0.233 C 
ATOM      5  O   UNL A   1      30.525  23.705  27.240  1.00  0.00    -0.274 OA
ATOM      6  H   UNL A   1      31.056  25.927  27.685  1.00  0.00     0.163 HD
BRANCH   4   7
ATOM      7  C   UNL A   1      31.746  23.745  25.169  1.00  0.00     0.137 C 
ATOM      8  C   UNL A   1      30.891  23.925  23.926  1.00  0.00     0.030 C 
BRANCH   7   9
ATOM      9  S   UNL A   1      32.637  22.158  25.459  1.00  0.00    -0.113 SA
BRANCH   9  10
ATOM     10  C   UNL A   1      34.399  22.414  25.549  1.00  0.00     0.010 A 
ATOM     11  C   UNL A   1      35.048  23.566  25.990  1.00  0.00     0.017 A 
ATOM     12  C   UNL A   1      35.199  21.313  25.208  1.00  0.00     0.037 A 
ATOM     13  C   UNL A   1      36.447  23.675  25.947  1.00  0.00     0.028 A 
ATOM     14  C   UNL A   1      36.596  21.404  25.211  1.00  0.00     0.065 A 
ATOM     15  C   UNL A   1      37.240  22.611  25.515  1.00  0.00     0.050 A 
ATOM     16  Cl  UNL A   1      37.514  19.996  24.799  1.00  0.00    -0.082 Cl
BRANCH  15  17
ATOM     17  N   UNL A   1      38.626  22.735  25.536  1.00  0.00    -0.398 N 
ATOM     18  H   UNL A   1      39.047  23.589  25.288  1.00  0.00     0.156 HD
ATOM     19  H   UNL A   1      39.184  21.968  25.800  1.00  0.00     0.156 HD
ENDBRANCH  15  17
ENDBRANCH   9  10
ENDBRANCH   7   9
ENDBRANCH   4   7
ENDBRANCH   2   3
ENDBRANCH   1   2
BRANCH   1  20
ATOM     20  C   UNL A   1      33.549  28.535  27.066  1.00  0.00     0.118 C 
BRANCH  20  21
ATOM     21  N   UNL A   1      33.580  29.968  27.342  1.00  0.00    -0.352 N 
ATOM     22  C   UNL A   1      34.497  30.714  28.042  1.00  0.00     0.251 C 
ATOM     23  H   UNL A   1      32.827  30.479  26.969  1.00  0.00     0.163 HD
ATOM     24  O   UNL A   1      34.203  31.855  28.383  1.00  0.00    -0.269 OA
BRANCH  22  25
ATOM     25  C   UNL A   1      35.815  30.141  28.394  1.00  0.00     0.039 A 
ATOM     26  C   UNL A   1      36.866  30.243  27.479  1.00  0.00     0.014 A 
ATOM     27  C   UNL A   1      36.011  29.490  29.614  1.00  0.00     0.014 A 
ATOM     28  C   UNL A   1      38.129  29.752  27.818  1.00  0.00     0.010 A 
ATOM     29  C   UNL A   1      37.288  29.088  29.988  1.00  0.00     0.010 A 
ATOM     30  C   UNL A   1      38.361  29.209  29.092  1.00  0.00    -0.014 A 
BRANCH  30  31
ATOM     31  C   UNL A   1      39.710  28.748  29.510  1.00  0.00     0.031 A 
ATOM     32  C   UNL A   1      40.454  29.486  30.589  1.00  0.00     0.074 A 
ATOM     33  C   UNL A   1      40.292  27.718  28.864  1.00  0.00     0.049 A 
ATOM     34  N   UNL A   1      41.678  29.317  31.017  1.00  0.00    -0.248 NA
ATOM     35  C   UNL A   1      39.733  30.584  31.253  1.00  0.00     0.031 C 
ATOM     36  C   UNL A   1      39.683  26.948  27.776  1.00  0.00     0.029 A 
ATOM     37  N   UNL A   1      41.530  27.146  29.018  1.00  0.00    -0.354 N 
ATOM     38  C   UNL A   1      41.880  30.295  31.984  1.00  0.00     0.074 A 
ATOM     39  C   UNL A   1      40.675  31.094  32.031  1.00  0.00     0.031 C 
ATOM     40  C   UNL A   1      40.536  25.992  27.381  1.00  0.00     0.029 A 
ATOM     41  C   UNL A   1      41.776  26.113  28.142  1.00  0.00     0.049 A 
ATOM     42  H   UNL A   1      42.182  27.446  29.692  1.00  0.00     0.167 HD
ATOM     43  C   UNL A   1      42.964  30.494  32.776  1.00  0.00     0.034 A 
ATOM     44  C   UNL A   1      42.882  25.364  27.957  1.00  0.00     0.034 A 
ATOM     45  C   UNL A   1      44.152  29.678  32.720  1.00  0.00     0.049 A 
ATOM     46  C   UNL A   1      44.089  25.629  28.822  1.00  0.00     0.074 A 
ATOM     47  C   UNL A   1      45.286  29.753  33.510  1.00  0.00     0.029 A 
ATOM     48  N   UNL A   1      44.365  28.643  31.817  1.00  0.00    -0.354 N 
ATOM     49  N   UNL A   1      44.248  26.529  29.766  1.00  0.00    -0.248 NA
ATOM     50  C   UNL A   1      45.263  24.775  28.601  1.00  0.00     0.031 C 
ATOM     51  C   UNL A   1      46.213  28.820  33.034  1.00  0.00     0.029 A 
ATOM     52  C   UNL A   1      45.626  28.098  32.008  1.00  0.00     0.049 A 
ATOM     53  H   UNL A   1      43.716  28.341  31.142  1.00  0.00     0.167 HD
ATOM     54  C   UNL A   1      45.528  26.322  30.275  1.00  0.00     0.074 A 
ATOM     55  C   UNL A   1      46.091  25.208  29.541  1.00  0.00     0.031 C 
ATOM     56  C   UNL A   1      46.176  26.989  31.264  1.00  0.00     0.034 A 
BRANCH  43  57
ATOM     57  C   UNL A   1      42.917  31.652  33.745  1.00  0.00     0.023 A 
ATOM     58  C   UNL A   1      42.505  31.485  35.080  1.00  0.00     0.031 A 
ATOM     59  C   UNL A   1      43.269  32.947  33.326  1.00  0.00     0.131 A 
ATOM     60  C   UNL A   1      42.376  32.601  35.920  1.00  0.00     0.055 A 
ATOM     61  C   UNL A   1      43.225  34.041  34.193  1.00  0.00     0.041 A 
ATOM     62  F   UNL A   1      43.649  33.176  32.059  1.00  0.00    -0.206 F 
ATOM     63  C   UNL A   1      42.761  33.874  35.494  1.00  0.00     0.022 A 
BRANCH  60  64
ATOM     64  S   UNL A   1      41.555  32.387  37.522  1.00  0.00     0.124 S 
ATOM     65  O   UNL A   1      42.334  31.299  38.110  1.00  0.00    -0.237 OA
ATOM     66  O   UNL A   1      41.721  33.697  38.140  1.00  0.00    -0.237 OA
ATOM     67  O   UNL A   1      40.184  32.036  37.161  1.00  0.00    -0.744 OA
ENDBRANCH  60  64
ENDBRANCH  43  57
BRANCH  44  68
ATOM     68  C   UNL A   1      42.912  24.305  26.907  1.00  0.00     0.023 A 
ATOM     69  C   UNL A   1      42.280  23.068  27.109  1.00  0.00     0.031 A 
ATOM     70  C   UNL A   1      43.610  24.497  25.701  1.00  0.00     0.131 A 
ATOM     71  C   UNL A   1      42.400  22.053  26.146  1.00  0.00     0.055 A 
ATOM     72  C   UNL A   1      43.675  23.507  24.719  1.00  0.00     0.041 A 
ATOM     73  F   UNL A   1      44.232  25.661  25.454  1.00  0.00    -0.206 F 
ATOM     74  C   UNL A   1      43.079  22.271  24.945  1.00  0.00     0.022 A 
BRANCH  71  75
ATOM     75  S   UNL A   1      41.737  20.409  26.531  1.00  0.00     0.124 S 
ATOM     76  O   UNL A   1      42.203  19.629  25.390  1.00  0.00    -0.237 OA
ATOM     77  O   UNL A   1      42.374  20.118  27.811  1.00  0.00    -0.237 OA
ATOM     78  O   UNL A   1      40.294  20.630  26.589  1.00  0.00    -0.744 OA
ENDBRANCH  71  75
ENDBRANCH  44  68
BRANCH  56  79
ATOM     79  C   UNL A   1      47.550  26.492  31.647  1.00  0.00     0.023 A 
ATOM     80  C   UNL A   1      48.718  27.002  31.055  1.00  0.00     0.031 A 
ATOM     81  C   UNL A   1      47.686  25.495  32.631  1.00  0.00     0.131 A 
ATOM     82  C   UNL A   1      49.969  26.481  31.419  1.00  0.00     0.055 A 
ATOM     83  C   UNL A   1      48.937  25.027  33.034  1.00  0.00     0.041 A 
ATOM     84  F   UNL A   1      46.603  24.969  33.225  1.00  0.00    -0.206 F 
ATOM     85  C   UNL A   1      50.086  25.511  32.419  1.00  0.00     0.022 A 
BRANCH  82  86
ATOM     86  S   UNL A   1      51.439  27.025  30.508  1.00  0.00     0.124 S 
ATOM     87  O   UNL A   1      50.888  27.313  29.188  1.00  0.00    -0.237 OA
ATOM     88  O   UNL A   1      51.876  28.183  31.282  1.00  0.00    -0.237 OA
ATOM     89  O   UNL A   1      52.329  25.867  30.570  1.00  0.00    -0.744 OA
ENDBRANCH  82  86
ENDBRANCH  56  79
ENDBRANCH  30  31
ENDBRANCH  22  25
ENDBRANCH  20  21
ENDBRANCH   1  20
TORSDOF 16
ENDMDL
MODEL 3
REMARK VINA RESULT:     -10.5      2.044      2.940
REMARK SMILES C[C@H](Sc1ccc(N)c(Cl)c1)C(=O)NCCCNC(=O)c1ccc(-c2c3nc(c(-c4cc(S(=O)(=O)[O-])ccc4F)c4ccc([nH]4)c(-c4cc(S(=O)(=O)[O-])ccc4F)c4nc(c(-c5cc(S(=O)(=O)[O-])ccc5F)c5ccc2[nH]5)C=C4)C=C3)cc1
REMARK SMILES IDX 16 1 15 2 14 3 12 4 13 5 2 7 1 8 3 9 4 10 5 11 11 12 6 13
REMARK SMILES IDX 9 14 7 15 10 16 8 17 17 20 18 21 19 22 20 24 21 25 22 26
REMARK SMILES IDX 83 27 23 28 82 29 24 30 25 31 26 32 76 33 27 34 81 35 75 36
REMARK SMILES IDX 77 37 28 38 80 39 74 40 73 41 29 43 61 44 41 45 60 46 42 47
REMARK SMILES IDX 45 48 59 49 78 50 43 51 44 52 58 54 79 55 46 56 30 57 31 58
REMARK SMILES IDX 39 59 32 60 38 61 40 62 37 63 33 64 34 65 35 66 36 67 62 68
REMARK SMILES IDX 63 69 71 70 64 71 70 72 72 73 69 74 65 75 66 76 67 77 68 78
REMARK SMILES IDX 47 79 48 80 56 81 49 82 55 83 57 84 54 85 50 86 51 87 52 88
REMARK SMILES IDX 53 89
REMARK H PARENT 14 6 8 18 8 19 18 23 77 42 45 53
REMARK Flexibility Score: inf
ROOT
ATOM      1  C   UNL A   1      31.803  28.092  26.306  1.00  0.00     0.042 C 
ENDROOT
BRANCH   1   2
ATOM      2  C   UNL A   1      32.349  26.673  26.201  1.00  0.00     0.117 C 
BRANCH   2   3
ATOM      3  N   UNL A   1      31.489  25.718  26.859  1.00  0.00    -0.355 N 
ATOM      4  C   UNL A   1      31.161  24.444  26.515  1.00  0.00     0.233 C 
ATOM      5  O   UNL A   1      30.340  23.877  27.247  1.00  0.00    -0.274 OA
ATOM      6  H   UNL A   1      31.074  26.041  27.690  1.00  0.00     0.163 HD
BRANCH   4   7
ATOM      7  C   UNL A   1      31.816  23.679  25.359  1.00  0.00     0.137 C 
ATOM      8  C   UNL A   1      33.329  23.576  25.450  1.00  0.00     0.030 C 
BRANCH   7   9
ATOM      9  S   UNL A   1      31.000  23.922  23.724  1.00  0.00    -0.113 SA
BRANCH   9  10
ATOM     10  C   UNL A   1      31.181  25.603  23.157  1.00  0.00     0.010 A 
ATOM     11  C   UNL A   1      32.296  26.149  22.523  1.00  0.00     0.017 A 
ATOM     12  C   UNL A   1      30.055  26.426  23.306  1.00  0.00     0.037 A 
ATOM     13  C   UNL A   1      32.347  27.511  22.187  1.00  0.00     0.028 A 
ATOM     14  C   UNL A   1      30.087  27.774  22.925  1.00  0.00     0.065 A 
ATOM     15  C   UNL A   1      31.259  28.354  22.423  1.00  0.00     0.050 A 
ATOM     16  Cl  UNL A   1      28.651  28.719  23.121  1.00  0.00    -0.082 Cl
BRANCH  15  17
ATOM     17  N   UNL A   1      31.325  29.686  22.027  1.00  0.00    -0.398 N 
ATOM     18  H   UNL A   1      31.584  29.914  21.105  1.00  0.00     0.156 HD
ATOM     19  H   UNL A   1      31.112  30.400  22.670  1.00  0.00     0.156 HD
ENDBRANCH  15  17
ENDBRANCH   9  10
ENDBRANCH   7   9
ENDBRANCH   4   7
ENDBRANCH   2   3
ENDBRANCH   1   2
BRANCH   1  20
ATOM     20  C   UNL A   1      32.704  29.123  25.641  1.00  0.00     0.118 C 
BRANCH  20  21
ATOM     21  N   UNL A   1      32.307  30.485  25.985  1.00  0.00    -0.352 N 
ATOM     22  C   UNL A   1      32.797  31.331  26.949  1.00  0.00     0.251 C 
ATOM     23  H   UNL A   1      31.573  30.853  25.443  1.00  0.00     0.163 HD
ATOM     24  O   UNL A   1      32.153  32.330  27.251  1.00  0.00    -0.269 OA
BRANCH  22  25
ATOM     25  C   UNL A   1      34.079  31.033  27.625  1.00  0.00     0.039 A 
ATOM     26  C   UNL A   1      34.935  32.087  27.957  1.00  0.00     0.014 A 
ATOM     27  C   UNL A   1      34.448  29.717  27.914  1.00  0.00     0.014 A 
ATOM     28  C   UNL A   1      36.124  31.823  28.640  1.00  0.00     0.010 A 
ATOM     29  C   UNL A   1      35.583  29.466  28.676  1.00  0.00     0.010 A 
ATOM     30  C   UNL A   1      36.438  30.515  29.042  1.00  0.00    -0.014 A 
BRANCH  30  31
ATOM     31  C   UNL A   1      37.658  30.215  29.836  1.00  0.00     0.031 A 
ATOM     32  C   UNL A   1      38.721  29.316  29.265  1.00  0.00     0.074 A 
ATOM     33  C   UNL A   1      37.768  30.686  31.093  1.00  0.00     0.049 A 
ATOM     34  N   UNL A   1      39.798  28.841  29.834  1.00  0.00    -0.248 NA
ATOM     35  C   UNL A   1      38.526  28.864  27.877  1.00  0.00     0.031 C 
ATOM     36  C   UNL A   1      36.784  31.538  31.767  1.00  0.00     0.029 A 
ATOM     37  N   UNL A   1      38.750  30.509  32.036  1.00  0.00    -0.354 N 
ATOM     38  C   UNL A   1      40.399  28.023  28.883  1.00  0.00     0.074 A 
ATOM     39  C   UNL A   1      39.530  28.015  27.726  1.00  0.00     0.031 C 
ATOM     40  C   UNL A   1      37.224  31.829  33.000  1.00  0.00     0.029 A 
ATOM     41  C   UNL A   1      38.490  31.140  33.231  1.00  0.00     0.049 A 
ATOM     42  H   UNL A   1      39.564  29.981  31.872  1.00  0.00     0.167 HD
ATOM     43  C   UNL A   1      41.580  27.358  28.961  1.00  0.00     0.034 A 
ATOM     44  C   UNL A   1      39.182  31.145  34.388  1.00  0.00     0.034 A 
ATOM     45  C   UNL A   1      42.435  27.388  30.121  1.00  0.00     0.049 A 
ATOM     46  C   UNL A   1      40.471  30.365  34.465  1.00  0.00     0.074 A 
ATOM     47  C   UNL A   1      43.676  26.799  30.291  1.00  0.00     0.029 A 
ATOM     48  N   UNL A   1      42.137  28.035  31.315  1.00  0.00    -0.354 N 
ATOM     49  N   UNL A   1      41.051  29.634  33.541  1.00  0.00    -0.248 NA
ATOM     50  C   UNL A   1      41.202  30.417  35.738  1.00  0.00     0.031 C 
ATOM     51  C   UNL A   1      44.090  27.021  31.608  1.00  0.00     0.029 A 
ATOM     52  C   UNL A   1      43.153  27.827  32.235  1.00  0.00     0.049 A 
ATOM     53  H   UNL A   1      41.324  28.564  31.482  1.00  0.00     0.167 HD
ATOM     54  C   UNL A   1      42.234  29.169  34.112  1.00  0.00     0.074 A 
ATOM     55  C   UNL A   1      42.287  29.712  35.453  1.00  0.00     0.031 C 
ATOM     56  C   UNL A   1      43.191  28.372  33.572  1.00  0.00     0.034 A 
BRANCH  43  57
ATOM     57  C   UNL A   1      41.991  26.525  27.770  1.00  0.00     0.023 A 
ATOM     58  C   UNL A   1      41.752  25.140  27.716  1.00  0.00     0.031 A 
ATOM     59  C   UNL A   1      42.653  27.118  26.680  1.00  0.00     0.131 A 
ATOM     60  C   UNL A   1      42.240  24.385  26.639  1.00  0.00     0.055 A 
ATOM     61  C   UNL A   1      43.057  26.375  25.569  1.00  0.00     0.041 A 
ATOM     62  F   UNL A   1      42.931  28.432  26.681  1.00  0.00    -0.206 F 
ATOM     63  C   UNL A   1      42.866  24.997  25.551  1.00  0.00     0.022 A 
BRANCH  60  64
ATOM     64  S   UNL A   1      42.182  22.576  26.756  1.00  0.00     0.124 S 
ATOM     65  O   UNL A   1      41.077  22.376  27.692  1.00  0.00    -0.237 OA
ATOM     66  O   UNL A   1      41.929  22.178  25.376  1.00  0.00    -0.237 OA
ATOM     67  O   UNL A   1      43.500  22.223  27.276  1.00  0.00    -0.744 OA
ENDBRANCH  60  64
ENDBRANCH  43  57
BRANCH  44  68
ATOM     68  C   UNL A   1      38.671  31.895  35.573  1.00  0.00     0.023 A 
ATOM     69  C   UNL A   1      38.155  31.219  36.688  1.00  0.00     0.031 A 
ATOM     70  C   UNL A   1      38.652  33.302  35.588  1.00  0.00     0.131 A 
ATOM     71  C   UNL A   1      37.595  31.946  37.751  1.00  0.00     0.055 A 
ATOM     72  C   UNL A   1      38.150  34.022  36.674  1.00  0.00     0.041 A 
ATOM     73  F   UNL A   1      39.134  34.000  34.548  1.00  0.00    -0.206 F 
ATOM     74  C   UNL A   1      37.604  33.343  37.759  1.00  0.00     0.022 A 
BRANCH  71  75
ATOM     75  S   UNL A   1      36.763  31.036  39.082  1.00  0.00     0.124 S 
ATOM     76  O   UNL A   1      36.646  29.704  38.501  1.00  0.00    -0.237 OA
ATOM     77  O   UNL A   1      37.711  31.175  40.182  1.00  0.00    -0.237 OA
ATOM     78  O   UNL A   1      35.504  31.757  39.251  1.00  0.00    -0.744 OA
ENDBRANCH  71  75
ENDBRANCH  44  68
BRANCH  56  79
ATOM     79  C   UNL A   1      44.407  28.084  34.419  1.00  0.00     0.023 A 
ATOM     80  C   UNL A   1      44.471  26.973  35.278  1.00  0.00     0.031 A 
ATOM     81  C   UNL A   1      45.526  28.936  34.354  1.00  0.00     0.131 A 
ATOM     82  C   UNL A   1      45.610  26.770  36.072  1.00  0.00     0.055 A 
ATOM     83  C   UNL A   1      46.680  28.692  35.098  1.00  0.00     0.041 A 
ATOM     84  F   UNL A   1      45.517  30.014  33.553  1.00  0.00    -0.206 F 
ATOM     85  C   UNL A   1      46.722  27.611  35.972  1.00  0.00     0.022 A 
BRANCH  82  86
ATOM     86  S   UNL A   1      45.590  25.440  37.304  1.00  0.00     0.124 S 
ATOM     87  O   UNL A   1      46.945  24.908  37.197  1.00  0.00    -0.237 OA
ATOM     88  O   UNL A   1      45.283  26.159  38.536  1.00  0.00    -0.237 OA
ATOM     89  O   UNL A   1      44.534  24.547  36.828  1.00  0.00    -0.744 OA
ENDBRANCH  82  86
ENDBRANCH  56  79
ENDBRANCH  30  31
ENDBRANCH  22  25
ENDBRANCH  20  21
ENDBRANCH   1  20
TORSDOF 16
ENDMDL
