MODEL 1
REMARK VINA RESULT:     -12.7      0.000      0.000
REMARK SMILES CC1=C2C(=O)CC(C)(C)CC2=N[C@@H]1C(=O)NCCCNC(=O)c1ccc(-c2c3nc(c(-c4cc(S(=O)(=O)[O-])ccc4F)c4ccc([nH]4)c(-c4cc(S(=O)(=O)[O-])ccc4F)c4nc(c(-c5cc(S(=O)(=O)[O-])ccc5F)c5ccc2[nH]5)C=C4)C=C3)cc1
REMARK SMILES IDX 20 1 21 2 22 3 19 5 18 6 17 7 16 8 14 9 15 10 13 12 1 13
REMARK SMILES IDX 2 14 3 15 4 16 11 17 12 18 5 19 6 20 10 21 7 22 8 23 9 24
REMARK SMILES IDX 23 25 24 26 85 27 25 28 84 29 26 30 27 31 28 32 78 33 29 34
REMARK SMILES IDX 83 35 77 36 79 37 30 38 82 39 76 40 75 41 31 43 63 44 43 45
REMARK SMILES IDX 62 46 44 47 47 48 61 49 80 50 45 51 46 52 60 54 81 55 48 56
REMARK SMILES IDX 32 57 33 58 41 59 34 60 40 61 42 62 39 63 35 64 36 65 37 66
REMARK SMILES IDX 38 67 64 68 65 69 73 70 66 71 72 72 74 73 71 74 67 75 68 76
REMARK SMILES IDX 69 77 70 78 49 79 50 80 58 81 51 82 57 83 59 84 56 85 52 86
REMARK SMILES IDX 53 87 54 88 55 89
REMARK H PARENT 20 4 16 11 79 42 47 53
REMARK Flexibility Score: inf
ROOT
ATOM      1  N   UNL A   1      34.649  32.190  28.872  1.00  0.00    -0.352 N 
ATOM      2  C   UNL A   1      35.448  31.942  29.973  1.00  0.00     0.251 C 
ATOM      3  O   UNL A   1      35.123  32.371  31.066  1.00  0.00    -0.269 OA
ATOM      4  H   UNL A   1      34.013  32.937  28.964  1.00  0.00     0.163 HD
ENDROOT
BRANCH   1   5
ATOM      5  C   UNL A   1      34.625  31.490  27.594  1.00  0.00     0.118 C 
BRANCH   5   6
ATOM      6  C   UNL A   1      33.472  30.498  27.496  1.00  0.00     0.042 C 
BRANCH   6   7
ATOM      7  C   UNL A   1      33.967  29.078  27.212  1.00  0.00     0.117 C 
BRANCH   7   8
ATOM      8  N   UNL A   1      32.860  28.133  27.182  1.00  0.00    -0.354 N 
ATOM      9  C   UNL A   1      32.464  27.314  26.155  1.00  0.00     0.249 C 
ATOM     10  O   UNL A   1      31.454  26.622  26.290  1.00  0.00    -0.272 OA
ATOM     11  H   UNL A   1      32.325  28.075  28.007  1.00  0.00     0.163 HD
BRANCH   9  12
ATOM     12  C   UNL A   1      33.391  27.213  24.918  1.00  0.00     0.221 C 
ATOM     13  C   UNL A   1      31.527  27.638  23.104  1.00  0.00     0.043 C 
ATOM     14  C   UNL A   1      32.733  26.920  23.593  1.00  0.00    -0.027 C 
ATOM     15  C   UNL A   1      33.287  25.840  23.038  1.00  0.00     0.040 C 
ATOM     16  C   UNL A   1      33.115  25.075  21.796  1.00  0.00     0.165 C 
ATOM     17  C   UNL A   1      33.821  25.216  24.238  1.00  0.00     0.048 C 
ATOM     18  N   UNL A   1      34.203  25.986  25.211  1.00  0.00    -0.271 NA
ATOM     19  O   UNL A   1      33.232  25.620  20.700  1.00  0.00    -0.294 OA
ATOM     20  C   UNL A   1      32.932  23.573  21.944  1.00  0.00     0.088 C 
ATOM     21  C   UNL A   1      33.719  23.725  24.357  1.00  0.00     0.063 C 
ATOM     22  C   UNL A   1      32.620  23.160  23.404  1.00  0.00    -0.023 C 
ATOM     23  C   UNL A   1      31.183  23.637  23.753  1.00  0.00     0.012 C 
ATOM     24  C   UNL A   1      32.624  21.630  23.546  1.00  0.00     0.012 C 
ENDBRANCH   9  12
ENDBRANCH   7   8
ENDBRANCH   6   7
ENDBRANCH   5   6
ENDBRANCH   1   5
BRANCH   2  25
ATOM     25  C   UNL A   1      36.680  31.139  29.807  1.00  0.00     0.039 A 
ATOM     26  C   UNL A   1      37.925  31.770  29.773  1.00  0.00     0.014 A 
ATOM     27  C   UNL A   1      36.589  29.752  29.684  1.00  0.00     0.014 A 
ATOM     28  C   UNL A   1      39.078  30.991  29.704  1.00  0.00     0.010 A 
ATOM     29  C   UNL A   1      37.728  28.976  29.719  1.00  0.00     0.010 A 
ATOM     30  C   UNL A   1      38.978  29.588  29.709  1.00  0.00    -0.014 A 
BRANCH  30  31
ATOM     31  C   UNL A   1      40.179  28.772  29.886  1.00  0.00     0.031 A 
ATOM     32  C   UNL A   1      40.521  28.499  31.310  1.00  0.00     0.074 A 
ATOM     33  C   UNL A   1      40.828  28.128  28.891  1.00  0.00     0.049 A 
ATOM     34  N   UNL A   1      41.542  28.936  31.967  1.00  0.00    -0.248 NA
ATOM     35  C   UNL A   1      39.541  27.793  32.151  1.00  0.00     0.031 C 
ATOM     36  C   UNL A   1      40.462  28.046  27.477  1.00  0.00     0.029 A 
ATOM     37  N   UNL A   1      41.911  27.301  28.967  1.00  0.00    -0.354 N 
ATOM     38  C   UNL A   1      41.467  28.368  33.234  1.00  0.00     0.074 A 
ATOM     39  C   UNL A   1      40.128  27.852  33.347  1.00  0.00     0.031 C 
ATOM     40  C   UNL A   1      41.150  27.038  26.891  1.00  0.00     0.029 A 
ATOM     41  C   UNL A   1      42.107  26.500  27.843  1.00  0.00     0.049 A 
ATOM     42  H   UNL A   1      42.505  27.272  29.751  1.00  0.00     0.167 HD
ATOM     43  C   UNL A   1      42.589  28.179  33.985  1.00  0.00     0.034 A 
ATOM     44  C   UNL A   1      42.962  25.447  27.712  1.00  0.00     0.034 A 
ATOM     45  C   UNL A   1      43.693  28.955  33.456  1.00  0.00     0.049 A 
ATOM     46  C   UNL A   1      44.030  25.643  28.729  1.00  0.00     0.074 A 
ATOM     47  C   UNL A   1      43.876  30.298  33.178  1.00  0.00     0.029 A 
ATOM     48  N   UNL A   1      44.674  28.299  32.742  1.00  0.00    -0.354 N 
ATOM     49  N   UNL A   1      44.873  26.641  28.693  1.00  0.00    -0.248 NA
ATOM     50  C   UNL A   1      43.839  25.045  30.042  1.00  0.00     0.031 C 
ATOM     51  C   UNL A   1      44.558  30.316  31.927  1.00  0.00     0.029 A 
ATOM     52  C   UNL A   1      44.856  28.998  31.574  1.00  0.00     0.049 A 
ATOM     53  H   UNL A   1      45.153  27.483  33.016  1.00  0.00     0.167 HD
ATOM     54  C   UNL A   1      44.962  27.080  30.006  1.00  0.00     0.074 A 
ATOM     55  C   UNL A   1      44.378  26.002  30.804  1.00  0.00     0.031 C 
ATOM     56  C   UNL A   1      45.229  28.388  30.309  1.00  0.00     0.034 A 
BRANCH  43  57
ATOM     57  C   UNL A   1      42.816  27.036  34.955  1.00  0.00     0.023 A 
ATOM     58  C   UNL A   1      43.613  25.967  34.500  1.00  0.00     0.031 A 
ATOM     59  C   UNL A   1      42.082  26.787  36.135  1.00  0.00     0.131 A 
ATOM     60  C   UNL A   1      43.543  24.701  35.103  1.00  0.00     0.055 A 
ATOM     61  C   UNL A   1      42.075  25.544  36.778  1.00  0.00     0.041 A 
ATOM     62  F   UNL A   1      41.267  27.690  36.691  1.00  0.00    -0.206 F 
ATOM     63  C   UNL A   1      42.775  24.479  36.240  1.00  0.00     0.022 A 
BRANCH  60  64
ATOM     64  S   UNL A   1      44.316  23.307  34.243  1.00  0.00     0.124 S 
ATOM     65  O   UNL A   1      43.299  22.986  33.246  1.00  0.00    -0.237 OA
ATOM     66  O   UNL A   1      45.546  23.910  33.739  1.00  0.00    -0.237 OA
ATOM     67  O   UNL A   1      44.494  22.315  35.299  1.00  0.00    -0.744 OA
ENDBRANCH  60  64
ENDBRANCH  43  57
BRANCH  44  68
ATOM     68  C   UNL A   1      42.730  24.167  26.973  1.00  0.00     0.023 A 
ATOM     69  C   UNL A   1      43.684  23.581  26.108  1.00  0.00     0.031 A 
ATOM     70  C   UNL A   1      41.613  23.362  27.301  1.00  0.00     0.131 A 
ATOM     71  C   UNL A   1      43.495  22.263  25.615  1.00  0.00     0.055 A 
ATOM     72  C   UNL A   1      41.430  22.068  26.808  1.00  0.00     0.041 A 
ATOM     73  F   UNL A   1      40.693  23.773  28.187  1.00  0.00    -0.206 F 
ATOM     74  C   UNL A   1      42.376  21.508  25.969  1.00  0.00     0.022 A 
BRANCH  71  75
ATOM     75  S   UNL A   1      44.758  21.457  24.570  1.00  0.00     0.124 S 
ATOM     76  O   UNL A   1      44.660  22.210  23.326  1.00  0.00    -0.237 OA
ATOM     77  O   UNL A   1      45.977  21.641  25.348  1.00  0.00    -0.237 OA
ATOM     78  O   UNL A   1      44.295  20.070  24.483  1.00  0.00    -0.744 OA
ENDBRANCH  71  75
ENDBRANCH  44  68
BRANCH  56  79
ATOM     79  C   UNL A   1      45.734  29.325  29.229  1.00  0.00     0.023 A 
ATOM     80  C   UNL A   1      44.925  30.145  28.409  1.00  0.00     0.031 A 
ATOM     81  C   UNL A   1      47.130  29.494  29.135  1.00  0.00     0.131 A 
ATOM     82  C   UNL A   1      45.522  31.085  27.543  1.00  0.00     0.055 A 
ATOM     83  C   UNL A   1      47.715  30.442  28.299  1.00  0.00     0.041 A 
ATOM     84  F   UNL A   1      47.958  28.760  29.897  1.00  0.00    -0.206 F 
ATOM     85  C   UNL A   1      46.913  31.240  27.494  1.00  0.00     0.022 A 
BRANCH  82  86
ATOM     86  S   UNL A   1      44.507  32.118  26.436  1.00  0.00     0.124 S 
ATOM     87  O   UNL A   1      45.439  32.518  25.389  1.00  0.00    -0.237 OA
ATOM     88  O   UNL A   1      43.444  31.200  26.033  1.00  0.00    -0.237 OA
ATOM     89  O   UNL A   1      44.065  33.212  27.305  1.00  0.00    -0.744 OA
ENDBRANCH  82  86
ENDBRANCH  56  79
ENDBRANCH  30  31
ENDBRANCH   2  25
TORSDOF 13
ENDMDL
MODEL 2
REMARK VINA RESULT:     -12.6      1.657      2.254
REMARK SMILES CC1=C2C(=O)CC(C)(C)CC2=N[C@@H]1C(=O)NCCCNC(=O)c1ccc(-c2c3nc(c(-c4cc(S(=O)(=O)[O-])ccc4F)c4ccc([nH]4)c(-c4cc(S(=O)(=O)[O-])ccc4F)c4nc(c(-c5cc(S(=O)(=O)[O-])ccc5F)c5ccc2[nH]5)C=C4)C=C3)cc1
REMARK SMILES IDX 20 1 21 2 22 3 19 5 18 6 17 7 16 8 14 9 15 10 13 12 1 13
REMARK SMILES IDX 2 14 3 15 4 16 11 17 12 18 5 19 6 20 10 21 7 22 8 23 9 24
REMARK SMILES IDX 23 25 24 26 85 27 25 28 84 29 26 30 27 31 28 32 78 33 29 34
REMARK SMILES IDX 83 35 77 36 79 37 30 38 82 39 76 40 75 41 31 43 63 44 43 45
REMARK SMILES IDX 62 46 44 47 47 48 61 49 80 50 45 51 46 52 60 54 81 55 48 56
REMARK SMILES IDX 32 57 33 58 41 59 34 60 40 61 42 62 39 63 35 64 36 65 37 66
REMARK SMILES IDX 38 67 64 68 65 69 73 70 66 71 72 72 74 73 71 74 67 75 68 76
REMARK SMILES IDX 69 77 70 78 49 79 50 80 58 81 51 82 57 83 59 84 56 85 52 86
REMARK SMILES IDX 53 87 54 88 55 89
REMARK H PARENT 20 4 16 11 79 42 47 53
REMARK Flexibility Score: inf
ROOT
ATOM      1  N   UNL A   1      33.959  32.065  28.483  1.00  0.00    -0.352 N 
ATOM      2  C   UNL A   1      34.816  31.960  29.563  1.00  0.00     0.251 C 
ATOM      3  O   UNL A   1      34.494  32.435  30.638  1.00  0.00    -0.269 OA
ATOM      4  H   UNL A   1      33.266  32.761  28.551  1.00  0.00     0.163 HD
ENDROOT
BRANCH   1   5
ATOM      5  C   UNL A   1      33.950  31.278  27.255  1.00  0.00     0.118 C 
BRANCH   5   6
ATOM      6  C   UNL A   1      32.806  30.272  27.219  1.00  0.00     0.042 C 
BRANCH   6   7
ATOM      7  C   UNL A   1      31.958  30.422  25.952  1.00  0.00     0.117 C 
BRANCH   7   8
ATOM      8  N   UNL A   1      32.576  29.738  24.825  1.00  0.00    -0.354 N 
ATOM      9  C   UNL A   1      32.289  28.495  24.319  1.00  0.00     0.249 C 
ATOM     10  O   UNL A   1      32.967  28.050  23.391  1.00  0.00    -0.272 OA
ATOM     11  H   UNL A   1      33.294  30.232  24.366  1.00  0.00     0.163 HD
BRANCH   9  12
ATOM     12  C   UNL A   1      31.037  27.767  24.867  1.00  0.00     0.221 C 
ATOM     13  C   UNL A   1      32.148  26.875  27.084  1.00  0.00     0.043 C 
ATOM     14  C   UNL A   1      31.269  26.693  25.900  1.00  0.00    -0.027 C 
ATOM     15  C   UNL A   1      30.714  25.547  25.499  1.00  0.00     0.040 C 
ATOM     16  C   UNL A   1      30.578  24.186  26.033  1.00  0.00     0.165 C 
ATOM     17  C   UNL A   1      30.680  25.800  24.067  1.00  0.00     0.048 C 
ATOM     18  N   UNL A   1      30.532  27.025  23.665  1.00  0.00    -0.271 NA
ATOM     19  O   UNL A   1      30.046  23.988  27.123  1.00  0.00    -0.294 OA
ATOM     20  C   UNL A   1      30.996  23.051  25.112  1.00  0.00     0.088 C 
ATOM     21  C   UNL A   1      31.010  24.664  23.146  1.00  0.00     0.063 C 
ATOM     22  C   UNL A   1      31.811  23.551  23.893  1.00  0.00    -0.023 C 
ATOM     23  C   UNL A   1      33.207  24.015  24.393  1.00  0.00     0.012 C 
ATOM     24  C   UNL A   1      32.055  22.407  22.898  1.00  0.00     0.012 C 
ENDBRANCH   9  12
ENDBRANCH   7   8
ENDBRANCH   6   7
ENDBRANCH   5   6
ENDBRANCH   1   5
BRANCH   2  25
ATOM     25  C   UNL A   1      36.105  31.252  29.400  1.00  0.00     0.039 A 
ATOM     26  C   UNL A   1      37.289  31.980  29.263  1.00  0.00     0.014 A 
ATOM     27  C   UNL A   1      36.129  29.857  29.381  1.00  0.00     0.014 A 
ATOM     28  C   UNL A   1      38.501  31.296  29.198  1.00  0.00     0.010 A 
ATOM     29  C   UNL A   1      37.332  29.183  29.420  1.00  0.00     0.010 A 
ATOM     30  C   UNL A   1      38.523  29.894  29.309  1.00  0.00    -0.014 A 
BRANCH  30  31
ATOM     31  C   UNL A   1      39.796  29.197  29.490  1.00  0.00     0.031 A 
ATOM     32  C   UNL A   1      40.158  28.957  30.914  1.00  0.00     0.074 A 
ATOM     33  C   UNL A   1      40.506  28.618  28.497  1.00  0.00     0.049 A 
ATOM     34  N   UNL A   1      41.131  29.489  31.574  1.00  0.00    -0.248 NA
ATOM     35  C   UNL A   1      39.247  28.160  31.752  1.00  0.00     0.031 C 
ATOM     36  C   UNL A   1      40.155  28.503  27.080  1.00  0.00     0.029 A 
ATOM     37  N   UNL A   1      41.664  27.899  28.575  1.00  0.00    -0.354 N 
ATOM     38  C   UNL A   1      41.106  28.915  32.841  1.00  0.00     0.074 A 
ATOM     39  C   UNL A   1      39.823  28.274  32.950  1.00  0.00     0.031 C 
ATOM     40  C   UNL A   1      40.937  27.566  26.496  1.00  0.00     0.029 A 
ATOM     41  C   UNL A   1      41.939  27.121  27.451  1.00  0.00     0.049 A 
ATOM     42  H   UNL A   1      42.255  27.926  29.361  1.00  0.00     0.167 HD
ATOM     43  C   UNL A   1      42.239  28.834  33.596  1.00  0.00     0.034 A 
ATOM     44  C   UNL A   1      42.891  26.155  27.323  1.00  0.00     0.034 A 
ATOM     45  C   UNL A   1      43.266  29.713  33.070  1.00  0.00     0.049 A 
ATOM     46  C   UNL A   1      43.932  26.451  28.343  1.00  0.00     0.074 A 
ATOM     47  C   UNL A   1      43.320  31.067  32.793  1.00  0.00     0.029 A 
ATOM     48  N   UNL A   1      44.307  29.154  32.359  1.00  0.00    -0.354 N 
ATOM     49  N   UNL A   1      44.676  27.525  28.310  1.00  0.00    -0.248 NA
ATOM     50  C   UNL A   1      43.795  25.837  29.655  1.00  0.00     0.031 C 
ATOM     51  C   UNL A   1      44.001  31.151  31.544  1.00  0.00     0.029 A 
ATOM     52  C   UNL A   1      44.425  29.868  31.191  1.00  0.00     0.049 A 
ATOM     53  H   UNL A   1      44.861  28.388  32.634  1.00  0.00     0.167 HD
ATOM     54  C   UNL A   1      44.719  27.970  29.623  1.00  0.00     0.074 A 
ATOM     55  C   UNL A   1      44.238  26.841  30.419  1.00  0.00     0.031 C 
ATOM     56  C   UNL A   1      44.858  29.297  29.928  1.00  0.00     0.034 A 
BRANCH  43  57
ATOM     57  C   UNL A   1      42.571  27.718  34.565  1.00  0.00     0.023 A 
ATOM     58  C   UNL A   1      43.486  26.743  34.121  1.00  0.00     0.031 A 
ATOM     59  C   UNL A   1      41.849  27.386  35.733  1.00  0.00     0.131 A 
ATOM     60  C   UNL A   1      43.543  25.473  34.719  1.00  0.00     0.055 A 
ATOM     61  C   UNL A   1      41.965  26.146  36.371  1.00  0.00     0.041 A 
ATOM     62  F   UNL A   1      40.932  28.193  36.277  1.00  0.00    -0.206 F 
ATOM     63  C   UNL A   1      42.784  25.165  35.842  1.00  0.00     0.022 A 
BRANCH  60  64
ATOM     64  S   UNL A   1      44.475  24.175  33.868  1.00  0.00     0.124 S 
ATOM     65  O   UNL A   1      45.191  24.950  32.859  1.00  0.00    -0.237 OA
ATOM     66  O   UNL A   1      45.283  23.626  34.952  1.00  0.00    -0.237 OA
ATOM     67  O   UNL A   1      43.432  23.290  33.356  1.00  0.00    -0.744 OA
ENDBRANCH  60  64
ENDBRANCH  43  57
BRANCH  44  68
ATOM     68  C   UNL A   1      42.784  24.859  26.583  1.00  0.00     0.023 A 
ATOM     69  C   UNL A   1      43.732  24.427  25.624  1.00  0.00     0.031 A 
ATOM     70  C   UNL A   1      41.834  23.894  26.993  1.00  0.00     0.131 A 
ATOM     71  C   UNL A   1      43.696  23.099  25.124  1.00  0.00     0.055 A 
ATOM     72  C   UNL A   1      41.800  22.590  26.494  1.00  0.00     0.041 A 
ATOM     73  F   UNL A   1      40.948  24.158  27.966  1.00  0.00    -0.206 F 
ATOM     74  C   UNL A   1      42.738  22.183  25.562  1.00  0.00     0.022 A 
BRANCH  71  75
ATOM     75  S   UNL A   1      44.963  22.497  23.955  1.00  0.00     0.124 S 
ATOM     76  O   UNL A   1      45.884  23.624  23.885  1.00  0.00    -0.237 OA
ATOM     77  O   UNL A   1      45.457  21.293  24.615  1.00  0.00    -0.237 OA
ATOM     78  O   UNL A   1      44.205  22.248  22.727  1.00  0.00    -0.744 OA
ENDBRANCH  71  75
ENDBRANCH  44  68
BRANCH  56  79
ATOM     79  C   UNL A   1      45.275  30.280  28.850  1.00  0.00     0.023 A 
ATOM     80  C   UNL A   1      46.606  30.640  28.538  1.00  0.00     0.031 A 
ATOM     81  C   UNL A   1      44.259  30.762  28.001  1.00  0.00     0.131 A 
ATOM     82  C   UNL A   1      46.872  31.451  27.415  1.00  0.00     0.055 A 
ATOM     83  C   UNL A   1      44.529  31.539  26.877  1.00  0.00     0.041 A 
ATOM     84  F   UNL A   1      42.973  30.444  28.228  1.00  0.00    -0.206 F 
ATOM     85  C   UNL A   1      45.838  31.892  26.581  1.00  0.00     0.022 A 
BRANCH  82  86
ATOM     86  S   UNL A   1      48.573  31.976  27.019  1.00  0.00     0.124 S 
ATOM     87  O   UNL A   1      49.101  32.422  28.303  1.00  0.00    -0.237 OA
ATOM     88  O   UNL A   1      49.161  30.756  26.472  1.00  0.00    -0.237 OA
ATOM     89  O   UNL A   1      48.378  33.047  26.039  1.00  0.00    -0.744 OA
ENDBRANCH  82  86
ENDBRANCH  56  79
ENDBRANCH  30  31
ENDBRANCH   2  25
TORSDOF 13
ENDMDL
MODEL 3
REMARK VINA RESULT:     -12.6      2.491      7.149
REMARK SMILES CC1=C2C(=O)CC(C)(C)CC2=N[C@@H]1C(=O)NCCCNC(=O)c1ccc(-c2c3nc(c(-c4cc(S(=O)(=O)[O-])ccc4F)c4ccc([nH]4)c(-c4cc(S(=O)(=O)[O-])ccc4F)c4nc(c(-c5cc(S(=O)(=O)[O-])ccc5F)c5ccc2[nH]5)C=C4)C=C3)cc1
REMARK SMILES IDX 20 1 21 2 22 3 19 5 18 6 17 7 16 8 14 9 15 10 13 12 1 13
REMARK SMILES IDX 2 14 3 15 4 16 11 17 12 18 5 19 6 20 10 21 7 22 8 23 9 24
REMARK SMILES IDX 23 25 24 26 85 27 25 28 84 29 26 30 27 31 28 32 78 33 29 34
REMARK SMILES IDX 83 35 77 36 79 37 30 38 82 39 76 40 75 41 31 43 63 44 43 45
REMARK SMILES IDX 62 46 44 47 47 48 61 49 80 50 45 51 46 52 60 54 81 55 48 56
REMARK SMILES IDX 32 57 33 58 41 59 34 60 40 61 42 62 39 63 35 64 36 65 37 66
REMARK SMILES IDX 38 67 64 68 65 69 73 70 66 71 72 72 74 73 71 74 67 75 68 76
REMARK SMILES IDX 69 77 70 78 49 79 50 80 58 81 51 82 57 83 59 84 56 85 52 86
REMARK SMILES IDX 53 87 54 88 55 89
REMARK H PARENT 20 4 16 11 79 42 47 53
REMARK Flexibility Score: inf
ROOT
ATOM      1  N   UNL A   1      35.308  30.029  28.892  1.00  0.00    -0.352 N 
ATOM      2  C   UNL A   1      36.338  29.885  29.802  1.00  0.00     0.251 C 
ATOM      3  O   UNL A   1      36.186  30.260  30.952  1.00  0.00    -0.269 OA
ATOM      4  H   UNL A   1      34.611  30.683  29.132  1.00  0.00     0.163 HD
ENDROOT
BRANCH   1   5
ATOM      5  C   UNL A   1      35.119  29.339  27.621  1.00  0.00     0.118 C 
BRANCH   5   6
ATOM      6  C   UNL A   1      33.648  29.094  27.307  1.00  0.00     0.042 C 
BRANCH   6   7
ATOM      7  C   UNL A   1      33.281  29.571  25.899  1.00  0.00     0.117 C 
BRANCH   7   8
ATOM      8  N   UNL A   1      32.156  28.815  25.366  1.00  0.00    -0.354 N 
ATOM      9  C   UNL A   1      32.177  27.647  24.645  1.00  0.00     0.249 C 
ATOM     10  O   UNL A   1      31.119  27.183  24.219  1.00  0.00    -0.272 OA
ATOM     11  H   UNL A   1      31.264  29.191  25.547  1.00  0.00     0.163 HD
BRANCH   9  12
ATOM     12  C   UNL A   1      33.531  26.907  24.514  1.00  0.00     0.221 C 
ATOM     13  C   UNL A   1      33.298  26.294  21.962  1.00  0.00     0.043 C 
ATOM     14  C   UNL A   1      33.678  25.951  23.357  1.00  0.00    -0.027 C 
ATOM     15  C   UNL A   1      34.029  24.744  23.805  1.00  0.00     0.040 C 
ATOM     16  C   UNL A   1      34.330  23.435  23.211  1.00  0.00     0.165 C 
ATOM     17  C   UNL A   1      33.538  24.856  25.170  1.00  0.00     0.048 C 
ATOM     18  N   UNL A   1      33.548  26.028  25.729  1.00  0.00    -0.271 NA
ATOM     19  O   UNL A   1      35.222  23.313  22.375  1.00  0.00    -0.294 OA
ATOM     20  C   UNL A   1      33.585  22.242  23.788  1.00  0.00     0.088 C 
ATOM     21  C   UNL A   1      32.875  23.658  25.777  1.00  0.00     0.063 C 
ATOM     22  C   UNL A   1      32.387  22.667  24.674  1.00  0.00    -0.023 C 
ATOM     23  C   UNL A   1      31.280  23.251  23.754  1.00  0.00     0.012 C 
ATOM     24  C   UNL A   1      31.777  21.448  25.382  1.00  0.00     0.012 C 
ENDBRANCH   9  12
ENDBRANCH   7   8
ENDBRANCH   6   7
ENDBRANCH   5   6
ENDBRANCH   1   5
BRANCH   2  25
ATOM     25  C   UNL A   1      37.606  29.257  29.369  1.00  0.00     0.039 A 
ATOM     26  C   UNL A   1      38.249  29.707  28.215  1.00  0.00     0.014 A 
ATOM     27  C   UNL A   1      38.150  28.212  30.118  1.00  0.00     0.014 A 
ATOM     28  C   UNL A   1      39.485  29.162  27.872  1.00  0.00     0.010 A 
ATOM     29  C   UNL A   1      39.416  27.744  29.838  1.00  0.00     0.010 A 
ATOM     30  C   UNL A   1      40.083  28.199  28.705  1.00  0.00    -0.014 A 
BRANCH  30  31
ATOM     31  C   UNL A   1      41.476  27.809  28.485  1.00  0.00     0.031 A 
ATOM     32  C   UNL A   1      41.636  26.549  27.708  1.00  0.00     0.074 A 
ATOM     33  C   UNL A   1      42.547  28.589  28.752  1.00  0.00     0.049 A 
ATOM     34  N   UNL A   1      42.096  25.421  28.134  1.00  0.00    -0.248 NA
ATOM     35  C   UNL A   1      41.076  26.478  26.349  1.00  0.00     0.031 C 
ATOM     36  C   UNL A   1      42.563  29.967  29.243  1.00  0.00     0.029 A 
ATOM     37  N   UNL A   1      43.869  28.338  28.526  1.00  0.00    -0.354 N 
ATOM     38  C   UNL A   1      42.112  24.564  27.038  1.00  0.00     0.074 A 
ATOM     39  C   UNL A   1      41.294  25.199  26.039  1.00  0.00     0.031 C 
ATOM     40  C   UNL A   1      43.790  30.502  29.045  1.00  0.00     0.029 A 
ATOM     41  C   UNL A   1      44.685  29.468  28.552  1.00  0.00     0.049 A 
ATOM     42  H   UNL A   1      44.218  27.433  28.357  1.00  0.00     0.167 HD
ATOM     43  C   UNL A   1      42.983  23.517  26.980  1.00  0.00     0.034 A 
ATOM     44  C   UNL A   1      45.987  29.561  28.162  1.00  0.00     0.034 A 
ATOM     45  C   UNL A   1      43.546  23.249  28.289  1.00  0.00     0.049 A 
ATOM     46  C   UNL A   1      46.551  28.187  28.244  1.00  0.00     0.074 A 
ATOM     47  C   UNL A   1      42.999  22.970  29.529  1.00  0.00     0.029 A 
ATOM     48  N   UNL A   1      44.839  23.654  28.544  1.00  0.00    -0.354 N 
ATOM     49  N   UNL A   1      46.685  27.539  29.370  1.00  0.00    -0.248 NA
ATOM     50  C   UNL A   1      46.481  27.350  27.055  1.00  0.00     0.031 C 
ATOM     51  C   UNL A   1      43.778  23.737  30.445  1.00  0.00     0.029 A 
ATOM     52  C   UNL A   1      44.818  24.339  29.734  1.00  0.00     0.049 A 
ATOM     53  H   UNL A   1      45.629  23.485  27.980  1.00  0.00     0.167 HD
ATOM     54  C   UNL A   1      46.266  26.246  29.090  1.00  0.00     0.074 A 
ATOM     55  C   UNL A   1      46.242  26.167  27.630  1.00  0.00     0.031 C 
ATOM     56  C   UNL A   1      45.698  25.452  30.048  1.00  0.00     0.034 A 
BRANCH  43  57
ATOM     57  C   UNL A   1      43.619  22.972  25.717  1.00  0.00     0.023 A 
ATOM     58  C   UNL A   1      43.626  21.571  25.564  1.00  0.00     0.031 A 
ATOM     59  C   UNL A   1      44.460  23.684  24.834  1.00  0.00     0.131 A 
ATOM     60  C   UNL A   1      44.533  20.940  24.696  1.00  0.00     0.055 A 
ATOM     61  C   UNL A   1      45.308  23.053  23.916  1.00  0.00     0.041 A 
ATOM     62  F   UNL A   1      44.582  25.015  24.857  1.00  0.00    -0.206 F 
ATOM     63  C   UNL A   1      45.379  21.671  23.872  1.00  0.00     0.022 A 
BRANCH  60  64
ATOM     64  S   UNL A   1      44.721  19.144  24.827  1.00  0.00     0.124 S 
ATOM     65  O   UNL A   1      44.902  18.772  23.427  1.00  0.00    -0.237 OA
ATOM     66  O   UNL A   1      45.897  19.026  25.683  1.00  0.00    -0.237 OA
ATOM     67  O   UNL A   1      43.463  18.715  25.432  1.00  0.00    -0.744 OA
ENDBRANCH  60  64
ENDBRANCH  43  57
BRANCH  44  68
ATOM     68  C   UNL A   1      46.650  30.701  27.455  1.00  0.00     0.023 A 
ATOM     69  C   UNL A   1      45.942  31.796  26.904  1.00  0.00     0.031 A 
ATOM     70  C   UNL A   1      48.057  30.839  27.516  1.00  0.00     0.131 A 
ATOM     71  C   UNL A   1      46.639  32.946  26.448  1.00  0.00     0.055 A 
ATOM     72  C   UNL A   1      48.737  31.972  27.060  1.00  0.00     0.041 A 
ATOM     73  F   UNL A   1      48.825  29.909  28.105  1.00  0.00    -0.206 F 
ATOM     74  C   UNL A   1      48.029  33.036  26.531  1.00  0.00     0.022 A 
BRANCH  71  75
ATOM     75  S   UNL A   1      45.738  34.405  25.817  1.00  0.00     0.124 S 
ATOM     76  O   UNL A   1      44.833  34.712  26.917  1.00  0.00    -0.237 OA
ATOM     77  O   UNL A   1      46.813  35.359  25.573  1.00  0.00    -0.237 OA
ATOM     78  O   UNL A   1      45.083  33.905  24.606  1.00  0.00    -0.744 OA
ENDBRANCH  71  75
ENDBRANCH  44  68
BRANCH  56  79
ATOM     79  C   UNL A   1      45.789  25.849  31.510  1.00  0.00     0.023 A 
ATOM     80  C   UNL A   1      44.708  26.282  32.312  1.00  0.00     0.031 A 
ATOM     81  C   UNL A   1      47.025  25.633  32.152  1.00  0.00     0.131 A 
ATOM     82  C   UNL A   1      44.893  26.481  33.697  1.00  0.00     0.055 A 
ATOM     83  C   UNL A   1      47.195  25.803  33.524  1.00  0.00     0.041 A 
ATOM     84  F   UNL A   1      48.090  25.205  31.454  1.00  0.00    -0.206 F 
ATOM     85  C   UNL A   1      46.130  26.233  34.302  1.00  0.00     0.022 A 
BRANCH  82  86
ATOM     86  S   UNL A   1      43.532  27.089  34.745  1.00  0.00     0.124 S 
ATOM     87  O   UNL A   1      42.941  28.162  33.953  1.00  0.00    -0.237 OA
ATOM     88  O   UNL A   1      42.710  25.896  34.923  1.00  0.00    -0.237 OA
ATOM     89  O   UNL A   1      44.216  27.540  35.960  1.00  0.00    -0.744 OA
ENDBRANCH  82  86
ENDBRANCH  56  79
ENDBRANCH  30  31
ENDBRANCH   2  25
TORSDOF 13
ENDMDL
