MODEL 1
REMARK VINA RESULT:     -12.2      0.000      0.000
REMARK SMILES CCOC(=O)c1nc(Nc2cccc(C(=O)NCCCNC(=O)c3ccc(-c4c5nc(c(-c6cc(S(=O)(=O)[O-])ccc6F)c6ccc([nH]6)c(-c6cc(S(=O)(=O)[O-])ccc6F)c6nc(c(-c7cc(S(=O)(=O)[O-])ccc7F)c7ccc4[nH]7)C=C6)C=C5)cc3)c2)c2ccccc2n1
REMARK SMILES IDX 18 1 17 2 15 3 16 4 14 6 10 7 11 8 87 9 12 10 13 11 9 12
REMARK SMILES IDX 8 14 6 15 7 16 94 17 93 18 88 19 92 20 89 21 91 22 90 23
REMARK SMILES IDX 4 24 5 25 3 26 2 27 1 28 19 29 20 30 21 31 22 32 23 34 24 35
REMARK SMILES IDX 25 36 86 37 26 38 85 39 27 40 28 41 29 42 79 43 30 44 84 45
REMARK SMILES IDX 78 46 80 47 31 48 83 49 77 50 76 51 32 53 64 54 44 55 63 56
REMARK SMILES IDX 45 57 48 58 62 59 81 60 46 61 47 62 61 64 82 65 49 66 33 67
REMARK SMILES IDX 34 68 42 69 35 70 41 71 43 72 40 73 36 74 37 75 38 76 39 77
REMARK SMILES IDX 65 78 66 79 74 80 67 81 73 82 75 83 72 84 68 85 69 86 70 87
REMARK SMILES IDX 71 88 50 89 51 90 59 91 52 92 58 93 60 94 57 95 53 96 54 97
REMARK SMILES IDX 55 98 56 99
REMARK H PARENT 17 5 9 13 21 33 80 52 48 63
REMARK Flexibility Score: inf
ROOT
ATOM      1  C   UNL A   1      33.042  28.679  22.599  1.00  0.00     0.118 C 
ENDROOT
BRANCH   1   2
ATOM      2  N   UNL A   1      33.265  27.491  21.781  1.00  0.00    -0.352 N 
ATOM      3  C   UNL A   1      32.974  26.152  21.917  1.00  0.00     0.251 C 
ATOM      4  O   UNL A   1      33.329  25.405  21.001  1.00  0.00    -0.269 OA
ATOM      5  H   UNL A   1      33.732  27.693  20.940  1.00  0.00     0.163 HD
BRANCH   3   6
ATOM      6  C   UNL A   1      32.319  25.549  23.112  1.00  0.00     0.041 A 
ATOM      7  C   UNL A   1      32.357  24.070  25.063  1.00  0.00     0.040 A 
ATOM      8  C   UNL A   1      30.978  24.229  25.198  1.00  0.00     0.026 A 
ATOM      9  C   UNL A   1      33.007  24.832  24.084  1.00  0.00     0.040 A 
ATOM     10  C   UNL A   1      30.278  25.087  24.342  1.00  0.00     0.003 A 
ATOM     11  C   UNL A   1      30.940  25.715  23.281  1.00  0.00     0.014 A 
BRANCH   7  12
ATOM     12  N   UNL A   1      33.072  23.188  25.899  1.00  0.00    -0.340 N 
ATOM     13  H   UNL A   1      32.989  23.350  26.867  1.00  0.00     0.168 HD
BRANCH  12  14
ATOM     14  C   UNL A   1      33.888  22.105  25.520  1.00  0.00     0.142 A 
ATOM     15  C   UNL A   1      34.011  19.903  24.887  1.00  0.00     0.241 A 
ATOM     16  N   UNL A   1      33.261  20.969  25.185  1.00  0.00    -0.204 NA
ATOM     17  N   UNL A   1      35.352  19.874  24.860  1.00  0.00    -0.222 NA
ATOM     18  C   UNL A   1      35.973  21.021  25.159  1.00  0.00     0.077 A 
ATOM     19  C   UNL A   1      35.292  22.197  25.527  1.00  0.00     0.043 A 
ATOM     20  C   UNL A   1      37.360  21.049  25.087  1.00  0.00     0.029 A 
ATOM     21  C   UNL A   1      36.043  23.354  25.865  1.00  0.00     0.014 A 
ATOM     22  C   UNL A   1      38.095  22.201  25.379  1.00  0.00     0.002 A 
ATOM     23  C   UNL A   1      37.435  23.355  25.781  1.00  0.00     0.001 A 
BRANCH  15  24
ATOM     24  C   UNL A   1      33.245  18.682  24.490  1.00  0.00     0.376 C 
ATOM     25  O   UNL A   1      32.063  18.506  24.745  1.00  0.00    -0.242 OA
BRANCH  24  26
ATOM     26  O   UNL A   1      34.066  17.784  23.877  1.00  0.00    -0.460 OA
BRANCH  26  27
ATOM     27  C   UNL A   1      33.943  16.436  24.355  1.00  0.00     0.230 C 
ATOM     28  C   UNL A   1      35.157  16.015  25.168  1.00  0.00     0.049 C 
ENDBRANCH  26  27
ENDBRANCH  24  26
ENDBRANCH  15  24
ENDBRANCH  12  14
ENDBRANCH   7  12
ENDBRANCH   3   6
ENDBRANCH   1   2
BRANCH   1  29
ATOM     29  C   UNL A   1      34.137  28.946  23.619  1.00  0.00     0.042 C 
BRANCH  29  30
ATOM     30  C   UNL A   1      33.679  28.827  25.063  1.00  0.00     0.118 C 
BRANCH  30  31
ATOM     31  N   UNL A   1      32.945  30.004  25.516  1.00  0.00    -0.352 N 
ATOM     32  C   UNL A   1      33.115  30.809  26.618  1.00  0.00     0.251 C 
ATOM     33  H   UNL A   1      32.198  30.268  24.930  1.00  0.00     0.163 HD
ATOM     34  O   UNL A   1      32.225  31.600  26.921  1.00  0.00    -0.269 OA
BRANCH  32  35
ATOM     35  C   UNL A   1      34.338  30.717  27.444  1.00  0.00     0.039 A 
ATOM     36  C   UNL A   1      34.683  29.491  28.022  1.00  0.00     0.014 A 
ATOM     37  C   UNL A   1      35.135  31.839  27.679  1.00  0.00     0.014 A 
ATOM     38  C   UNL A   1      35.865  29.377  28.760  1.00  0.00     0.010 A 
ATOM     39  C   UNL A   1      36.359  31.701  28.322  1.00  0.00     0.010 A 
ATOM     40  C   UNL A   1      36.739  30.470  28.874  1.00  0.00    -0.014 A 
BRANCH  40  41
ATOM     41  C   UNL A   1      38.052  30.354  29.561  1.00  0.00     0.031 A 
ATOM     42  C   UNL A   1      39.160  29.544  28.937  1.00  0.00     0.074 A 
ATOM     43  C   UNL A   1      38.215  30.900  30.783  1.00  0.00     0.049 A 
ATOM     44  N   UNL A   1      40.328  29.224  29.429  1.00  0.00    -0.248 NA
ATOM     45  C   UNL A   1      38.904  28.995  27.597  1.00  0.00     0.031 C 
ATOM     46  C   UNL A   1      37.198  31.666  31.510  1.00  0.00     0.029 A 
ATOM     47  N   UNL A   1      39.286  30.882  31.643  1.00  0.00    -0.354 N 
ATOM     48  C   UNL A   1      40.935  28.414  28.473  1.00  0.00     0.074 A 
ATOM     49  C   UNL A   1      39.982  28.251  27.396  1.00  0.00     0.031 C 
ATOM     50  C   UNL A   1      37.699  32.057  32.691  1.00  0.00     0.029 A 
ATOM     51  C   UNL A   1      39.048  31.525  32.839  1.00  0.00     0.049 A 
ATOM     52  H   UNL A   1      40.143  30.450  31.426  1.00  0.00     0.167 HD
ATOM     53  C   UNL A   1      42.178  27.873  28.488  1.00  0.00     0.034 A 
ATOM     54  C   UNL A   1      39.819  31.649  33.937  1.00  0.00     0.034 A 
ATOM     55  C   UNL A   1      43.121  28.068  29.560  1.00  0.00     0.049 A 
ATOM     56  C   UNL A   1      41.194  31.027  33.931  1.00  0.00     0.074 A 
ATOM     57  C   UNL A   1      44.433  27.636  29.639  1.00  0.00     0.029 A 
ATOM     58  N   UNL A   1      42.852  28.740  30.747  1.00  0.00    -0.354 N 
ATOM     59  N   UNL A   1      41.778  30.325  32.986  1.00  0.00    -0.248 NA
ATOM     60  C   UNL A   1      42.017  31.224  35.130  1.00  0.00     0.031 C 
ATOM     61  C   UNL A   1      44.929  27.972  30.903  1.00  0.00     0.029 A 
ATOM     62  C   UNL A   1      43.959  28.696  31.579  1.00  0.00     0.049 A 
ATOM     63  H   UNL A   1      42.000  29.182  30.964  1.00  0.00     0.167 HD
ATOM     64  C   UNL A   1      43.049  30.023  33.469  1.00  0.00     0.074 A 
ATOM     65  C   UNL A   1      43.152  30.637  34.776  1.00  0.00     0.031 C 
ATOM     66  C   UNL A   1      44.043  29.306  32.886  1.00  0.00     0.034 A 
BRANCH  53  67
ATOM     67  C   UNL A   1      42.577  26.992  27.326  1.00  0.00     0.023 A 
ATOM     68  C   UNL A   1      42.318  25.611  27.314  1.00  0.00     0.031 A 
ATOM     69  C   UNL A   1      43.225  27.548  26.208  1.00  0.00     0.131 A 
ATOM     70  C   UNL A   1      42.760  24.823  26.240  1.00  0.00     0.055 A 
ATOM     71  C   UNL A   1      43.591  26.773  25.106  1.00  0.00     0.041 A 
ATOM     72  F   UNL A   1      43.520  28.857  26.171  1.00  0.00    -0.206 F 
ATOM     73  C   UNL A   1      43.370  25.399  25.123  1.00  0.00     0.022 A 
BRANCH  70  74
ATOM     74  S   UNL A   1      42.643  23.018  26.380  1.00  0.00     0.124 S 
ATOM     75  O   UNL A   1      42.847  22.602  24.994  1.00  0.00    -0.237 OA
ATOM     76  O   UNL A   1      43.722  22.702  27.308  1.00  0.00    -0.237 OA
ATOM     77  O   UNL A   1      41.292  22.801  26.894  1.00  0.00    -0.744 OA
ENDBRANCH  70  74
ENDBRANCH  53  67
BRANCH  54  78
ATOM     78  C   UNL A   1      39.310  32.359  35.148  1.00  0.00     0.023 A 
ATOM     79  C   UNL A   1      39.705  33.674  35.441  1.00  0.00     0.031 A 
ATOM     80  C   UNL A   1      38.465  31.709  36.067  1.00  0.00     0.131 A 
ATOM     81  C   UNL A   1      39.306  34.274  36.645  1.00  0.00     0.055 A 
ATOM     82  C   UNL A   1      38.019  32.333  37.232  1.00  0.00     0.041 A 
ATOM     83  F   UNL A   1      38.053  30.451  35.839  1.00  0.00    -0.206 F 
ATOM     84  C   UNL A   1      38.453  33.619  37.536  1.00  0.00     0.022 A 
BRANCH  81  85
ATOM     85  S   UNL A   1      40.010  35.887  37.087  1.00  0.00     0.124 S 
ATOM     86  O   UNL A   1      39.712  36.676  35.897  1.00  0.00    -0.237 OA
ATOM     87  O   UNL A   1      39.255  36.226  38.289  1.00  0.00    -0.237 OA
ATOM     88  O   UNL A   1      41.424  35.592  37.304  1.00  0.00    -0.744 OA
ENDBRANCH  81  85
ENDBRANCH  54  78
BRANCH  66  89
ATOM     89  C   UNL A   1      45.343  29.189  33.644  1.00  0.00     0.023 A 
ATOM     90  C   UNL A   1      46.378  30.128  33.491  1.00  0.00     0.031 A 
ATOM     91  C   UNL A   1      45.551  28.114  34.529  1.00  0.00     0.131 A 
ATOM     92  C   UNL A   1      47.594  29.942  34.166  1.00  0.00     0.055 A 
ATOM     93  C   UNL A   1      46.737  27.975  35.250  1.00  0.00     0.041 A 
ATOM     94  F   UNL A   1      44.599  27.186  34.711  1.00  0.00    -0.206 F 
ATOM     95  C   UNL A   1      47.773  28.883  35.059  1.00  0.00     0.022 A 
BRANCH  92  96
ATOM     96  S   UNL A   1      48.980  31.047  33.779  1.00  0.00     0.124 S 
ATOM     97  O   UNL A   1      49.616  31.203  35.083  1.00  0.00    -0.237 OA
ATOM     98  O   UNL A   1      49.729  30.276  32.792  1.00  0.00    -0.237 OA
ATOM     99  O   UNL A   1      48.326  32.247  33.260  1.00  0.00    -0.744 OA
ENDBRANCH  92  96
ENDBRANCH  66  89
ENDBRANCH  40  41
ENDBRANCH  32  35
ENDBRANCH  30  31
ENDBRANCH  29  30
ENDBRANCH   1  29
TORSDOF 18
ENDMDL
MODEL 2
REMARK VINA RESULT:     -12.2      2.425      7.926
REMARK SMILES CCOC(=O)c1nc(Nc2cccc(C(=O)NCCCNC(=O)c3ccc(-c4c5nc(c(-c6cc(S(=O)(=O)[O-])ccc6F)c6ccc([nH]6)c(-c6cc(S(=O)(=O)[O-])ccc6F)c6nc(c(-c7cc(S(=O)(=O)[O-])ccc7F)c7ccc4[nH]7)C=C6)C=C5)cc3)c2)c2ccccc2n1
REMARK SMILES IDX 18 1 17 2 15 3 16 4 14 6 10 7 11 8 87 9 12 10 13 11 9 12
REMARK SMILES IDX 8 14 6 15 7 16 94 17 93 18 88 19 92 20 89 21 91 22 90 23
REMARK SMILES IDX 4 24 5 25 3 26 2 27 1 28 19 29 20 30 21 31 22 32 23 34 24 35
REMARK SMILES IDX 25 36 86 37 26 38 85 39 27 40 28 41 29 42 79 43 30 44 84 45
REMARK SMILES IDX 78 46 80 47 31 48 83 49 77 50 76 51 32 53 64 54 44 55 63 56
REMARK SMILES IDX 45 57 48 58 62 59 81 60 46 61 47 62 61 64 82 65 49 66 33 67
REMARK SMILES IDX 34 68 42 69 35 70 41 71 43 72 40 73 36 74 37 75 38 76 39 77
REMARK SMILES IDX 65 78 66 79 74 80 67 81 73 82 75 83 72 84 68 85 69 86 70 87
REMARK SMILES IDX 71 88 50 89 51 90 59 91 52 92 58 93 60 94 57 95 53 96 54 97
REMARK SMILES IDX 55 98 56 99
REMARK H PARENT 17 5 9 13 21 33 80 52 48 63
REMARK Flexibility Score: inf
ROOT
ATOM      1  C   UNL A   1      32.975  28.758  24.435  1.00  0.00     0.118 C 
ENDROOT
BRANCH   1   2
ATOM      2  N   UNL A   1      33.449  28.107  23.218  1.00  0.00    -0.352 N 
ATOM      3  C   UNL A   1      33.307  26.852  22.670  1.00  0.00     0.251 C 
ATOM      4  O   UNL A   1      33.872  26.641  21.594  1.00  0.00    -0.269 OA
ATOM      5  H   UNL A   1      34.000  28.703  22.661  1.00  0.00     0.163 HD
BRANCH   3   6
ATOM      6  C   UNL A   1      32.572  25.728  23.319  1.00  0.00     0.041 A 
ATOM      7  C   UNL A   1      32.503  23.785  24.807  1.00  0.00     0.040 A 
ATOM      8  C   UNL A   1      31.235  23.469  24.317  1.00  0.00     0.026 A 
ATOM      9  C   UNL A   1      33.089  24.979  24.370  1.00  0.00     0.040 A 
ATOM     10  C   UNL A   1      30.609  24.303  23.385  1.00  0.00     0.003 A 
ATOM     11  C   UNL A   1      31.290  25.407  22.861  1.00  0.00     0.014 A 
BRANCH   7  12
ATOM     12  N   UNL A   1      33.159  22.939  25.724  1.00  0.00    -0.340 N 
ATOM     13  H   UNL A   1      32.854  22.998  26.658  1.00  0.00     0.168 HD
BRANCH  12  14
ATOM     14  C   UNL A   1      34.195  22.020  25.468  1.00  0.00     0.142 A 
ATOM     15  C   UNL A   1      34.784  19.871  24.920  1.00  0.00     0.241 A 
ATOM     16  N   UNL A   1      33.825  20.785  25.102  1.00  0.00    -0.204 NA
ATOM     17  N   UNL A   1      36.103  20.089  25.037  1.00  0.00    -0.222 NA
ATOM     18  C   UNL A   1      36.469  21.333  25.366  1.00  0.00     0.077 A 
ATOM     19  C   UNL A   1      35.549  22.368  25.623  1.00  0.00     0.043 A 
ATOM     20  C   UNL A   1      37.827  21.614  25.443  1.00  0.00     0.029 A 
ATOM     21  C   UNL A   1      36.036  23.647  26.004  1.00  0.00     0.014 A 
ATOM     22  C   UNL A   1      38.304  22.885  25.777  1.00  0.00     0.002 A 
ATOM     23  C   UNL A   1      37.405  23.902  26.070  1.00  0.00     0.001 A 
BRANCH  15  24
ATOM     24  C   UNL A   1      34.301  18.527  24.480  1.00  0.00     0.376 C 
ATOM     25  O   UNL A   1      34.955  17.499  24.585  1.00  0.00    -0.242 OA
BRANCH  24  26
ATOM     26  O   UNL A   1      33.077  18.630  23.891  1.00  0.00    -0.460 OA
BRANCH  26  27
ATOM     27  C   UNL A   1      32.873  17.753  22.774  1.00  0.00     0.230 C 
ATOM     28  C   UNL A   1      32.143  18.451  21.637  1.00  0.00     0.049 C 
ENDBRANCH  26  27
ENDBRANCH  24  26
ENDBRANCH  15  24
ENDBRANCH  12  14
ENDBRANCH   7  12
ENDBRANCH   3   6
ENDBRANCH   1   2
BRANCH   1  29
ATOM     29  C   UNL A   1      33.754  28.383  25.685  1.00  0.00     0.042 C 
BRANCH  29  30
ATOM     30  C   UNL A   1      33.224  29.020  26.959  1.00  0.00     0.118 C 
BRANCH  30  31
ATOM     31  N   UNL A   1      33.529  30.445  27.039  1.00  0.00    -0.352 N 
ATOM     32  C   UNL A   1      34.566  31.117  27.644  1.00  0.00     0.251 C 
ATOM     33  H   UNL A   1      32.880  31.027  26.580  1.00  0.00     0.163 HD
ATOM     34  O   UNL A   1      34.485  32.335  27.786  1.00  0.00    -0.269 OA
BRANCH  32  35
ATOM     35  C   UNL A   1      35.757  30.391  28.137  1.00  0.00     0.039 A 
ATOM     36  C   UNL A   1      36.905  30.340  27.341  1.00  0.00     0.014 A 
ATOM     37  C   UNL A   1      35.740  29.733  29.368  1.00  0.00     0.014 A 
ATOM     38  C   UNL A   1      38.055  29.704  27.818  1.00  0.00     0.010 A 
ATOM     39  C   UNL A   1      36.912  29.192  29.884  1.00  0.00     0.010 A 
ATOM     40  C   UNL A   1      38.084  29.169  29.115  1.00  0.00    -0.014 A 
BRANCH  40  41
ATOM     41  C   UNL A   1      39.321  28.579  29.693  1.00  0.00     0.031 A 
ATOM     42  C   UNL A   1      39.996  29.244  30.865  1.00  0.00     0.074 A 
ATOM     43  C   UNL A   1      39.883  27.502  29.106  1.00  0.00     0.049 A 
ATOM     44  N   UNL A   1      41.138  28.958  31.433  1.00  0.00    -0.248 NA
ATOM     45  C   UNL A   1      39.309  30.405  31.453  1.00  0.00     0.031 C 
ATOM     46  C   UNL A   1      39.346  26.801  27.935  1.00  0.00     0.029 A 
ATOM     47  N   UNL A   1      41.037  26.817  29.397  1.00  0.00    -0.354 N 
ATOM     48  C   UNL A   1      41.321  29.917  32.424  1.00  0.00     0.074 A 
ATOM     49  C   UNL A   1      40.196  30.823  32.344  1.00  0.00     0.031 C 
ATOM     50  C   UNL A   1      40.158  25.780  27.622  1.00  0.00     0.029 A 
ATOM     51  C   UNL A   1      41.302  25.783  28.525  1.00  0.00     0.049 A 
ATOM     52  H   UNL A   1      41.620  27.044  30.156  1.00  0.00     0.167 HD
ATOM     53  C   UNL A   1      42.327  30.020  33.327  1.00  0.00     0.034 A 
ATOM     54  C   UNL A   1      42.359  24.950  28.448  1.00  0.00     0.034 A 
ATOM     55  C   UNL A   1      43.427  29.092  33.406  1.00  0.00     0.049 A 
ATOM     56  C   UNL A   1      43.470  25.093  29.459  1.00  0.00     0.074 A 
ATOM     57  C   UNL A   1      44.454  29.053  34.333  1.00  0.00     0.029 A 
ATOM     58  N   UNL A   1      43.654  28.046  32.519  1.00  0.00    -0.354 N 
ATOM     59  N   UNL A   1      43.590  25.964  30.436  1.00  0.00    -0.248 NA
ATOM     60  C   UNL A   1      44.580  24.138  29.366  1.00  0.00     0.031 C 
ATOM     61  C   UNL A   1      45.344  28.041  33.958  1.00  0.00     0.029 A 
ATOM     62  C   UNL A   1      44.826  27.386  32.853  1.00  0.00     0.049 A 
ATOM     63  H   UNL A   1      43.068  27.810  31.764  1.00  0.00     0.167 HD
ATOM     64  C   UNL A   1      44.775  25.638  31.091  1.00  0.00     0.074 A 
ATOM     65  C   UNL A   1      45.319  24.481  30.411  1.00  0.00     0.031 C 
ATOM     66  C   UNL A   1      45.361  26.238  32.158  1.00  0.00     0.034 A 
BRANCH  53  67
ATOM     67  C   UNL A   1      42.302  31.193  34.280  1.00  0.00     0.023 A 
ATOM     68  C   UNL A   1      42.904  32.424  33.964  1.00  0.00     0.031 A 
ATOM     69  C   UNL A   1      41.661  31.077  35.527  1.00  0.00     0.131 A 
ATOM     70  C   UNL A   1      42.906  33.465  34.904  1.00  0.00     0.055 A 
ATOM     71  C   UNL A   1      41.598  32.144  36.426  1.00  0.00     0.041 A 
ATOM     72  F   UNL A   1      41.090  29.920  35.896  1.00  0.00    -0.206 F 
ATOM     73  C   UNL A   1      42.233  33.343  36.122  1.00  0.00     0.022 A 
BRANCH  70  74
ATOM     74  S   UNL A   1      43.912  34.937  34.567  1.00  0.00     0.124 S 
ATOM     75  O   UNL A   1      44.270  35.365  35.917  1.00  0.00    -0.237 OA
ATOM     76  O   UNL A   1      44.999  34.399  33.758  1.00  0.00    -0.237 OA
ATOM     77  O   UNL A   1      42.991  35.828  33.864  1.00  0.00    -0.744 OA
ENDBRANCH  70  74
ENDBRANCH  53  67
BRANCH  54  78
ATOM     78  C   UNL A   1      42.444  23.927  27.363  1.00  0.00     0.023 A 
ATOM     79  C   UNL A   1      41.889  22.648  27.523  1.00  0.00     0.031 A 
ATOM     80  C   UNL A   1      43.137  24.196  26.168  1.00  0.00     0.131 A 
ATOM     81  C   UNL A   1      42.086  21.669  26.537  1.00  0.00     0.055 A 
ATOM     82  C   UNL A   1      43.275  23.239  25.162  1.00  0.00     0.041 A 
ATOM     83  F   UNL A   1      43.687  25.402  25.957  1.00  0.00    -0.206 F 
ATOM     84  C   UNL A   1      42.762  21.960  25.350  1.00  0.00     0.022 A 
BRANCH  81  85
ATOM     85  S   UNL A   1      41.542  19.971  26.876  1.00  0.00     0.124 S 
ATOM     86  O   UNL A   1      40.837  20.134  28.143  1.00  0.00    -0.237 OA
ATOM     87  O   UNL A   1      40.711  19.683  25.711  1.00  0.00    -0.237 OA
ATOM     88  O   UNL A   1      42.794  19.222  26.948  1.00  0.00    -0.744 OA
ENDBRANCH  81  85
ENDBRANCH  54  78
BRANCH  66  89
ATOM     89  C   UNL A   1      46.635  25.620  32.680  1.00  0.00     0.023 A 
ATOM     90  C   UNL A   1      47.891  25.933  32.133  1.00  0.00     0.031 A 
ATOM     91  C   UNL A   1      46.588  24.694  33.739  1.00  0.00     0.131 A 
ATOM     92  C   UNL A   1      49.041  25.283  32.605  1.00  0.00     0.055 A 
ATOM     93  C   UNL A   1      47.744  24.104  34.252  1.00  0.00     0.041 A 
ATOM     94  F   UNL A   1      45.416  24.354  34.298  1.00  0.00    -0.206 F 
ATOM     95  C   UNL A   1      48.978  24.386  33.674  1.00  0.00     0.022 A 
BRANCH  92  96
ATOM     96  S   UNL A   1      50.609  25.547  31.733  1.00  0.00     0.124 S 
ATOM     97  O   UNL A   1      50.595  24.468  30.750  1.00  0.00    -0.237 OA
ATOM     98  O   UNL A   1      50.448  26.896  31.200  1.00  0.00    -0.237 OA
ATOM     99  O   UNL A   1      51.614  25.414  32.787  1.00  0.00    -0.744 OA
ENDBRANCH  92  96
ENDBRANCH  66  89
ENDBRANCH  40  41
ENDBRANCH  32  35
ENDBRANCH  30  31
ENDBRANCH  29  30
ENDBRANCH   1  29
TORSDOF 18
ENDMDL
MODEL 3
REMARK VINA RESULT:     -12.0      2.765      7.936
REMARK SMILES CCOC(=O)c1nc(Nc2cccc(C(=O)NCCCNC(=O)c3ccc(-c4c5nc(c(-c6cc(S(=O)(=O)[O-])ccc6F)c6ccc([nH]6)c(-c6cc(S(=O)(=O)[O-])ccc6F)c6nc(c(-c7cc(S(=O)(=O)[O-])ccc7F)c7ccc4[nH]7)C=C6)C=C5)cc3)c2)c2ccccc2n1
REMARK SMILES IDX 18 1 17 2 15 3 16 4 14 6 10 7 11 8 87 9 12 10 13 11 9 12
REMARK SMILES IDX 8 14 6 15 7 16 94 17 93 18 88 19 92 20 89 21 91 22 90 23
REMARK SMILES IDX 4 24 5 25 3 26 2 27 1 28 19 29 20 30 21 31 22 32 23 34 24 35
REMARK SMILES IDX 25 36 86 37 26 38 85 39 27 40 28 41 29 42 79 43 30 44 84 45
REMARK SMILES IDX 78 46 80 47 31 48 83 49 77 50 76 51 32 53 64 54 44 55 63 56
REMARK SMILES IDX 45 57 48 58 62 59 81 60 46 61 47 62 61 64 82 65 49 66 33 67
REMARK SMILES IDX 34 68 42 69 35 70 41 71 43 72 40 73 36 74 37 75 38 76 39 77
REMARK SMILES IDX 65 78 66 79 74 80 67 81 73 82 75 83 72 84 68 85 69 86 70 87
REMARK SMILES IDX 71 88 50 89 51 90 59 91 52 92 58 93 60 94 57 95 53 96 54 97
REMARK SMILES IDX 55 98 56 99
REMARK H PARENT 17 5 9 13 21 33 80 52 48 63
REMARK Flexibility Score: inf
ROOT
ATOM      1  C   UNL A   1      32.048  29.513  24.861  1.00  0.00     0.118 C 
ENDROOT
BRANCH   1   2
ATOM      2  N   UNL A   1      31.346  29.163  23.630  1.00  0.00    -0.352 N 
ATOM      3  C   UNL A   1      30.839  27.998  23.100  1.00  0.00     0.251 C 
ATOM      4  O   UNL A   1      30.297  28.074  21.994  1.00  0.00    -0.269 OA
ATOM      5  H   UNL A   1      31.203  29.940  23.043  1.00  0.00     0.163 HD
BRANCH   3   6
ATOM      6  C   UNL A   1      30.958  26.658  23.743  1.00  0.00     0.041 A 
ATOM      7  C   UNL A   1      31.671  24.316  23.707  1.00  0.00     0.040 A 
ATOM      8  C   UNL A   1      30.932  24.085  24.868  1.00  0.00     0.026 A 
ATOM      9  C   UNL A   1      31.753  25.634  23.241  1.00  0.00     0.040 A 
ATOM     10  C   UNL A   1      30.261  25.137  25.501  1.00  0.00     0.003 A 
ATOM     11  C   UNL A   1      30.245  26.410  24.921  1.00  0.00     0.014 A 
BRANCH   7  12
ATOM     12  N   UNL A   1      32.328  23.261  23.042  1.00  0.00    -0.340 N 
ATOM     13  H   UNL A   1      32.287  23.280  22.059  1.00  0.00     0.168 HD
BRANCH  12  14
ATOM     14  C   UNL A   1      33.035  22.185  23.612  1.00  0.00     0.142 A 
ATOM     15  C   UNL A   1      33.090  19.940  24.087  1.00  0.00     0.241 A 
ATOM     16  N   UNL A   1      32.477  20.971  23.496  1.00  0.00    -0.204 NA
ATOM     17  N   UNL A   1      34.246  20.003  24.764  1.00  0.00    -0.222 NA
ATOM     18  C   UNL A   1      34.819  21.209  24.845  1.00  0.00     0.077 A 
ATOM     19  C   UNL A   1      34.247  22.375  24.299  1.00  0.00     0.043 A 
ATOM     20  C   UNL A   1      36.045  21.308  25.490  1.00  0.00     0.029 A 
ATOM     21  C   UNL A   1      34.914  23.618  24.471  1.00  0.00     0.014 A 
ATOM     22  C   UNL A   1      36.719  22.525  25.621  1.00  0.00     0.002 A 
ATOM     23  C   UNL A   1      36.146  23.686  25.120  1.00  0.00     0.001 A 
BRANCH  15  24
ATOM     24  C   UNL A   1      32.430  18.614  23.888  1.00  0.00     0.376 C 
ATOM     25  O   UNL A   1      32.234  18.107  22.793  1.00  0.00    -0.242 OA
BRANCH  24  26
ATOM     26  O   UNL A   1      32.024  18.100  25.082  1.00  0.00    -0.460 OA
BRANCH  26  27
ATOM     27  C   UNL A   1      32.793  16.981  25.546  1.00  0.00     0.230 C 
ATOM     28  C   UNL A   1      33.548  16.308  24.410  1.00  0.00     0.049 C 
ENDBRANCH  26  27
ENDBRANCH  24  26
ENDBRANCH  15  24
ENDBRANCH  12  14
ENDBRANCH   7  12
ENDBRANCH   3   6
ENDBRANCH   1   2
BRANCH   1  29
ATOM     29  C   UNL A   1      33.392  28.823  25.027  1.00  0.00     0.042 C 
BRANCH  29  30
ATOM     30  C   UNL A   1      34.064  29.091  26.363  1.00  0.00     0.118 C 
BRANCH  30  31
ATOM     31  N   UNL A   1      33.865  30.461  26.824  1.00  0.00    -0.352 N 
ATOM     32  C   UNL A   1      34.503  31.190  27.801  1.00  0.00     0.251 C 
ATOM     33  H   UNL A   1      33.150  30.949  26.354  1.00  0.00     0.163 HD
ATOM     34  O   UNL A   1      34.003  32.247  28.178  1.00  0.00    -0.269 OA
BRANCH  32  35
ATOM     35  C   UNL A   1      35.763  30.707  28.408  1.00  0.00     0.039 A 
ATOM     36  C   UNL A   1      35.705  29.811  29.481  1.00  0.00     0.014 A 
ATOM     37  C   UNL A   1      37.002  31.154  27.948  1.00  0.00     0.014 A 
ATOM     38  C   UNL A   1      36.887  29.305  30.028  1.00  0.00     0.010 A 
ATOM     39  C   UNL A   1      38.172  30.572  28.423  1.00  0.00     0.010 A 
ATOM     40  C   UNL A   1      38.130  29.643  29.471  1.00  0.00    -0.014 A 
BRANCH  40  41
ATOM     41  C   UNL A   1      39.398  29.041  29.962  1.00  0.00     0.031 A 
ATOM     42  C   UNL A   1      40.151  29.692  31.093  1.00  0.00     0.074 A 
ATOM     43  C   UNL A   1      39.914  27.967  29.332  1.00  0.00     0.049 A 
ATOM     44  N   UNL A   1      41.327  29.395  31.584  1.00  0.00    -0.248 NA
ATOM     45  C   UNL A   1      39.511  30.852  31.734  1.00  0.00     0.031 C 
ATOM     46  C   UNL A   1      39.299  27.279  28.192  1.00  0.00     0.029 A 
ATOM     47  N   UNL A   1      41.081  27.273  29.541  1.00  0.00    -0.354 N 
ATOM     48  C   UNL A   1      41.579  30.345  32.569  1.00  0.00     0.074 A 
ATOM     49  C   UNL A   1      40.457  31.258  32.570  1.00  0.00     0.031 C 
ATOM     50  C   UNL A   1      40.082  26.256  27.819  1.00  0.00     0.029 A 
ATOM     51  C   UNL A   1      41.283  26.245  28.646  1.00  0.00     0.049 A 
ATOM     52  H   UNL A   1      41.713  27.490  30.263  1.00  0.00     0.167 HD
ATOM     53  C   UNL A   1      42.642  30.435  33.406  1.00  0.00     0.034 A 
ATOM     54  C   UNL A   1      42.327  25.407  28.493  1.00  0.00     0.034 A 
ATOM     55  C   UNL A   1      43.739  29.499  33.406  1.00  0.00     0.049 A 
ATOM     56  C   UNL A   1      43.502  25.535  29.431  1.00  0.00     0.074 A 
ATOM     57  C   UNL A   1      44.824  29.447  34.264  1.00  0.00     0.029 A 
ATOM     58  N   UNL A   1      43.902  28.460  32.498  1.00  0.00    -0.354 N 
ATOM     59  N   UNL A   1      43.690  26.396  30.406  1.00  0.00    -0.248 NA
ATOM     60  C   UNL A   1      44.598  24.575  29.258  1.00  0.00     0.031 C 
ATOM     61  C   UNL A   1      45.681  28.433  33.824  1.00  0.00     0.029 A 
ATOM     62  C   UNL A   1      45.089  27.791  32.749  1.00  0.00     0.049 A 
ATOM     63  H   UNL A   1      43.266  28.234  31.780  1.00  0.00     0.167 HD
ATOM     64  C   UNL A   1      44.914  26.058  30.979  1.00  0.00     0.074 A 
ATOM     65  C   UNL A   1      45.405  24.905  30.256  1.00  0.00     0.031 C 
ATOM     66  C   UNL A   1      45.571  26.646  32.011  1.00  0.00     0.034 A 
BRANCH  53  67
ATOM     67  C   UNL A   1      42.686  31.600  34.368  1.00  0.00     0.023 A 
ATOM     68  C   UNL A   1      42.064  31.551  35.627  1.00  0.00     0.031 A 
ATOM     69  C   UNL A   1      43.367  32.780  34.017  1.00  0.00     0.131 A 
ATOM     70  C   UNL A   1      42.081  32.678  36.462  1.00  0.00     0.055 A 
ATOM     71  C   UNL A   1      43.449  33.870  34.886  1.00  0.00     0.041 A 
ATOM     72  F   UNL A   1      43.960  32.896  32.819  1.00  0.00    -0.206 F 
ATOM     73  C   UNL A   1      42.793  33.828  36.112  1.00  0.00     0.022 A 
BRANCH  70  74
ATOM     74  S   UNL A   1      41.052  32.668  37.957  1.00  0.00     0.124 S 
ATOM     75  O   UNL A   1      39.840  32.012  37.474  1.00  0.00    -0.237 OA
ATOM     76  O   UNL A   1      41.864  31.901  38.894  1.00  0.00    -0.237 OA
ATOM     77  O   UNL A   1      40.899  34.085  38.277  1.00  0.00    -0.744 OA
ENDBRANCH  70  74
ENDBRANCH  53  67
BRANCH  54  78
ATOM     78  C   UNL A   1      42.336  24.393  27.396  1.00  0.00     0.023 A 
ATOM     79  C   UNL A   1      41.692  23.154  27.545  1.00  0.00     0.031 A 
ATOM     80  C   UNL A   1      43.041  24.626  26.201  1.00  0.00     0.131 A 
ATOM     81  C   UNL A   1      41.816  22.175  26.547  1.00  0.00     0.055 A 
ATOM     82  C   UNL A   1      43.107  23.673  25.184  1.00  0.00     0.041 A 
ATOM     83  F   UNL A   1      43.674  25.793  26.001  1.00  0.00    -0.206 F 
ATOM     84  C   UNL A   1      42.506  22.431  25.360  1.00  0.00     0.022 A 
BRANCH  81  85
ATOM     85  S   UNL A   1      41.154  20.516  26.870  1.00  0.00     0.124 S 
ATOM     86  O   UNL A   1      40.012  20.472  25.964  1.00  0.00    -0.237 OA
ATOM     87  O   UNL A   1      42.288  19.667  26.519  1.00  0.00    -0.237 OA
ATOM     88  O   UNL A   1      40.823  20.554  28.293  1.00  0.00    -0.744 OA
ENDBRANCH  81  85
ENDBRANCH  54  78
BRANCH  66  89
ATOM     89  C   UNL A   1      46.873  26.016  32.445  1.00  0.00     0.023 A 
ATOM     90  C   UNL A   1      46.921  25.023  33.438  1.00  0.00     0.031 A 
ATOM     91  C   UNL A   1      48.084  26.424  31.857  1.00  0.00     0.131 A 
ATOM     92  C   UNL A   1      48.160  24.515  33.857  1.00  0.00     0.055 A 
ATOM     93  C   UNL A   1      49.307  25.863  32.229  1.00  0.00     0.041 A 
ATOM     94  F   UNL A   1      48.098  27.372  30.907  1.00  0.00    -0.206 F 
ATOM     95  C   UNL A   1      49.351  24.914  33.245  1.00  0.00     0.022 A 
BRANCH  92  96
ATOM     96  S   UNL A   1      48.204  23.400  35.287  1.00  0.00     0.124 S 
ATOM     97  O   UNL A   1      46.784  23.158  35.526  1.00  0.00    -0.237 OA
ATOM     98  O   UNL A   1      48.966  22.266  34.776  1.00  0.00    -0.237 OA
ATOM     99  O   UNL A   1      48.881  24.188  36.315  1.00  0.00    -0.744 OA
ENDBRANCH  92  96
ENDBRANCH  66  89
ENDBRANCH  40  41
ENDBRANCH  32  35
ENDBRANCH  30  31
ENDBRANCH  29  30
ENDBRANCH   1  29
TORSDOF 18
ENDMDL
