MODEL 1
REMARK VINA RESULT:     -13.0      0.000      0.000
REMARK SMILES O=C(NCCCNC(=O)c1ccc(-c2c3nc(c(-c4cc(S(=O)(=O)[O-])ccc4F)c4ccc([nH]4)c(-c4cc(S(=O)(=O)[O-])ccc4F)c4nc(c(-c5cc(S(=O)(=O)[O-])ccc5F)c5ccc2[nH]5)C=C4)C=C3)cc1)C1=Cc2c(Cl)cc(Cl)cc2O[C@@H]1C(F)(F)F
REMARK SMILES IDX 6 1 5 2 4 3 3 4 1 5 2 6 73 8 74 9 84 10 75 11 83 12 76 13
REMARK SMILES IDX 82 14 77 15 78 16 81 17 79 18 80 19 85 20 86 21 87 22 88 23
REMARK SMILES IDX 7 24 8 25 9 27 10 28 11 29 72 30 12 31 71 32 13 33 14 34
REMARK SMILES IDX 15 35 65 36 16 37 70 38 64 39 66 40 17 41 69 42 63 43 62 44
REMARK SMILES IDX 18 46 50 47 30 48 49 49 31 50 34 51 48 52 67 53 32 54 33 55
REMARK SMILES IDX 47 57 68 58 35 59 19 60 20 61 28 62 21 63 27 64 29 65 26 66
REMARK SMILES IDX 22 67 23 68 24 69 25 70 51 71 52 72 60 73 53 74 59 75 61 76
REMARK SMILES IDX 58 77 54 78 55 79 56 80 57 81 36 82 37 83 45 84 38 85 44 86
REMARK SMILES IDX 46 87 43 88 39 89 40 90 41 91 42 92
REMARK H PARENT 3 7 7 26 66 45 34 56
REMARK Flexibility Score: inf
ROOT
ATOM      1  C   UNL A   1      32.498  30.017  26.277  1.00  0.00     0.118 C 
ENDROOT
BRANCH   1   2
ATOM      2  C   UNL A   1      31.771  29.038  27.195  1.00  0.00     0.042 C 
BRANCH   2   3
ATOM      3  C   UNL A   1      32.164  27.587  26.935  1.00  0.00     0.118 C 
BRANCH   3   4
ATOM      4  N   UNL A   1      31.020  26.681  26.777  1.00  0.00    -0.352 N 
ATOM      5  O   UNL A   1      29.989  24.692  26.399  1.00  0.00    -0.270 OA
ATOM      6  C   UNL A   1      30.964  25.412  26.245  1.00  0.00     0.251 C 
ATOM      7  H   UNL A   1      30.161  27.034  27.101  1.00  0.00     0.163 HD
BRANCH   6   8
ATOM      8  C   UNL A   1      32.167  24.924  25.543  1.00  0.00     0.067 C 
ATOM      9  C   UNL A   1      32.917  24.019  26.183  1.00  0.00     0.027 C 
ATOM     10  C   UNL A   1      32.237  25.148  24.068  1.00  0.00     0.314 C 
ATOM     11  C   UNL A   1      33.236  22.832  25.366  1.00  0.00     0.036 A 
ATOM     12  O   UNL A   1      32.347  23.907  23.332  1.00  0.00    -0.475 OA
ATOM     13  C   UNL A   1      33.551  21.609  25.993  1.00  0.00     0.053 A 
ATOM     14  C   UNL A   1      32.804  22.808  24.021  1.00  0.00     0.130 A 
ATOM     15  Cl  UNL A   1      34.069  21.521  27.642  1.00  0.00    -0.083 Cl
ATOM     16  C   UNL A   1      33.327  20.400  25.333  1.00  0.00     0.042 A 
ATOM     17  C   UNL A   1      32.612  21.596  23.357  1.00  0.00     0.067 A 
ATOM     18  C   UNL A   1      32.834  20.400  24.031  1.00  0.00     0.046 A 
ATOM     19  Cl  UNL A   1      32.418  18.913  23.277  1.00  0.00    -0.084 Cl
BRANCH  10  20
ATOM     20  C   UNL A   1      33.387  26.099  23.698  1.00  0.00     0.429 C 
ATOM     21  F   UNL A   1      33.792  25.896  22.419  1.00  0.00    -0.167 F 
ATOM     22  F   UNL A   1      33.021  27.399  23.786  1.00  0.00    -0.167 F 
ATOM     23  F   UNL A   1      34.471  25.930  24.490  1.00  0.00    -0.167 F 
ENDBRANCH  10  20
ENDBRANCH   6   8
ENDBRANCH   3   4
ENDBRANCH   2   3
ENDBRANCH   1   2
BRANCH   1  24
ATOM     24  N   UNL A   1      32.351  31.413  26.683  1.00  0.00    -0.352 N 
ATOM     25  C   UNL A   1      33.177  32.252  27.408  1.00  0.00     0.251 C 
ATOM     26  H   UNL A   1      31.511  31.832  26.387  1.00  0.00     0.163 HD
ATOM     27  O   UNL A   1      32.769  33.358  27.722  1.00  0.00    -0.269 OA
BRANCH  25  28
ATOM     28  C   UNL A   1      34.524  31.803  27.840  1.00  0.00     0.039 A 
ATOM     29  C   UNL A   1      35.560  32.741  27.920  1.00  0.00     0.014 A 
ATOM     30  C   UNL A   1      34.771  30.475  28.176  1.00  0.00     0.014 A 
ATOM     31  C   UNL A   1      36.797  32.369  28.458  1.00  0.00     0.010 A 
ATOM     32  C   UNL A   1      35.959  30.133  28.814  1.00  0.00     0.010 A 
ATOM     33  C   UNL A   1      36.982  31.079  28.981  1.00  0.00    -0.014 A 
BRANCH  33  34
ATOM     34  C   UNL A   1      38.209  30.690  29.732  1.00  0.00     0.031 A 
ATOM     35  C   UNL A   1      39.165  29.687  29.142  1.00  0.00     0.074 A 
ATOM     36  C   UNL A   1      38.393  31.139  30.991  1.00  0.00     0.049 A 
ATOM     37  N   UNL A   1      40.166  29.061  29.707  1.00  0.00    -0.248 NA
ATOM     38  C   UNL A   1      38.931  29.302  27.742  1.00  0.00     0.031 C 
ATOM     39  C   UNL A   1      37.514  32.075  31.697  1.00  0.00     0.029 A 
ATOM     40  N   UNL A   1      39.369  30.849  31.913  1.00  0.00    -0.354 N 
ATOM     41  C   UNL A   1      40.655  28.183  28.744  1.00  0.00     0.074 A 
ATOM     42  C   UNL A   1      39.802  28.318  27.583  1.00  0.00     0.031 C 
ATOM     43  C   UNL A   1      38.002  32.298  32.927  1.00  0.00     0.029 A 
ATOM     44  C   UNL A   1      39.189  31.478  33.126  1.00  0.00     0.049 A 
ATOM     45  H   UNL A   1      40.126  30.248  31.726  1.00  0.00     0.167 HD
ATOM     46  C   UNL A   1      41.729  27.357  28.816  1.00  0.00     0.034 A 
ATOM     47  C   UNL A   1      39.885  31.383  34.277  1.00  0.00     0.034 A 
ATOM     48  C   UNL A   1      42.592  27.265  29.968  1.00  0.00     0.049 A 
ATOM     49  C   UNL A   1      41.069  30.454  34.335  1.00  0.00     0.074 A 
ATOM     50  C   UNL A   1      43.754  26.529  30.119  1.00  0.00     0.029 A 
ATOM     51  N   UNL A   1      42.385  27.930  31.171  1.00  0.00    -0.354 N 
ATOM     52  N   UNL A   1      41.545  29.663  33.401  1.00  0.00    -0.248 NA
ATOM     53  C   UNL A   1      41.809  30.405  35.602  1.00  0.00     0.031 C 
ATOM     54  C   UNL A   1      44.215  26.700  31.430  1.00  0.00     0.029 A 
ATOM     55  C   UNL A   1      43.380  27.596  32.076  1.00  0.00     0.049 A 
ATOM     56  H   UNL A   1      41.643  28.550  31.352  1.00  0.00     0.167 HD
ATOM     57  C   UNL A   1      42.652  29.035  33.965  1.00  0.00     0.074 A 
ATOM     58  C   UNL A   1      42.785  29.557  35.310  1.00  0.00     0.031 C 
ATOM     59  C   UNL A   1      43.484  28.111  33.422  1.00  0.00     0.034 A 
BRANCH  46  60
ATOM     60  C   UNL A   1      42.014  26.480  27.619  1.00  0.00     0.023 A 
ATOM     61  C   UNL A   1      41.577  25.146  27.560  1.00  0.00     0.031 A 
ATOM     62  C   UNL A   1      42.762  26.975  26.535  1.00  0.00     0.131 A 
ATOM     63  C   UNL A   1      41.962  24.328  26.485  1.00  0.00     0.055 A 
ATOM     64  C   UNL A   1      43.069  26.181  25.428  1.00  0.00     0.041 A 
ATOM     65  F   UNL A   1      43.224  28.235  26.541  1.00  0.00    -0.206 F 
ATOM     66  C   UNL A   1      42.683  24.843  25.406  1.00  0.00     0.022 A 
BRANCH  63  67
ATOM     67  S   UNL A   1      41.633  22.548  26.595  1.00  0.00     0.124 S 
ATOM     68  O   UNL A   1      40.180  22.527  26.751  1.00  0.00    -0.237 OA
ATOM     69  O   UNL A   1      42.146  22.053  25.323  1.00  0.00    -0.237 OA
ATOM     70  O   UNL A   1      42.386  22.134  27.778  1.00  0.00    -0.744 OA
ENDBRANCH  63  67
ENDBRANCH  46  60
BRANCH  47  71
ATOM     71  C   UNL A   1      39.472  32.164  35.478  1.00  0.00     0.023 A 
ATOM     72  C   UNL A   1      38.697  31.574  36.489  1.00  0.00     0.031 A 
ATOM     73  C   UNL A   1      39.810  33.522  35.616  1.00  0.00     0.131 A 
ATOM     74  C   UNL A   1      38.248  32.348  37.570  1.00  0.00     0.055 A 
ATOM     75  C   UNL A   1      39.404  34.276  36.718  1.00  0.00     0.041 A 
ATOM     76  F   UNL A   1      40.554  34.135  34.681  1.00  0.00    -0.206 F 
ATOM     77  C   UNL A   1      38.608  33.692  37.699  1.00  0.00     0.022 A 
BRANCH  74  78
ATOM     78  S   UNL A   1      37.120  31.590  38.769  1.00  0.00     0.124 S 
ATOM     79  O   UNL A   1      36.909  30.269  38.187  1.00  0.00    -0.237 OA
ATOM     80  O   UNL A   1      37.908  31.632  39.996  1.00  0.00    -0.237 OA
ATOM     81  O   UNL A   1      35.956  32.475  38.748  1.00  0.00    -0.744 OA
ENDBRANCH  74  78
ENDBRANCH  47  71
BRANCH  59  82
ATOM     82  C   UNL A   1      44.623  27.632  34.286  1.00  0.00     0.023 A 
ATOM     83  C   UNL A   1      44.493  26.504  35.113  1.00  0.00     0.031 A 
ATOM     84  C   UNL A   1      45.848  28.321  34.291  1.00  0.00     0.131 A 
ATOM     85  C   UNL A   1      45.552  26.127  35.951  1.00  0.00     0.055 A 
ATOM     86  C   UNL A   1      46.918  27.908  35.085  1.00  0.00     0.041 A 
ATOM     87  F   UNL A   1      46.025  29.407  33.521  1.00  0.00    -0.206 F 
ATOM     88  C   UNL A   1      46.769  26.812  35.930  1.00  0.00     0.022 A 
BRANCH  85  89
ATOM     89  S   UNL A   1      45.289  24.775  37.132  1.00  0.00     0.124 S 
ATOM     90  O   UNL A   1      45.444  23.598  36.284  1.00  0.00    -0.237 OA
ATOM     91  O   UNL A   1      46.350  25.003  38.109  1.00  0.00    -0.237 OA
ATOM     92  O   UNL A   1      43.933  25.011  37.626  1.00  0.00    -0.744 OA
ENDBRANCH  85  89
ENDBRANCH  59  82
ENDBRANCH  33  34
ENDBRANCH  25  28
ENDBRANCH   1  24
TORSDOF 14
ENDMDL
MODEL 2
REMARK VINA RESULT:     -13.0      1.388      1.584
REMARK SMILES O=C(NCCCNC(=O)c1ccc(-c2c3nc(c(-c4cc(S(=O)(=O)[O-])ccc4F)c4ccc([nH]4)c(-c4cc(S(=O)(=O)[O-])ccc4F)c4nc(c(-c5cc(S(=O)(=O)[O-])ccc5F)c5ccc2[nH]5)C=C4)C=C3)cc1)C1=Cc2c(Cl)cc(Cl)cc2O[C@@H]1C(F)(F)F
REMARK SMILES IDX 6 1 5 2 4 3 3 4 1 5 2 6 73 8 74 9 84 10 75 11 83 12 76 13
REMARK SMILES IDX 82 14 77 15 78 16 81 17 79 18 80 19 85 20 86 21 87 22 88 23
REMARK SMILES IDX 7 24 8 25 9 27 10 28 11 29 72 30 12 31 71 32 13 33 14 34
REMARK SMILES IDX 15 35 65 36 16 37 70 38 64 39 66 40 17 41 69 42 63 43 62 44
REMARK SMILES IDX 18 46 50 47 30 48 49 49 31 50 34 51 48 52 67 53 32 54 33 55
REMARK SMILES IDX 47 57 68 58 35 59 19 60 20 61 28 62 21 63 27 64 29 65 26 66
REMARK SMILES IDX 22 67 23 68 24 69 25 70 51 71 52 72 60 73 53 74 59 75 61 76
REMARK SMILES IDX 58 77 54 78 55 79 56 80 57 81 36 82 37 83 45 84 38 85 44 86
REMARK SMILES IDX 46 87 43 88 39 89 40 90 41 91 42 92
REMARK H PARENT 3 7 7 26 66 45 34 56
REMARK Flexibility Score: inf
ROOT
ATOM      1  C   UNL A   1      32.313  30.189  26.228  1.00  0.00     0.118 C 
ENDROOT
BRANCH   1   2
ATOM      2  C   UNL A   1      31.757  29.183  27.233  1.00  0.00     0.042 C 
BRANCH   2   3
ATOM      3  C   UNL A   1      32.158  27.748  26.911  1.00  0.00     0.118 C 
BRANCH   3   4
ATOM      4  N   UNL A   1      31.023  26.828  26.781  1.00  0.00    -0.352 N 
ATOM      5  O   UNL A   1      30.008  24.821  26.454  1.00  0.00    -0.270 OA
ATOM      6  C   UNL A   1      30.975  25.547  26.276  1.00  0.00     0.251 C 
ATOM      7  H   UNL A   1      30.162  27.179  27.105  1.00  0.00     0.163 HD
BRANCH   6   8
ATOM      8  C   UNL A   1      32.176  25.056  25.575  1.00  0.00     0.067 C 
ATOM      9  C   UNL A   1      32.923  24.148  26.214  1.00  0.00     0.027 C 
ATOM     10  C   UNL A   1      32.248  25.280  24.100  1.00  0.00     0.314 C 
ATOM     11  C   UNL A   1      33.239  22.960  25.397  1.00  0.00     0.036 A 
ATOM     12  O   UNL A   1      32.354  24.040  23.363  1.00  0.00    -0.475 OA
ATOM     13  C   UNL A   1      33.549  21.737  26.023  1.00  0.00     0.053 A 
ATOM     14  C   UNL A   1      32.807  22.939  24.052  1.00  0.00     0.130 A 
ATOM     15  Cl  UNL A   1      34.067  21.646  27.673  1.00  0.00    -0.083 Cl
ATOM     16  C   UNL A   1      33.322  20.528  25.362  1.00  0.00     0.042 A 
ATOM     17  C   UNL A   1      32.612  21.728  23.386  1.00  0.00     0.067 A 
ATOM     18  C   UNL A   1      32.829  20.531  24.060  1.00  0.00     0.046 A 
ATOM     19  Cl  UNL A   1      32.409  19.045  23.305  1.00  0.00    -0.084 Cl
BRANCH  10  20
ATOM     20  C   UNL A   1      33.400  26.228  23.732  1.00  0.00     0.429 C 
ATOM     21  F   UNL A   1      33.914  25.917  22.515  1.00  0.00    -0.167 F 
ATOM     22  F   UNL A   1      32.997  27.518  23.663  1.00  0.00    -0.167 F 
ATOM     23  F   UNL A   1      34.420  26.170  24.620  1.00  0.00    -0.167 F 
ENDBRANCH  10  20
ENDBRANCH   6   8
ENDBRANCH   3   4
ENDBRANCH   2   3
ENDBRANCH   1   2
BRANCH   1  24
ATOM     24  N   UNL A   1      32.142  31.580  26.643  1.00  0.00    -0.352 N 
ATOM     25  C   UNL A   1      32.951  32.426  27.376  1.00  0.00     0.251 C 
ATOM     26  H   UNL A   1      31.297  31.988  26.345  1.00  0.00     0.163 HD
ATOM     27  O   UNL A   1      32.524  33.524  27.696  1.00  0.00    -0.269 OA
BRANCH  25  28
ATOM     28  C   UNL A   1      34.303  31.997  27.812  1.00  0.00     0.039 A 
ATOM     29  C   UNL A   1      35.320  32.952  27.914  1.00  0.00     0.014 A 
ATOM     30  C   UNL A   1      34.572  30.668  28.131  1.00  0.00     0.014 A 
ATOM     31  C   UNL A   1      36.560  32.594  28.457  1.00  0.00     0.010 A 
ATOM     32  C   UNL A   1      35.761  30.338  28.773  1.00  0.00     0.010 A 
ATOM     33  C   UNL A   1      36.765  31.301  28.962  1.00  0.00    -0.014 A 
BRANCH  33  34
ATOM     34  C   UNL A   1      37.993  30.923  29.717  1.00  0.00     0.031 A 
ATOM     35  C   UNL A   1      38.956  29.922  29.134  1.00  0.00     0.074 A 
ATOM     36  C   UNL A   1      38.174  31.381  30.973  1.00  0.00     0.049 A 
ATOM     37  N   UNL A   1      39.960  29.305  29.704  1.00  0.00    -0.248 NA
ATOM     38  C   UNL A   1      38.725  29.527  27.736  1.00  0.00     0.031 C 
ATOM     39  C   UNL A   1      37.288  32.316  31.672  1.00  0.00     0.029 A 
ATOM     40  N   UNL A   1      39.150  31.102  31.898  1.00  0.00    -0.354 N 
ATOM     41  C   UNL A   1      40.455  28.424  28.747  1.00  0.00     0.074 A 
ATOM     42  C   UNL A   1      39.602  28.547  27.584  1.00  0.00     0.031 C 
ATOM     43  C   UNL A   1      37.773  32.550  32.901  1.00  0.00     0.029 A 
ATOM     44  C   UNL A   1      38.966  31.737  33.106  1.00  0.00     0.049 A 
ATOM     45  H   UNL A   1      39.911  30.504  31.715  1.00  0.00     0.167 HD
ATOM     46  C   UNL A   1      41.533  27.604  28.825  1.00  0.00     0.034 A 
ATOM     47  C   UNL A   1      39.660  31.653  34.259  1.00  0.00     0.034 A 
ATOM     48  C   UNL A   1      42.395  27.524  29.979  1.00  0.00     0.049 A 
ATOM     49  C   UNL A   1      40.850  30.731  34.324  1.00  0.00     0.074 A 
ATOM     50  C   UNL A   1      43.561  26.795  30.136  1.00  0.00     0.029 A 
ATOM     51  N   UNL A   1      42.184  28.196  31.177  1.00  0.00    -0.354 N 
ATOM     52  N   UNL A   1      41.331  29.937  33.395  1.00  0.00    -0.248 NA
ATOM     53  C   UNL A   1      41.589  30.694  35.593  1.00  0.00     0.031 C 
ATOM     54  C   UNL A   1      44.020  26.978  31.445  1.00  0.00     0.029 A 
ATOM     55  C   UNL A   1      43.179  27.873  32.086  1.00  0.00     0.049 A 
ATOM     56  H   UNL A   1      41.437  28.812  31.354  1.00  0.00     0.167 HD
ATOM     57  C   UNL A   1      42.441  29.319  33.965  1.00  0.00     0.074 A 
ATOM     58  C   UNL A   1      42.570  29.850  35.307  1.00  0.00     0.031 C 
ATOM     59  C   UNL A   1      43.278  28.397  33.428  1.00  0.00     0.034 A 
BRANCH  46  60
ATOM     60  C   UNL A   1      41.824  26.722  27.634  1.00  0.00     0.023 A 
ATOM     61  C   UNL A   1      41.455  25.366  27.611  1.00  0.00     0.031 A 
ATOM     62  C   UNL A   1      42.510  27.234  26.518  1.00  0.00     0.131 A 
ATOM     63  C   UNL A   1      41.847  24.550  26.538  1.00  0.00     0.055 A 
ATOM     64  C   UNL A   1      42.822  26.437  25.415  1.00  0.00     0.041 A 
ATOM     65  F   UNL A   1      42.906  28.516  26.488  1.00  0.00    -0.206 F 
ATOM     66  C   UNL A   1      42.505  25.081  25.428  1.00  0.00     0.022 A 
BRANCH  63  67
ATOM     67  S   UNL A   1      41.614  22.758  26.688  1.00  0.00     0.124 S 
ATOM     68  O   UNL A   1      40.186  22.671  26.985  1.00  0.00    -0.237 OA
ATOM     69  O   UNL A   1      42.023  22.275  25.374  1.00  0.00    -0.237 OA
ATOM     70  O   UNL A   1      42.497  22.389  27.793  1.00  0.00    -0.744 OA
ENDBRANCH  63  67
ENDBRANCH  46  60
BRANCH  47  71
ATOM     71  C   UNL A   1      39.242  32.440  35.455  1.00  0.00     0.023 A 
ATOM     72  C   UNL A   1      39.692  33.757  35.643  1.00  0.00     0.031 A 
ATOM     73  C   UNL A   1      38.421  31.877  36.447  1.00  0.00     0.131 A 
ATOM     74  C   UNL A   1      39.355  34.452  36.815  1.00  0.00     0.055 A 
ATOM     75  C   UNL A   1      38.046  32.590  37.587  1.00  0.00     0.041 A 
ATOM     76  F   UNL A   1      37.958  30.623  36.315  1.00  0.00    -0.206 F 
ATOM     77  C   UNL A   1      38.524  33.882  37.782  1.00  0.00     0.022 A 
BRANCH  74  78
ATOM     78  S   UNL A   1      40.085  36.088  37.092  1.00  0.00     0.124 S 
ATOM     79  O   UNL A   1      39.279  36.590  38.200  1.00  0.00    -0.237 OA
ATOM     80  O   UNL A   1      41.469  35.752  37.408  1.00  0.00    -0.237 OA
ATOM     81  O   UNL A   1      39.887  36.771  35.815  1.00  0.00    -0.744 OA
ENDBRANCH  74  78
ENDBRANCH  47  71
BRANCH  59  82
ATOM     82  C   UNL A   1      44.419  27.929  34.296  1.00  0.00     0.023 A 
ATOM     83  C   UNL A   1      44.283  26.826  35.156  1.00  0.00     0.031 A 
ATOM     84  C   UNL A   1      45.652  28.604  34.273  1.00  0.00     0.131 A 
ATOM     85  C   UNL A   1      45.345  26.461  35.996  1.00  0.00     0.055 A 
ATOM     86  C   UNL A   1      46.724  28.202  35.069  1.00  0.00     0.041 A 
ATOM     87  F   UNL A   1      45.834  29.666  33.471  1.00  0.00    -0.206 F 
ATOM     88  C   UNL A   1      46.570  27.132  35.946  1.00  0.00     0.022 A 
BRANCH  85  89
ATOM     89  S   UNL A   1      45.077  25.146  37.217  1.00  0.00     0.124 S 
ATOM     90  O   UNL A   1      43.631  24.958  37.147  1.00  0.00    -0.237 OA
ATOM     91  O   UNL A   1      45.888  24.055  36.685  1.00  0.00    -0.237 OA
ATOM     92  O   UNL A   1      45.568  25.731  38.463  1.00  0.00    -0.744 OA
ENDBRANCH  85  89
ENDBRANCH  59  82
ENDBRANCH  33  34
ENDBRANCH  25  28
ENDBRANCH   1  24
TORSDOF 14
ENDMDL
MODEL 3
REMARK VINA RESULT:     -13.0      2.848      3.682
REMARK SMILES O=C(NCCCNC(=O)c1ccc(-c2c3nc(c(-c4cc(S(=O)(=O)[O-])ccc4F)c4ccc([nH]4)c(-c4cc(S(=O)(=O)[O-])ccc4F)c4nc(c(-c5cc(S(=O)(=O)[O-])ccc5F)c5ccc2[nH]5)C=C4)C=C3)cc1)C1=Cc2c(Cl)cc(Cl)cc2O[C@@H]1C(F)(F)F
REMARK SMILES IDX 6 1 5 2 4 3 3 4 1 5 2 6 73 8 74 9 84 10 75 11 83 12 76 13
REMARK SMILES IDX 82 14 77 15 78 16 81 17 79 18 80 19 85 20 86 21 87 22 88 23
REMARK SMILES IDX 7 24 8 25 9 27 10 28 11 29 72 30 12 31 71 32 13 33 14 34
REMARK SMILES IDX 15 35 65 36 16 37 70 38 64 39 66 40 17 41 69 42 63 43 62 44
REMARK SMILES IDX 18 46 50 47 30 48 49 49 31 50 34 51 48 52 67 53 32 54 33 55
REMARK SMILES IDX 47 57 68 58 35 59 19 60 20 61 28 62 21 63 27 64 29 65 26 66
REMARK SMILES IDX 22 67 23 68 24 69 25 70 51 71 52 72 60 73 53 74 59 75 61 76
REMARK SMILES IDX 58 77 54 78 55 79 56 80 57 81 36 82 37 83 45 84 38 85 44 86
REMARK SMILES IDX 46 87 43 88 39 89 40 90 41 91 42 92
REMARK H PARENT 3 7 7 26 66 45 34 56
REMARK Flexibility Score: inf
ROOT
ATOM      1  C   UNL A   1      31.856  30.576  26.880  1.00  0.00     0.118 C 
ENDROOT
BRANCH   1   2
ATOM      2  C   UNL A   1      31.883  30.095  25.432  1.00  0.00     0.042 C 
BRANCH   2   3
ATOM      3  C   UNL A   1      32.640  28.781  25.263  1.00  0.00     0.118 C 
BRANCH   3   4
ATOM      4  N   UNL A   1      32.021  27.646  25.956  1.00  0.00    -0.352 N 
ATOM      5  O   UNL A   1      31.003  25.620  26.115  1.00  0.00    -0.270 OA
ATOM      6  C   UNL A   1      31.246  26.621  25.458  1.00  0.00     0.251 C 
ATOM      7  H   UNL A   1      32.185  27.609  26.926  1.00  0.00     0.163 HD
BRANCH   6   8
ATOM      8  C   UNL A   1      30.784  26.746  24.063  1.00  0.00     0.067 C 
ATOM      9  C   UNL A   1      29.470  26.918  23.872  1.00  0.00     0.027 C 
ATOM     10  C   UNL A   1      31.809  27.076  23.028  1.00  0.00     0.314 C 
ATOM     11  C   UNL A   1      29.144  28.048  22.981  1.00  0.00     0.036 A 
ATOM     12  O   UNL A   1      31.512  28.313  22.339  1.00  0.00    -0.475 OA
ATOM     13  C   UNL A   1      27.887  28.677  23.070  1.00  0.00     0.053 A 
ATOM     14  C   UNL A   1      30.210  28.755  22.379  1.00  0.00     0.130 A 
ATOM     15  Cl  UNL A   1      26.520  27.912  23.807  1.00  0.00    -0.083 Cl
ATOM     16  C   UNL A   1      27.734  30.008  22.679  1.00  0.00     0.042 A 
ATOM     17  C   UNL A   1      30.042  30.075  21.961  1.00  0.00     0.067 A 
ATOM     18  C   UNL A   1      28.817  30.706  22.153  1.00  0.00     0.046 A 
ATOM     19  Cl  UNL A   1      28.666  32.384  21.813  1.00  0.00    -0.084 Cl
BRANCH  10  20
ATOM     20  C   UNL A   1      31.983  25.926  22.024  1.00  0.00     0.429 C 
ATOM     21  F   UNL A   1      33.286  25.784  21.671  1.00  0.00    -0.167 F 
ATOM     22  F   UNL A   1      31.589  24.737  22.536  1.00  0.00    -0.167 F 
ATOM     23  F   UNL A   1      31.283  26.127  20.883  1.00  0.00    -0.167 F 
ENDBRANCH  10  20
ENDBRANCH   6   8
ENDBRANCH   3   4
ENDBRANCH   2   3
ENDBRANCH   1   2
BRANCH   1  24
ATOM     24  N   UNL A   1      31.868  32.031  27.009  1.00  0.00    -0.352 N 
ATOM     25  C   UNL A   1      32.822  32.903  27.500  1.00  0.00     0.251 C 
ATOM     26  H   UNL A   1      31.049  32.471  26.688  1.00  0.00     0.163 HD
ATOM     27  O   UNL A   1      32.542  34.085  27.612  1.00  0.00    -0.269 OA
BRANCH  25  28
ATOM     28  C   UNL A   1      34.154  32.408  27.928  1.00  0.00     0.039 A 
ATOM     29  C   UNL A   1      35.230  33.302  27.974  1.00  0.00     0.014 A 
ATOM     30  C   UNL A   1      34.349  31.079  28.295  1.00  0.00     0.014 A 
ATOM     31  C   UNL A   1      36.456  32.890  28.509  1.00  0.00     0.010 A 
ATOM     32  C   UNL A   1      35.529  30.701  28.929  1.00  0.00     0.010 A 
ATOM     33  C   UNL A   1      36.592  31.607  29.062  1.00  0.00    -0.014 A 
BRANCH  33  34
ATOM     34  C   UNL A   1      37.810  31.184  29.809  1.00  0.00     0.031 A 
ATOM     35  C   UNL A   1      38.739  30.159  29.214  1.00  0.00     0.074 A 
ATOM     36  C   UNL A   1      38.008  31.624  31.069  1.00  0.00     0.049 A 
ATOM     37  N   UNL A   1      39.725  29.506  29.775  1.00  0.00    -0.248 NA
ATOM     38  C   UNL A   1      38.493  29.785  27.813  1.00  0.00     0.031 C 
ATOM     39  C   UNL A   1      37.154  32.580  31.779  1.00  0.00     0.029 A 
ATOM     40  N   UNL A   1      38.978  31.307  31.989  1.00  0.00    -0.354 N 
ATOM     41  C   UNL A   1      40.189  28.618  28.809  1.00  0.00     0.074 A 
ATOM     42  C   UNL A   1      39.337  28.779  27.650  1.00  0.00     0.031 C 
ATOM     43  C   UNL A   1      37.650  32.787  33.009  1.00  0.00     0.029 A 
ATOM     44  C   UNL A   1      38.816  31.936  33.203  1.00  0.00     0.049 A 
ATOM     45  H   UNL A   1      39.719  30.687  31.798  1.00  0.00     0.167 HD
ATOM     46  C   UNL A   1      41.242  27.765  28.876  1.00  0.00     0.034 A 
ATOM     47  C   UNL A   1      39.511  31.820  34.353  1.00  0.00     0.034 A 
ATOM     48  C   UNL A   1      42.104  27.647  30.026  1.00  0.00     0.049 A 
ATOM     49  C   UNL A   1      40.672  30.860  34.406  1.00  0.00     0.074 A 
ATOM     50  C   UNL A   1      43.247  26.880  30.173  1.00  0.00     0.029 A 
ATOM     51  N   UNL A   1      41.917  28.314  31.231  1.00  0.00    -0.354 N 
ATOM     52  N   UNL A   1      41.125  30.060  33.468  1.00  0.00    -0.248 NA
ATOM     53  C   UNL A   1      41.413  30.788  35.672  1.00  0.00     0.031 C 
ATOM     54  C   UNL A   1      43.715  27.036  31.483  1.00  0.00     0.029 A 
ATOM     55  C   UNL A   1      42.905  27.951  32.134  1.00  0.00     0.049 A 
ATOM     56  H   UNL A   1      41.191  28.951  31.416  1.00  0.00     0.167 HD
ATOM     57  C   UNL A   1      42.217  29.403  34.028  1.00  0.00     0.074 A 
ATOM     58  C   UNL A   1      42.366  29.917  35.375  1.00  0.00     0.031 C 
ATOM     59  C   UNL A   1      43.023  28.459  33.481  1.00  0.00     0.034 A 
BRANCH  46  60
ATOM     60  C   UNL A   1      41.502  26.885  27.676  1.00  0.00     0.023 A 
ATOM     61  C   UNL A   1      41.112  25.535  27.651  1.00  0.00     0.031 A 
ATOM     62  C   UNL A   1      42.179  27.393  26.553  1.00  0.00     0.131 A 
ATOM     63  C   UNL A   1      41.476  24.719  26.568  1.00  0.00     0.055 A 
ATOM     64  C   UNL A   1      42.462  26.598  25.441  1.00  0.00     0.041 A 
ATOM     65  F   UNL A   1      42.594  28.670  26.524  1.00  0.00    -0.206 F 
ATOM     66  C   UNL A   1      42.125  25.247  25.451  1.00  0.00     0.022 A 
BRANCH  63  67
ATOM     67  S   UNL A   1      41.218  22.930  26.712  1.00  0.00     0.124 S 
ATOM     68  O   UNL A   1      39.767  22.830  26.573  1.00  0.00    -0.237 OA
ATOM     69  O   UNL A   1      42.003  22.408  25.600  1.00  0.00    -0.237 OA
ATOM     70  O   UNL A   1      41.733  22.616  28.043  1.00  0.00    -0.744 OA
ENDBRANCH  63  67
ENDBRANCH  46  60
BRANCH  47  71
ATOM     71  C   UNL A   1      39.121  32.608  35.557  1.00  0.00     0.023 A 
ATOM     72  C   UNL A   1      39.607  33.911  35.752  1.00  0.00     0.031 A 
ATOM     73  C   UNL A   1      38.292  32.059  36.550  1.00  0.00     0.131 A 
ATOM     74  C   UNL A   1      39.295  34.605  36.931  1.00  0.00     0.055 A 
ATOM     75  C   UNL A   1      37.943  32.772  37.698  1.00  0.00     0.041 A 
ATOM     76  F   UNL A   1      37.795  30.819  36.412  1.00  0.00    -0.206 F 
ATOM     77  C   UNL A   1      38.456  34.050  37.900  1.00  0.00     0.022 A 
BRANCH  74  78
ATOM     78  S   UNL A   1      40.070  36.219  37.217  1.00  0.00     0.124 S 
ATOM     79  O   UNL A   1      39.934  36.851  35.909  1.00  0.00    -0.237 OA
ATOM     80  O   UNL A   1      39.240  36.768  38.284  1.00  0.00    -0.237 OA
ATOM     81  O   UNL A   1      41.437  35.877  37.606  1.00  0.00    -0.744 OA
ENDBRANCH  74  78
ENDBRANCH  47  71
BRANCH  59  82
ATOM     82  C   UNL A   1      44.152  27.948  34.341  1.00  0.00     0.023 A 
ATOM     83  C   UNL A   1      43.976  26.859  35.211  1.00  0.00     0.031 A 
ATOM     84  C   UNL A   1      45.413  28.568  34.299  1.00  0.00     0.131 A 
ATOM     85  C   UNL A   1      45.029  26.454  36.044  1.00  0.00     0.055 A 
ATOM     86  C   UNL A   1      46.474  28.124  35.088  1.00  0.00     0.041 A 
ATOM     87  F   UNL A   1      45.634  29.614  33.487  1.00  0.00    -0.206 F 
ATOM     88  C   UNL A   1      46.282  27.069  35.976  1.00  0.00     0.022 A 
BRANCH  85  89
ATOM     89  S   UNL A   1      44.715  25.162  37.278  1.00  0.00     0.124 S 
ATOM     90  O   UNL A   1      43.268  24.998  37.184  1.00  0.00    -0.237 OA
ATOM     91  O   UNL A   1      45.517  24.050  36.778  1.00  0.00    -0.237 OA
ATOM     92  O   UNL A   1      45.193  25.757  38.525  1.00  0.00    -0.744 OA
ENDBRANCH  85  89
ENDBRANCH  59  82
ENDBRANCH  33  34
ENDBRANCH  25  28
ENDBRANCH   1  24
TORSDOF 14
ENDMDL
