MODEL 1
REMARK VINA RESULT:     -11.8      0.000      0.000
REMARK SMILES C[C@@H](CNC(=O)Cc1ccc(F)cc1F)C(=O)NCCCNC(=O)c1ccc(-c2c3nc(c(-c4cc(S(=O)(=O)[O-])ccc4F)c4ccc([nH]4)c(-c4cc(S(=O)(=O)[O-])ccc4F)c4nc(c(-c5cc(S(=O)(=O)[O-])ccc5F)c5ccc2[nH]5)C=C4)C=C3)cc1
REMARK SMILES IDX 19 1 18 2 16 3 17 4 2 6 1 7 3 8 4 9 5 10 6 12 7 13 8 14 9 15
REMARK SMILES IDX 14 16 10 17 13 18 15 19 11 20 12 21 20 22 21 23 22 24 23 25
REMARK SMILES IDX 24 27 25 28 26 29 87 30 27 31 86 32 28 33 29 34 30 35 80 36
REMARK SMILES IDX 31 37 85 38 79 39 81 40 32 41 84 42 78 43 77 44 33 46 65 47
REMARK SMILES IDX 45 48 64 49 46 50 49 51 63 52 82 53 47 54 48 55 62 57 83 58
REMARK SMILES IDX 50 59 34 60 35 61 43 62 36 63 42 64 44 65 41 66 37 67 38 68
REMARK SMILES IDX 39 69 40 70 66 71 67 72 75 73 68 74 74 75 76 76 73 77 69 78
REMARK SMILES IDX 70 79 71 80 72 81 51 82 52 83 60 84 53 85 59 86 61 87 58 88
REMARK SMILES IDX 54 89 55 90 56 91 57 92
REMARK H PARENT 18 5 4 11 22 26 81 45 49 56
REMARK Flexibility Score: inf
ROOT
ATOM      1  C   UNL A   1      32.088  27.491  26.656  1.00  0.00     0.117 C 
ENDROOT
BRANCH   1   2
ATOM      2  N   UNL A   1      30.950  26.606  26.837  1.00  0.00    -0.356 N 
ATOM      3  C   UNL A   1      30.503  25.552  26.107  1.00  0.00     0.224 C 
ATOM      4  O   UNL A   1      29.570  24.897  26.584  1.00  0.00    -0.275 OA
ATOM      5  H   UNL A   1      30.404  26.808  27.631  1.00  0.00     0.163 HD
BRANCH   3   6
ATOM      6  C   UNL A   1      31.069  25.166  24.747  1.00  0.00     0.094 C 
ATOM      7  C   UNL A   1      31.070  23.659  24.509  1.00  0.00     0.020 C 
BRANCH   6   8
ATOM      8  C   UNL A   1      30.599  26.016  23.557  1.00  0.00     0.129 C 
BRANCH   8   9
ATOM      9  N   UNL A   1      31.410  27.173  23.239  1.00  0.00    -0.355 N 
ATOM     10  C   UNL A   1      31.077  28.493  23.151  1.00  0.00     0.224 C 
ATOM     11  H   UNL A   1      32.357  26.975  23.056  1.00  0.00     0.163 HD
ATOM     12  O   UNL A   1      31.943  29.266  22.728  1.00  0.00    -0.275 OA
BRANCH  10  13
ATOM     13  C   UNL A   1      29.741  29.023  23.631  1.00  0.00     0.138 C 
BRANCH  13  14
ATOM     14  C   UNL A   1      29.150  30.184  22.873  1.00  0.00    -0.003 A 
ATOM     15  C   UNL A   1      28.568  30.024  21.608  1.00  0.00     0.010 A 
ATOM     16  C   UNL A   1      29.216  31.474  23.420  1.00  0.00     0.129 A 
ATOM     17  C   UNL A   1      28.031  31.131  20.941  1.00  0.00     0.040 A 
ATOM     18  C   UNL A   1      28.679  32.575  22.769  1.00  0.00     0.078 A 
ATOM     19  F   UNL A   1      29.792  31.658  24.618  1.00  0.00    -0.207 F 
ATOM     20  C   UNL A   1      28.084  32.391  21.531  1.00  0.00     0.126 A 
ATOM     21  F   UNL A   1      27.564  33.445  20.890  1.00  0.00    -0.207 F 
ENDBRANCH  13  14
ENDBRANCH  10  13
ENDBRANCH   8   9
ENDBRANCH   6   8
ENDBRANCH   3   6
ENDBRANCH   1   2
BRANCH   1  22
ATOM     22  C   UNL A   1      31.736  28.959  26.821  1.00  0.00     0.042 C 
BRANCH  22  23
ATOM     23  C   UNL A   1      32.802  29.895  26.267  1.00  0.00     0.118 C 
BRANCH  23  24
ATOM     24  N   UNL A   1      32.610  31.284  26.674  1.00  0.00    -0.352 N 
ATOM     25  C   UNL A   1      33.389  32.102  27.458  1.00  0.00     0.251 C 
ATOM     26  H   UNL A   1      31.787  31.703  26.331  1.00  0.00     0.163 HD
ATOM     27  O   UNL A   1      32.961  33.200  27.804  1.00  0.00    -0.269 OA
BRANCH  25  28
ATOM     28  C   UNL A   1      34.718  31.647  27.919  1.00  0.00     0.039 A 
ATOM     29  C   UNL A   1      35.767  32.566  27.993  1.00  0.00     0.014 A 
ATOM     30  C   UNL A   1      34.924  30.321  28.303  1.00  0.00     0.014 A 
ATOM     31  C   UNL A   1      36.988  32.182  28.554  1.00  0.00     0.010 A 
ATOM     32  C   UNL A   1      36.099  29.967  28.954  1.00  0.00     0.010 A 
ATOM     33  C   UNL A   1      37.143  30.895  29.095  1.00  0.00    -0.014 A 
BRANCH  33  34
ATOM     34  C   UNL A   1      38.375  30.488  29.823  1.00  0.00     0.031 A 
ATOM     35  C   UNL A   1      39.299  29.467  29.213  1.00  0.00     0.074 A 
ATOM     36  C   UNL A   1      38.604  30.952  31.067  1.00  0.00     0.049 A 
ATOM     37  N   UNL A   1      40.324  28.854  29.746  1.00  0.00    -0.248 NA
ATOM     38  C   UNL A   1      38.998  29.050  27.836  1.00  0.00     0.031 C 
ATOM     39  C   UNL A   1      37.757  31.910  31.784  1.00  0.00     0.029 A 
ATOM     40  N   UNL A   1      39.605  30.668  31.961  1.00  0.00    -0.354 N 
ATOM     41  C   UNL A   1      40.773  27.959  28.780  1.00  0.00     0.074 A 
ATOM     42  C   UNL A   1      39.867  28.068  27.656  1.00  0.00     0.031 C 
ATOM     43  C   UNL A   1      38.286  32.148  32.994  1.00  0.00     0.029 A 
ATOM     44  C   UNL A   1      39.477  31.321  33.166  1.00  0.00     0.049 A 
ATOM     45  H   UNL A   1      40.347  30.052  31.760  1.00  0.00     0.167 HD
ATOM     46  C   UNL A   1      41.852  27.139  28.819  1.00  0.00     0.034 A 
ATOM     47  C   UNL A   1      40.218  31.247  34.289  1.00  0.00     0.034 A 
ATOM     48  C   UNL A   1      42.760  27.066  29.936  1.00  0.00     0.049 A 
ATOM     49  C   UNL A   1      41.407  30.321  34.313  1.00  0.00     0.074 A 
ATOM     50  C   UNL A   1      43.925  26.327  30.055  1.00  0.00     0.029 A 
ATOM     51  N   UNL A   1      42.606  27.757  31.132  1.00  0.00    -0.354 N 
ATOM     52  N   UNL A   1      41.844  29.513  33.375  1.00  0.00    -0.248 NA
ATOM     53  C   UNL A   1      42.205  30.300  35.546  1.00  0.00     0.031 C 
ATOM     54  C   UNL A   1      44.440  26.525  31.341  1.00  0.00     0.029 A 
ATOM     55  C   UNL A   1      43.637  27.439  32.003  1.00  0.00     0.049 A 
ATOM     56  H   UNL A   1      41.871  28.381  31.331  1.00  0.00     0.167 HD
ATOM     57  C   UNL A   1      42.983  28.907  33.897  1.00  0.00     0.074 A 
ATOM     58  C   UNL A   1      43.172  29.454  35.225  1.00  0.00     0.031 C 
ATOM     59  C   UNL A   1      43.801  27.984  33.329  1.00  0.00     0.034 A 
BRANCH  46  60
ATOM     60  C   UNL A   1      42.087  26.246  27.624  1.00  0.00     0.023 A 
ATOM     61  C   UNL A   1      41.562  24.942  27.561  1.00  0.00     0.031 A 
ATOM     62  C   UNL A   1      42.880  26.686  26.549  1.00  0.00     0.131 A 
ATOM     63  C   UNL A   1      41.905  24.099  26.494  1.00  0.00     0.055 A 
ATOM     64  C   UNL A   1      43.147  25.870  25.448  1.00  0.00     0.041 A 
ATOM     65  F   UNL A   1      43.424  27.913  26.560  1.00  0.00    -0.206 F 
ATOM     66  C   UNL A   1      42.673  24.561  25.424  1.00  0.00     0.022 A 
BRANCH  63  67
ATOM     67  S   UNL A   1      41.459  22.344  26.603  1.00  0.00     0.124 S 
ATOM     68  O   UNL A   1      40.020  22.391  26.345  1.00  0.00    -0.237 OA
ATOM     69  O   UNL A   1      42.277  21.746  25.556  1.00  0.00    -0.237 OA
ATOM     70  O   UNL A   1      41.828  21.981  27.969  1.00  0.00    -0.744 OA
ENDBRANCH  63  67
ENDBRANCH  46  60
BRANCH  47  71
ATOM     71  C   UNL A   1      39.857  32.053  35.489  1.00  0.00     0.023 A 
ATOM     72  C   UNL A   1      38.935  31.569  36.432  1.00  0.00     0.031 A 
ATOM     73  C   UNL A   1      40.397  33.335  35.693  1.00  0.00     0.131 A 
ATOM     74  C   UNL A   1      38.547  32.378  37.510  1.00  0.00     0.055 A 
ATOM     75  C   UNL A   1      40.046  34.116  36.796  1.00  0.00     0.041 A 
ATOM     76  F   UNL A   1      41.289  33.842  34.827  1.00  0.00    -0.206 F 
ATOM     77  C   UNL A   1      39.106  33.644  37.706  1.00  0.00     0.022 A 
BRANCH  74  78
ATOM     78  S   UNL A   1      37.241  31.781  38.617  1.00  0.00     0.124 S 
ATOM     79  O   UNL A   1      37.036  30.422  38.130  1.00  0.00    -0.237 OA
ATOM     80  O   UNL A   1      37.873  31.905  39.927  1.00  0.00    -0.237 OA
ATOM     81  O   UNL A   1      36.137  32.706  38.371  1.00  0.00    -0.744 OA
ENDBRANCH  74  78
ENDBRANCH  47  71
BRANCH  59  82
ATOM     82  C   UNL A   1      44.994  27.542  34.137  1.00  0.00     0.023 A 
ATOM     83  C   UNL A   1      44.900  26.514  35.090  1.00  0.00     0.031 A 
ATOM     84  C   UNL A   1      46.241  28.166  33.952  1.00  0.00     0.131 A 
ATOM     85  C   UNL A   1      46.023  26.170  35.858  1.00  0.00     0.055 A 
ATOM     86  C   UNL A   1      47.367  27.782  34.680  1.00  0.00     0.041 A 
ATOM     87  F   UNL A   1      46.384  29.155  33.057  1.00  0.00    -0.206 F 
ATOM     88  C   UNL A   1      47.259  26.787  35.647  1.00  0.00     0.022 A 
BRANCH  85  89
ATOM     89  S   UNL A   1      45.829  24.956  37.190  1.00  0.00     0.124 S 
ATOM     90  O   UNL A   1      46.594  23.822  36.680  1.00  0.00    -0.237 OA
ATOM     91  O   UNL A   1      46.406  25.650  38.336  1.00  0.00    -0.237 OA
ATOM     92  O   UNL A   1      44.383  24.749  37.257  1.00  0.00    -0.744 OA
ENDBRANCH  85  89
ENDBRANCH  59  82
ENDBRANCH  33  34
ENDBRANCH  25  28
ENDBRANCH  23  24
ENDBRANCH  22  23
ENDBRANCH   1  22
TORSDOF 17
ENDMDL
MODEL 2
REMARK VINA RESULT:     -11.8      2.278      3.423
REMARK SMILES C[C@@H](CNC(=O)Cc1ccc(F)cc1F)C(=O)NCCCNC(=O)c1ccc(-c2c3nc(c(-c4cc(S(=O)(=O)[O-])ccc4F)c4ccc([nH]4)c(-c4cc(S(=O)(=O)[O-])ccc4F)c4nc(c(-c5cc(S(=O)(=O)[O-])ccc5F)c5ccc2[nH]5)C=C4)C=C3)cc1
REMARK SMILES IDX 19 1 18 2 16 3 17 4 2 6 1 7 3 8 4 9 5 10 6 12 7 13 8 14 9 15
REMARK SMILES IDX 14 16 10 17 13 18 15 19 11 20 12 21 20 22 21 23 22 24 23 25
REMARK SMILES IDX 24 27 25 28 26 29 87 30 27 31 86 32 28 33 29 34 30 35 80 36
REMARK SMILES IDX 31 37 85 38 79 39 81 40 32 41 84 42 78 43 77 44 33 46 65 47
REMARK SMILES IDX 45 48 64 49 46 50 49 51 63 52 82 53 47 54 48 55 62 57 83 58
REMARK SMILES IDX 50 59 34 60 35 61 43 62 36 63 42 64 44 65 41 66 37 67 38 68
REMARK SMILES IDX 39 69 40 70 66 71 67 72 75 73 68 74 74 75 76 76 73 77 69 78
REMARK SMILES IDX 70 79 71 80 72 81 51 82 52 83 60 84 53 85 59 86 61 87 58 88
REMARK SMILES IDX 54 89 55 90 56 91 57 92
REMARK H PARENT 18 5 4 11 22 26 81 45 49 56
REMARK Flexibility Score: inf
ROOT
ATOM      1  C   UNL A   1      31.092  29.961  24.779  1.00  0.00     0.117 C 
ENDROOT
BRANCH   1   2
ATOM      2  N   UNL A   1      30.610  30.157  23.422  1.00  0.00    -0.356 N 
ATOM      3  C   UNL A   1      30.243  29.273  22.460  1.00  0.00     0.224 C 
ATOM      4  O   UNL A   1      29.742  29.741  21.431  1.00  0.00    -0.275 OA
ATOM      5  H   UNL A   1      30.537  31.101  23.152  1.00  0.00     0.163 HD
BRANCH   3   6
ATOM      6  C   UNL A   1      30.444  27.768  22.575  1.00  0.00     0.094 C 
ATOM      7  C   UNL A   1      31.908  27.352  22.461  1.00  0.00     0.020 C 
BRANCH   6   8
ATOM      8  C   UNL A   1      29.650  27.067  23.689  1.00  0.00     0.129 C 
BRANCH   8   9
ATOM      9  N   UNL A   1      29.913  25.653  23.867  1.00  0.00    -0.355 N 
ATOM     10  C   UNL A   1      30.462  24.979  24.917  1.00  0.00     0.224 C 
ATOM     11  H   UNL A   1      29.653  25.087  23.105  1.00  0.00     0.163 HD
ATOM     12  O   UNL A   1      30.696  23.777  24.755  1.00  0.00    -0.275 OA
BRANCH  10  13
ATOM     13  C   UNL A   1      30.697  25.634  26.264  1.00  0.00     0.138 C 
BRANCH  13  14
ATOM     14  C   UNL A   1      31.895  26.540  26.387  1.00  0.00    -0.003 A 
ATOM     15  C   UNL A   1      33.084  26.295  25.687  1.00  0.00     0.010 A 
ATOM     16  C   UNL A   1      31.846  27.640  27.256  1.00  0.00     0.129 A 
ATOM     17  C   UNL A   1      34.172  27.164  25.831  1.00  0.00     0.040 A 
ATOM     18  C   UNL A   1      32.916  28.511  27.399  1.00  0.00     0.078 A 
ATOM     19  F   UNL A   1      30.727  27.881  27.958  1.00  0.00    -0.207 F 
ATOM     20  C   UNL A   1      34.073  28.265  26.677  1.00  0.00     0.126 A 
ATOM     21  F   UNL A   1      35.116  29.096  26.807  1.00  0.00    -0.207 F 
ENDBRANCH  13  14
ENDBRANCH  10  13
ENDBRANCH   8   9
ENDBRANCH   6   8
ENDBRANCH   3   6
ENDBRANCH   1   2
BRANCH   1  22
ATOM     22  C   UNL A   1      30.872  31.170  25.672  1.00  0.00     0.042 C 
BRANCH  22  23
ATOM     23  C   UNL A   1      32.124  31.586  26.434  1.00  0.00     0.118 C 
BRANCH  23  24
ATOM     24  N   UNL A   1      32.058  32.957  26.932  1.00  0.00    -0.352 N 
ATOM     25  C   UNL A   1      32.888  33.635  27.795  1.00  0.00     0.251 C 
ATOM     26  H   UNL A   1      31.295  33.481  26.596  1.00  0.00     0.163 HD
ATOM     27  O   UNL A   1      32.561  34.746  28.205  1.00  0.00    -0.269 OA
BRANCH  25  28
ATOM     28  C   UNL A   1      34.147  33.014  28.259  1.00  0.00     0.039 A 
ATOM     29  C   UNL A   1      35.353  33.693  28.071  1.00  0.00     0.014 A 
ATOM     30  C   UNL A   1      34.136  31.777  28.905  1.00  0.00     0.014 A 
ATOM     31  C   UNL A   1      36.530  33.183  28.626  1.00  0.00     0.010 A 
ATOM     32  C   UNL A   1      35.283  31.324  29.544  1.00  0.00     0.010 A 
ATOM     33  C   UNL A   1      36.493  32.024  29.420  1.00  0.00    -0.014 A 
BRANCH  33  34
ATOM     34  C   UNL A   1      37.693  31.523  30.140  1.00  0.00     0.031 A 
ATOM     35  C   UNL A   1      38.564  30.474  29.501  1.00  0.00     0.074 A 
ATOM     36  C   UNL A   1      37.936  31.929  31.402  1.00  0.00     0.049 A 
ATOM     37  N   UNL A   1      39.548  29.785  30.018  1.00  0.00    -0.248 NA
ATOM     38  C   UNL A   1      38.252  30.124  28.107  1.00  0.00     0.031 C 
ATOM     39  C   UNL A   1      37.138  32.907  32.147  1.00  0.00     0.029 A 
ATOM     40  N   UNL A   1      38.912  31.556  32.293  1.00  0.00    -0.354 N 
ATOM     41  C   UNL A   1      39.955  28.901  29.024  1.00  0.00     0.074 A 
ATOM     42  C   UNL A   1      39.066  29.102  27.898  1.00  0.00     0.031 C 
ATOM     43  C   UNL A   1      37.669  33.070  33.369  1.00  0.00     0.029 A 
ATOM     44  C   UNL A   1      38.809  32.172  33.519  1.00  0.00     0.049 A 
ATOM     45  H   UNL A   1      39.620  30.907  32.074  1.00  0.00     0.167 HD
ATOM     46  C   UNL A   1      40.985  28.020  29.040  1.00  0.00     0.034 A 
ATOM     47  C   UNL A   1      39.535  32.016  34.644  1.00  0.00     0.034 A 
ATOM     48  C   UNL A   1      41.878  27.857  30.161  1.00  0.00     0.049 A 
ATOM     49  C   UNL A   1      40.670  31.025  34.643  1.00  0.00     0.074 A 
ATOM     50  C   UNL A   1      42.998  27.049  30.261  1.00  0.00     0.029 A 
ATOM     51  N   UNL A   1      41.752  28.512  31.380  1.00  0.00    -0.354 N 
ATOM     52  N   UNL A   1      41.070  30.227  33.679  1.00  0.00    -0.248 NA
ATOM     53  C   UNL A   1      41.454  30.915  35.880  1.00  0.00     0.031 C 
ATOM     54  C   UNL A   1      43.512  27.172  31.557  1.00  0.00     0.029 A 
ATOM     55  C   UNL A   1      42.755  28.105  32.246  1.00  0.00     0.049 A 
ATOM     56  H   UNL A   1      41.052  29.169  31.596  1.00  0.00     0.167 HD
ATOM     57  C   UNL A   1      42.168  29.539  34.187  1.00  0.00     0.074 A 
ATOM     58  C   UNL A   1      42.375  30.027  35.536  1.00  0.00     0.031 C 
ATOM     59  C   UNL A   1      42.938  28.593  33.592  1.00  0.00     0.034 A 
BRANCH  46  60
ATOM     60  C   UNL A   1      41.181  27.159  27.816  1.00  0.00     0.023 A 
ATOM     61  C   UNL A   1      40.765  25.816  27.784  1.00  0.00     0.031 A 
ATOM     62  C   UNL A   1      41.829  27.673  26.678  1.00  0.00     0.131 A 
ATOM     63  C   UNL A   1      41.075  25.012  26.677  1.00  0.00     0.055 A 
ATOM     64  C   UNL A   1      42.058  26.890  25.545  1.00  0.00     0.041 A 
ATOM     65  F   UNL A   1      42.265  28.942  26.655  1.00  0.00    -0.206 F 
ATOM     66  C   UNL A   1      41.696  25.546  25.546  1.00  0.00     0.022 A 
BRANCH  63  67
ATOM     67  S   UNL A   1      40.791  23.225  26.801  1.00  0.00     0.124 S 
ATOM     68  O   UNL A   1      41.182  22.962  28.185  1.00  0.00    -0.237 OA
ATOM     69  O   UNL A   1      39.368  23.111  26.506  1.00  0.00    -0.237 OA
ATOM     70  O   UNL A   1      41.686  22.665  25.791  1.00  0.00    -0.744 OA
ENDBRANCH  63  67
ENDBRANCH  46  60
BRANCH  47  71
ATOM     71  C   UNL A   1      39.209  32.798  35.870  1.00  0.00     0.023 A 
ATOM     72  C   UNL A   1      39.749  34.077  36.075  1.00  0.00     0.031 A 
ATOM     73  C   UNL A   1      38.382  32.262  36.875  1.00  0.00     0.131 A 
ATOM     74  C   UNL A   1      39.494  34.760  37.274  1.00  0.00     0.055 A 
ATOM     75  C   UNL A   1      38.091  32.967  38.043  1.00  0.00     0.041 A 
ATOM     76  F   UNL A   1      37.833  31.046  36.726  1.00  0.00    -0.206 F 
ATOM     77  C   UNL A   1      38.658  34.220  38.254  1.00  0.00     0.022 A 
BRANCH  74  78
ATOM     78  S   UNL A   1      40.335  36.340  37.568  1.00  0.00     0.124 S 
ATOM     79  O   UNL A   1      39.375  37.034  38.417  1.00  0.00    -0.237 OA
ATOM     80  O   UNL A   1      41.571  35.910  38.214  1.00  0.00    -0.237 OA
ATOM     81  O   UNL A   1      40.497  36.894  36.226  1.00  0.00    -0.744 OA
ENDBRANCH  74  78
ENDBRANCH  47  71
BRANCH  59  82
ATOM     82  C   UNL A   1      44.097  28.056  34.393  1.00  0.00     0.023 A 
ATOM     83  C   UNL A   1      43.969  26.915  35.203  1.00  0.00     0.031 A 
ATOM     84  C   UNL A   1      45.345  28.702  34.345  1.00  0.00     0.131 A 
ATOM     85  C   UNL A   1      45.059  26.480  35.972  1.00  0.00     0.055 A 
ATOM     86  C   UNL A   1      46.441  28.232  35.070  1.00  0.00     0.041 A 
ATOM     87  F   UNL A   1      45.521  29.796  33.589  1.00  0.00    -0.206 F 
ATOM     88  C   UNL A   1      46.298  27.122  35.898  1.00  0.00     0.022 A 
BRANCH  85  89
ATOM     89  S   UNL A   1      44.815  25.107  37.130  1.00  0.00     0.124 S 
ATOM     90  O   UNL A   1      46.143  24.967  37.718  1.00  0.00    -0.237 OA
ATOM     91  O   UNL A   1      43.776  25.622  38.015  1.00  0.00    -0.237 OA
ATOM     92  O   UNL A   1      44.399  24.001  36.267  1.00  0.00    -0.744 OA
ENDBRANCH  85  89
ENDBRANCH  59  82
ENDBRANCH  33  34
ENDBRANCH  25  28
ENDBRANCH  23  24
ENDBRANCH  22  23
ENDBRANCH   1  22
TORSDOF 17
ENDMDL
MODEL 3
REMARK VINA RESULT:     -11.5      2.218      3.030
REMARK SMILES C[C@@H](CNC(=O)Cc1ccc(F)cc1F)C(=O)NCCCNC(=O)c1ccc(-c2c3nc(c(-c4cc(S(=O)(=O)[O-])ccc4F)c4ccc([nH]4)c(-c4cc(S(=O)(=O)[O-])ccc4F)c4nc(c(-c5cc(S(=O)(=O)[O-])ccc5F)c5ccc2[nH]5)C=C4)C=C3)cc1
REMARK SMILES IDX 19 1 18 2 16 3 17 4 2 6 1 7 3 8 4 9 5 10 6 12 7 13 8 14 9 15
REMARK SMILES IDX 14 16 10 17 13 18 15 19 11 20 12 21 20 22 21 23 22 24 23 25
REMARK SMILES IDX 24 27 25 28 26 29 87 30 27 31 86 32 28 33 29 34 30 35 80 36
REMARK SMILES IDX 31 37 85 38 79 39 81 40 32 41 84 42 78 43 77 44 33 46 65 47
REMARK SMILES IDX 45 48 64 49 46 50 49 51 63 52 82 53 47 54 48 55 62 57 83 58
REMARK SMILES IDX 50 59 34 60 35 61 43 62 36 63 42 64 44 65 41 66 37 67 38 68
REMARK SMILES IDX 39 69 40 70 66 71 67 72 75 73 68 74 74 75 76 76 73 77 69 78
REMARK SMILES IDX 70 79 71 80 72 81 51 82 52 83 60 84 53 85 59 86 61 87 58 88
REMARK SMILES IDX 54 89 55 90 56 91 57 92
REMARK H PARENT 18 5 4 11 22 26 81 45 49 56
REMARK Flexibility Score: inf
ROOT
ATOM      1  C   UNL A   1      31.459  30.719  25.941  1.00  0.00     0.117 C 
ENDROOT
BRANCH   1   2
ATOM      2  N   UNL A   1      32.588  29.986  26.488  1.00  0.00    -0.356 N 
ATOM      3  C   UNL A   1      33.379  29.019  25.954  1.00  0.00     0.224 C 
ATOM      4  O   UNL A   1      34.360  28.669  26.620  1.00  0.00    -0.275 OA
ATOM      5  H   UNL A   1      32.821  30.234  27.412  1.00  0.00     0.163 HD
BRANCH   3   6
ATOM      6  C   UNL A   1      33.102  28.344  24.618  1.00  0.00     0.094 C 
ATOM      7  C   UNL A   1      33.998  28.858  23.495  1.00  0.00     0.020 C 
BRANCH   6   8
ATOM      8  C   UNL A   1      32.916  26.819  24.660  1.00  0.00     0.129 C 
BRANCH   8   9
ATOM      9  N   UNL A   1      31.832  26.331  25.488  1.00  0.00    -0.355 N 
ATOM     10  C   UNL A   1      30.517  26.122  25.194  1.00  0.00     0.224 C 
ATOM     11  H   UNL A   1      32.086  26.115  26.414  1.00  0.00     0.163 HD
ATOM     12  O   UNL A   1      29.771  25.821  26.131  1.00  0.00    -0.275 OA
BRANCH  10  13
ATOM     13  C   UNL A   1      29.990  26.161  23.774  1.00  0.00     0.138 C 
BRANCH  13  14
ATOM     14  C   UNL A   1      29.246  27.401  23.351  1.00  0.00    -0.003 A 
ATOM     15  C   UNL A   1      27.907  27.618  23.704  1.00  0.00     0.010 A 
ATOM     16  C   UNL A   1      29.887  28.354  22.546  1.00  0.00     0.129 A 
ATOM     17  C   UNL A   1      27.255  28.785  23.290  1.00  0.00     0.040 A 
ATOM     18  C   UNL A   1      29.251  29.518  22.139  1.00  0.00     0.078 A 
ATOM     19  F   UNL A   1      31.161  28.157  22.173  1.00  0.00    -0.207 F 
ATOM     20  C   UNL A   1      27.936  29.726  22.521  1.00  0.00     0.126 A 
ATOM     21  F   UNL A   1      27.308  30.843  22.132  1.00  0.00    -0.207 F 
ENDBRANCH  13  14
ENDBRANCH  10  13
ENDBRANCH   8   9
ENDBRANCH   6   8
ENDBRANCH   3   6
ENDBRANCH   1   2
BRANCH   1  22
ATOM     22  C   UNL A   1      31.302  32.107  26.538  1.00  0.00     0.042 C 
BRANCH  22  23
ATOM     23  C   UNL A   1      32.628  32.738  26.943  1.00  0.00     0.118 C 
BRANCH  23  24
ATOM     24  N   UNL A   1      32.463  33.978  27.694  1.00  0.00    -0.352 N 
ATOM     25  C   UNL A   1      33.171  34.476  28.763  1.00  0.00     0.251 C 
ATOM     26  H   UNL A   1      31.724  34.552  27.386  1.00  0.00     0.163 HD
ATOM     27  O   UNL A   1      32.764  35.478  29.348  1.00  0.00    -0.269 OA
BRANCH  25  28
ATOM     28  C   UNL A   1      34.391  33.788  29.234  1.00  0.00     0.039 A 
ATOM     29  C   UNL A   1      35.643  34.299  28.882  1.00  0.00     0.014 A 
ATOM     30  C   UNL A   1      34.303  32.656  30.045  1.00  0.00     0.014 A 
ATOM     31  C   UNL A   1      36.800  33.740  29.431  1.00  0.00     0.010 A 
ATOM     32  C   UNL A   1      35.443  32.167  30.672  1.00  0.00     0.010 A 
ATOM     33  C   UNL A   1      36.704  32.707  30.380  1.00  0.00    -0.014 A 
BRANCH  33  34
ATOM     34  C   UNL A   1      37.898  32.176  31.090  1.00  0.00     0.031 A 
ATOM     35  C   UNL A   1      38.679  31.038  30.491  1.00  0.00     0.074 A 
ATOM     36  C   UNL A   1      38.212  32.643  32.315  1.00  0.00     0.049 A 
ATOM     37  N   UNL A   1      39.638  30.321  31.018  1.00  0.00    -0.248 NA
ATOM     38  C   UNL A   1      38.295  30.623  29.133  1.00  0.00     0.031 C 
ATOM     39  C   UNL A   1      37.503  33.713  33.023  1.00  0.00     0.029 A 
ATOM     40  N   UNL A   1      39.196  32.265  33.195  1.00  0.00    -0.354 N 
ATOM     41  C   UNL A   1      39.953  29.354  30.068  1.00  0.00     0.074 A 
ATOM     42  C   UNL A   1      39.037  29.540  28.962  1.00  0.00     0.031 C 
ATOM     43  C   UNL A   1      38.088  33.918  34.214  1.00  0.00     0.029 A 
ATOM     44  C   UNL A   1      39.176  32.960  34.382  1.00  0.00     0.049 A 
ATOM     45  H   UNL A   1      39.854  31.561  32.995  1.00  0.00     0.167 HD
ATOM     46  C   UNL A   1      40.928  28.412  30.107  1.00  0.00     0.034 A 
ATOM     47  C   UNL A   1      39.933  32.828  35.490  1.00  0.00     0.034 A 
ATOM     48  C   UNL A   1      41.850  28.262  31.205  1.00  0.00     0.049 A 
ATOM     49  C   UNL A   1      41.004  31.769  35.515  1.00  0.00     0.074 A 
ATOM     50  C   UNL A   1      42.922  27.393  31.320  1.00  0.00     0.029 A 
ATOM     51  N   UNL A   1      41.809  28.997  32.384  1.00  0.00    -0.354 N 
ATOM     52  N   UNL A   1      41.318  30.890  34.591  1.00  0.00    -0.248 NA
ATOM     53  C   UNL A   1      41.825  31.686  36.729  1.00  0.00     0.031 C 
ATOM     54  C   UNL A   1      43.490  27.562  32.588  1.00  0.00     0.029 A 
ATOM     55  C   UNL A   1      42.817  28.582  33.240  1.00  0.00     0.049 A 
ATOM     56  H   UNL A   1      41.159  29.710  32.581  1.00  0.00     0.167 HD
ATOM     57  C   UNL A   1      42.390  30.167  35.105  1.00  0.00     0.074 A 
ATOM     58  C   UNL A   1      42.677  30.722  36.412  1.00  0.00     0.031 C 
ATOM     59  C   UNL A   1      43.079  29.139  34.546  1.00  0.00     0.034 A 
BRANCH  46  60
ATOM     60  C   UNL A   1      41.026  27.467  28.934  1.00  0.00     0.023 A 
ATOM     61  C   UNL A   1      42.016  27.615  27.947  1.00  0.00     0.031 A 
ATOM     62  C   UNL A   1      40.093  26.426  28.777  1.00  0.00     0.131 A 
ATOM     63  C   UNL A   1      42.000  26.796  26.809  1.00  0.00     0.055 A 
ATOM     64  C   UNL A   1      40.135  25.559  27.683  1.00  0.00     0.041 A 
ATOM     65  F   UNL A   1      39.113  26.245  29.676  1.00  0.00    -0.206 F 
ATOM     66  C   UNL A   1      41.082  25.752  26.681  1.00  0.00     0.022 A 
BRANCH  63  67
ATOM     67  S   UNL A   1      43.100  27.214  25.428  1.00  0.00     0.124 S 
ATOM     68  O   UNL A   1      43.267  25.913  24.782  1.00  0.00    -0.237 OA
ATOM     69  O   UNL A   1      42.319  28.199  24.690  1.00  0.00    -0.237 OA
ATOM     70  O   UNL A   1      44.297  27.732  26.088  1.00  0.00    -0.744 OA
ENDBRANCH  63  67
ENDBRANCH  46  60
BRANCH  47  71
ATOM     71  C   UNL A   1      39.700  33.703  36.675  1.00  0.00     0.023 A 
ATOM     72  C   UNL A   1      39.141  33.185  37.854  1.00  0.00     0.031 A 
ATOM     73  C   UNL A   1      39.995  35.077  36.632  1.00  0.00     0.131 A 
ATOM     74  C   UNL A   1      38.854  34.042  38.927  1.00  0.00     0.055 A 
ATOM     75  C   UNL A   1      39.755  35.916  37.721  1.00  0.00     0.041 A 
ATOM     76  F   UNL A   1      40.538  35.622  35.531  1.00  0.00    -0.206 F 
ATOM     77  C   UNL A   1      39.169  35.403  38.874  1.00  0.00     0.022 A 
BRANCH  74  78
ATOM     78  S   UNL A   1      37.991  33.366  40.372  1.00  0.00     0.124 S 
ATOM     79  O   UNL A   1      36.648  33.159  39.845  1.00  0.00    -0.237 OA
ATOM     80  O   UNL A   1      38.765  32.160  40.649  1.00  0.00    -0.237 OA
ATOM     81  O   UNL A   1      38.115  34.426  41.369  1.00  0.00    -0.744 OA
ENDBRANCH  74  78
ENDBRANCH  47  71
BRANCH  59  82
ATOM     82  C   UNL A   1      44.232  28.580  35.340  1.00  0.00     0.023 A 
ATOM     83  C   UNL A   1      44.053  27.541  36.270  1.00  0.00     0.031 A 
ATOM     84  C   UNL A   1      45.526  29.101  35.165  1.00  0.00     0.131 A 
ATOM     85  C   UNL A   1      45.144  27.087  37.025  1.00  0.00     0.055 A 
ATOM     86  C   UNL A   1      46.618  28.607  35.880  1.00  0.00     0.041 A 
ATOM     87  F   UNL A   1      45.751  30.094  34.292  1.00  0.00    -0.206 F 
ATOM     88  C   UNL A   1      46.428  27.602  36.824  1.00  0.00     0.022 A 
BRANCH  85  89
ATOM     89  S   UNL A   1      44.851  25.862  38.330  1.00  0.00     0.124 S 
ATOM     90  O   UNL A   1      44.158  26.656  39.340  1.00  0.00    -0.237 OA
ATOM     91  O   UNL A   1      44.044  24.859  37.643  1.00  0.00    -0.237 OA
ATOM     92  O   UNL A   1      46.196  25.426  38.700  1.00  0.00    -0.744 OA
ENDBRANCH  85  89
ENDBRANCH  59  82
ENDBRANCH  33  34
ENDBRANCH  25  28
ENDBRANCH  23  24
ENDBRANCH  22  23
ENDBRANCH   1  22
TORSDOF 17
ENDMDL
