MODEL 1
REMARK VINA RESULT:      -9.6      0.000      0.000
REMARK SMILES O=C(COc1ccc(/C=N/NC(=O)c2cc3cc([N+](=O)[O-])ccc3o2)cc1)NCCCNC(=O)c1ccc(-c2c3nc(c(-c4cc(S(=O)(=O)[O-])ccc4F)c4ccc([nH]4)c(-c4cc(S(=O)(=O)[O-])ccc4F)c4nc(c(-c5cc(S(=O)(=O)[O-])ccc5F)c5ccc2[nH]5)C=C4)C=C3)cc1
REMARK SMILES IDX 1 1 2 2 28 3 3 5 4 6 5 7 6 8 27 9 7 10 26 11 8 12 9 13 10 14
REMARK SMILES IDX 11 15 12 16 13 18 14 19 15 20 25 21 16 22 24 23 17 24 23 25
REMARK SMILES IDX 18 26 22 27 19 28 20 29 21 30 29 31 30 32 31 33 32 34 33 35
REMARK SMILES IDX 34 37 35 38 36 39 97 40 37 41 96 42 38 43 39 44 40 45 90 46
REMARK SMILES IDX 41 47 95 48 89 49 91 50 42 51 94 52 88 53 87 54 43 56 75 57
REMARK SMILES IDX 55 58 74 59 56 60 59 61 73 62 92 63 57 64 58 65 72 67 93 68
REMARK SMILES IDX 60 69 44 70 45 71 53 72 46 73 52 74 54 75 51 76 47 77 48 78
REMARK SMILES IDX 49 79 50 80 76 81 77 82 85 83 78 84 84 85 86 86 83 87 79 88
REMARK SMILES IDX 80 89 81 90 82 91 61 92 62 93 70 94 63 95 69 96 71 97 68 98
REMARK SMILES IDX 64 99 65 100 66 101 67 102
REMARK H PARENT 28 4 11 17 32 36 91 55 59 66
REMARK Flexibility Score: inf
ROOT
ATOM      1  O   UNL A   1      34.410  32.488  31.748  1.00  0.00    -0.271 OA
ATOM      2  C   UNL A   1      35.140  33.471  31.695  1.00  0.00     0.257 C 
ATOM      3  N   UNL A   1      34.837  34.617  30.985  1.00  0.00    -0.353 N 
ATOM      4  H   UNL A   1      35.344  35.440  31.170  1.00  0.00     0.163 HD
ENDROOT
BRANCH   2   5
ATOM      5  C   UNL A   1      36.519  33.511  32.362  1.00  0.00     0.329 C 
BRANCH   5   6
ATOM      6  O   UNL A   1      37.222  34.750  32.232  1.00  0.00    -0.484 OA
BRANCH   6   7
ATOM      7  C   UNL A   1      38.546  34.603  31.906  1.00  0.00     0.120 A 
ATOM      8  C   UNL A   1      38.869  34.442  30.561  1.00  0.00     0.047 A 
ATOM      9  C   UNL A   1      39.545  34.478  32.874  1.00  0.00     0.047 A 
ATOM     10  C   UNL A   1      40.196  34.198  30.187  1.00  0.00     0.013 A 
ATOM     11  C   UNL A   1      40.865  34.226  32.512  1.00  0.00     0.013 A 
ATOM     12  C   UNL A   1      41.189  34.089  31.169  1.00  0.00    -0.005 A 
BRANCH  12  13
ATOM     13  C   UNL A   1      42.576  33.711  30.838  1.00  0.00     0.141 C 
ATOM     14  N   UNL A   1      43.034  32.551  31.158  1.00  0.00    -0.180 NA
BRANCH  14  15
ATOM     15  N   UNL A   1      44.354  32.273  31.028  1.00  0.00    -0.240 N 
ATOM     16  C   UNL A   1      45.103  31.495  30.176  1.00  0.00     0.307 C 
ATOM     17  H   UNL A   1      44.905  32.737  31.699  1.00  0.00     0.194 HD
ATOM     18  O   UNL A   1      46.290  31.813  30.047  1.00  0.00    -0.264 OA
BRANCH  16  19
ATOM     19  C   UNL A   1      44.614  30.280  29.552  1.00  0.00     0.194 A 
ATOM     20  C   UNL A   1      44.130  30.096  28.261  1.00  0.00     0.065 A 
ATOM     21  O   UNL A   1      45.271  29.134  29.941  1.00  0.00    -0.451 OA
ATOM     22  C   UNL A   1      44.887  29.008  27.726  1.00  0.00     0.028 A 
ATOM     23  C   UNL A   1      45.567  28.455  28.802  1.00  0.00     0.135 A 
ATOM     24  C   UNL A   1      45.182  28.546  26.428  1.00  0.00     0.097 A 
ATOM     25  C   UNL A   1      46.529  27.452  28.703  1.00  0.00     0.055 A 
ATOM     26  C   UNL A   1      46.244  27.629  26.290  1.00  0.00     0.270 A 
ATOM     27  C   UNL A   1      46.899  27.080  27.406  1.00  0.00     0.089 A 
BRANCH  26  28
ATOM     28  N   UNL A   1      46.751  27.324  24.943  1.00  0.00     0.062 N 
ATOM     29  O   UNL A   1      47.502  28.151  24.410  1.00  0.00    -0.258 OA
ATOM     30  O   UNL A   1      46.414  26.246  24.431  1.00  0.00    -0.258 OA
ENDBRANCH  26  28
ENDBRANCH  16  19
ENDBRANCH  14  15
ENDBRANCH  12  13
ENDBRANCH   6   7
ENDBRANCH   5   6
ENDBRANCH   2   5
BRANCH   3  31
ATOM     31  C   UNL A   1      33.796  34.644  29.978  1.00  0.00     0.117 C 
BRANCH  31  32
ATOM     32  C   UNL A   1      34.329  34.624  28.559  1.00  0.00     0.042 C 
BRANCH  32  33
ATOM     33  C   UNL A   1      35.077  33.348  28.199  1.00  0.00     0.118 C 
BRANCH  33  34
ATOM     34  N   UNL A   1      34.212  32.308  27.657  1.00  0.00    -0.352 N 
ATOM     35  C   UNL A   1      34.443  30.963  27.499  1.00  0.00     0.251 C 
ATOM     36  H   UNL A   1      33.326  32.616  27.358  1.00  0.00     0.163 HD
ATOM     37  O   UNL A   1      33.624  30.289  26.875  1.00  0.00    -0.269 OA
BRANCH  35  38
ATOM     38  C   UNL A   1      35.671  30.335  28.040  1.00  0.00     0.039 A 
ATOM     39  C   UNL A   1      36.809  30.274  27.232  1.00  0.00     0.014 A 
ATOM     40  C   UNL A   1      35.705  29.788  29.326  1.00  0.00     0.014 A 
ATOM     41  C   UNL A   1      37.989  29.716  27.730  1.00  0.00     0.010 A 
ATOM     42  C   UNL A   1      36.906  29.321  29.854  1.00  0.00     0.010 A 
ATOM     43  C   UNL A   1      38.058  29.261  29.057  1.00  0.00    -0.014 A 
BRANCH  43  44
ATOM     44  C   UNL A   1      39.313  28.680  29.609  1.00  0.00     0.031 A 
ATOM     45  C   UNL A   1      39.950  29.288  30.831  1.00  0.00     0.074 A 
ATOM     46  C   UNL A   1      39.899  27.633  28.993  1.00  0.00     0.049 A 
ATOM     47  N   UNL A   1      41.062  28.960  31.437  1.00  0.00    -0.248 NA
ATOM     48  C   UNL A   1      39.258  30.439  31.433  1.00  0.00     0.031 C 
ATOM     49  C   UNL A   1      39.401  26.979  27.780  1.00  0.00     0.029 A 
ATOM     50  N   UNL A   1      41.040  26.935  29.299  1.00  0.00    -0.354 N 
ATOM     51  C   UNL A   1      41.208  29.868  32.482  1.00  0.00     0.074 A 
ATOM     52  C   UNL A   1      40.109  30.804  32.378  1.00  0.00     0.031 C 
ATOM     53  C   UNL A   1      40.212  25.956  27.468  1.00  0.00     0.029 A 
ATOM     54  C   UNL A   1      41.314  25.907  28.425  1.00  0.00     0.049 A 
ATOM     55  H   UNL A   1      41.610  27.149  30.073  1.00  0.00     0.167 HD
ATOM     56  C   UNL A   1      42.152  29.902  33.456  1.00  0.00     0.034 A 
ATOM     57  C   UNL A   1      42.338  25.031  28.394  1.00  0.00     0.034 A 
ATOM     58  C   UNL A   1      43.235  28.953  33.554  1.00  0.00     0.049 A 
ATOM     59  C   UNL A   1      43.392  25.105  29.471  1.00  0.00     0.074 A 
ATOM     60  C   UNL A   1      44.220  28.867  34.521  1.00  0.00     0.029 A 
ATOM     61  N   UNL A   1      43.481  27.929  32.647  1.00  0.00    -0.354 N 
ATOM     62  N   UNL A   1      43.489  25.941  30.480  1.00  0.00    -0.248 NA
ATOM     63  C   UNL A   1      44.467  24.106  29.414  1.00  0.00     0.031 C 
ATOM     64  C   UNL A   1      45.103  27.843  34.161  1.00  0.00     0.029 A 
ATOM     65  C   UNL A   1      44.619  27.227  33.018  1.00  0.00     0.049 A 
ATOM     66  H   UNL A   1      42.928  27.730  31.857  1.00  0.00     0.167 HD
ATOM     67  C   UNL A   1      44.613  25.539  31.198  1.00  0.00     0.074 A 
ATOM     68  C   UNL A   1      45.150  24.381  30.515  1.00  0.00     0.031 C 
ATOM     69  C   UNL A   1      45.148  26.074  32.326  1.00  0.00     0.034 A 
BRANCH  56  70
ATOM     70  C   UNL A   1      42.063  31.016  34.473  1.00  0.00     0.023 A 
ATOM     71  C   UNL A   1      42.862  32.170  34.379  1.00  0.00     0.031 A 
ATOM     72  C   UNL A   1      41.188  30.913  35.570  1.00  0.00     0.131 A 
ATOM     73  C   UNL A   1      42.833  33.130  35.402  1.00  0.00     0.055 A 
ATOM     74  C   UNL A   1      41.098  31.916  36.537  1.00  0.00     0.041 A 
ATOM     75  F   UNL A   1      40.416  29.828  35.729  1.00  0.00    -0.206 F 
ATOM     76  C   UNL A   1      41.936  33.026  36.466  1.00  0.00     0.022 A 
BRANCH  73  77
ATOM     77  S   UNL A   1      44.098  34.430  35.403  1.00  0.00     0.124 S 
ATOM     78  O   UNL A   1      44.214  34.730  33.979  1.00  0.00    -0.237 OA
ATOM     79  O   UNL A   1      43.486  35.466  36.227  1.00  0.00    -0.237 OA
ATOM     80  O   UNL A   1      45.264  33.773  35.990  1.00  0.00    -0.744 OA
ENDBRANCH  73  77
ENDBRANCH  56  70
BRANCH  57  81
ATOM     81  C   UNL A   1      42.427  24.008  27.311  1.00  0.00     0.023 A 
ATOM     82  C   UNL A   1      41.614  22.865  27.324  1.00  0.00     0.031 A 
ATOM     83  C   UNL A   1      43.368  24.134  26.273  1.00  0.00     0.131 A 
ATOM     84  C   UNL A   1      41.792  21.865  26.353  1.00  0.00     0.055 A 
ATOM     85  C   UNL A   1      43.500  23.167  25.273  1.00  0.00     0.041 A 
ATOM     86  F   UNL A   1      44.170  25.209  26.208  1.00  0.00    -0.206 F 
ATOM     87  C   UNL A   1      42.719  22.016  25.320  1.00  0.00     0.022 A 
BRANCH  84  88
ATOM     88  S   UNL A   1      40.861  20.318  26.518  1.00  0.00     0.124 S 
ATOM     89  O   UNL A   1      39.602  20.658  25.864  1.00  0.00    -0.237 OA
ATOM     90  O   UNL A   1      41.717  19.373  25.809  1.00  0.00    -0.237 OA
ATOM     91  O   UNL A   1      40.781  20.121  27.963  1.00  0.00    -0.744 OA
ENDBRANCH  84  88
ENDBRANCH  57  81
BRANCH  69  92
ATOM     92  C   UNL A   1      46.343  25.370  32.924  1.00  0.00     0.023 A 
ATOM     93  C   UNL A   1      47.653  25.604  32.470  1.00  0.00     0.031 A 
ATOM     94  C   UNL A   1      46.162  24.435  33.960  1.00  0.00     0.131 A 
ATOM     95  C   UNL A   1      48.720  24.866  33.003  1.00  0.00     0.055 A 
ATOM     96  C   UNL A   1      47.236  23.755  34.535  1.00  0.00     0.041 A 
ATOM     97  F   UNL A   1      44.934  24.166  34.433  1.00  0.00    -0.206 F 
ATOM     98  C   UNL A   1      48.523  23.957  34.046  1.00  0.00     0.022 A 
BRANCH  95  99
ATOM     99  S   UNL A   1      50.358  25.027  32.239  1.00  0.00     0.124 S 
ATOM    100  O   UNL A   1      50.796  23.637  32.165  1.00  0.00    -0.237 OA
ATOM    101  O   UNL A   1      50.046  25.665  30.965  1.00  0.00    -0.237 OA
ATOM    102  O   UNL A   1      51.098  25.861  33.185  1.00  0.00    -0.744 OA
ENDBRANCH  95  99
ENDBRANCH  69  92
ENDBRANCH  43  44
ENDBRANCH  35  38
ENDBRANCH  33  34
ENDBRANCH  32  33
ENDBRANCH  31  32
ENDBRANCH   3  31
TORSDOF 19
ENDMDL
MODEL 2
REMARK VINA RESULT:      -9.2      3.275     11.090
REMARK SMILES O=C(COc1ccc(/C=N/NC(=O)c2cc3cc([N+](=O)[O-])ccc3o2)cc1)NCCCNC(=O)c1ccc(-c2c3nc(c(-c4cc(S(=O)(=O)[O-])ccc4F)c4ccc([nH]4)c(-c4cc(S(=O)(=O)[O-])ccc4F)c4nc(c(-c5cc(S(=O)(=O)[O-])ccc5F)c5ccc2[nH]5)C=C4)C=C3)cc1
REMARK SMILES IDX 1 1 2 2 28 3 3 5 4 6 5 7 6 8 27 9 7 10 26 11 8 12 9 13 10 14
REMARK SMILES IDX 11 15 12 16 13 18 14 19 15 20 25 21 16 22 24 23 17 24 23 25
REMARK SMILES IDX 18 26 22 27 19 28 20 29 21 30 29 31 30 32 31 33 32 34 33 35
REMARK SMILES IDX 34 37 35 38 36 39 97 40 37 41 96 42 38 43 39 44 40 45 90 46
REMARK SMILES IDX 41 47 95 48 89 49 91 50 42 51 94 52 88 53 87 54 43 56 75 57
REMARK SMILES IDX 55 58 74 59 56 60 59 61 73 62 92 63 57 64 58 65 72 67 93 68
REMARK SMILES IDX 60 69 44 70 45 71 53 72 46 73 52 74 54 75 51 76 47 77 48 78
REMARK SMILES IDX 49 79 50 80 76 81 77 82 85 83 78 84 84 85 86 86 83 87 79 88
REMARK SMILES IDX 80 89 81 90 82 91 61 92 62 93 70 94 63 95 69 96 71 97 68 98
REMARK SMILES IDX 64 99 65 100 66 101 67 102
REMARK H PARENT 28 4 11 17 32 36 91 55 59 66
REMARK Flexibility Score: inf
ROOT
ATOM      1  O   UNL A   1      40.686  22.021  27.459  1.00  0.00    -0.271 OA
ATOM      2  C   UNL A   1      41.045  23.151  27.146  1.00  0.00     0.257 C 
ATOM      3  N   UNL A   1      41.861  23.426  26.065  1.00  0.00    -0.353 N 
ATOM      4  H   UNL A   1      41.919  24.352  25.736  1.00  0.00     0.163 HD
ENDROOT
BRANCH   2   5
ATOM      5  C   UNL A   1      40.682  24.390  27.970  1.00  0.00     0.329 C 
BRANCH   5   6
ATOM      6  O   UNL A   1      40.065  25.451  27.235  1.00  0.00    -0.484 OA
BRANCH   6   7
ATOM      7  C   UNL A   1      40.232  26.687  27.804  1.00  0.00     0.120 A 
ATOM      8  C   UNL A   1      40.127  26.783  29.189  1.00  0.00     0.047 A 
ATOM      9  C   UNL A   1      40.367  27.850  27.042  1.00  0.00     0.047 A 
ATOM     10  C   UNL A   1      40.200  28.037  29.809  1.00  0.00     0.013 A 
ATOM     11  C   UNL A   1      40.429  29.101  27.648  1.00  0.00     0.013 A 
ATOM     12  C   UNL A   1      40.349  29.192  29.030  1.00  0.00    -0.005 A 
BRANCH  12  13
ATOM     13  C   UNL A   1      40.306  30.543  29.622  1.00  0.00     0.141 C 
ATOM     14  N   UNL A   1      39.180  31.107  29.889  1.00  0.00    -0.180 NA
BRANCH  14  15
ATOM     15  N   UNL A   1      39.133  32.412  30.251  1.00  0.00    -0.240 N 
ATOM     16  C   UNL A   1      38.319  33.165  31.064  1.00  0.00     0.307 C 
ATOM     17  H   UNL A   1      39.848  32.945  29.834  1.00  0.00     0.194 HD
ATOM     18  O   UNL A   1      38.813  34.202  31.522  1.00  0.00    -0.264 OA
BRANCH  16  19
ATOM     19  C   UNL A   1      36.916  32.879  31.292  1.00  0.00     0.194 A 
ATOM     20  C   UNL A   1      36.147  33.125  32.424  1.00  0.00     0.065 A 
ATOM     21  O   UNL A   1      36.116  33.021  30.180  1.00  0.00    -0.451 OA
ATOM     22  C   UNL A   1      35.007  33.849  31.956  1.00  0.00     0.028 A 
ATOM     23  C   UNL A   1      35.039  33.752  30.572  1.00  0.00     0.135 A 
ATOM     24  C   UNL A   1      34.056  34.699  32.554  1.00  0.00     0.097 A 
ATOM     25  C   UNL A   1      34.184  34.431  29.708  1.00  0.00     0.055 A 
ATOM     26  C   UNL A   1      33.269  35.497  31.698  1.00  0.00     0.270 A 
ATOM     27  C   UNL A   1      33.320  35.358  30.300  1.00  0.00     0.089 A 
BRANCH  26  28
ATOM     28  N   UNL A   1      32.456  36.576  32.279  1.00  0.00     0.062 N 
ATOM     29  O   UNL A   1      31.260  36.341  32.501  1.00  0.00    -0.258 OA
ATOM     30  O   UNL A   1      33.020  37.650  32.533  1.00  0.00    -0.258 OA
ENDBRANCH  26  28
ENDBRANCH  16  19
ENDBRANCH  14  15
ENDBRANCH  12  13
ENDBRANCH   6   7
ENDBRANCH   5   6
ENDBRANCH   2   5
BRANCH   3  31
ATOM     31  C   UNL A   1      42.631  22.395  25.401  1.00  0.00     0.117 C 
BRANCH  31  32
ATOM     32  C   UNL A   1      43.855  22.925  24.682  1.00  0.00     0.042 C 
BRANCH  32  33
ATOM     33  C   UNL A   1      44.881  23.569  25.605  1.00  0.00     0.118 C 
BRANCH  33  34
ATOM     34  N   UNL A   1      45.918  24.303  24.890  1.00  0.00    -0.352 N 
ATOM     35  C   UNL A   1      46.315  25.612  25.015  1.00  0.00     0.251 C 
ATOM     36  H   UNL A   1      46.408  23.781  24.215  1.00  0.00     0.163 HD
ATOM     37  O   UNL A   1      47.115  26.069  24.199  1.00  0.00    -0.269 OA
BRANCH  35  38
ATOM     38  C   UNL A   1      45.770  26.472  26.091  1.00  0.00     0.039 A 
ATOM     39  C   UNL A   1      46.650  27.008  27.035  1.00  0.00     0.014 A 
ATOM     40  C   UNL A   1      44.402  26.741  26.189  1.00  0.00     0.014 A 
ATOM     41  C   UNL A   1      46.166  27.850  28.040  1.00  0.00     0.010 A 
ATOM     42  C   UNL A   1      43.936  27.655  27.131  1.00  0.00     0.010 A 
ATOM     43  C   UNL A   1      44.808  28.206  28.080  1.00  0.00    -0.014 A 
BRANCH  43  44
ATOM     44  C   UNL A   1      44.280  29.116  29.133  1.00  0.00     0.031 A 
ATOM     45  C   UNL A   1      43.940  28.571  30.496  1.00  0.00     0.074 A 
ATOM     46  C   UNL A   1      44.072  30.419  28.856  1.00  0.00     0.049 A 
ATOM     47  N   UNL A   1      43.427  29.186  31.531  1.00  0.00    -0.248 NA
ATOM     48  C   UNL A   1      44.179  27.135  30.712  1.00  0.00     0.031 C 
ATOM     49  C   UNL A   1      44.326  31.060  27.564  1.00  0.00     0.029 A 
ATOM     50  N   UNL A   1      43.598  31.439  29.643  1.00  0.00    -0.354 N 
ATOM     51  C   UNL A   1      43.274  28.213  32.514  1.00  0.00     0.074 A 
ATOM     52  C   UNL A   1      43.677  26.955  31.923  1.00  0.00     0.031 C 
ATOM     53  C   UNL A   1      44.039  32.368  27.658  1.00  0.00     0.029 A 
ATOM     54  C   UNL A   1      43.535  32.654  28.998  1.00  0.00     0.049 A 
ATOM     55  H   UNL A   1      43.329  31.314  30.582  1.00  0.00     0.167 HD
ATOM     56  C   UNL A   1      42.863  28.357  33.799  1.00  0.00     0.034 A 
ATOM     57  C   UNL A   1      43.113  33.858  29.433  1.00  0.00     0.034 A 
ATOM     58  C   UNL A   1      42.476  29.621  34.378  1.00  0.00     0.049 A 
ATOM     59  C   UNL A   1      42.634  33.990  30.858  1.00  0.00     0.074 A 
ATOM     60  C   UNL A   1      42.086  29.890  35.679  1.00  0.00     0.029 A 
ATOM     61  N   UNL A   1      42.421  30.828  33.691  1.00  0.00    -0.354 N 
ATOM     62  N   UNL A   1      42.540  33.068  31.789  1.00  0.00    -0.248 NA
ATOM     63  C   UNL A   1      42.219  35.329  31.295  1.00  0.00     0.031 C 
ATOM     64  C   UNL A   1      41.725  31.239  35.760  1.00  0.00     0.029 A 
ATOM     65  C   UNL A   1      41.976  31.836  34.535  1.00  0.00     0.049 A 
ATOM     66  H   UNL A   1      42.663  30.950  32.745  1.00  0.00     0.167 HD
ATOM     67  C   UNL A   1      42.095  33.728  32.933  1.00  0.00     0.074 A 
ATOM     68  C   UNL A   1      41.952  35.124  32.576  1.00  0.00     0.031 C 
ATOM     69  C   UNL A   1      41.834  33.226  34.167  1.00  0.00     0.034 A 
BRANCH  56  70
ATOM     70  C   UNL A   1      42.791  27.110  34.651  1.00  0.00     0.023 A 
ATOM     71  C   UNL A   1      43.917  26.614  35.333  1.00  0.00     0.031 A 
ATOM     72  C   UNL A   1      41.589  26.389  34.761  1.00  0.00     0.131 A 
ATOM     73  C   UNL A   1      43.841  25.393  36.020  1.00  0.00     0.055 A 
ATOM     74  C   UNL A   1      41.496  25.222  35.522  1.00  0.00     0.041 A 
ATOM     75  F   UNL A   1      40.486  26.797  34.116  1.00  0.00    -0.206 F 
ATOM     76  C   UNL A   1      42.631  24.709  36.144  1.00  0.00     0.022 A 
BRANCH  73  77
ATOM     77  S   UNL A   1      45.379  24.635  36.610  1.00  0.00     0.124 S 
ATOM     78  O   UNL A   1      44.901  23.351  37.114  1.00  0.00    -0.237 OA
ATOM     79  O   UNL A   1      46.191  24.585  35.399  1.00  0.00    -0.237 OA
ATOM     80  O   UNL A   1      45.847  25.564  37.638  1.00  0.00    -0.744 OA
ENDBRANCH  73  77
ENDBRANCH  56  70
BRANCH  57  81
ATOM     81  C   UNL A   1      43.117  35.038  28.520  1.00  0.00     0.023 A 
ATOM     82  C   UNL A   1      44.317  35.668  28.154  1.00  0.00     0.031 A 
ATOM     83  C   UNL A   1      41.914  35.588  28.043  1.00  0.00     0.131 A 
ATOM     84  C   UNL A   1      44.288  36.840  27.381  1.00  0.00     0.055 A 
ATOM     85  C   UNL A   1      41.892  36.720  27.223  1.00  0.00     0.041 A 
ATOM     86  F   UNL A   1      40.736  35.026  28.359  1.00  0.00    -0.206 F 
ATOM     87  C   UNL A   1      43.084  37.361  26.901  1.00  0.00     0.022 A 
BRANCH  84  88
ATOM     88  S   UNL A   1      45.840  37.731  27.094  1.00  0.00     0.124 S 
ATOM     89  O   UNL A   1      46.506  37.589  28.384  1.00  0.00    -0.237 OA
ATOM     90  O   UNL A   1      46.421  36.980  25.986  1.00  0.00    -0.237 OA
ATOM     91  O   UNL A   1      45.400  39.085  26.764  1.00  0.00    -0.744 OA
ENDBRANCH  84  88
ENDBRANCH  57  81
BRANCH  69  92
ATOM     92  C   UNL A   1      41.429  34.210  35.241  1.00  0.00     0.023 A 
ATOM     93  C   UNL A   1      42.372  34.849  36.063  1.00  0.00     0.031 A 
ATOM     94  C   UNL A   1      40.068  34.499  35.450  1.00  0.00     0.131 A 
ATOM     95  C   UNL A   1      41.940  35.692  37.098  1.00  0.00     0.055 A 
ATOM     96  C   UNL A   1      39.648  35.393  36.435  1.00  0.00     0.041 A 
ATOM     97  F   UNL A   1      39.120  33.916  34.698  1.00  0.00    -0.206 F 
ATOM     98  C   UNL A   1      40.586  35.984  37.277  1.00  0.00     0.022 A 
BRANCH  95  99
ATOM     99  S   UNL A   1      43.166  36.318  38.280  1.00  0.00     0.124 S 
ATOM    100  O   UNL A   1      43.351  35.170  39.161  1.00  0.00    -0.237 OA
ATOM    101  O   UNL A   1      44.294  36.647  37.416  1.00  0.00    -0.237 OA
ATOM    102  O   UNL A   1      42.498  37.467  38.891  1.00  0.00    -0.744 OA
ENDBRANCH  95  99
ENDBRANCH  69  92
ENDBRANCH  43  44
ENDBRANCH  35  38
ENDBRANCH  33  34
ENDBRANCH  32  33
ENDBRANCH  31  32
ENDBRANCH   3  31
TORSDOF 19
ENDMDL
MODEL 3
REMARK VINA RESULT:      -9.1      3.513      4.935
REMARK SMILES O=C(COc1ccc(/C=N/NC(=O)c2cc3cc([N+](=O)[O-])ccc3o2)cc1)NCCCNC(=O)c1ccc(-c2c3nc(c(-c4cc(S(=O)(=O)[O-])ccc4F)c4ccc([nH]4)c(-c4cc(S(=O)(=O)[O-])ccc4F)c4nc(c(-c5cc(S(=O)(=O)[O-])ccc5F)c5ccc2[nH]5)C=C4)C=C3)cc1
REMARK SMILES IDX 1 1 2 2 28 3 3 5 4 6 5 7 6 8 27 9 7 10 26 11 8 12 9 13 10 14
REMARK SMILES IDX 11 15 12 16 13 18 14 19 15 20 25 21 16 22 24 23 17 24 23 25
REMARK SMILES IDX 18 26 22 27 19 28 20 29 21 30 29 31 30 32 31 33 32 34 33 35
REMARK SMILES IDX 34 37 35 38 36 39 97 40 37 41 96 42 38 43 39 44 40 45 90 46
REMARK SMILES IDX 41 47 95 48 89 49 91 50 42 51 94 52 88 53 87 54 43 56 75 57
REMARK SMILES IDX 55 58 74 59 56 60 59 61 73 62 92 63 57 64 58 65 72 67 93 68
REMARK SMILES IDX 60 69 44 70 45 71 53 72 46 73 52 74 54 75 51 76 47 77 48 78
REMARK SMILES IDX 49 79 50 80 76 81 77 82 85 83 78 84 84 85 86 86 83 87 79 88
REMARK SMILES IDX 80 89 81 90 82 91 61 92 62 93 70 94 63 95 69 96 71 97 68 98
REMARK SMILES IDX 64 99 65 100 66 101 67 102
REMARK H PARENT 28 4 11 17 32 36 91 55 59 66
REMARK Flexibility Score: inf
ROOT
ATOM      1  O   UNL A   1      33.663  34.162  32.562  1.00  0.00    -0.271 OA
ATOM      2  C   UNL A   1      34.685  34.059  31.892  1.00  0.00     0.257 C 
ATOM      3  N   UNL A   1      34.824  34.576  30.618  1.00  0.00    -0.353 N 
ATOM      4  H   UNL A   1      35.727  34.663  30.235  1.00  0.00     0.163 HD
ENDROOT
BRANCH   2   5
ATOM      5  C   UNL A   1      35.912  33.277  32.373  1.00  0.00     0.329 C 
BRANCH   5   6
ATOM      6  O   UNL A   1      36.964  34.074  32.924  1.00  0.00    -0.484 OA
BRANCH   6   7
ATOM      7  C   UNL A   1      38.071  34.160  32.119  1.00  0.00     0.120 A 
ATOM      8  C   UNL A   1      39.305  34.366  32.733  1.00  0.00     0.047 A 
ATOM      9  C   UNL A   1      37.983  34.182  30.725  1.00  0.00     0.047 A 
ATOM     10  C   UNL A   1      40.450  34.551  31.949  1.00  0.00     0.013 A 
ATOM     11  C   UNL A   1      39.115  34.375  29.939  1.00  0.00     0.013 A 
ATOM     12  C   UNL A   1      40.347  34.556  30.552  1.00  0.00    -0.005 A 
BRANCH  12  13
ATOM     13  C   UNL A   1      41.500  34.869  29.686  1.00  0.00     0.141 C 
ATOM     14  N   UNL A   1      41.323  35.229  28.463  1.00  0.00    -0.180 NA
BRANCH  14  15
ATOM     15  N   UNL A   1      42.376  35.330  27.616  1.00  0.00    -0.240 N 
ATOM     16  C   UNL A   1      43.416  36.217  27.463  1.00  0.00     0.307 C 
ATOM     17  H   UNL A   1      42.403  34.599  26.958  1.00  0.00     0.194 HD
ATOM     18  O   UNL A   1      44.428  35.781  26.904  1.00  0.00    -0.264 OA
BRANCH  16  19
ATOM     19  C   UNL A   1      43.333  37.627  27.795  1.00  0.00     0.194 A 
ATOM     20  C   UNL A   1      44.279  38.627  27.601  1.00  0.00     0.065 A 
ATOM     21  O   UNL A   1      42.079  38.175  27.645  1.00  0.00    -0.451 OA
ATOM     22  C   UNL A   1      43.592  39.664  26.897  1.00  0.00     0.028 A 
ATOM     23  C   UNL A   1      42.246  39.334  26.956  1.00  0.00     0.135 A 
ATOM     24  C   UNL A   1      43.990  40.748  26.090  1.00  0.00     0.097 A 
ATOM     25  C   UNL A   1      41.233  40.008  26.277  1.00  0.00     0.055 A 
ATOM     26  C   UNL A   1      43.002  41.361  25.292  1.00  0.00     0.270 A 
ATOM     27  C   UNL A   1      41.645  41.009  25.391  1.00  0.00     0.089 A 
BRANCH  26  28
ATOM     28  N   UNL A   1      43.418  42.315  24.251  1.00  0.00     0.062 N 
ATOM     29  O   UNL A   1      42.602  43.179  23.904  1.00  0.00    -0.258 OA
ATOM     30  O   UNL A   1      44.568  42.210  23.800  1.00  0.00    -0.258 OA
ENDBRANCH  26  28
ENDBRANCH  16  19
ENDBRANCH  14  15
ENDBRANCH  12  13
ENDBRANCH   6   7
ENDBRANCH   5   6
ENDBRANCH   2   5
BRANCH   3  31
ATOM     31  C   UNL A   1      33.683  34.994  29.830  1.00  0.00     0.117 C 
BRANCH  31  32
ATOM     32  C   UNL A   1      33.654  34.386  28.442  1.00  0.00     0.042 C 
BRANCH  32  33
ATOM     33  C   UNL A   1      34.538  33.156  28.290  1.00  0.00     0.118 C 
BRANCH  33  34
ATOM     34  N   UNL A   1      33.858  32.033  27.657  1.00  0.00    -0.352 N 
ATOM     35  C   UNL A   1      34.298  30.752  27.429  1.00  0.00     0.251 C 
ATOM     36  H   UNL A   1      32.944  32.221  27.345  1.00  0.00     0.163 HD
ATOM     37  O   UNL A   1      33.609  30.002  26.738  1.00  0.00    -0.269 OA
BRANCH  35  38
ATOM     38  C   UNL A   1      35.593  30.284  27.976  1.00  0.00     0.039 A 
ATOM     39  C   UNL A   1      35.617  29.706  29.248  1.00  0.00     0.014 A 
ATOM     40  C   UNL A   1      36.784  30.427  27.258  1.00  0.00     0.014 A 
ATOM     41  C   UNL A   1      36.821  29.227  29.773  1.00  0.00     0.010 A 
ATOM     42  C   UNL A   1      37.962  29.863  27.741  1.00  0.00     0.010 A 
ATOM     43  C   UNL A   1      38.000  29.272  29.012  1.00  0.00    -0.014 A 
BRANCH  43  44
ATOM     44  C   UNL A   1      39.286  28.750  29.550  1.00  0.00     0.031 A 
ATOM     45  C   UNL A   1      39.898  29.376  30.777  1.00  0.00     0.074 A 
ATOM     46  C   UNL A   1      39.920  27.742  28.919  1.00  0.00     0.049 A 
ATOM     47  N   UNL A   1      41.029  29.099  31.372  1.00  0.00    -0.248 NA
ATOM     48  C   UNL A   1      39.152  30.483  31.396  1.00  0.00     0.031 C 
ATOM     49  C   UNL A   1      39.450  27.077  27.702  1.00  0.00     0.029 A 
ATOM     50  N   UNL A   1      41.097  27.100  29.211  1.00  0.00    -0.354 N 
ATOM     51  C   UNL A   1      41.134  30.001  32.427  1.00  0.00     0.074 A 
ATOM     52  C   UNL A   1      39.988  30.881  32.340  1.00  0.00     0.031 C 
ATOM     53  C   UNL A   1      40.310  26.100  27.374  1.00  0.00     0.029 A 
ATOM     54  C   UNL A   1      41.418  26.097  28.324  1.00  0.00     0.049 A 
ATOM     55  H   UNL A   1      41.660  27.333  29.985  1.00  0.00     0.167 HD
ATOM     56  C   UNL A   1      42.082  30.072  33.396  1.00  0.00     0.034 A 
ATOM     57  C   UNL A   1      42.486  25.275  28.276  1.00  0.00     0.034 A 
ATOM     58  C   UNL A   1      43.212  29.179  33.477  1.00  0.00     0.049 A 
ATOM     59  C   UNL A   1      43.542  25.390  29.349  1.00  0.00     0.074 A 
ATOM     60  C   UNL A   1      44.206  29.133  34.438  1.00  0.00     0.029 A 
ATOM     61  N   UNL A   1      43.504  28.179  32.557  1.00  0.00    -0.354 N 
ATOM     62  N   UNL A   1      43.601  26.219  30.367  1.00  0.00    -0.248 NA
ATOM     63  C   UNL A   1      44.665  24.449  29.274  1.00  0.00     0.031 C 
ATOM     64  C   UNL A   1      45.138  28.159  34.061  1.00  0.00     0.029 A 
ATOM     65  C   UNL A   1      44.679  27.532  32.913  1.00  0.00     0.049 A 
ATOM     66  H   UNL A   1      42.958  27.962  31.767  1.00  0.00     0.167 HD
ATOM     67  C   UNL A   1      44.749  25.867  31.075  1.00  0.00     0.074 A 
ATOM     68  C   UNL A   1      45.340  24.746  30.374  1.00  0.00     0.031 C 
ATOM     69  C   UNL A   1      45.262  26.416  32.205  1.00  0.00     0.034 A 
BRANCH  56  70
ATOM     70  C   UNL A   1      41.941  31.169  34.427  1.00  0.00     0.023 A 
ATOM     71  C   UNL A   1      42.570  32.417  34.269  1.00  0.00     0.031 A 
ATOM     72  C   UNL A   1      41.193  30.956  35.598  1.00  0.00     0.131 A 
ATOM     73  C   UNL A   1      42.510  33.369  35.298  1.00  0.00     0.055 A 
ATOM     74  C   UNL A   1      41.062  31.942  36.578  1.00  0.00     0.041 A 
ATOM     75  F   UNL A   1      40.588  29.780  35.819  1.00  0.00    -0.206 F 
ATOM     76  C   UNL A   1      41.737  33.152  36.439  1.00  0.00     0.022 A 
BRANCH  73  77
ATOM     77  S   UNL A   1      43.589  34.824  35.194  1.00  0.00     0.124 S 
ATOM     78  O   UNL A   1      43.186  35.574  36.381  1.00  0.00    -0.237 OA
ATOM     79  O   UNL A   1      44.921  34.233  35.233  1.00  0.00    -0.237 OA
ATOM     80  O   UNL A   1      43.214  35.438  33.922  1.00  0.00    -0.744 OA
ENDBRANCH  73  77
ENDBRANCH  56  70
BRANCH  57  81
ATOM     81  C   UNL A   1      42.621  24.270  27.182  1.00  0.00     0.023 A 
ATOM     82  C   UNL A   1      41.967  23.031  27.249  1.00  0.00     0.031 A 
ATOM     83  C   UNL A   1      43.452  24.516  26.073  1.00  0.00     0.131 A 
ATOM     84  C   UNL A   1      42.195  22.061  26.259  1.00  0.00     0.055 A 
ATOM     85  C   UNL A   1      43.628  23.572  25.059  1.00  0.00     0.041 A 
ATOM     86  F   UNL A   1      44.101  25.685  25.955  1.00  0.00    -0.206 F 
ATOM     87  C   UNL A   1      43.009  22.330  25.157  1.00  0.00     0.022 A 
BRANCH  84  88
ATOM     88  S   UNL A   1      41.488  20.406  26.483  1.00  0.00     0.124 S 
ATOM     89  O   UNL A   1      40.061  20.672  26.343  1.00  0.00    -0.237 OA
ATOM     90  O   UNL A   1      42.112  19.661  25.395  1.00  0.00    -0.237 OA
ATOM     91  O   UNL A   1      41.925  20.030  27.826  1.00  0.00    -0.744 OA
ENDBRANCH  84  88
ENDBRANCH  57  81
BRANCH  69  92
ATOM     92  C   UNL A   1      46.496  25.767  32.789  1.00  0.00     0.023 A 
ATOM     93  C   UNL A   1      46.419  24.679  33.675  1.00  0.00     0.031 A 
ATOM     94  C   UNL A   1      47.772  26.261  32.460  1.00  0.00     0.131 A 
ATOM     95  C   UNL A   1      47.589  24.163  34.252  1.00  0.00     0.055 A 
ATOM     96  C   UNL A   1      48.937  25.698  32.983  1.00  0.00     0.041 A 
ATOM     97  F   UNL A   1      47.909  27.301  31.622  1.00  0.00    -0.206 F 
ATOM     98  C   UNL A   1      48.849  24.652  33.897  1.00  0.00     0.022 A 
BRANCH  95  99
ATOM     99  S   UNL A   1      47.438  22.915  35.560  1.00  0.00     0.124 S 
ATOM    100  O   UNL A   1      47.539  21.671  34.806  1.00  0.00    -0.237 OA
ATOM    101  O   UNL A   1      48.571  23.230  36.424  1.00  0.00    -0.237 OA
ATOM    102  O   UNL A   1      46.124  23.184  36.141  1.00  0.00    -0.744 OA
ENDBRANCH  95  99
ENDBRANCH  69  92
ENDBRANCH  43  44
ENDBRANCH  35  38
ENDBRANCH  33  34
ENDBRANCH  32  33
ENDBRANCH  31  32
ENDBRANCH   3  31
TORSDOF 19
ENDMDL
