MODEL 1
REMARK VINA RESULT:     -12.9      0.000      0.000
REMARK SMILES C[C@H]1CCCC[C@H]1[N@H+]1[C@@H](C(=O)NCCCNC(=O)c2ccc(-c3c4nc(c(-c5cc(S(=O)(=O)[O-])ccc5F)c5ccc([nH]5)c(-c5cc(S(=O)(=O)[O-])ccc5F)c5nc(c(-c6cc(S(=O)(=O)[O-])ccc6F)c6ccc3[nH]6)C=C5)C=C4)cc2)CC[C@@H]2CCCC[C@@H]21
REMARK SMILES IDX 15 1 14 2 13 3 12 4 10 5 11 6 9 8 8 9 89 10 82 12 84 13
REMARK SMILES IDX 88 14 83 15 85 16 87 17 86 18 7 19 1 20 2 21 3 22 4 23 6 24
REMARK SMILES IDX 5 25 16 26 17 27 18 29 19 30 20 31 81 32 21 33 80 34 22 35
REMARK SMILES IDX 23 36 24 37 74 38 25 39 79 40 73 41 75 42 26 43 78 44 72 45
REMARK SMILES IDX 71 46 27 48 59 49 39 50 58 51 40 52 43 53 57 54 76 55 41 56
REMARK SMILES IDX 42 57 56 59 77 60 44 61 28 62 29 63 37 64 30 65 36 66 38 67
REMARK SMILES IDX 35 68 31 69 32 70 33 71 34 72 60 73 61 74 69 75 62 76 68 77
REMARK SMILES IDX 70 78 67 79 63 80 64 81 65 82 66 83 45 84 46 85 54 86 47 87
REMARK SMILES IDX 53 88 55 89 52 90 48 91 49 92 50 93 51 94
REMARK H PARENT 12 7 8 11 16 28 75 47 43 58
REMARK Flexibility Score: inf
ROOT
ATOM      1  C   UNL A   1      32.267  29.452  25.698  1.00  0.00     0.118 C 
ENDROOT
BRANCH   1   2
ATOM      2  C   UNL A   1      32.992  29.285  24.366  1.00  0.00     0.042 C 
BRANCH   2   3
ATOM      3  C   UNL A   1      34.062  28.201  24.368  1.00  0.00     0.118 C 
BRANCH   3   4
ATOM      4  N   UNL A   1      34.216  27.506  23.092  1.00  0.00    -0.351 N 
ATOM      5  C   UNL A   1      33.400  26.590  22.471  1.00  0.00     0.278 C 
ATOM      6  O   UNL A   1      33.577  26.391  21.265  1.00  0.00    -0.268 OA
ATOM      7  H   UNL A   1      35.036  27.731  22.596  1.00  0.00     0.163 HD
BRANCH   5   8
ATOM      8  C   UNL A   1      32.251  25.944  23.233  1.00  0.00     0.274 C 
ATOM      9  N   UNL A   1      32.307  24.523  23.678  1.00  0.00    -0.319 N 
ATOM     10  C   UNL A   1      30.965  24.071  24.175  1.00  0.00     0.188 C 
ATOM     11  H   UNL A   1      32.996  24.622  24.422  1.00  0.00     0.349 HD
ATOM     12  C   UNL A   1      30.897  26.332  22.630  1.00  0.00     0.076 C 
ATOM     13  C   UNL A   1      30.117  25.227  24.784  1.00  0.00     0.048 C 
ATOM     14  C   UNL A   1      30.947  22.905  25.198  1.00  0.00     0.065 C 
ATOM     15  C   UNL A   1      29.840  26.323  23.738  1.00  0.00     0.016 C 
ATOM     16  C   UNL A   1      30.728  25.770  26.103  1.00  0.00     0.010 C 
ATOM     17  C   UNL A   1      30.936  23.333  26.668  1.00  0.00     0.006 C 
ATOM     18  C   UNL A   1      31.534  24.714  26.863  1.00  0.00     0.001 C 
BRANCH   9  19
ATOM     19  C   UNL A   1      33.156  23.475  23.050  1.00  0.00     0.187 C 
ATOM     20  C   UNL A   1      35.508  23.860  24.197  1.00  0.00     0.014 C 
ATOM     21  C   UNL A   1      34.427  22.888  23.733  1.00  0.00     0.044 C 
ATOM     22  C   UNL A   1      34.043  21.911  24.835  1.00  0.00     0.009 C 
ATOM     23  C   UNL A   1      33.361  20.685  24.242  1.00  0.00     0.001 C 
ATOM     24  C   UNL A   1      32.423  22.283  22.377  1.00  0.00     0.065 C 
ATOM     25  C   UNL A   1      32.352  20.942  23.121  1.00  0.00     0.006 C 
ENDBRANCH   9  19
ENDBRANCH   5   8
ENDBRANCH   3   4
ENDBRANCH   2   3
ENDBRANCH   1   2
BRANCH   1  26
ATOM     26  N   UNL A   1      32.018  30.851  26.024  1.00  0.00    -0.352 N 
ATOM     27  C   UNL A   1      32.638  31.693  26.910  1.00  0.00     0.251 C 
ATOM     28  H   UNL A   1      31.276  31.261  25.522  1.00  0.00     0.163 HD
ATOM     29  O   UNL A   1      32.100  32.776  27.169  1.00  0.00    -0.269 OA
BRANCH  27  30
ATOM     30  C   UNL A   1      33.913  31.331  27.570  1.00  0.00     0.039 A 
ATOM     31  C   UNL A   1      34.813  32.350  27.903  1.00  0.00     0.014 A 
ATOM     32  C   UNL A   1      34.260  30.000  27.818  1.00  0.00     0.014 A 
ATOM     33  C   UNL A   1      36.018  32.041  28.544  1.00  0.00     0.010 A 
ATOM     34  C   UNL A   1      35.425  29.700  28.524  1.00  0.00     0.010 A 
ATOM     35  C   UNL A   1      36.318  30.716  28.898  1.00  0.00    -0.014 A 
BRANCH  35  36
ATOM     36  C   UNL A   1      37.549  30.380  29.666  1.00  0.00     0.031 A 
ATOM     37  C   UNL A   1      38.598  29.480  29.071  1.00  0.00     0.074 A 
ATOM     38  C   UNL A   1      37.694  30.837  30.926  1.00  0.00     0.049 A 
ATOM     39  N   UNL A   1      39.691  29.006  29.616  1.00  0.00    -0.248 NA
ATOM     40  C   UNL A   1      38.375  29.032  27.688  1.00  0.00     0.031 C 
ATOM     41  C   UNL A   1      36.736  31.693  31.629  1.00  0.00     0.029 A 
ATOM     42  N   UNL A   1      38.695  30.638  31.846  1.00  0.00    -0.354 N 
ATOM     43  C   UNL A   1      40.281  28.197  28.650  1.00  0.00     0.074 A 
ATOM     44  C   UNL A   1      39.390  28.200  27.507  1.00  0.00     0.031 C 
ATOM     45  C   UNL A   1      37.205  31.963  32.857  1.00  0.00     0.029 A 
ATOM     46  C   UNL A   1      38.469  31.260  33.053  1.00  0.00     0.049 A 
ATOM     47  H   UNL A   1      39.499  30.102  31.659  1.00  0.00     0.167 HD
ATOM     48  C   UNL A   1      41.461  27.530  28.703  1.00  0.00     0.034 A 
ATOM     49  C   UNL A   1      39.185  31.250  34.195  1.00  0.00     0.034 A 
ATOM     50  C   UNL A   1      42.342  27.541  29.848  1.00  0.00     0.049 A 
ATOM     51  C   UNL A   1      40.474  30.469  34.245  1.00  0.00     0.074 A 
ATOM     52  C   UNL A   1      43.583  26.942  29.985  1.00  0.00     0.029 A 
ATOM     53  N   UNL A   1      42.073  28.173  31.055  1.00  0.00    -0.354 N 
ATOM     54  N   UNL A   1      41.037  29.744  33.307  1.00  0.00    -0.248 NA
ATOM     55  C   UNL A   1      41.226  30.512  35.506  1.00  0.00     0.031 C 
ATOM     56  C   UNL A   1      44.029  27.148  31.295  1.00  0.00     0.029 A 
ATOM     57  C   UNL A   1      43.108  27.947  31.952  1.00  0.00     0.049 A 
ATOM     58  H   UNL A   1      41.266  28.703  31.247  1.00  0.00     0.167 HD
ATOM     59  C   UNL A   1      42.226  29.272  33.856  1.00  0.00     0.074 A 
ATOM     60  C   UNL A   1      42.305  29.807  35.199  1.00  0.00     0.031 C 
ATOM     61  C   UNL A   1      43.172  28.473  33.296  1.00  0.00     0.034 A 
BRANCH  48  62
ATOM     62  C   UNL A   1      41.852  26.709  27.494  1.00  0.00     0.023 A 
ATOM     63  C   UNL A   1      41.555  25.338  27.404  1.00  0.00     0.031 A 
ATOM     64  C   UNL A   1      42.549  27.301  26.426  1.00  0.00     0.131 A 
ATOM     65  C   UNL A   1      42.021  24.589  26.312  1.00  0.00     0.055 A 
ATOM     66  C   UNL A   1      42.935  26.569  25.301  1.00  0.00     0.041 A 
ATOM     67  F   UNL A   1      42.880  28.601  26.461  1.00  0.00    -0.206 F 
ATOM     68  C   UNL A   1      42.687  25.200  25.247  1.00  0.00     0.022 A 
BRANCH  65  69
ATOM     69  S   UNL A   1      41.877  22.782  26.377  1.00  0.00     0.124 S 
ATOM     70  O   UNL A   1      40.429  22.603  26.441  1.00  0.00    -0.237 OA
ATOM     71  O   UNL A   1      42.519  22.370  25.134  1.00  0.00    -0.237 OA
ATOM     72  O   UNL A   1      42.596  22.426  27.598  1.00  0.00    -0.744 OA
ENDBRANCH  65  69
ENDBRANCH  48  62
BRANCH  49  73
ATOM     73  C   UNL A   1      38.700  31.990  35.398  1.00  0.00     0.023 A 
ATOM     74  C   UNL A   1      38.199  31.303  36.515  1.00  0.00     0.031 A 
ATOM     75  C   UNL A   1      38.689  33.396  35.427  1.00  0.00     0.131 A 
ATOM     76  C   UNL A   1      37.664  32.022  37.595  1.00  0.00     0.055 A 
ATOM     77  C   UNL A   1      38.208  34.106  36.529  1.00  0.00     0.041 A 
ATOM     78  F   UNL A   1      39.159  34.101  34.387  1.00  0.00    -0.206 F 
ATOM     79  C   UNL A   1      37.678  33.419  37.616  1.00  0.00     0.022 A 
BRANCH  76  80
ATOM     80  S   UNL A   1      36.864  31.104  38.939  1.00  0.00     0.124 S 
ATOM     81  O   UNL A   1      35.626  31.854  39.115  1.00  0.00    -0.237 OA
ATOM     82  O   UNL A   1      36.731  29.772  38.358  1.00  0.00    -0.237 OA
ATOM     83  O   UNL A   1      37.821  31.208  40.039  1.00  0.00    -0.744 OA
ENDBRANCH  76  80
ENDBRANCH  49  73
BRANCH  61  84
ATOM     84  C   UNL A   1      44.397  28.171  34.128  1.00  0.00     0.023 A 
ATOM     85  C   UNL A   1      44.464  27.051  34.975  1.00  0.00     0.031 A 
ATOM     86  C   UNL A   1      45.510  29.031  34.082  1.00  0.00     0.131 A 
ATOM     87  C   UNL A   1      45.594  26.850  35.782  1.00  0.00     0.055 A 
ATOM     88  C   UNL A   1      46.657  28.791  34.840  1.00  0.00     0.041 A 
ATOM     89  F   UNL A   1      45.502  30.119  33.295  1.00  0.00    -0.206 F 
ATOM     90  C   UNL A   1      46.697  27.703  35.707  1.00  0.00     0.022 A 
BRANCH  87  91
ATOM     91  S   UNL A   1      45.564  25.513  37.007  1.00  0.00     0.124 S 
ATOM     92  O   UNL A   1      46.903  25.595  37.581  1.00  0.00    -0.237 OA
ATOM     93  O   UNL A   1      44.469  25.916  37.884  1.00  0.00    -0.237 OA
ATOM     94  O   UNL A   1      45.305  24.318  36.204  1.00  0.00    -0.744 OA
ENDBRANCH  87  91
ENDBRANCH  61  84
ENDBRANCH  35  36
ENDBRANCH  27  30
ENDBRANCH   1  26
TORSDOF 14
ENDMDL
MODEL 2
REMARK VINA RESULT:     -12.7      5.046     10.090
REMARK SMILES C[C@H]1CCCC[C@H]1[N@H+]1[C@@H](C(=O)NCCCNC(=O)c2ccc(-c3c4nc(c(-c5cc(S(=O)(=O)[O-])ccc5F)c5ccc([nH]5)c(-c5cc(S(=O)(=O)[O-])ccc5F)c5nc(c(-c6cc(S(=O)(=O)[O-])ccc6F)c6ccc3[nH]6)C=C5)C=C4)cc2)CC[C@@H]2CCCC[C@@H]21
REMARK SMILES IDX 15 1 14 2 13 3 12 4 10 5 11 6 9 8 8 9 89 10 82 12 84 13
REMARK SMILES IDX 88 14 83 15 85 16 87 17 86 18 7 19 1 20 2 21 3 22 4 23 6 24
REMARK SMILES IDX 5 25 16 26 17 27 18 29 19 30 20 31 81 32 21 33 80 34 22 35
REMARK SMILES IDX 23 36 24 37 74 38 25 39 79 40 73 41 75 42 26 43 78 44 72 45
REMARK SMILES IDX 71 46 27 48 59 49 39 50 58 51 40 52 43 53 57 54 76 55 41 56
REMARK SMILES IDX 42 57 56 59 77 60 44 61 28 62 29 63 37 64 30 65 36 66 38 67
REMARK SMILES IDX 35 68 31 69 32 70 33 71 34 72 60 73 61 74 69 75 62 76 68 77
REMARK SMILES IDX 70 78 67 79 63 80 64 81 65 82 66 83 45 84 46 85 54 86 47 87
REMARK SMILES IDX 53 88 55 89 52 90 48 91 49 92 50 93 51 94
REMARK H PARENT 12 7 8 11 16 28 75 47 43 58
REMARK Flexibility Score: inf
ROOT
ATOM      1  C   UNL A   1      35.900  22.003  25.339  1.00  0.00     0.118 C 
ENDROOT
BRANCH   1   2
ATOM      2  C   UNL A   1      34.894  21.918  26.483  1.00  0.00     0.042 C 
BRANCH   2   3
ATOM      3  C   UNL A   1      34.453  23.271  27.028  1.00  0.00     0.118 C 
BRANCH   3   4
ATOM      4  N   UNL A   1      33.056  23.320  27.454  1.00  0.00    -0.351 N 
ATOM      5  C   UNL A   1      31.896  23.277  26.717  1.00  0.00     0.278 C 
ATOM      6  O   UNL A   1      30.849  23.009  27.313  1.00  0.00    -0.268 OA
ATOM      7  H   UNL A   1      32.924  23.396  28.427  1.00  0.00     0.163 HD
BRANCH   5   8
ATOM      8  C   UNL A   1      31.942  23.439  25.204  1.00  0.00     0.274 C 
ATOM      9  N   UNL A   1      31.497  24.695  24.537  1.00  0.00    -0.319 N 
ATOM     10  C   UNL A   1      31.407  24.503  23.051  1.00  0.00     0.188 C 
ATOM     11  H   UNL A   1      32.269  25.299  24.816  1.00  0.00     0.349 HD
ATOM     12  C   UNL A   1      31.446  22.175  24.495  1.00  0.00     0.076 C 
ATOM     13  C   UNL A   1      32.410  23.441  22.511  1.00  0.00     0.048 C 
ATOM     14  C   UNL A   1      31.559  25.767  22.165  1.00  0.00     0.065 C 
ATOM     15  C   UNL A   1      32.149  22.059  23.139  1.00  0.00     0.016 C 
ATOM     16  C   UNL A   1      33.884  23.909  22.636  1.00  0.00     0.010 C 
ATOM     17  C   UNL A   1      32.982  26.045  21.672  1.00  0.00     0.006 C 
ATOM     18  C   UNL A   1      34.030  25.433  22.583  1.00  0.00     0.001 C 
BRANCH   9  19
ATOM     19  C   UNL A   1      30.540  25.671  25.126  1.00  0.00     0.187 C 
ATOM     20  C   UNL A   1      32.045  27.002  26.847  1.00  0.00     0.014 C 
ATOM     21  C   UNL A   1      30.985  27.027  25.749  1.00  0.00     0.044 C 
ATOM     22  C   UNL A   1      31.331  28.032  24.660  1.00  0.00     0.009 C 
ATOM     23  C   UNL A   1      30.086  28.399  23.862  1.00  0.00     0.001 C 
ATOM     24  C   UNL A   1      29.239  25.954  24.328  1.00  0.00     0.065 C 
ATOM     25  C   UNL A   1      29.140  27.250  23.511  1.00  0.00     0.006 C 
ENDBRANCH   9  19
ENDBRANCH   5   8
ENDBRANCH   3   4
ENDBRANCH   2   3
ENDBRANCH   1   2
BRANCH   1  26
ATOM     26  N   UNL A   1      36.900  20.943  25.399  1.00  0.00    -0.352 N 
ATOM     27  C   UNL A   1      38.254  20.994  25.611  1.00  0.00     0.251 C 
ATOM     28  H   UNL A   1      36.542  20.036  25.264  1.00  0.00     0.163 HD
ATOM     29  O   UNL A   1      38.922  19.977  25.394  1.00  0.00    -0.269 OA
BRANCH  27  30
ATOM     30  C   UNL A   1      38.926  22.231  26.070  1.00  0.00     0.039 A 
ATOM     31  C   UNL A   1      40.064  22.120  26.876  1.00  0.00     0.014 A 
ATOM     32  C   UNL A   1      38.424  23.498  25.762  1.00  0.00     0.014 A 
ATOM     33  C   UNL A   1      40.733  23.270  27.310  1.00  0.00     0.010 A 
ATOM     34  C   UNL A   1      39.133  24.642  26.131  1.00  0.00     0.010 A 
ATOM     35  C   UNL A   1      40.297  24.543  26.907  1.00  0.00    -0.014 A 
BRANCH  35  36
ATOM     36  C   UNL A   1      41.051  25.772  27.279  1.00  0.00     0.031 A 
ATOM     37  C   UNL A   1      40.402  26.843  28.114  1.00  0.00     0.074 A 
ATOM     38  C   UNL A   1      42.303  25.953  26.811  1.00  0.00     0.049 A 
ATOM     39  N   UNL A   1      40.866  28.016  28.465  1.00  0.00    -0.248 NA
ATOM     40  C   UNL A   1      39.041  26.568  28.597  1.00  0.00     0.031 C 
ATOM     41  C   UNL A   1      43.034  25.005  25.968  1.00  0.00     0.029 A 
ATOM     42  N   UNL A   1      43.180  26.999  26.968  1.00  0.00    -0.354 N 
ATOM     43  C   UNL A   1      39.852  28.624  29.199  1.00  0.00     0.074 A 
ATOM     44  C   UNL A   1      38.729  27.710  29.190  1.00  0.00     0.031 C 
ATOM     45  C   UNL A   1      44.252  25.502  25.701  1.00  0.00     0.029 A 
ATOM     46  C   UNL A   1      44.374  26.824  26.307  1.00  0.00     0.049 A 
ATOM     47  H   UNL A   1      42.974  27.798  27.503  1.00  0.00     0.167 HD
ATOM     48  C   UNL A   1      39.864  29.823  29.836  1.00  0.00     0.034 A 
ATOM     49  C   UNL A   1      45.439  27.641  26.183  1.00  0.00     0.034 A 
ATOM     50  C   UNL A   1      40.995  30.721  29.842  1.00  0.00     0.049 A 
ATOM     51  C   UNL A   1      45.414  28.986  26.865  1.00  0.00     0.074 A 
ATOM     52  C   UNL A   1      41.128  31.934  30.497  1.00  0.00     0.029 A 
ATOM     53  N   UNL A   1      42.182  30.514  29.151  1.00  0.00    -0.354 N 
ATOM     54  N   UNL A   1      44.463  29.526  27.591  1.00  0.00    -0.248 NA
ATOM     55  C   UNL A   1      46.610  29.826  26.717  1.00  0.00     0.031 C 
ATOM     56  C   UNL A   1      42.362  32.492  30.145  1.00  0.00     0.029 A 
ATOM     57  C   UNL A   1      43.037  31.592  29.337  1.00  0.00     0.049 A 
ATOM     58  H   UNL A   1      42.388  29.718  28.609  1.00  0.00     0.167 HD
ATOM     59  C   UNL A   1      44.961  30.756  28.013  1.00  0.00     0.074 A 
ATOM     60  C   UNL A   1      46.300  30.869  27.473  1.00  0.00     0.031 C 
ATOM     61  C   UNL A   1      44.366  31.704  28.783  1.00  0.00     0.034 A 
BRANCH  48  62
ATOM     62  C   UNL A   1      38.601  30.240  30.557  1.00  0.00     0.023 A 
ATOM     63  C   UNL A   1      37.562  30.918  29.896  1.00  0.00     0.031 A 
ATOM     64  C   UNL A   1      38.443  29.974  31.929  1.00  0.00     0.131 A 
ATOM     65  C   UNL A   1      36.451  31.376  30.620  1.00  0.00     0.055 A 
ATOM     66  C   UNL A   1      37.296  30.357  32.626  1.00  0.00     0.041 A 
ATOM     67  F   UNL A   1      39.408  29.348  32.621  1.00  0.00    -0.206 F 
ATOM     68  C   UNL A   1      36.298  31.077  31.976  1.00  0.00     0.022 A 
BRANCH  65  69
ATOM     69  S   UNL A   1      35.285  32.496  29.799  1.00  0.00     0.124 S 
ATOM     70  O   UNL A   1      34.400  32.862  30.903  1.00  0.00    -0.237 OA
ATOM     71  O   UNL A   1      36.159  33.553  29.304  1.00  0.00    -0.237 OA
ATOM     72  O   UNL A   1      34.672  31.659  28.771  1.00  0.00    -0.744 OA
ENDBRANCH  65  69
ENDBRANCH  48  62
BRANCH  49  73
ATOM     73  C   UNL A   1      46.619  27.226  25.368  1.00  0.00     0.023 A 
ATOM     74  C   UNL A   1      46.848  27.773  24.096  1.00  0.00     0.031 A 
ATOM     75  C   UNL A   1      47.511  26.244  25.834  1.00  0.00     0.131 A 
ATOM     76  C   UNL A   1      47.912  27.300  23.312  1.00  0.00     0.055 A 
ATOM     77  C   UNL A   1      48.601  25.817  25.073  1.00  0.00     0.041 A 
ATOM     78  F   UNL A   1      47.341  25.690  27.044  1.00  0.00    -0.206 F 
ATOM     79  C   UNL A   1      48.799  26.336  23.797  1.00  0.00     0.022 A 
BRANCH  76  80
ATOM     80  S   UNL A   1      48.068  27.900  21.608  1.00  0.00     0.124 S 
ATOM     81  O   UNL A   1      48.276  26.657  20.874  1.00  0.00    -0.237 OA
ATOM     82  O   UNL A   1      46.784  28.561  21.400  1.00  0.00    -0.237 OA
ATOM     83  O   UNL A   1      49.224  28.792  21.666  1.00  0.00    -0.744 OA
ENDBRANCH  76  80
ENDBRANCH  49  73
BRANCH  61  84
ATOM     84  C   UNL A   1      45.186  32.926  29.124  1.00  0.00     0.023 A 
ATOM     85  C   UNL A   1      45.157  34.087  28.331  1.00  0.00     0.031 A 
ATOM     86  C   UNL A   1      46.022  32.922  30.256  1.00  0.00     0.131 A 
ATOM     87  C   UNL A   1      45.990  35.171  28.647  1.00  0.00     0.055 A 
ATOM     88  C   UNL A   1      46.800  34.028  30.602  1.00  0.00     0.041 A 
ATOM     89  F   UNL A   1      46.094  31.840  31.049  1.00  0.00    -0.206 F 
ATOM     90  C   UNL A   1      46.797  35.155  29.786  1.00  0.00     0.022 A 
BRANCH  87  91
ATOM     91  S   UNL A   1      46.078  36.568  27.492  1.00  0.00     0.124 S 
ATOM     92  O   UNL A   1      46.923  37.510  28.219  1.00  0.00    -0.237 OA
ATOM     93  O   UNL A   1      46.675  35.958  26.309  1.00  0.00    -0.237 OA
ATOM     94  O   UNL A   1      44.682  36.975  27.340  1.00  0.00    -0.744 OA
ENDBRANCH  87  91
ENDBRANCH  61  84
ENDBRANCH  35  36
ENDBRANCH  27  30
ENDBRANCH   1  26
TORSDOF 14
ENDMDL
MODEL 3
REMARK VINA RESULT:     -12.6      0.632      7.489
REMARK SMILES C[C@H]1CCCC[C@H]1[N@H+]1[C@@H](C(=O)NCCCNC(=O)c2ccc(-c3c4nc(c(-c5cc(S(=O)(=O)[O-])ccc5F)c5ccc([nH]5)c(-c5cc(S(=O)(=O)[O-])ccc5F)c5nc(c(-c6cc(S(=O)(=O)[O-])ccc6F)c6ccc3[nH]6)C=C5)C=C4)cc2)CC[C@@H]2CCCC[C@@H]21
REMARK SMILES IDX 15 1 14 2 13 3 12 4 10 5 11 6 9 8 8 9 89 10 82 12 84 13
REMARK SMILES IDX 88 14 83 15 85 16 87 17 86 18 7 19 1 20 2 21 3 22 4 23 6 24
REMARK SMILES IDX 5 25 16 26 17 27 18 29 19 30 20 31 81 32 21 33 80 34 22 35
REMARK SMILES IDX 23 36 24 37 74 38 25 39 79 40 73 41 75 42 26 43 78 44 72 45
REMARK SMILES IDX 71 46 27 48 59 49 39 50 58 51 40 52 43 53 57 54 76 55 41 56
REMARK SMILES IDX 42 57 56 59 77 60 44 61 28 62 29 63 37 64 30 65 36 66 38 67
REMARK SMILES IDX 35 68 31 69 32 70 33 71 34 72 60 73 61 74 69 75 62 76 68 77
REMARK SMILES IDX 70 78 67 79 63 80 64 81 65 82 66 83 45 84 46 85 54 86 47 87
REMARK SMILES IDX 53 88 55 89 52 90 48 91 49 92 50 93 51 94
REMARK H PARENT 12 7 8 11 16 28 75 47 43 58
REMARK Flexibility Score: inf
ROOT
ATOM      1  C   UNL A   1      32.301  29.860  26.198  1.00  0.00     0.118 C 
ENDROOT
BRANCH   1   2
ATOM      2  C   UNL A   1      32.892  29.496  24.839  1.00  0.00     0.042 C 
BRANCH   2   3
ATOM      3  C   UNL A   1      33.910  28.364  24.883  1.00  0.00     0.118 C 
BRANCH   3   4
ATOM      4  N   UNL A   1      34.203  27.767  23.582  1.00  0.00    -0.351 N 
ATOM      5  C   UNL A   1      33.473  26.886  22.820  1.00  0.00     0.278 C 
ATOM      6  O   UNL A   1      33.769  26.778  21.627  1.00  0.00    -0.268 OA
ATOM      7  H   UNL A   1      35.062  28.041  23.186  1.00  0.00     0.163 HD
BRANCH   5   8
ATOM      8  C   UNL A   1      32.272  26.166  23.419  1.00  0.00     0.274 C 
ATOM      9  N   UNL A   1      32.325  24.722  23.783  1.00  0.00    -0.319 N 
ATOM     10  C   UNL A   1      30.953  24.207  24.110  1.00  0.00     0.188 C 
ATOM     11  H   UNL A   1      32.931  24.792  24.600  1.00  0.00     0.349 HD
ATOM     12  C   UNL A   1      30.976  26.557  22.701  1.00  0.00     0.076 C 
ATOM     13  C   UNL A   1      30.012  25.303  24.693  1.00  0.00     0.048 C 
ATOM     14  C   UNL A   1      30.865  22.981  25.055  1.00  0.00     0.065 C 
ATOM     15  C   UNL A   1      29.811  26.454  23.690  1.00  0.00     0.016 C 
ATOM     16  C   UNL A   1      30.467  25.779  26.098  1.00  0.00     0.010 C 
ATOM     17  C   UNL A   1      30.691  23.317  26.538  1.00  0.00     0.006 C 
ATOM     18  C   UNL A   1      31.223  24.698  26.876  1.00  0.00     0.001 C 
BRANCH   9  19
ATOM     19  C   UNL A   1      33.265  23.735  23.187  1.00  0.00     0.187 C 
ATOM     20  C   UNL A   1      35.466  24.088  24.612  1.00  0.00     0.014 C 
ATOM     21  C   UNL A   1      34.469  23.128  23.968  1.00  0.00     0.044 C 
ATOM     22  C   UNL A   1      33.992  22.072  24.954  1.00  0.00     0.009 C 
ATOM     23  C   UNL A   1      33.413  20.876  24.211  1.00  0.00     0.001 C 
ATOM     24  C   UNL A   1      32.644  22.578  22.360  1.00  0.00     0.065 C 
ATOM     25  C   UNL A   1      32.527  21.189  23.004  1.00  0.00     0.006 C 
ENDBRANCH   9  19
ENDBRANCH   5   8
ENDBRANCH   3   4
ENDBRANCH   2   3
ENDBRANCH   1   2
BRANCH   1  26
ATOM     26  N   UNL A   1      32.320  31.297  26.445  1.00  0.00    -0.352 N 
ATOM     27  C   UNL A   1      33.124  32.060  27.251  1.00  0.00     0.251 C 
ATOM     28  H   UNL A   1      31.639  31.805  25.948  1.00  0.00     0.163 HD
ATOM     29  O   UNL A   1      32.800  33.234  27.463  1.00  0.00    -0.269 OA
BRANCH  27  30
ATOM     30  C   UNL A   1      34.347  31.510  27.881  1.00  0.00     0.039 A 
ATOM     31  C   UNL A   1      35.440  32.360  28.084  1.00  0.00     0.014 A 
ATOM     32  C   UNL A   1      34.452  30.161  28.226  1.00  0.00     0.014 A 
ATOM     33  C   UNL A   1      36.602  31.876  28.694  1.00  0.00     0.010 A 
ATOM     34  C   UNL A   1      35.581  29.697  28.901  1.00  0.00     0.010 A 
ATOM     35  C   UNL A   1      36.670  30.548  29.146  1.00  0.00    -0.014 A 
BRANCH  35  36
ATOM     36  C   UNL A   1      37.861  30.041  29.883  1.00  0.00     0.031 A 
ATOM     37  C   UNL A   1      38.146  30.505  31.286  1.00  0.00     0.074 A 
ATOM     38  C   UNL A   1      38.721  29.207  29.264  1.00  0.00     0.049 A 
ATOM     39  N   UNL A   1      39.174  30.244  32.053  1.00  0.00    -0.248 NA
ATOM     40  C   UNL A   1      37.155  31.404  31.897  1.00  0.00     0.031 C 
ATOM     41  C   UNL A   1      38.575  28.705  27.896  1.00  0.00     0.029 A 
ATOM     42  N   UNL A   1      39.895  28.642  29.699  1.00  0.00    -0.354 N 
ATOM     43  C   UNL A   1      38.962  30.953  33.232  1.00  0.00     0.074 A 
ATOM     44  C   UNL A   1      37.735  31.701  33.050  1.00  0.00     0.031 C 
ATOM     45  C   UNL A   1      39.605  27.893  27.613  1.00  0.00     0.029 A 
ATOM     46  C   UNL A   1      40.513  27.853  28.755  1.00  0.00     0.049 A 
ATOM     47  H   UNL A   1      40.261  28.786  30.601  1.00  0.00     0.167 HD
ATOM     48  C   UNL A   1      39.710  30.964  34.364  1.00  0.00     0.034 A 
ATOM     49  C   UNL A   1      41.686  27.190  28.793  1.00  0.00     0.034 A 
ATOM     50  C   UNL A   1      40.929  30.208  34.533  1.00  0.00     0.049 A 
ATOM     51  C   UNL A   1      42.520  27.250  30.048  1.00  0.00     0.074 A 
ATOM     52  C   UNL A   1      41.733  30.110  35.656  1.00  0.00     0.029 A 
ATOM     53  N   UNL A   1      41.528  29.430  33.550  1.00  0.00    -0.354 N 
ATOM     54  N   UNL A   1      42.283  27.891  31.168  1.00  0.00    -0.248 NA
ATOM     55  C   UNL A   1      43.777  26.490  30.043  1.00  0.00     0.031 C 
ATOM     56  C   UNL A   1      42.852  29.336  35.330  1.00  0.00     0.029 A 
ATOM     57  C   UNL A   1      42.708  28.879  34.031  1.00  0.00     0.049 A 
ATOM     58  H   UNL A   1      41.168  29.290  32.644  1.00  0.00     0.167 HD
ATOM     59  C   UNL A   1      43.345  27.583  32.013  1.00  0.00     0.074 A 
ATOM     60  C   UNL A   1      44.215  26.689  31.278  1.00  0.00     0.031 C 
ATOM     61  C   UNL A   1      43.578  27.999  33.286  1.00  0.00     0.034 A 
BRANCH  48  62
ATOM     62  C   UNL A   1      39.240  31.846  35.499  1.00  0.00     0.023 A 
ATOM     63  C   UNL A   1      38.604  31.314  36.634  1.00  0.00     0.031 A 
ATOM     64  C   UNL A   1      39.411  33.240  35.437  1.00  0.00     0.131 A 
ATOM     65  C   UNL A   1      38.093  32.172  37.621  1.00  0.00     0.055 A 
ATOM     66  C   UNL A   1      38.977  34.083  36.462  1.00  0.00     0.041 A 
ATOM     67  F   UNL A   1      39.992  33.811  34.371  1.00  0.00    -0.206 F 
ATOM     68  C   UNL A   1      38.299  33.552  37.555  1.00  0.00     0.022 A 
BRANCH  65  69
ATOM     69  S   UNL A   1      37.026  31.472  38.910  1.00  0.00     0.124 S 
ATOM     70  O   UNL A   1      36.818  30.114  38.414  1.00  0.00    -0.237 OA
ATOM     71  O   UNL A   1      37.853  31.597  40.105  1.00  0.00    -0.237 OA
ATOM     72  O   UNL A   1      35.843  32.328  38.877  1.00  0.00    -0.744 OA
ENDBRANCH  65  69
ENDBRANCH  48  62
BRANCH  49  73
ATOM     73  C   UNL A   1      42.158  26.421  27.604  1.00  0.00     0.023 A 
ATOM     74  C   UNL A   1      41.821  25.068  27.437  1.00  0.00     0.031 A 
ATOM     75  C   UNL A   1      42.991  27.017  26.641  1.00  0.00     0.131 A 
ATOM     76  C   UNL A   1      42.352  24.343  26.360  1.00  0.00     0.055 A 
ATOM     77  C   UNL A   1      43.472  26.305  25.540  1.00  0.00     0.041 A 
ATOM     78  F   UNL A   1      43.343  28.307  26.751  1.00  0.00    -0.206 F 
ATOM     79  C   UNL A   1      43.164  24.955  25.402  1.00  0.00     0.022 A 
BRANCH  76  80
ATOM     80  S   UNL A   1      42.040  22.559  26.276  1.00  0.00     0.124 S 
ATOM     81  O   UNL A   1      40.583  22.510  26.322  1.00  0.00    -0.237 OA
ATOM     82  O   UNL A   1      42.654  22.203  25.001  1.00  0.00    -0.237 OA
ATOM     83  O   UNL A   1      42.721  22.038  27.459  1.00  0.00    -0.744 OA
ENDBRANCH  76  80
ENDBRANCH  49  73
BRANCH  61  84
ATOM     84  C   UNL A   1      44.803  27.446  33.976  1.00  0.00     0.023 A 
ATOM     85  C   UNL A   1      44.766  26.249  34.712  1.00  0.00     0.031 A 
ATOM     86  C   UNL A   1      46.025  28.140  33.906  1.00  0.00     0.131 A 
ATOM     87  C   UNL A   1      45.911  25.812  35.396  1.00  0.00     0.055 A 
ATOM     88  C   UNL A   1      47.177  27.667  34.535  1.00  0.00     0.041 A 
ATOM     89  F   UNL A   1      46.119  29.291  33.221  1.00  0.00    -0.206 F 
ATOM     90  C   UNL A   1      47.120  26.504  35.298  1.00  0.00     0.022 A 
BRANCH  87  91
ATOM     91  S   UNL A   1      45.774  24.377  36.498  1.00  0.00     0.124 S 
ATOM     92  O   UNL A   1      46.626  24.770  37.616  1.00  0.00    -0.237 OA
ATOM     93  O   UNL A   1      44.342  24.331  36.774  1.00  0.00    -0.237 OA
ATOM     94  O   UNL A   1      46.284  23.272  35.687  1.00  0.00    -0.744 OA
ENDBRANCH  87  91
ENDBRANCH  61  84
ENDBRANCH  35  36
ENDBRANCH  27  30
ENDBRANCH   1  26
TORSDOF 14
ENDMDL
