MODEL 1
REMARK VINA RESULT:     -11.5      0.000      0.000
REMARK SMILES Nc1cc([N+](=O)[O-])ccc1[C@H]([NH3+])C(=O)NCCCNC(=O)c1ccc(-c2c3nc(c(-c4cc(S(=O)(=O)[O-])ccc4F)c4ccc([nH]4)c(-c4cc(S(=O)(=O)[O-])ccc4F)c4nc(c(-c5cc(S(=O)(=O)[O-])ccc5F)c5ccc2[nH]5)C=C4)C=C3)cc1
REMARK SMILES IDX 17 1 16 2 15 3 13 4 14 5 11 7 10 8 2 9 3 10 4 11 9 12 8 13
REMARK SMILES IDX 1 14 5 17 6 18 7 19 12 20 18 24 19 25 20 26 21 28 22 29
REMARK SMILES IDX 23 30 84 31 24 32 83 33 25 34 26 35 27 36 77 37 28 38 82 39
REMARK SMILES IDX 76 40 78 41 29 42 81 43 75 44 74 45 30 47 62 48 42 49 61 50
REMARK SMILES IDX 43 51 46 52 60 53 79 54 44 55 45 56 59 58 80 59 47 60 31 61
REMARK SMILES IDX 32 62 40 63 33 64 39 65 41 66 38 67 34 68 35 69 36 70 37 71
REMARK SMILES IDX 63 72 64 73 72 74 65 75 71 76 73 77 70 78 66 79 67 80 68 81
REMARK SMILES IDX 69 82 48 83 49 84 57 85 50 86 56 87 58 88 55 89 51 90 52 91
REMARK SMILES IDX 53 92 54 93
REMARK H PARENT 15 6 1 15 1 16 12 21 12 22 12 23 19 27 78 46 46 57
REMARK Flexibility Score: inf
ROOT
ATOM      1  C   UNL A   1      32.679  28.563  27.114  1.00  0.00     0.042 C 
ENDROOT
BRANCH   1   2
ATOM      2  C   UNL A   1      32.519  27.250  26.364  1.00  0.00     0.118 C 
BRANCH   2   3
ATOM      3  N   UNL A   1      31.328  26.529  26.768  1.00  0.00    -0.351 N 
ATOM      4  C   UNL A   1      30.418  25.861  25.994  1.00  0.00     0.283 C 
ATOM      5  O   UNL A   1      29.493  25.272  26.564  1.00  0.00    -0.268 OA
ATOM      6  H   UNL A   1      31.148  26.516  27.736  1.00  0.00     0.163 HD
BRANCH   4   7
ATOM      7  C   UNL A   1      30.575  25.806  24.445  1.00  0.00     0.304 C 
BRANCH   7   8
ATOM      8  C   UNL A   1      29.824  26.944  23.731  1.00  0.00     0.042 A 
ATOM      9  C   UNL A   1      28.420  27.084  23.651  1.00  0.00     0.048 A 
ATOM     10  C   UNL A   1      27.875  28.250  23.086  1.00  0.00     0.111 A 
ATOM     11  C   UNL A   1      28.696  29.233  22.525  1.00  0.00     0.271 A 
ATOM     12  C   UNL A   1      30.627  27.939  23.112  1.00  0.00     0.020 A 
ATOM     13  C   UNL A   1      30.077  29.078  22.526  1.00  0.00     0.086 A 
BRANCH   9  14
ATOM     14  N   UNL A   1      27.531  26.187  24.233  1.00  0.00    -0.398 N 
ATOM     15  H   UNL A   1      27.409  26.179  25.210  1.00  0.00     0.156 HD
ATOM     16  H   UNL A   1      27.023  25.560  23.669  1.00  0.00     0.156 HD
ENDBRANCH   9  14
BRANCH  11  17
ATOM     17  N   UNL A   1      28.096  30.428  21.920  1.00  0.00     0.062 N 
ATOM     18  O   UNL A   1      27.982  30.455  20.685  1.00  0.00    -0.258 OA
ATOM     19  O   UNL A   1      27.751  31.347  22.676  1.00  0.00    -0.258 OA
ENDBRANCH  11  17
ENDBRANCH   7   8
BRANCH   7  20
ATOM     20  N   UNL A   1      30.273  24.424  24.026  1.00  0.00    -0.343 N 
ATOM     21  H   UNL A   1      30.904  24.152  23.272  1.00  0.00     0.345 HD
ATOM     22  H   UNL A   1      29.309  24.371  23.700  1.00  0.00     0.345 HD
ATOM     23  H   UNL A   1      30.399  23.793  24.818  1.00  0.00     0.345 HD
ENDBRANCH   7  20
ENDBRANCH   4   7
ENDBRANCH   2   3
ENDBRANCH   1   2
BRANCH   1  24
ATOM     24  C   UNL A   1      33.777  29.452  26.552  1.00  0.00     0.118 C 
BRANCH  24  25
ATOM     25  N   UNL A   1      33.685  30.823  27.037  1.00  0.00    -0.352 N 
ATOM     26  C   UNL A   1      34.448  31.480  27.966  1.00  0.00     0.251 C 
ATOM     27  H   UNL A   1      32.963  31.360  26.634  1.00  0.00     0.163 HD
ATOM     28  O   UNL A   1      34.067  32.574  28.389  1.00  0.00    -0.269 OA
BRANCH  26  29
ATOM     29  C   UNL A   1      35.701  30.879  28.470  1.00  0.00     0.039 A 
ATOM     30  C   UNL A   1      36.924  31.390  28.026  1.00  0.00     0.014 A 
ATOM     31  C   UNL A   1      35.677  29.798  29.354  1.00  0.00     0.014 A 
ATOM     32  C   UNL A   1      38.116  30.840  28.500  1.00  0.00     0.010 A 
ATOM     33  C   UNL A   1      36.860  29.324  29.907  1.00  0.00     0.010 A 
ATOM     34  C   UNL A   1      38.095  29.818  29.463  1.00  0.00    -0.014 A 
BRANCH  34  35
ATOM     35  C   UNL A   1      39.352  29.209  29.968  1.00  0.00     0.031 A 
ATOM     36  C   UNL A   1      40.039  29.798  31.170  1.00  0.00     0.074 A 
ATOM     37  C   UNL A   1      39.900  28.162  29.319  1.00  0.00     0.049 A 
ATOM     38  N   UNL A   1      41.170  29.456  31.734  1.00  0.00    -0.248 NA
ATOM     39  C   UNL A   1      39.385  30.956  31.797  1.00  0.00     0.031 C 
ATOM     40  C   UNL A   1      39.357  27.540  28.111  1.00  0.00     0.029 A 
ATOM     41  N   UNL A   1      41.038  27.444  29.582  1.00  0.00    -0.354 N 
ATOM     42  C   UNL A   1      41.365  30.362  32.771  1.00  0.00     0.074 A 
ATOM     43  C   UNL A   1      40.286  31.322  32.693  1.00  0.00     0.031 C 
ATOM     44  C   UNL A   1      40.147  26.516  27.752  1.00  0.00     0.029 A 
ATOM     45  C   UNL A   1      41.274  26.436  28.676  1.00  0.00     0.049 A 
ATOM     46  H   UNL A   1      41.629  27.631  30.346  1.00  0.00     0.167 HD
ATOM     47  C   UNL A   1      42.331  30.372  33.724  1.00  0.00     0.034 A 
ATOM     48  C   UNL A   1      42.289  25.553  28.595  1.00  0.00     0.034 A 
ATOM     49  C   UNL A   1      43.400  29.404  33.781  1.00  0.00     0.049 A 
ATOM     50  C   UNL A   1      43.363  25.584  29.650  1.00  0.00     0.074 A 
ATOM     51  C   UNL A   1      44.415  29.290  34.714  1.00  0.00     0.029 A 
ATOM     52  N   UNL A   1      43.597  28.383  32.857  1.00  0.00    -0.354 N 
ATOM     53  N   UNL A   1      43.509  26.414  30.657  1.00  0.00    -0.248 NA
ATOM     54  C   UNL A   1      44.396  24.545  29.569  1.00  0.00     0.031 C 
ATOM     55  C   UNL A   1      45.264  28.252  34.315  1.00  0.00     0.029 A 
ATOM     56  C   UNL A   1      44.730  27.654  33.183  1.00  0.00     0.049 A 
ATOM     57  H   UNL A   1      43.016  28.204  32.083  1.00  0.00     0.167 HD
ATOM     58  C   UNL A   1      44.635  25.975  31.351  1.00  0.00     0.074 A 
ATOM     59  C   UNL A   1      45.116  24.801  30.652  1.00  0.00     0.031 C 
ATOM     60  C   UNL A   1      45.211  26.491  32.469  1.00  0.00     0.034 A 
BRANCH  47  61
ATOM     61  C   UNL A   1      42.272  31.485  34.749  1.00  0.00     0.023 A 
ATOM     62  C   UNL A   1      41.313  31.487  35.780  1.00  0.00     0.031 A 
ATOM     63  C   UNL A   1      43.132  32.594  34.657  1.00  0.00     0.131 A 
ATOM     64  C   UNL A   1      41.157  32.620  36.592  1.00  0.00     0.055 A 
ATOM     65  C   UNL A   1      43.041  33.673  35.540  1.00  0.00     0.041 A 
ATOM     66  F   UNL A   1      44.057  32.665  33.687  1.00  0.00    -0.206 F 
ATOM     67  C   UNL A   1      42.033  33.702  36.499  1.00  0.00     0.022 A 
BRANCH  64  68
ATOM     68  S   UNL A   1      39.668  32.741  37.624  1.00  0.00     0.124 S 
ATOM     69  O   UNL A   1      40.235  32.662  38.969  1.00  0.00    -0.237 OA
ATOM     70  O   UNL A   1      39.121  34.036  37.237  1.00  0.00    -0.237 OA
ATOM     71  O   UNL A   1      38.876  31.581  37.222  1.00  0.00    -0.744 OA
ENDBRANCH  64  68
ENDBRANCH  47  61
BRANCH  48  72
ATOM     72  C   UNL A   1      42.333  24.573  27.472  1.00  0.00     0.023 A 
ATOM     73  C   UNL A   1      41.611  23.371  27.521  1.00  0.00     0.031 A 
ATOM     74  C   UNL A   1      43.108  24.831  26.326  1.00  0.00     0.131 A 
ATOM     75  C   UNL A   1      41.706  22.455  26.461  1.00  0.00     0.055 A 
ATOM     76  C   UNL A   1      43.159  23.941  25.253  1.00  0.00     0.041 A 
ATOM     77  F   UNL A   1      43.811  25.971  26.225  1.00  0.00    -0.206 F 
ATOM     78  C   UNL A   1      42.462  22.739  25.322  1.00  0.00     0.022 A 
BRANCH  75  79
ATOM     79  S   UNL A   1      40.869  20.852  26.615  1.00  0.00     0.124 S 
ATOM     80  O   UNL A   1      40.786  20.699  28.063  1.00  0.00    -0.237 OA
ATOM     81  O   UNL A   1      39.610  21.100  25.921  1.00  0.00    -0.237 OA
ATOM     82  O   UNL A   1      41.778  19.928  25.940  1.00  0.00    -0.744 OA
ENDBRANCH  75  79
ENDBRANCH  48  72
BRANCH  60  83
ATOM     83  C   UNL A   1      46.400  25.748  33.034  1.00  0.00     0.023 A 
ATOM     84  C   UNL A   1      47.711  25.983  32.581  1.00  0.00     0.031 A 
ATOM     85  C   UNL A   1      46.212  24.773  34.031  1.00  0.00     0.131 A 
ATOM     86  C   UNL A   1      48.770  25.204  33.075  1.00  0.00     0.055 A 
ATOM     87  C   UNL A   1      47.279  24.053  34.569  1.00  0.00     0.041 A 
ATOM     88  F   UNL A   1      44.982  24.503  34.499  1.00  0.00    -0.206 F 
ATOM     89  C   UNL A   1      48.565  24.255  34.079  1.00  0.00     0.022 A 
BRANCH  86  90
ATOM     90  S   UNL A   1      50.401  25.362  32.296  1.00  0.00     0.124 S 
ATOM     91  O   UNL A   1      50.573  24.048  31.683  1.00  0.00    -0.237 OA
ATOM     92  O   UNL A   1      50.200  26.476  31.375  1.00  0.00    -0.237 OA
ATOM     93  O   UNL A   1      51.291  25.641  33.421  1.00  0.00    -0.744 OA
ENDBRANCH  86  90
ENDBRANCH  60  83
ENDBRANCH  34  35
ENDBRANCH  26  29
ENDBRANCH  24  25
ENDBRANCH   1  24
TORSDOF 17
ENDMDL
MODEL 2
REMARK VINA RESULT:     -11.5      1.784      2.093
REMARK SMILES Nc1cc([N+](=O)[O-])ccc1[C@H]([NH3+])C(=O)NCCCNC(=O)c1ccc(-c2c3nc(c(-c4cc(S(=O)(=O)[O-])ccc4F)c4ccc([nH]4)c(-c4cc(S(=O)(=O)[O-])ccc4F)c4nc(c(-c5cc(S(=O)(=O)[O-])ccc5F)c5ccc2[nH]5)C=C4)C=C3)cc1
REMARK SMILES IDX 17 1 16 2 15 3 13 4 14 5 11 7 10 8 2 9 3 10 4 11 9 12 8 13
REMARK SMILES IDX 1 14 5 17 6 18 7 19 12 20 18 24 19 25 20 26 21 28 22 29
REMARK SMILES IDX 23 30 84 31 24 32 83 33 25 34 26 35 27 36 77 37 28 38 82 39
REMARK SMILES IDX 76 40 78 41 29 42 81 43 75 44 74 45 30 47 62 48 42 49 61 50
REMARK SMILES IDX 43 51 46 52 60 53 79 54 44 55 45 56 59 58 80 59 47 60 31 61
REMARK SMILES IDX 32 62 40 63 33 64 39 65 41 66 38 67 34 68 35 69 36 70 37 71
REMARK SMILES IDX 63 72 64 73 72 74 65 75 71 76 73 77 70 78 66 79 67 80 68 81
REMARK SMILES IDX 69 82 48 83 49 84 57 85 50 86 56 87 58 88 55 89 51 90 52 91
REMARK SMILES IDX 53 92 54 93
REMARK H PARENT 15 6 1 15 1 16 12 21 12 22 12 23 19 27 78 46 46 57
REMARK Flexibility Score: inf
ROOT
ATOM      1  C   UNL A   1      32.244  28.695  26.721  1.00  0.00     0.042 C 
ENDROOT
BRANCH   1   2
ATOM      2  C   UNL A   1      32.448  27.203  26.513  1.00  0.00     0.118 C 
BRANCH   2   3
ATOM      3  N   UNL A   1      31.256  26.437  26.824  1.00  0.00    -0.351 N 
ATOM      4  C   UNL A   1      30.381  25.817  25.975  1.00  0.00     0.283 C 
ATOM      5  O   UNL A   1      29.448  25.175  26.470  1.00  0.00    -0.268 OA
ATOM      6  H   UNL A   1      31.048  26.349  27.783  1.00  0.00     0.163 HD
BRANCH   4   7
ATOM      7  C   UNL A   1      30.584  25.882  24.432  1.00  0.00     0.304 C 
BRANCH   7   8
ATOM      8  C   UNL A   1      29.849  27.070  23.784  1.00  0.00     0.042 A 
ATOM      9  C   UNL A   1      28.448  27.203  23.659  1.00  0.00     0.048 A 
ATOM     10  C   UNL A   1      27.912  28.408  23.171  1.00  0.00     0.111 A 
ATOM     11  C   UNL A   1      28.743  29.441  22.727  1.00  0.00     0.271 A 
ATOM     12  C   UNL A   1      30.665  28.119  23.282  1.00  0.00     0.020 A 
ATOM     13  C   UNL A   1      30.125  29.298  22.771  1.00  0.00     0.086 A 
BRANCH   9  14
ATOM     14  N   UNL A   1      27.547  26.254  24.129  1.00  0.00    -0.398 N 
ATOM     15  H   UNL A   1      26.579  26.430  24.084  1.00  0.00     0.156 HD
ATOM     16  H   UNL A   1      27.875  25.407  24.505  1.00  0.00     0.156 HD
ENDBRANCH   9  14
BRANCH  11  17
ATOM     17  N   UNL A   1      28.155  30.677  22.199  1.00  0.00     0.062 N 
ATOM     18  O   UNL A   1      28.613  31.128  21.138  1.00  0.00    -0.258 OA
ATOM     19  O   UNL A   1      27.243  31.206  22.850  1.00  0.00    -0.258 OA
ENDBRANCH  11  17
ENDBRANCH   7   8
BRANCH   7  20
ATOM     20  N   UNL A   1      30.302  24.535  23.899  1.00  0.00    -0.343 N 
ATOM     21  H   UNL A   1      30.232  24.579  22.883  1.00  0.00     0.345 HD
ATOM     22  H   UNL A   1      29.423  24.194  24.286  1.00  0.00     0.345 HD
ATOM     23  H   UNL A   1      31.058  23.901  24.160  1.00  0.00     0.345 HD
ENDBRANCH   7  20
ENDBRANCH   4   7
ENDBRANCH   2   3
ENDBRANCH   1   2
BRANCH   1  24
ATOM     24  C   UNL A   1      33.394  29.542  26.198  1.00  0.00     0.118 C 
BRANCH  24  25
ATOM     25  N   UNL A   1      33.256  30.948  26.556  1.00  0.00    -0.352 N 
ATOM     26  C   UNL A   1      33.955  31.697  27.466  1.00  0.00     0.251 C 
ATOM     27  H   UNL A   1      32.551  31.434  26.069  1.00  0.00     0.163 HD
ATOM     28  O   UNL A   1      33.537  32.815  27.770  1.00  0.00    -0.269 OA
BRANCH  26  29
ATOM     29  C   UNL A   1      35.186  31.164  28.089  1.00  0.00     0.039 A 
ATOM     30  C   UNL A   1      35.134  29.934  28.750  1.00  0.00     0.014 A 
ATOM     31  C   UNL A   1      36.383  31.883  28.048  1.00  0.00     0.014 A 
ATOM     32  C   UNL A   1      36.289  29.413  29.334  1.00  0.00     0.010 A 
ATOM     33  C   UNL A   1      37.554  31.315  28.535  1.00  0.00     0.010 A 
ATOM     34  C   UNL A   1      37.515  30.088  29.211  1.00  0.00    -0.014 A 
BRANCH  34  35
ATOM     35  C   UNL A   1      38.752  29.557  29.839  1.00  0.00     0.031 A 
ATOM     36  C   UNL A   1      39.200  30.087  31.175  1.00  0.00     0.074 A 
ATOM     37  C   UNL A   1      39.495  28.639  29.191  1.00  0.00     0.049 A 
ATOM     38  N   UNL A   1      40.274  29.802  31.866  1.00  0.00    -0.248 NA
ATOM     39  C   UNL A   1      38.342  31.108  31.796  1.00  0.00     0.031 C 
ATOM     40  C   UNL A   1      39.194  28.091  27.868  1.00  0.00     0.029 A 
ATOM     41  N   UNL A   1      40.659  28.012  29.554  1.00  0.00    -0.354 N 
ATOM     42  C   UNL A   1      40.225  30.615  32.994  1.00  0.00     0.074 A 
ATOM     43  C   UNL A   1      39.067  31.469  32.842  1.00  0.00     0.031 C 
ATOM     44  C   UNL A   1      40.133  27.189  27.542  1.00  0.00     0.029 A 
ATOM     45  C   UNL A   1      41.126  27.128  28.611  1.00  0.00     0.049 A 
ATOM     46  H   UNL A   1      41.117  28.179  30.409  1.00  0.00     0.167 HD
ATOM     47  C   UNL A   1      41.045  30.624  34.075  1.00  0.00     0.034 A 
ATOM     48  C   UNL A   1      42.234  26.361  28.603  1.00  0.00     0.034 A 
ATOM     49  C   UNL A   1      42.197  29.763  34.204  1.00  0.00     0.049 A 
ATOM     50  C   UNL A   1      43.145  26.391  29.802  1.00  0.00     0.074 A 
ATOM     51  C   UNL A   1      43.082  29.656  35.262  1.00  0.00     0.029 A 
ATOM     52  N   UNL A   1      42.629  28.864  33.235  1.00  0.00    -0.354 N 
ATOM     53  N   UNL A   1      43.060  27.126  30.887  1.00  0.00    -0.248 NA
ATOM     54  C   UNL A   1      44.287  25.470  29.784  1.00  0.00     0.031 C 
ATOM     55  C   UNL A   1      44.086  28.751  34.904  1.00  0.00     0.029 A 
ATOM     56  C   UNL A   1      43.781  28.220  33.660  1.00  0.00     0.049 A 
ATOM     57  H   UNL A   1      42.183  28.708  32.372  1.00  0.00     0.167 HD
ATOM     58  C   UNL A   1      44.122  26.731  31.697  1.00  0.00     0.074 A 
ATOM     59  C   UNL A   1      44.822  25.685  30.978  1.00  0.00     0.031 C 
ATOM     60  C   UNL A   1      44.481  27.187  32.927  1.00  0.00     0.034 A 
BRANCH  47  61
ATOM     61  C   UNL A   1      40.725  31.617  35.172  1.00  0.00     0.023 A 
ATOM     62  C   UNL A   1      39.734  31.355  36.137  1.00  0.00     0.031 A 
ATOM     63  C   UNL A   1      41.360  32.871  35.214  1.00  0.00     0.131 A 
ATOM     64  C   UNL A   1      39.325  32.367  37.017  1.00  0.00     0.055 A 
ATOM     65  C   UNL A   1      41.022  33.838  36.165  1.00  0.00     0.041 A 
ATOM     66  F   UNL A   1      42.300  33.194  34.312  1.00  0.00    -0.206 F 
ATOM     67  C   UNL A   1      39.981  33.599  37.058  1.00  0.00     0.022 A 
BRANCH  64  68
ATOM     68  S   UNL A   1      37.792  32.123  37.958  1.00  0.00     0.124 S 
ATOM     69  O   UNL A   1      36.910  33.114  37.346  1.00  0.00    -0.237 OA
ATOM     70  O   UNL A   1      37.472  30.727  37.683  1.00  0.00    -0.237 OA
ATOM     71  O   UNL A   1      38.184  32.415  39.335  1.00  0.00    -0.744 OA
ENDBRANCH  64  68
ENDBRANCH  47  61
BRANCH  48  72
ATOM     72  C   UNL A   1      42.539  25.507  27.419  1.00  0.00     0.023 A 
ATOM     73  C   UNL A   1      42.142  24.162  27.365  1.00  0.00     0.031 A 
ATOM     74  C   UNL A   1      43.239  26.033  26.317  1.00  0.00     0.131 A 
ATOM     75  C   UNL A   1      42.479  23.378  26.250  1.00  0.00     0.055 A 
ATOM     76  C   UNL A   1      43.527  25.264  25.189  1.00  0.00     0.041 A 
ATOM     77  F   UNL A   1      43.633  27.317  26.314  1.00  0.00    -0.206 F 
ATOM     78  C   UNL A   1      43.154  23.924  25.156  1.00  0.00     0.022 A 
BRANCH  75  79
ATOM     79  S   UNL A   1      42.071  21.610  26.271  1.00  0.00     0.124 S 
ATOM     80  O   UNL A   1      42.365  21.254  27.654  1.00  0.00    -0.237 OA
ATOM     81  O   UNL A   1      40.661  21.620  25.895  1.00  0.00    -0.237 OA
ATOM     82  O   UNL A   1      42.974  21.041  25.273  1.00  0.00    -0.744 OA
ENDBRANCH  75  79
ENDBRANCH  48  72
BRANCH  60  83
ATOM     83  C   UNL A   1      45.656  26.511  33.594  1.00  0.00     0.023 A 
ATOM     84  C   UNL A   1      45.507  25.341  34.362  1.00  0.00     0.031 A 
ATOM     85  C   UNL A   1      46.946  27.060  33.474  1.00  0.00     0.131 A 
ATOM     86  C   UNL A   1      46.615  24.801  35.034  1.00  0.00     0.055 A 
ATOM     87  C   UNL A   1      48.056  26.477  34.086  1.00  0.00     0.041 A 
ATOM     88  F   UNL A   1      47.148  28.178  32.758  1.00  0.00    -0.206 F 
ATOM     89  C   UNL A   1      47.891  25.350  34.886  1.00  0.00     0.022 A 
BRANCH  86  90
ATOM     90  S   UNL A   1      46.344  23.444  36.206  1.00  0.00     0.124 S 
ATOM     91  O   UNL A   1      47.509  22.597  35.964  1.00  0.00    -0.237 OA
ATOM     92  O   UNL A   1      46.316  24.139  37.489  1.00  0.00    -0.237 OA
ATOM     93  O   UNL A   1      45.067  22.874  35.781  1.00  0.00    -0.744 OA
ENDBRANCH  86  90
ENDBRANCH  60  83
ENDBRANCH  34  35
ENDBRANCH  26  29
ENDBRANCH  24  25
ENDBRANCH   1  24
TORSDOF 17
ENDMDL
MODEL 3
REMARK VINA RESULT:     -11.4      5.428     10.391
REMARK SMILES Nc1cc([N+](=O)[O-])ccc1[C@H]([NH3+])C(=O)NCCCNC(=O)c1ccc(-c2c3nc(c(-c4cc(S(=O)(=O)[O-])ccc4F)c4ccc([nH]4)c(-c4cc(S(=O)(=O)[O-])ccc4F)c4nc(c(-c5cc(S(=O)(=O)[O-])ccc5F)c5ccc2[nH]5)C=C4)C=C3)cc1
REMARK SMILES IDX 17 1 16 2 15 3 13 4 14 5 11 7 10 8 2 9 3 10 4 11 9 12 8 13
REMARK SMILES IDX 1 14 5 17 6 18 7 19 12 20 18 24 19 25 20 26 21 28 22 29
REMARK SMILES IDX 23 30 84 31 24 32 83 33 25 34 26 35 27 36 77 37 28 38 82 39
REMARK SMILES IDX 76 40 78 41 29 42 81 43 75 44 74 45 30 47 62 48 42 49 61 50
REMARK SMILES IDX 43 51 46 52 60 53 79 54 44 55 45 56 59 58 80 59 47 60 31 61
REMARK SMILES IDX 32 62 40 63 33 64 39 65 41 66 38 67 34 68 35 69 36 70 37 71
REMARK SMILES IDX 63 72 64 73 72 74 65 75 71 76 73 77 70 78 66 79 67 80 68 81
REMARK SMILES IDX 69 82 48 83 49 84 57 85 50 86 56 87 58 88 55 89 51 90 52 91
REMARK SMILES IDX 53 92 54 93
REMARK H PARENT 15 6 1 15 1 16 12 21 12 22 12 23 19 27 78 46 46 57
REMARK Flexibility Score: inf
ROOT
ATOM      1  C   UNL A   1      35.454  23.412  26.012  1.00  0.00     0.042 C 
ENDROOT
BRANCH   1   2
ATOM      2  C   UNL A   1      34.400  24.266  25.327  1.00  0.00     0.118 C 
BRANCH   2   3
ATOM      3  N   UNL A   1      34.393  24.083  23.888  1.00  0.00    -0.351 N 
ATOM      4  C   UNL A   1      33.489  23.419  23.106  1.00  0.00     0.283 C 
ATOM      5  O   UNL A   1      33.662  23.431  21.882  1.00  0.00    -0.268 OA
ATOM      6  H   UNL A   1      35.146  24.496  23.406  1.00  0.00     0.163 HD
BRANCH   4   7
ATOM      7  C   UNL A   1      32.253  22.712  23.738  1.00  0.00     0.304 C 
BRANCH   7   8
ATOM      8  C   UNL A   1      32.369  21.177  23.714  1.00  0.00     0.042 A 
ATOM      9  C   UNL A   1      32.116  20.348  22.598  1.00  0.00     0.048 A 
ATOM     10  C   UNL A   1      32.399  18.973  22.683  1.00  0.00     0.111 A 
ATOM     11  C   UNL A   1      32.844  18.400  23.878  1.00  0.00     0.271 A 
ATOM     12  C   UNL A   1      32.778  20.556  24.924  1.00  0.00     0.020 A 
ATOM     13  C   UNL A   1      33.026  19.187  25.009  1.00  0.00     0.086 A 
BRANCH   9  14
ATOM     14  N   UNL A   1      31.731  20.840  21.355  1.00  0.00    -0.398 N 
ATOM     15  H   UNL A   1      31.055  21.554  21.296  1.00  0.00     0.156 HD
ATOM     16  H   UNL A   1      32.132  20.474  20.535  1.00  0.00     0.156 HD
ENDBRANCH   9  14
BRANCH  11  17
ATOM     17  N   UNL A   1      33.107  16.958  23.943  1.00  0.00     0.062 N 
ATOM     18  O   UNL A   1      33.700  16.436  22.986  1.00  0.00    -0.258 OA
ATOM     19  O   UNL A   1      32.709  16.343  24.942  1.00  0.00    -0.258 OA
ENDBRANCH  11  17
ENDBRANCH   7   8
BRANCH   7  20
ATOM     20  N   UNL A   1      31.050  23.313  23.130  1.00  0.00    -0.343 N 
ATOM     21  H   UNL A   1      31.251  23.574  22.165  1.00  0.00     0.345 HD
ATOM     22  H   UNL A   1      30.781  24.142  23.658  1.00  0.00     0.345 HD
ATOM     23  H   UNL A   1      30.287  22.636  23.147  1.00  0.00     0.345 HD
ENDBRANCH   7  20
ENDBRANCH   4   7
ENDBRANCH   2   3
ENDBRANCH   1   2
BRANCH   1  24
ATOM     24  C   UNL A   1      36.802  23.431  25.307  1.00  0.00     0.118 C 
BRANCH  24  25
ATOM     25  N   UNL A   1      37.733  22.457  25.861  1.00  0.00    -0.352 N 
ATOM     26  C   UNL A   1      38.939  22.648  26.482  1.00  0.00     0.251 C 
ATOM     27  H   UNL A   1      37.452  21.516  25.775  1.00  0.00     0.163 HD
ATOM     28  O   UNL A   1      39.669  21.675  26.684  1.00  0.00    -0.269 OA
BRANCH  26  29
ATOM     29  C   UNL A   1      39.368  24.003  26.889  1.00  0.00     0.039 A 
ATOM     30  C   UNL A   1      39.166  24.410  28.210  1.00  0.00     0.014 A 
ATOM     31  C   UNL A   1      39.943  24.883  25.968  1.00  0.00     0.014 A 
ATOM     32  C   UNL A   1      39.575  25.682  28.612  1.00  0.00     0.010 A 
ATOM     33  C   UNL A   1      40.447  26.106  26.395  1.00  0.00     0.010 A 
ATOM     34  C   UNL A   1      40.241  26.533  27.714  1.00  0.00    -0.014 A 
BRANCH  34  35
ATOM     35  C   UNL A   1      40.669  27.896  28.118  1.00  0.00     0.031 A 
ATOM     36  C   UNL A   1      42.125  28.273  28.055  1.00  0.00     0.074 A 
ATOM     37  C   UNL A   1      39.761  28.775  28.586  1.00  0.00     0.049 A 
ATOM     38  N   UNL A   1      42.713  29.385  28.415  1.00  0.00    -0.248 NA
ATOM     39  C   UNL A   1      43.048  27.242  27.559  1.00  0.00     0.031 C 
ATOM     40  C   UNL A   1      38.331  28.507  28.746  1.00  0.00     0.029 A 
ATOM     41  N   UNL A   1      39.909  30.068  29.019  1.00  0.00    -0.354 N 
ATOM     42  C   UNL A   1      44.072  29.182  28.199  1.00  0.00     0.074 A 
ATOM     43  C   UNL A   1      44.224  27.808  27.769  1.00  0.00     0.031 C 
ATOM     44  C   UNL A   1      37.728  29.610  29.216  1.00  0.00     0.029 A 
ATOM     45  C   UNL A   1      38.732  30.647  29.433  1.00  0.00     0.049 A 
ATOM     46  H   UNL A   1      40.774  30.537  29.032  1.00  0.00     0.167 HD
ATOM     47  C   UNL A   1      45.095  30.066  28.310  1.00  0.00     0.034 A 
ATOM     48  C   UNL A   1      38.491  31.873  29.939  1.00  0.00     0.034 A 
ATOM     49  C   UNL A   1      44.920  31.432  28.742  1.00  0.00     0.049 A 
ATOM     50  C   UNL A   1      39.638  32.841  30.072  1.00  0.00     0.074 A 
ATOM     51  C   UNL A   1      45.870  32.430  28.862  1.00  0.00     0.029 A 
ATOM     52  N   UNL A   1      43.709  31.992  29.135  1.00  0.00    -0.354 N 
ATOM     53  N   UNL A   1      40.912  32.653  29.814  1.00  0.00    -0.248 NA
ATOM     54  C   UNL A   1      39.308  34.191  30.540  1.00  0.00     0.031 C 
ATOM     55  C   UNL A   1      45.251  33.566  29.395  1.00  0.00     0.029 A 
ATOM     56  C   UNL A   1      43.894  33.310  29.522  1.00  0.00     0.049 A 
ATOM     57  H   UNL A   1      42.845  31.520  29.139  1.00  0.00     0.167 HD
ATOM     58  C   UNL A   1      41.532  33.877  30.059  1.00  0.00     0.074 A 
ATOM     59  C   UNL A   1      40.487  34.792  30.471  1.00  0.00     0.031 C 
ATOM     60  C   UNL A   1      42.845  34.212  29.946  1.00  0.00     0.034 A 
BRANCH  47  61
ATOM     61  C   UNL A   1      46.483  29.556  27.983  1.00  0.00     0.023 A 
ATOM     62  C   UNL A   1      46.836  29.169  26.676  1.00  0.00     0.031 A 
ATOM     63  C   UNL A   1      47.443  29.382  28.996  1.00  0.00     0.131 A 
ATOM     64  C   UNL A   1      48.058  28.521  26.441  1.00  0.00     0.055 A 
ATOM     65  C   UNL A   1      48.701  28.833  28.733  1.00  0.00     0.041 A 
ATOM     66  F   UNL A   1      47.165  29.711  30.267  1.00  0.00    -0.206 F 
ATOM     67  C   UNL A   1      49.005  28.375  27.455  1.00  0.00     0.022 A 
BRANCH  64  68
ATOM     68  S   UNL A   1      48.298  27.689  24.845  1.00  0.00     0.124 S 
ATOM     69  O   UNL A   1      49.710  27.960  24.583  1.00  0.00    -0.237 OA
ATOM     70  O   UNL A   1      47.960  26.305  25.158  1.00  0.00    -0.237 OA
ATOM     71  O   UNL A   1      47.364  28.375  23.956  1.00  0.00    -0.744 OA
ENDBRANCH  64  68
ENDBRANCH  47  61
BRANCH  48  72
ATOM     72  C   UNL A   1      37.109  32.245  30.357  1.00  0.00     0.023 A 
ATOM     73  C   UNL A   1      36.221  32.876  29.473  1.00  0.00     0.031 A 
ATOM     74  C   UNL A   1      36.658  31.973  31.662  1.00  0.00     0.131 A 
ATOM     75  C   UNL A   1      34.941  33.246  29.913  1.00  0.00     0.055 A 
ATOM     76  C   UNL A   1      35.367  32.297  32.080  1.00  0.00     0.041 A 
ATOM     77  F   UNL A   1      37.465  31.363  32.546  1.00  0.00    -0.206 F 
ATOM     78  C   UNL A   1      34.503  32.947  31.205  1.00  0.00     0.022 A 
BRANCH  75  79
ATOM     79  S   UNL A   1      33.867  34.181  28.787  1.00  0.00     0.124 S 
ATOM     80  O   UNL A   1      33.432  33.141  27.862  1.00  0.00    -0.237 OA
ATOM     81  O   UNL A   1      32.851  34.697  29.698  1.00  0.00    -0.237 OA
ATOM     82  O   UNL A   1      34.762  35.187  28.221  1.00  0.00    -0.744 OA
ENDBRANCH  75  79
ENDBRANCH  48  72
BRANCH  60  83
ATOM     83  C   UNL A   1      43.211  35.653  30.221  1.00  0.00     0.023 A 
ATOM     84  C   UNL A   1      43.177  36.637  29.217  1.00  0.00     0.031 A 
ATOM     85  C   UNL A   1      43.622  36.041  31.510  1.00  0.00     0.131 A 
ATOM     86  C   UNL A   1      43.611  37.941  29.501  1.00  0.00     0.055 A 
ATOM     87  C   UNL A   1      43.983  37.356  31.804  1.00  0.00     0.041 A 
ATOM     88  F   UNL A   1      43.679  35.145  32.508  1.00  0.00    -0.206 F 
ATOM     89  C   UNL A   1      43.996  38.312  30.792  1.00  0.00     0.022 A 
BRANCH  86  90
ATOM     90  S   UNL A   1      43.786  39.117  28.131  1.00  0.00     0.124 S 
ATOM     91  O   UNL A   1      42.777  38.638  27.190  1.00  0.00    -0.237 OA
ATOM     92  O   UNL A   1      43.500  40.394  28.778  1.00  0.00    -0.237 OA
ATOM     93  O   UNL A   1      45.170  38.936  27.699  1.00  0.00    -0.744 OA
ENDBRANCH  86  90
ENDBRANCH  60  83
ENDBRANCH  34  35
ENDBRANCH  26  29
ENDBRANCH  24  25
ENDBRANCH   1  24
TORSDOF 17
ENDMDL
