MODEL 1
REMARK VINA RESULT:     -12.6      0.000      0.000
REMARK SMILES CC1(C)[C@H](C(=O)Nc2ccc(C(F)(F)F)nc2)[C@@H]1C(=O)NCCCNC(=O)c1ccc(-c2c3nc(c(-c4cc(S(=O)(=O)[O-])ccc4F)c4ccc([nH]4)c(-c4cc(S(=O)(=O)[O-])ccc4F)c4nc(c(-c5cc(S(=O)(=O)[O-])ccc5F)c5ccc2[nH]5)C=C4)C=C3)cc1
REMARK SMILES IDX 23 1 22 2 21 3 19 4 20 5 18 7 1 8 2 9 3 10 4 11 5 12 6 13
REMARK SMILES IDX 7 14 8 16 9 17 17 18 10 19 16 20 11 21 12 22 13 23 14 24
REMARK SMILES IDX 15 25 24 26 25 27 26 28 27 30 28 31 29 32 90 33 30 34 89 35
REMARK SMILES IDX 31 36 32 37 33 38 83 39 34 40 88 41 82 42 84 43 35 44 87 45
REMARK SMILES IDX 81 46 80 47 36 49 68 50 48 51 67 52 49 53 52 54 66 55 85 56
REMARK SMILES IDX 50 57 51 58 65 60 86 61 53 62 37 63 38 64 46 65 39 66 45 67
REMARK SMILES IDX 47 68 44 69 40 70 41 71 42 72 43 73 69 74 70 75 78 76 71 77
REMARK SMILES IDX 77 78 79 79 76 80 72 81 73 82 74 83 75 84 54 85 55 86 63 87
REMARK SMILES IDX 56 88 62 89 64 90 61 91 57 92 58 93 59 94 60 95
REMARK H PARENT 21 6 7 15 25 29 84 48 52 59
REMARK Flexibility Score: inf
ROOT
ATOM      1  C   UNL A   1      36.341  21.445  24.587  1.00  0.00     0.042 C 
ENDROOT
BRANCH   1   2
ATOM      2  C   UNL A   1      35.206  20.662  25.213  1.00  0.00     0.117 C 
BRANCH   2   3
ATOM      3  N   UNL A   1      34.727  21.224  26.465  1.00  0.00    -0.356 N 
ATOM      4  C   UNL A   1      33.477  21.715  26.733  1.00  0.00     0.224 C 
ATOM      5  O   UNL A   1      33.187  22.117  27.855  1.00  0.00    -0.275 OA
ATOM      6  H   UNL A   1      35.376  21.256  27.205  1.00  0.00     0.163 HD
BRANCH   4   7
ATOM      7  C   UNL A   1      32.549  21.863  25.598  1.00  0.00     0.098 C 
ATOM      8  C   UNL A   1      32.178  22.760  23.182  1.00  0.00     0.013 C 
ATOM      9  C   UNL A   1      32.466  23.056  24.642  1.00  0.00    -0.011 C 
ATOM     10  C   UNL A   1      33.383  24.233  24.791  1.00  0.00     0.013 C 
ATOM     11  C   UNL A   1      31.325  22.740  25.601  1.00  0.00     0.098 C 
BRANCH  11  12
ATOM     12  C   UNL A   1      30.702  23.574  26.685  1.00  0.00     0.228 C 
ATOM     13  O   UNL A   1      30.199  22.954  27.622  1.00  0.00    -0.274 OA
ATOM     14  N   UNL A   1      30.952  24.914  26.877  1.00  0.00    -0.324 N 
ATOM     15  H   UNL A   1      31.356  25.149  27.744  1.00  0.00     0.169 HD
BRANCH  14  16
ATOM     16  C   UNL A   1      30.715  25.986  26.015  1.00  0.00     0.059 A 
ATOM     17  C   UNL A   1      29.706  25.956  25.071  1.00  0.00     0.030 A 
ATOM     18  C   UNL A   1      31.472  27.146  26.101  1.00  0.00     0.137 A 
ATOM     19  C   UNL A   1      29.654  26.946  24.094  1.00  0.00     0.035 A 
ATOM     20  N   UNL A   1      31.455  28.124  25.168  1.00  0.00    -0.250 NA
ATOM     21  C   UNL A   1      30.604  27.967  24.113  1.00  0.00     0.144 A 
BRANCH  21  22
ATOM     22  C   UNL A   1      30.706  28.899  22.912  1.00  0.00     0.433 C 
ATOM     23  F   UNL A   1      29.954  30.028  23.053  1.00  0.00    -0.165 F 
ATOM     24  F   UNL A   1      31.974  29.318  22.640  1.00  0.00    -0.165 F 
ATOM     25  F   UNL A   1      30.262  28.317  21.755  1.00  0.00    -0.165 F 
ENDBRANCH  21  22
ENDBRANCH  14  16
ENDBRANCH  11  12
ENDBRANCH   4   7
ENDBRANCH   2   3
ENDBRANCH   1   2
BRANCH   1  26
ATOM     26  C   UNL A   1      37.320  22.035  25.592  1.00  0.00     0.118 C 
BRANCH  26  27
ATOM     27  N   UNL A   1      38.424  21.141  25.927  1.00  0.00    -0.352 N 
ATOM     28  C   UNL A   1      39.650  21.399  26.497  1.00  0.00     0.251 C 
ATOM     29  H   UNL A   1      38.264  20.195  25.710  1.00  0.00     0.163 HD
ATOM     30  O   UNL A   1      40.483  20.499  26.552  1.00  0.00    -0.269 OA
BRANCH  28  31
ATOM     31  C   UNL A   1      39.971  22.755  26.990  1.00  0.00     0.039 A 
ATOM     32  C   UNL A   1      40.922  22.904  28.002  1.00  0.00     0.014 A 
ATOM     33  C   UNL A   1      39.368  23.881  26.431  1.00  0.00     0.014 A 
ATOM     34  C   UNL A   1      41.341  24.186  28.370  1.00  0.00     0.010 A 
ATOM     35  C   UNL A   1      39.875  25.144  26.705  1.00  0.00     0.010 A 
ATOM     36  C   UNL A   1      40.868  25.313  27.680  1.00  0.00    -0.014 A 
BRANCH  36  37
ATOM     37  C   UNL A   1      41.398  26.675  27.957  1.00  0.00     0.031 A 
ATOM     38  C   UNL A   1      42.794  27.043  27.530  1.00  0.00     0.074 A 
ATOM     39  C   UNL A   1      40.654  27.549  28.663  1.00  0.00     0.049 A 
ATOM     40  N   UNL A   1      43.462  28.148  27.746  1.00  0.00    -0.248 NA
ATOM     41  C   UNL A   1      43.555  26.016  26.804  1.00  0.00     0.031 C 
ATOM     42  C   UNL A   1      39.313  27.284  29.192  1.00  0.00     0.029 A 
ATOM     43  N   UNL A   1      40.918  28.833  29.070  1.00  0.00    -0.354 N 
ATOM     44  C   UNL A   1      44.725  27.939  27.201  1.00  0.00     0.074 A 
ATOM     45  C   UNL A   1      44.751  26.575  26.720  1.00  0.00     0.031 C 
ATOM     46  C   UNL A   1      38.862  28.381  29.819  1.00  0.00     0.029 A 
ATOM     47  C   UNL A   1      39.896  29.408  29.789  1.00  0.00     0.049 A 
ATOM     48  H   UNL A   1      41.762  29.299  28.865  1.00  0.00     0.167 HD
ATOM     49  C   UNL A   1      45.756  28.812  27.086  1.00  0.00     0.034 A 
ATOM     50  C   UNL A   1      39.805  30.621  30.370  1.00  0.00     0.034 A 
ATOM     51  C   UNL A   1      45.703  30.173  27.565  1.00  0.00     0.049 A 
ATOM     52  C   UNL A   1      40.963  31.574  30.242  1.00  0.00     0.074 A 
ATOM     53  C   UNL A   1      46.653  31.170  27.434  1.00  0.00     0.029 A 
ATOM     54  N   UNL A   1      44.647  30.725  28.281  1.00  0.00    -0.354 N 
ATOM     55  N   UNL A   1      42.123  31.390  29.655  1.00  0.00    -0.248 NA
ATOM     56  C   UNL A   1      40.795  32.902  30.845  1.00  0.00     0.031 C 
ATOM     57  C   UNL A   1      46.212  32.291  28.145  1.00  0.00     0.029 A 
ATOM     58  C   UNL A   1      44.943  32.032  28.638  1.00  0.00     0.049 A 
ATOM     59  H   UNL A   1      43.810  30.256  28.503  1.00  0.00     0.167 HD
ATOM     60  C   UNL A   1      42.816  32.590  29.797  1.00  0.00     0.074 A 
ATOM     61  C   UNL A   1      41.933  33.493  30.509  1.00  0.00     0.031 C 
ATOM     62  C   UNL A   1      44.065  32.915  29.373  1.00  0.00     0.034 A 
BRANCH  49  63
ATOM     63  C   UNL A   1      47.031  28.301  26.450  1.00  0.00     0.023 A 
ATOM     64  C   UNL A   1      47.233  28.339  25.059  1.00  0.00     0.031 A 
ATOM     65  C   UNL A   1      48.036  27.715  27.240  1.00  0.00     0.131 A 
ATOM     66  C   UNL A   1      48.353  27.710  24.494  1.00  0.00     0.055 A 
ATOM     67  C   UNL A   1      49.198  27.179  26.679  1.00  0.00     0.041 A 
ATOM     68  F   UNL A   1      47.897  27.627  28.572  1.00  0.00    -0.206 F 
ATOM     69  C   UNL A   1      49.351  27.155  25.296  1.00  0.00     0.022 A 
BRANCH  66  70
ATOM     70  S   UNL A   1      48.386  27.460  22.697  1.00  0.00     0.124 S 
ATOM     71  O   UNL A   1      48.287  26.005  22.599  1.00  0.00    -0.237 OA
ATOM     72  O   UNL A   1      47.219  28.212  22.252  1.00  0.00    -0.237 OA
ATOM     73  O   UNL A   1      49.678  28.015  22.297  1.00  0.00    -0.744 OA
ENDBRANCH  66  70
ENDBRANCH  49  63
BRANCH  50  74
ATOM     74  C   UNL A   1      38.579  30.991  31.135  1.00  0.00     0.023 A 
ATOM     75  C   UNL A   1      37.480  31.596  30.503  1.00  0.00     0.031 A 
ATOM     76  C   UNL A   1      38.489  30.743  32.517  1.00  0.00     0.131 A 
ATOM     77  C   UNL A   1      36.354  31.961  31.258  1.00  0.00     0.055 A 
ATOM     78  C   UNL A   1      37.347  31.061  33.252  1.00  0.00     0.041 A 
ATOM     79  F   UNL A   1      39.508  30.160  33.169  1.00  0.00    -0.206 F 
ATOM     80  C   UNL A   1      36.273  31.682  32.624  1.00  0.00     0.022 A 
BRANCH  77  81
ATOM     81  S   UNL A   1      35.009  32.862  30.437  1.00  0.00     0.124 S 
ATOM     82  O   UNL A   1      34.664  31.953  29.349  1.00  0.00    -0.237 OA
ATOM     83  O   UNL A   1      34.027  32.984  31.509  1.00  0.00    -0.237 OA
ATOM     84  O   UNL A   1      35.640  34.116  30.028  1.00  0.00    -0.744 OA
ENDBRANCH  77  81
ENDBRANCH  50  74
BRANCH  62  85
ATOM     85  C   UNL A   1      44.535  34.325  29.643  1.00  0.00     0.023 A 
ATOM     86  C   UNL A   1      44.225  35.390  28.778  1.00  0.00     0.031 A 
ATOM     87  C   UNL A   1      45.317  34.606  30.779  1.00  0.00     0.131 A 
ATOM     88  C   UNL A   1      44.744  36.670  29.029  1.00  0.00     0.055 A 
ATOM     89  C   UNL A   1      45.769  35.895  31.061  1.00  0.00     0.041 A 
ATOM     90  F   UNL A   1      45.651  33.629  31.637  1.00  0.00    -0.206 F 
ATOM     91  C   UNL A   1      45.497  36.934  30.175  1.00  0.00     0.022 A 
BRANCH  88  92
ATOM     92  S   UNL A   1      44.516  37.962  27.776  1.00  0.00     0.124 S 
ATOM     93  O   UNL A   1      44.053  39.086  28.584  1.00  0.00    -0.237 OA
ATOM     94  O   UNL A   1      45.856  38.091  27.213  1.00  0.00    -0.237 OA
ATOM     95  O   UNL A   1      43.517  37.392  26.875  1.00  0.00    -0.744 OA
ENDBRANCH  88  92
ENDBRANCH  62  85
ENDBRANCH  36  37
ENDBRANCH  28  31
ENDBRANCH  26  27
ENDBRANCH   1  26
TORSDOF 16
ENDMDL
MODEL 2
REMARK VINA RESULT:     -12.5      5.199     10.321
REMARK SMILES CC1(C)[C@H](C(=O)Nc2ccc(C(F)(F)F)nc2)[C@@H]1C(=O)NCCCNC(=O)c1ccc(-c2c3nc(c(-c4cc(S(=O)(=O)[O-])ccc4F)c4ccc([nH]4)c(-c4cc(S(=O)(=O)[O-])ccc4F)c4nc(c(-c5cc(S(=O)(=O)[O-])ccc5F)c5ccc2[nH]5)C=C4)C=C3)cc1
REMARK SMILES IDX 23 1 22 2 21 3 19 4 20 5 18 7 1 8 2 9 3 10 4 11 5 12 6 13
REMARK SMILES IDX 7 14 8 16 9 17 17 18 10 19 16 20 11 21 12 22 13 23 14 24
REMARK SMILES IDX 15 25 24 26 25 27 26 28 27 30 28 31 29 32 90 33 30 34 89 35
REMARK SMILES IDX 31 36 32 37 33 38 83 39 34 40 88 41 82 42 84 43 35 44 87 45
REMARK SMILES IDX 81 46 80 47 36 49 68 50 48 51 67 52 49 53 52 54 66 55 85 56
REMARK SMILES IDX 50 57 51 58 65 60 86 61 53 62 37 63 38 64 46 65 39 66 45 67
REMARK SMILES IDX 47 68 44 69 40 70 41 71 42 72 43 73 69 74 70 75 78 76 71 77
REMARK SMILES IDX 77 78 79 79 76 80 72 81 73 82 74 83 75 84 54 85 55 86 63 87
REMARK SMILES IDX 56 88 62 89 64 90 61 91 57 92 58 93 59 94 60 95
REMARK H PARENT 21 6 7 15 25 29 84 48 52 59
REMARK Flexibility Score: inf
ROOT
ATOM      1  C   UNL A   1      32.430  29.594  24.863  1.00  0.00     0.042 C 
ENDROOT
BRANCH   1   2
ATOM      2  C   UNL A   1      32.338  28.118  24.538  1.00  0.00     0.117 C 
BRANCH   2   3
ATOM      3  N   UNL A   1      31.217  27.446  25.171  1.00  0.00    -0.356 N 
ATOM      4  C   UNL A   1      31.257  26.348  25.988  1.00  0.00     0.224 C 
ATOM      5  O   UNL A   1      30.234  25.907  26.501  1.00  0.00    -0.275 OA
ATOM      6  H   UNL A   1      30.325  27.824  24.993  1.00  0.00     0.163 HD
BRANCH   4   7
ATOM      7  C   UNL A   1      32.545  25.644  26.114  1.00  0.00     0.098 C 
ATOM      8  C   UNL A   1      34.701  24.800  24.921  1.00  0.00     0.013 C 
ATOM      9  C   UNL A   1      33.192  24.735  25.065  1.00  0.00    -0.011 C 
ATOM     10  C   UNL A   1      32.527  24.481  23.746  1.00  0.00     0.013 C 
ATOM     11  C   UNL A   1      32.695  24.172  26.391  1.00  0.00     0.098 C 
BRANCH  11  12
ATOM     12  C   UNL A   1      31.674  23.105  26.676  1.00  0.00     0.228 C 
ATOM     13  O   UNL A   1      30.915  23.323  27.621  1.00  0.00    -0.274 OA
ATOM     14  N   UNL A   1      31.310  22.119  25.788  1.00  0.00    -0.324 N 
ATOM     15  H   UNL A   1      30.363  22.123  25.517  1.00  0.00     0.169 HD
BRANCH  14  16
ATOM     16  C   UNL A   1      32.093  21.114  25.218  1.00  0.00     0.059 A 
ATOM     17  C   UNL A   1      32.150  20.919  23.851  1.00  0.00     0.030 A 
ATOM     18  C   UNL A   1      32.876  20.289  26.012  1.00  0.00     0.137 A 
ATOM     19  C   UNL A   1      32.760  19.773  23.348  1.00  0.00     0.035 A 
ATOM     20  N   UNL A   1      33.476  19.163  25.562  1.00  0.00    -0.250 NA
ATOM     21  C   UNL A   1      33.331  18.864  24.238  1.00  0.00     0.144 A 
BRANCH  21  22
ATOM     22  C   UNL A   1      33.770  17.502  23.718  1.00  0.00     0.433 C 
ATOM     23  F   UNL A   1      33.126  16.468  24.332  1.00  0.00    -0.165 F 
ATOM     24  F   UNL A   1      33.578  17.329  22.380  1.00  0.00    -0.165 F 
ATOM     25  F   UNL A   1      35.103  17.264  23.924  1.00  0.00    -0.165 F 
ENDBRANCH  21  22
ENDBRANCH  14  16
ENDBRANCH  11  12
ENDBRANCH   4   7
ENDBRANCH   2   3
ENDBRANCH   1   2
BRANCH   1  26
ATOM     26  C   UNL A   1      32.257  29.918  26.340  1.00  0.00     0.118 C 
BRANCH  26  27
ATOM     27  N   UNL A   1      32.212  31.349  26.624  1.00  0.00    -0.352 N 
ATOM     28  C   UNL A   1      33.090  32.159  27.308  1.00  0.00     0.251 C 
ATOM     29  H   UNL A   1      31.422  31.812  26.265  1.00  0.00     0.163 HD
ATOM     30  O   UNL A   1      32.767  33.320  27.546  1.00  0.00    -0.269 OA
BRANCH  28  31
ATOM     31  C   UNL A   1      34.380  31.621  27.789  1.00  0.00     0.039 A 
ATOM     32  C   UNL A   1      35.435  32.501  28.037  1.00  0.00     0.014 A 
ATOM     33  C   UNL A   1      34.538  30.257  28.035  1.00  0.00     0.014 A 
ATOM     34  C   UNL A   1      36.606  32.023  28.631  1.00  0.00     0.010 A 
ATOM     35  C   UNL A   1      35.646  29.808  28.741  1.00  0.00     0.010 A 
ATOM     36  C   UNL A   1      36.696  30.685  29.046  1.00  0.00    -0.014 A 
BRANCH  36  37
ATOM     37  C   UNL A   1      37.873  30.182  29.805  1.00  0.00     0.031 A 
ATOM     38  C   UNL A   1      38.110  30.635  31.220  1.00  0.00     0.074 A 
ATOM     39  C   UNL A   1      38.770  29.385  29.191  1.00  0.00     0.049 A 
ATOM     40  N   UNL A   1      39.113  30.371  32.018  1.00  0.00    -0.248 NA
ATOM     41  C   UNL A   1      37.106  31.539  31.800  1.00  0.00     0.031 C 
ATOM     42  C   UNL A   1      38.687  28.934  27.799  1.00  0.00     0.029 A 
ATOM     43  N   UNL A   1      39.933  28.820  29.649  1.00  0.00    -0.354 N 
ATOM     44  C   UNL A   1      38.871  31.094  33.182  1.00  0.00     0.074 A 
ATOM     45  C   UNL A   1      37.670  31.866  32.951  1.00  0.00     0.031 C 
ATOM     46  C   UNL A   1      39.732  28.136  27.531  1.00  0.00     0.029 A 
ATOM     47  C   UNL A   1      40.589  28.060  28.708  1.00  0.00     0.049 A 
ATOM     48  H   UNL A   1      40.267  28.946  30.567  1.00  0.00     0.167 HD
ATOM     49  C   UNL A   1      39.569  31.091  34.345  1.00  0.00     0.034 A 
ATOM     50  C   UNL A   1      41.756  27.389  28.778  1.00  0.00     0.034 A 
ATOM     51  C   UNL A   1      40.760  30.302  34.555  1.00  0.00     0.049 A 
ATOM     52  C   UNL A   1      42.524  27.404  30.073  1.00  0.00     0.074 A 
ATOM     53  C   UNL A   1      41.504  30.158  35.712  1.00  0.00     0.029 A 
ATOM     54  N   UNL A   1      41.391  29.537  33.582  1.00  0.00    -0.354 N 
ATOM     55  N   UNL A   1      42.241  28.030  31.193  1.00  0.00    -0.248 NA
ATOM     56  C   UNL A   1      43.760  26.614  30.117  1.00  0.00     0.031 C 
ATOM     57  C   UNL A   1      42.629  29.380  35.416  1.00  0.00     0.029 A 
ATOM     58  C   UNL A   1      42.540  28.957  34.099  1.00  0.00     0.049 A 
ATOM     59  H   UNL A   1      41.070  29.423  32.658  1.00  0.00     0.167 HD
ATOM     60  C   UNL A   1      43.255  27.689  32.084  1.00  0.00     0.074 A 
ATOM     61  C   UNL A   1      44.142  26.788  31.374  1.00  0.00     0.031 C 
ATOM     62  C   UNL A   1      43.432  28.081  33.373  1.00  0.00     0.034 A 
BRANCH  49  63
ATOM     63  C   UNL A   1      39.074  31.994  35.454  1.00  0.00     0.023 A 
ATOM     64  C   UNL A   1      39.502  33.329  35.570  1.00  0.00     0.031 A 
ATOM     65  C   UNL A   1      38.208  31.498  36.444  1.00  0.00     0.131 A 
ATOM     66  C   UNL A   1      39.150  34.083  36.700  1.00  0.00     0.055 A 
ATOM     67  C   UNL A   1      37.780  32.287  37.514  1.00  0.00     0.041 A 
ATOM     68  F   UNL A   1      37.779  30.226  36.404  1.00  0.00    -0.206 F 
ATOM     69  C   UNL A   1      38.269  33.581  37.658  1.00  0.00     0.022 A 
BRANCH  66  70
ATOM     70  S   UNL A   1      40.014  35.653  36.991  1.00  0.00     0.124 S 
ATOM     71  O   UNL A   1      39.410  36.094  38.247  1.00  0.00    -0.237 OA
ATOM     72  O   UNL A   1      41.409  35.236  37.064  1.00  0.00    -0.237 OA
ATOM     73  O   UNL A   1      39.661  36.459  35.824  1.00  0.00    -0.744 OA
ENDBRANCH  66  70
ENDBRANCH  49  63
BRANCH  50  74
ATOM     74  C   UNL A   1      42.270  26.661  27.582  1.00  0.00     0.023 A 
ATOM     75  C   UNL A   1      42.071  25.280  27.426  1.00  0.00     0.031 A 
ATOM     76  C   UNL A   1      42.975  27.342  26.572  1.00  0.00     0.131 A 
ATOM     77  C   UNL A   1      42.596  24.620  26.304  1.00  0.00     0.055 A 
ATOM     78  C   UNL A   1      43.450  26.691  25.434  1.00  0.00     0.041 A 
ATOM     79  F   UNL A   1      43.189  28.664  26.668  1.00  0.00    -0.206 F 
ATOM     80  C   UNL A   1      43.269  25.318  25.299  1.00  0.00     0.022 A 
BRANCH  77  81
ATOM     81  S   UNL A   1      42.436  22.815  26.200  1.00  0.00     0.124 S 
ATOM     82  O   UNL A   1      42.787  22.566  24.807  1.00  0.00    -0.237 OA
ATOM     83  O   UNL A   1      43.403  22.367  27.197  1.00  0.00    -0.237 OA
ATOM     84  O   UNL A   1      41.035  22.577  26.544  1.00  0.00    -0.744 OA
ENDBRANCH  77  81
ENDBRANCH  50  74
BRANCH  62  85
ATOM     85  C   UNL A   1      44.620  27.505  34.108  1.00  0.00     0.023 A 
ATOM     86  C   UNL A   1      44.536  26.300  34.827  1.00  0.00     0.031 A 
ATOM     87  C   UNL A   1      45.854  28.181  34.098  1.00  0.00     0.131 A 
ATOM     88  C   UNL A   1      45.644  25.839  35.555  1.00  0.00     0.055 A 
ATOM     89  C   UNL A   1      46.973  27.680  34.765  1.00  0.00     0.041 A 
ATOM     90  F   UNL A   1      45.994  29.339  33.435  1.00  0.00    -0.206 F 
ATOM     91  C   UNL A   1      46.868  26.511  35.512  1.00  0.00     0.022 A 
BRANCH  88  92
ATOM     92  S   UNL A   1      45.431  24.410  36.652  1.00  0.00     0.124 S 
ATOM     93  O   UNL A   1      44.893  23.407  35.738  1.00  0.00    -0.237 OA
ATOM     94  O   UNL A   1      46.791  24.176  37.126  1.00  0.00    -0.237 OA
ATOM     95  O   UNL A   1      44.495  24.892  37.665  1.00  0.00    -0.744 OA
ENDBRANCH  88  92
ENDBRANCH  62  85
ENDBRANCH  36  37
ENDBRANCH  28  31
ENDBRANCH  26  27
ENDBRANCH   1  26
TORSDOF 16
ENDMDL
MODEL 3
REMARK VINA RESULT:     -12.5      0.961      7.516
REMARK SMILES CC1(C)[C@H](C(=O)Nc2ccc(C(F)(F)F)nc2)[C@@H]1C(=O)NCCCNC(=O)c1ccc(-c2c3nc(c(-c4cc(S(=O)(=O)[O-])ccc4F)c4ccc([nH]4)c(-c4cc(S(=O)(=O)[O-])ccc4F)c4nc(c(-c5cc(S(=O)(=O)[O-])ccc5F)c5ccc2[nH]5)C=C4)C=C3)cc1
REMARK SMILES IDX 23 1 22 2 21 3 19 4 20 5 18 7 1 8 2 9 3 10 4 11 5 12 6 13
REMARK SMILES IDX 7 14 8 16 9 17 17 18 10 19 16 20 11 21 12 22 13 23 14 24
REMARK SMILES IDX 15 25 24 26 25 27 26 28 27 30 28 31 29 32 90 33 30 34 89 35
REMARK SMILES IDX 31 36 32 37 33 38 83 39 34 40 88 41 82 42 84 43 35 44 87 45
REMARK SMILES IDX 81 46 80 47 36 49 68 50 48 51 67 52 49 53 52 54 66 55 85 56
REMARK SMILES IDX 50 57 51 58 65 60 86 61 53 62 37 63 38 64 46 65 39 66 45 67
REMARK SMILES IDX 47 68 44 69 40 70 41 71 42 72 43 73 69 74 70 75 78 76 71 77
REMARK SMILES IDX 77 78 79 79 76 80 72 81 73 82 74 83 75 84 54 85 55 86 63 87
REMARK SMILES IDX 56 88 62 89 64 90 61 91 57 92 58 93 59 94 60 95
REMARK H PARENT 21 6 7 15 25 29 84 48 52 59
REMARK Flexibility Score: inf
ROOT
ATOM      1  C   UNL A   1      35.999  20.830  24.567  1.00  0.00     0.042 C 
ENDROOT
BRANCH   1   2
ATOM      2  C   UNL A   1      34.799  20.268  25.300  1.00  0.00     0.117 C 
BRANCH   2   3
ATOM      3  N   UNL A   1      34.437  21.017  26.491  1.00  0.00    -0.356 N 
ATOM      4  C   UNL A   1      33.269  21.692  26.728  1.00  0.00     0.224 C 
ATOM      5  O   UNL A   1      33.068  22.245  27.803  1.00  0.00    -0.275 OA
ATOM      6  H   UNL A   1      35.108  21.042  27.211  1.00  0.00     0.163 HD
BRANCH   4   7
ATOM      7  C   UNL A   1      32.331  21.839  25.601  1.00  0.00     0.098 C 
ATOM      8  C   UNL A   1      31.952  22.697  23.171  1.00  0.00     0.013 C 
ATOM      9  C   UNL A   1      32.264  23.015  24.622  1.00  0.00    -0.011 C 
ATOM     10  C   UNL A   1      33.208  24.173  24.737  1.00  0.00     0.013 C 
ATOM     11  C   UNL A   1      31.127  22.743  25.600  1.00  0.00     0.098 C 
BRANCH  11  12
ATOM     12  C   UNL A   1      30.536  23.613  26.674  1.00  0.00     0.228 C 
ATOM     13  O   UNL A   1      30.016  23.023  27.621  1.00  0.00    -0.274 OA
ATOM     14  N   UNL A   1      30.831  24.947  26.846  1.00  0.00    -0.324 N 
ATOM     15  H   UNL A   1      31.245  25.179  27.709  1.00  0.00     0.169 HD
BRANCH  14  16
ATOM     16  C   UNL A   1      30.626  26.014  25.971  1.00  0.00     0.059 A 
ATOM     17  C   UNL A   1      29.713  25.945  24.936  1.00  0.00     0.030 A 
ATOM     18  C   UNL A   1      31.316  27.206  26.133  1.00  0.00     0.137 A 
ATOM     19  C   UNL A   1      29.707  26.940  23.962  1.00  0.00     0.035 A 
ATOM     20  N   UNL A   1      31.342  28.191  25.206  1.00  0.00    -0.250 NA
ATOM     21  C   UNL A   1      30.602  28.004  24.075  1.00  0.00     0.144 A 
BRANCH  21  22
ATOM     22  C   UNL A   1      30.773  28.950  22.894  1.00  0.00     0.433 C 
ATOM     23  F   UNL A   1      32.082  29.211  22.609  1.00  0.00    -0.165 F 
ATOM     24  F   UNL A   1      30.215  28.500  21.736  1.00  0.00    -0.165 F 
ATOM     25  F   UNL A   1      30.205  30.177  23.116  1.00  0.00    -0.165 F 
ENDBRANCH  21  22
ENDBRANCH  14  16
ENDBRANCH  11  12
ENDBRANCH   4   7
ENDBRANCH   2   3
ENDBRANCH   1   2
BRANCH   1  26
ATOM     26  C   UNL A   1      37.108  21.333  25.481  1.00  0.00     0.118 C 
BRANCH  26  27
ATOM     27  N   UNL A   1      38.195  20.378  25.664  1.00  0.00    -0.352 N 
ATOM     28  C   UNL A   1      39.483  20.555  26.115  1.00  0.00     0.251 C 
ATOM     29  H   UNL A   1      37.969  19.450  25.425  1.00  0.00     0.163 HD
ATOM     30  O   UNL A   1      40.273  19.617  26.047  1.00  0.00    -0.269 OA
BRANCH  28  31
ATOM     31  C   UNL A   1      39.917  21.871  26.629  1.00  0.00     0.039 A 
ATOM     32  C   UNL A   1      40.922  21.926  27.597  1.00  0.00     0.014 A 
ATOM     33  C   UNL A   1      39.366  23.050  26.130  1.00  0.00     0.014 A 
ATOM     34  C   UNL A   1      41.443  23.165  27.980  1.00  0.00     0.010 A 
ATOM     35  C   UNL A   1      39.970  24.268  26.413  1.00  0.00     0.010 A 
ATOM     36  C   UNL A   1      41.016  24.342  27.344  1.00  0.00    -0.014 A 
BRANCH  36  37
ATOM     37  C   UNL A   1      41.649  25.657  27.631  1.00  0.00     0.031 A 
ATOM     38  C   UNL A   1      40.885  26.717  28.377  1.00  0.00     0.074 A 
ATOM     39  C   UNL A   1      42.879  25.923  27.147  1.00  0.00     0.049 A 
ATOM     40  N   UNL A   1      41.234  27.948  28.657  1.00  0.00    -0.248 NA
ATOM     41  C   UNL A   1      39.533  26.360  28.830  1.00  0.00     0.031 C 
ATOM     42  C   UNL A   1      43.692  25.001  26.349  1.00  0.00     0.029 A 
ATOM     43  N   UNL A   1      43.659  27.048  27.243  1.00  0.00    -0.354 N 
ATOM     44  C   UNL A   1      40.137  28.515  29.298  1.00  0.00     0.074 A 
ATOM     45  C   UNL A   1      39.089  27.518  29.291  1.00  0.00     0.031 C 
ATOM     46  C   UNL A   1      44.865  25.584  26.061  1.00  0.00     0.029 A 
ATOM     47  C   UNL A   1      44.872  26.938  26.603  1.00  0.00     0.049 A 
ATOM     48  H   UNL A   1      43.377  27.858  27.727  1.00  0.00     0.167 HD
ATOM     49  C   UNL A   1      40.025  29.741  29.866  1.00  0.00     0.034 A 
ATOM     50  C   UNL A   1      45.872  27.829  26.455  1.00  0.00     0.034 A 
ATOM     51  C   UNL A   1      41.090  30.716  29.870  1.00  0.00     0.049 A 
ATOM     52  C   UNL A   1      45.727  29.190  27.083  1.00  0.00     0.074 A 
ATOM     53  C   UNL A   1      41.119  31.957  30.480  1.00  0.00     0.029 A 
ATOM     54  N   UNL A   1      42.308  30.567  29.218  1.00  0.00    -0.354 N 
ATOM     55  N   UNL A   1      44.714  29.686  27.755  1.00  0.00    -0.248 NA
ATOM     56  C   UNL A   1      46.865  30.107  26.942  1.00  0.00     0.031 C 
ATOM     57  C   UNL A   1      42.315  32.591  30.125  1.00  0.00     0.029 A 
ATOM     58  C   UNL A   1      43.077  31.711  29.373  1.00  0.00     0.049 A 
ATOM     59  H   UNL A   1      42.586  29.764  28.718  1.00  0.00     0.167 HD
ATOM     60  C   UNL A   1      45.102  30.967  28.138  1.00  0.00     0.074 A 
ATOM     61  C   UNL A   1      46.450  31.156  27.637  1.00  0.00     0.031 C 
ATOM     62  C   UNL A   1      44.410  31.898  28.845  1.00  0.00     0.034 A 
BRANCH  49  63
ATOM     63  C   UNL A   1      38.694  30.097  30.492  1.00  0.00     0.023 A 
ATOM     64  C   UNL A   1      37.737  30.872  29.812  1.00  0.00     0.031 A 
ATOM     65  C   UNL A   1      38.399  29.706  31.810  1.00  0.00     0.131 A 
ATOM     66  C   UNL A   1      36.588  31.317  30.483  1.00  0.00     0.055 A 
ATOM     67  C   UNL A   1      37.206  30.069  32.439  1.00  0.00     0.041 A 
ATOM     68  F   UNL A   1      39.279  28.984  32.523  1.00  0.00    -0.206 F 
ATOM     69  C   UNL A   1      36.302  30.898  31.783  1.00  0.00     0.022 A 
BRANCH  66  70
ATOM     70  S   UNL A   1      35.577  32.604  29.699  1.00  0.00     0.124 S 
ATOM     71  O   UNL A   1      34.531  31.809  29.059  1.00  0.00    -0.237 OA
ATOM     72  O   UNL A   1      35.159  33.414  30.837  1.00  0.00    -0.237 OA
ATOM     73  O   UNL A   1      36.505  33.254  28.775  1.00  0.00    -0.744 OA
ENDBRANCH  66  70
ENDBRANCH  49  63
BRANCH  50  74
ATOM     74  C   UNL A   1      47.087  27.464  25.670  1.00  0.00     0.023 A 
ATOM     75  C   UNL A   1      47.198  27.784  24.307  1.00  0.00     0.031 A 
ATOM     76  C   UNL A   1      48.158  26.784  26.276  1.00  0.00     0.131 A 
ATOM     77  C   UNL A   1      48.341  27.398  23.590  1.00  0.00     0.055 A 
ATOM     78  C   UNL A   1      49.314  26.447  25.571  1.00  0.00     0.041 A 
ATOM     79  F   UNL A   1      48.106  26.459  27.578  1.00  0.00    -0.206 F 
ATOM     80  C   UNL A   1      49.407  26.747  24.216  1.00  0.00     0.022 A 
BRANCH  77  81
ATOM     81  S   UNL A   1      48.395  27.708  21.802  1.00  0.00     0.124 S 
ATOM     82  O   UNL A   1      48.607  26.365  21.275  1.00  0.00    -0.237 OA
ATOM     83  O   UNL A   1      47.083  28.297  21.557  1.00  0.00    -0.237 OA
ATOM     84  O   UNL A   1      49.524  28.624  21.650  1.00  0.00    -0.744 OA
ENDBRANCH  77  81
ENDBRANCH  50  74
BRANCH  62  85
ATOM     85  C   UNL A   1      45.119  33.199  29.144  1.00  0.00     0.023 A 
ATOM     86  C   UNL A   1      45.078  34.288  28.255  1.00  0.00     0.031 A 
ATOM     87  C   UNL A   1      45.857  33.346  30.332  1.00  0.00     0.131 A 
ATOM     88  C   UNL A   1      45.811  35.451  28.538  1.00  0.00     0.055 A 
ATOM     89  C   UNL A   1      46.525  34.531  30.642  1.00  0.00     0.041 A 
ATOM     90  F   UNL A   1      45.939  32.339  31.215  1.00  0.00    -0.206 F 
ATOM     91  C   UNL A   1      46.518  35.587  29.735  1.00  0.00     0.022 A 
BRANCH  88  92
ATOM     92  S   UNL A   1      45.922  36.741  27.267  1.00  0.00     0.124 S 
ATOM     93  O   UNL A   1      47.097  37.490  27.701  1.00  0.00    -0.237 OA
ATOM     94  O   UNL A   1      46.078  35.962  26.044  1.00  0.00    -0.237 OA
ATOM     95  O   UNL A   1      44.652  37.453  27.392  1.00  0.00    -0.744 OA
ENDBRANCH  88  92
ENDBRANCH  62  85
ENDBRANCH  36  37
ENDBRANCH  28  31
ENDBRANCH  26  27
ENDBRANCH   1  26
TORSDOF 16
ENDMDL
