MODEL 1
REMARK VINA RESULT:     -12.9      0.000      0.000
REMARK SMILES O=C(NCCCNC(=O)c1ccc(-c2c3nc(c(-c4cc(S(=O)(=O)[O-])ccc4F)c4ccc([nH]4)c(-c4cc(S(=O)(=O)[O-])ccc4F)c4nc(c(-c5cc(S(=O)(=O)[O-])ccc5F)c5ccc2[nH]5)C=C4)C=C3)cc1)C1=Cc2cc(S(F)(F)(F)(F)F)ccc2O[C@@H]1C(F)(F)F
REMARK SMILES IDX 6 1 5 2 4 3 3 4 1 5 2 6 73 8 74 9 88 10 75 11 87 12 76 13
REMARK SMILES IDX 86 14 77 15 85 16 84 17 89 18 90 19 91 20 92 21 78 22 79 23
REMARK SMILES IDX 80 24 81 25 82 26 83 27 7 28 8 29 9 31 10 32 11 33 72 34
REMARK SMILES IDX 12 35 71 36 13 37 14 38 15 39 65 40 16 41 70 42 64 43 66 44
REMARK SMILES IDX 17 45 69 46 63 47 62 48 18 50 50 51 30 52 49 53 31 54 34 55
REMARK SMILES IDX 48 56 67 57 32 58 33 59 47 61 68 62 35 63 19 64 20 65 28 66
REMARK SMILES IDX 21 67 27 68 29 69 26 70 22 71 23 72 24 73 25 74 51 75 52 76
REMARK SMILES IDX 60 77 53 78 59 79 61 80 58 81 54 82 55 83 56 84 57 85 36 86
REMARK SMILES IDX 37 87 45 88 38 89 44 90 46 91 43 92 39 93 40 94 41 95 42 96
REMARK H PARENT 3 7 7 30 66 49 34 60
REMARK Flexibility Score: inf
ROOT
ATOM      1  C   UNL A   1      33.392  31.026  27.002  1.00  0.00     0.118 C 
ENDROOT
BRANCH   1   2
ATOM      2  C   UNL A   1      32.227  30.053  27.053  1.00  0.00     0.042 C 
BRANCH   2   3
ATOM      3  C   UNL A   1      32.754  28.636  27.203  1.00  0.00     0.118 C 
BRANCH   3   4
ATOM      4  N   UNL A   1      31.644  27.735  27.546  1.00  0.00    -0.352 N 
ATOM      5  O   UNL A   1      29.980  26.221  26.782  1.00  0.00    -0.270 OA
ATOM      6  C   UNL A   1      30.939  27.001  26.485  1.00  0.00     0.251 C 
ATOM      7  H   UNL A   1      31.373  27.622  28.487  1.00  0.00     0.163 HD
BRANCH   6   8
ATOM      8  C   UNL A   1      31.356  27.174  25.035  1.00  0.00     0.067 C 
ATOM      9  C   UNL A   1      32.355  26.408  24.518  1.00  0.00     0.025 C 
ATOM     10  C   UNL A   1      30.658  28.202  24.160  1.00  0.00     0.314 C 
ATOM     11  C   UNL A   1      33.053  25.379  25.392  1.00  0.00     0.019 A 
ATOM     12  O   UNL A   1      31.002  24.839  26.467  1.00  0.00    -0.475 OA
ATOM     13  C   UNL A   1      34.419  25.233  25.220  1.00  0.00     0.036 A 
ATOM     14  C   UNL A   1      32.367  24.565  26.188  1.00  0.00     0.128 A 
ATOM     15  C   UNL A   1      34.932  24.010  25.711  1.00  0.00     0.107 A 
ATOM     16  C   UNL A   1      32.969  23.462  26.743  1.00  0.00     0.048 A 
ATOM     17  C   UNL A   1      34.303  23.223  26.566  1.00  0.00     0.028 A 
BRANCH  10  18
ATOM     18  C   UNL A   1      30.010  27.504  22.976  1.00  0.00     0.429 C 
ATOM     19  F   UNL A   1      30.870  27.457  21.963  1.00  0.00    -0.167 F 
ATOM     20  F   UNL A   1      29.667  26.267  23.324  1.00  0.00    -0.167 F 
ATOM     21  F   UNL A   1      28.924  28.176  22.605  1.00  0.00    -0.167 F 
ENDBRANCH  10  18
BRANCH  15  22
ATOM     22  S   UNL A   1      36.562  23.484  25.126  1.00  0.00     0.310 S 
ATOM     23  F   UNL A   1      36.563  22.219  26.084  1.00  0.00    -0.094 F 
ATOM     24  F   UNL A   1      37.211  24.294  26.311  1.00  0.00    -0.094 F 
ATOM     25  F   UNL A   1      37.965  23.032  24.630  1.00  0.00    -0.094 F 
ATOM     26  F   UNL A   1      35.888  22.564  24.033  1.00  0.00    -0.094 F 
ATOM     27  F   UNL A   1      35.128  23.842  25.688  1.00  0.00    -0.094 F 
ENDBRANCH  15  22
ENDBRANCH   6   8
ENDBRANCH   3   4
ENDBRANCH   2   3
ENDBRANCH   1   2
BRANCH   1  28
ATOM     28  N   UNL A   1      32.898  32.395  27.207  1.00  0.00    -0.352 N 
ATOM     29  C   UNL A   1      33.635  33.320  28.081  1.00  0.00     0.251 C 
ATOM     30  H   UNL A   1      32.073  32.693  26.761  1.00  0.00     0.163 HD
ATOM     31  O   UNL A   1      33.207  34.502  28.259  1.00  0.00    -0.269 OA
BRANCH  29  32
ATOM     32  C   UNL A   1      34.909  32.860  28.771  1.00  0.00     0.039 A 
ATOM     33  C   UNL A   1      36.138  33.284  28.293  1.00  0.00     0.014 A 
ATOM     34  C   UNL A   1      34.821  31.946  29.730  1.00  0.00     0.014 A 
ATOM     35  C   UNL A   1      37.222  32.467  28.692  1.00  0.00     0.010 A 
ATOM     36  C   UNL A   1      35.942  31.282  30.168  1.00  0.00     0.010 A 
ATOM     37  C   UNL A   1      37.182  31.608  29.695  1.00  0.00    -0.014 A 
BRANCH  37  38
ATOM     38  C   UNL A   1      38.449  31.016  30.291  1.00  0.00     0.031 A 
ATOM     39  C   UNL A   1      38.804  31.440  31.573  1.00  0.00     0.074 A 
ATOM     40  C   UNL A   1      39.105  30.014  29.598  1.00  0.00     0.049 A 
ATOM     41  N   UNL A   1      39.777  30.958  32.349  1.00  0.00    -0.248 NA
ATOM     42  C   UNL A   1      38.131  32.527  32.297  1.00  0.00     0.031 C 
ATOM     43  C   UNL A   1      38.746  29.574  28.309  1.00  0.00     0.029 A 
ATOM     44  N   UNL A   1      40.193  29.275  30.008  1.00  0.00    -0.354 N 
ATOM     45  C   UNL A   1      39.800  31.607  33.515  1.00  0.00     0.074 A 
ATOM     46  C   UNL A   1      38.745  32.630  33.497  1.00  0.00     0.031 C 
ATOM     47  C   UNL A   1      39.613  28.593  27.941  1.00  0.00     0.029 A 
ATOM     48  C   UNL A   1      40.527  28.402  28.995  1.00  0.00     0.049 A 
ATOM     49  H   UNL A   1      40.653  29.357  30.874  1.00  0.00     0.167 HD
ATOM     50  C   UNL A   1      40.657  31.384  34.594  1.00  0.00     0.034 A 
ATOM     51  C   UNL A   1      41.566  27.487  28.973  1.00  0.00     0.034 A 
ATOM     52  C   UNL A   1      41.670  30.438  34.588  1.00  0.00     0.049 A 
ATOM     53  C   UNL A   1      42.462  27.304  30.030  1.00  0.00     0.074 A 
ATOM     54  C   UNL A   1      42.539  30.195  35.668  1.00  0.00     0.029 A 
ATOM     55  N   UNL A   1      42.020  29.583  33.566  1.00  0.00    -0.354 N 
ATOM     56  N   UNL A   1      42.460  27.925  31.210  1.00  0.00    -0.248 NA
ATOM     57  C   UNL A   1      43.586  26.359  30.004  1.00  0.00     0.031 C 
ATOM     58  C   UNL A   1      43.406  29.215  35.301  1.00  0.00     0.029 A 
ATOM     59  C   UNL A   1      43.093  28.829  33.984  1.00  0.00     0.049 A 
ATOM     60  H   UNL A   1      41.578  29.521  32.688  1.00  0.00     0.167 HD
ATOM     61  C   UNL A   1      43.459  27.471  31.970  1.00  0.00     0.074 A 
ATOM     62  C   UNL A   1      44.203  26.463  31.202  1.00  0.00     0.031 C 
ATOM     63  C   UNL A   1      43.779  27.855  33.273  1.00  0.00     0.034 A 
BRANCH  50  64
ATOM     64  C   UNL A   1      40.470  32.227  35.844  1.00  0.00     0.023 A 
ATOM     65  C   UNL A   1      39.555  31.857  36.816  1.00  0.00     0.031 A 
ATOM     66  C   UNL A   1      41.188  33.337  35.962  1.00  0.00     0.131 A 
ATOM     67  C   UNL A   1      39.258  32.883  37.743  1.00  0.00     0.055 A 
ATOM     68  C   UNL A   1      40.933  34.232  36.973  1.00  0.00     0.041 A 
ATOM     69  F   UNL A   1      42.163  33.587  35.091  1.00  0.00    -0.206 F 
ATOM     70  C   UNL A   1      40.000  33.958  37.935  1.00  0.00     0.022 A 
BRANCH  67  71
ATOM     71  S   UNL A   1      37.754  32.711  38.737  1.00  0.00     0.124 S 
ATOM     72  O   UNL A   1      37.822  33.663  39.933  1.00  0.00    -0.237 OA
ATOM     73  O   UNL A   1      36.534  33.054  37.880  1.00  0.00    -0.237 OA
ATOM     74  O   UNL A   1      37.623  31.100  39.298  1.00  0.00    -0.744 OA
ENDBRANCH  67  71
ENDBRANCH  50  64
BRANCH  51  75
ATOM     75  C   UNL A   1      41.743  26.633  27.728  1.00  0.00     0.023 A 
ATOM     76  C   UNL A   1      41.254  25.338  27.681  1.00  0.00     0.031 A 
ATOM     77  C   UNL A   1      42.356  27.176  26.682  1.00  0.00     0.131 A 
ATOM     78  C   UNL A   1      41.719  24.589  26.574  1.00  0.00     0.055 A 
ATOM     79  C   UNL A   1      42.658  26.417  25.577  1.00  0.00     0.041 A 
ATOM     80  F   UNL A   1      42.679  28.466  26.704  1.00  0.00    -0.206 F 
ATOM     81  C   UNL A   1      42.258  25.113  25.489  1.00  0.00     0.022 A 
BRANCH  78  82
ATOM     82  S   UNL A   1      41.565  22.787  26.653  1.00  0.00     0.124 S 
ATOM     83  O   UNL A   1      42.142  22.169  25.378  1.00  0.00    -0.237 OA
ATOM     84  O   UNL A   1      42.335  22.262  27.866  1.00  0.00    -0.237 OA
ATOM     85  O   UNL A   1      39.915  22.362  26.796  1.00  0.00    -0.744 OA
ENDBRANCH  78  82
ENDBRANCH  51  75
BRANCH  63  86
ATOM     86  C   UNL A   1      44.947  27.163  33.954  1.00  0.00     0.023 A 
ATOM     87  C   UNL A   1      44.732  26.001  34.676  1.00  0.00     0.031 A 
ATOM     88  C   UNL A   1      46.143  27.741  33.921  1.00  0.00     0.131 A 
ATOM     89  C   UNL A   1      45.779  25.679  35.572  1.00  0.00     0.055 A 
ATOM     90  C   UNL A   1      47.161  27.289  34.725  1.00  0.00     0.041 A 
ATOM     91  F   UNL A   1      46.355  28.767  33.102  1.00  0.00    -0.206 F 
ATOM     92  C   UNL A   1      46.999  26.180  35.509  1.00  0.00     0.022 A 
BRANCH  89  93
ATOM     93  S   UNL A   1      45.420  24.499  36.896  1.00  0.00     0.124 S 
ATOM     94  O   UNL A   1      46.665  24.317  37.768  1.00  0.00    -0.237 OA
ATOM     95  O   UNL A   1      44.269  25.028  37.754  1.00  0.00    -0.237 OA
ATOM     96  O   UNL A   1      44.978  22.994  36.214  1.00  0.00    -0.744 OA
ENDBRANCH  89  93
ENDBRANCH  63  86
ENDBRANCH  37  38
ENDBRANCH  29  32
ENDBRANCH   1  28
TORSDOF 15
ENDMDL
MODEL 2
REMARK VINA RESULT:     -12.7      1.992      2.440
REMARK SMILES O=C(NCCCNC(=O)c1ccc(-c2c3nc(c(-c4cc(S(=O)(=O)[O-])ccc4F)c4ccc([nH]4)c(-c4cc(S(=O)(=O)[O-])ccc4F)c4nc(c(-c5cc(S(=O)(=O)[O-])ccc5F)c5ccc2[nH]5)C=C4)C=C3)cc1)C1=Cc2cc(S(F)(F)(F)(F)F)ccc2O[C@@H]1C(F)(F)F
REMARK SMILES IDX 6 1 5 2 4 3 3 4 1 5 2 6 73 8 74 9 88 10 75 11 87 12 76 13
REMARK SMILES IDX 86 14 77 15 85 16 84 17 89 18 90 19 91 20 92 21 78 22 79 23
REMARK SMILES IDX 80 24 81 25 82 26 83 27 7 28 8 29 9 31 10 32 11 33 72 34
REMARK SMILES IDX 12 35 71 36 13 37 14 38 15 39 65 40 16 41 70 42 64 43 66 44
REMARK SMILES IDX 17 45 69 46 63 47 62 48 18 50 50 51 30 52 49 53 31 54 34 55
REMARK SMILES IDX 48 56 67 57 32 58 33 59 47 61 68 62 35 63 19 64 20 65 28 66
REMARK SMILES IDX 21 67 27 68 29 69 26 70 22 71 23 72 24 73 25 74 51 75 52 76
REMARK SMILES IDX 60 77 53 78 59 79 61 80 58 81 54 82 55 83 56 84 57 85 36 86
REMARK SMILES IDX 37 87 45 88 38 89 44 90 46 91 43 92 39 93 40 94 41 95 42 96
REMARK H PARENT 3 7 7 30 66 49 34 60
REMARK Flexibility Score: inf
ROOT
ATOM      1  C   UNL A   1      33.244  29.111  25.997  1.00  0.00     0.118 C 
ENDROOT
BRANCH   1   2
ATOM      2  C   UNL A   1      33.886  29.238  24.626  1.00  0.00     0.042 C 
BRANCH   2   3
ATOM      3  C   UNL A   1      32.926  28.725  23.567  1.00  0.00     0.118 C 
BRANCH   3   4
ATOM      4  N   UNL A   1      33.639  27.817  22.657  1.00  0.00    -0.352 N 
ATOM      5  O   UNL A   1      33.598  25.809  21.388  1.00  0.00    -0.270 OA
ATOM      6  C   UNL A   1      32.981  26.594  22.174  1.00  0.00     0.251 C 
ATOM      7  H   UNL A   1      34.558  28.027  22.371  1.00  0.00     0.163 HD
BRANCH   6   8
ATOM      8  C   UNL A   1      31.564  26.268  22.614  1.00  0.00     0.067 C 
ATOM      9  C   UNL A   1      31.292  25.068  23.196  1.00  0.00     0.025 C 
ATOM     10  C   UNL A   1      30.451  27.281  22.406  1.00  0.00     0.314 C 
ATOM     11  C   UNL A   1      32.405  24.055  23.405  1.00  0.00     0.019 A 
ATOM     12  O   UNL A   1      33.941  25.789  23.937  1.00  0.00    -0.475 OA
ATOM     13  C   UNL A   1      32.088  22.723  23.199  1.00  0.00     0.036 A 
ATOM     14  C   UNL A   1      33.589  24.414  23.889  1.00  0.00     0.128 A 
ATOM     15  C   UNL A   1      32.986  21.818  23.810  1.00  0.00     0.107 A 
ATOM     16  C   UNL A   1      34.474  23.467  24.343  1.00  0.00     0.048 A 
ATOM     17  C   UNL A   1      34.200  22.133  24.226  1.00  0.00     0.028 A 
BRANCH  10  18
ATOM     18  C   UNL A   1      29.847  27.654  23.750  1.00  0.00     0.429 C 
ATOM     19  F   UNL A   1      30.658  27.258  24.727  1.00  0.00    -0.167 F 
ATOM     20  F   UNL A   1      29.687  28.973  23.814  1.00  0.00    -0.167 F 
ATOM     21  F   UNL A   1      28.666  27.058  23.886  1.00  0.00    -0.167 F 
ENDBRANCH  10  18
BRANCH  15  22
ATOM     22  S   UNL A   1      32.436  20.108  24.038  1.00  0.00     0.310 S 
ATOM     23  F   UNL A   1      33.924  19.593  24.231  1.00  0.00    -0.094 F 
ATOM     24  F   UNL A   1      32.631  19.874  22.492  1.00  0.00    -0.094 F 
ATOM     25  F   UNL A   1      31.968  18.638  24.230  1.00  0.00    -0.094 F 
ATOM     26  F   UNL A   1      32.384  20.320  25.602  1.00  0.00    -0.094 F 
ATOM     27  F   UNL A   1      33.019  21.568  23.874  1.00  0.00    -0.094 F 
ENDBRANCH  15  22
ENDBRANCH   6   8
ENDBRANCH   3   4
ENDBRANCH   2   3
ENDBRANCH   1   2
BRANCH   1  28
ATOM     28  N   UNL A   1      32.722  30.420  26.416  1.00  0.00    -0.352 N 
ATOM     29  C   UNL A   1      33.524  31.284  27.295  1.00  0.00     0.251 C 
ATOM     30  H   UNL A   1      31.835  30.718  26.111  1.00  0.00     0.163 HD
ATOM     31  O   UNL A   1      33.072  32.415  27.658  1.00  0.00    -0.269 OA
BRANCH  29  32
ATOM     32  C   UNL A   1      34.893  30.825  27.768  1.00  0.00     0.039 A 
ATOM     33  C   UNL A   1      35.028  29.589  28.378  1.00  0.00     0.014 A 
ATOM     34  C   UNL A   1      35.907  31.681  27.715  1.00  0.00     0.014 A 
ATOM     35  C   UNL A   1      36.197  29.461  29.164  1.00  0.00     0.010 A 
ATOM     36  C   UNL A   1      37.072  31.429  28.399  1.00  0.00     0.010 A 
ATOM     37  C   UNL A   1      37.251  30.252  29.073  1.00  0.00    -0.014 A 
BRANCH  37  38
ATOM     38  C   UNL A   1      38.591  29.874  29.683  1.00  0.00     0.031 A 
ATOM     39  C   UNL A   1      38.900  30.428  30.926  1.00  0.00     0.074 A 
ATOM     40  C   UNL A   1      39.368  28.923  29.046  1.00  0.00     0.049 A 
ATOM     41  N   UNL A   1      39.935  30.134  31.714  1.00  0.00    -0.248 NA
ATOM     42  C   UNL A   1      38.094  31.465  31.589  1.00  0.00     0.031 C 
ATOM     43  C   UNL A   1      39.059  28.352  27.796  1.00  0.00     0.029 A 
ATOM     44  N   UNL A   1      40.549  28.364  29.484  1.00  0.00    -0.354 N 
ATOM     45  C   UNL A   1      39.883  30.858  32.834  1.00  0.00     0.074 A 
ATOM     46  C   UNL A   1      38.702  31.730  32.768  1.00  0.00     0.031 C 
ATOM     47  C   UNL A   1      40.045  27.472  27.478  1.00  0.00     0.029 A 
ATOM     48  C   UNL A   1      40.986  27.476  28.525  1.00  0.00     0.049 A 
ATOM     49  H   UNL A   1      41.002  28.565  30.333  1.00  0.00     0.167 HD
ATOM     50  C   UNL A   1      40.773  30.826  33.909  1.00  0.00     0.034 A 
ATOM     51  C   UNL A   1      42.138  26.707  28.544  1.00  0.00     0.034 A 
ATOM     52  C   UNL A   1      41.903  30.023  33.947  1.00  0.00     0.049 A 
ATOM     53  C   UNL A   1      43.060  26.716  29.594  1.00  0.00     0.074 A 
ATOM     54  C   UNL A   1      42.806  29.972  35.025  1.00  0.00     0.029 A 
ATOM     55  N   UNL A   1      42.353  29.154  32.978  1.00  0.00    -0.354 N 
ATOM     56  N   UNL A   1      42.987  27.411  30.731  1.00  0.00    -0.248 NA
ATOM     57  C   UNL A   1      44.299  25.929  29.610  1.00  0.00     0.031 C 
ATOM     58  C   UNL A   1      43.793  29.092  34.708  1.00  0.00     0.029 A 
ATOM     59  C   UNL A   1      43.521  28.579  33.425  1.00  0.00     0.049 A 
ATOM     60  H   UNL A   1      41.914  28.975  32.115  1.00  0.00     0.167 HD
ATOM     61  C   UNL A   1      44.045  27.147  31.500  1.00  0.00     0.074 A 
ATOM     62  C   UNL A   1      44.909  26.196  30.787  1.00  0.00     0.031 C 
ATOM     63  C   UNL A   1      44.323  27.658  32.768  1.00  0.00     0.034 A 
BRANCH  50  64
ATOM     64  C   UNL A   1      40.488  31.720  35.104  1.00  0.00     0.023 A 
ATOM     65  C   UNL A   1      39.658  31.290  36.127  1.00  0.00     0.031 A 
ATOM     66  C   UNL A   1      41.033  32.930  35.122  1.00  0.00     0.131 A 
ATOM     67  C   UNL A   1      39.230  32.326  36.990  1.00  0.00     0.055 A 
ATOM     68  C   UNL A   1      40.668  33.848  36.077  1.00  0.00     0.041 A 
ATOM     69  F   UNL A   1      41.941  33.258  34.207  1.00  0.00    -0.206 F 
ATOM     70  C   UNL A   1      39.807  33.510  37.084  1.00  0.00     0.022 A 
BRANCH  67  71
ATOM     71  S   UNL A   1      37.790  32.006  38.040  1.00  0.00     0.124 S 
ATOM     72  O   UNL A   1      36.682  33.007  37.705  1.00  0.00    -0.237 OA
ATOM     73  O   UNL A   1      37.284  30.583  37.791  1.00  0.00    -0.237 OA
ATOM     74  O   UNL A   1      38.234  32.174  39.683  1.00  0.00    -0.744 OA
ENDBRANCH  67  71
ENDBRANCH  50  64
BRANCH  51  75
ATOM     75  C   UNL A   1      42.415  25.800  27.356  1.00  0.00     0.023 A 
ATOM     76  C   UNL A   1      41.826  24.549  27.266  1.00  0.00     0.031 A 
ATOM     77  C   UNL A   1      43.215  26.255  26.399  1.00  0.00     0.131 A 
ATOM     78  C   UNL A   1      42.377  23.728  26.254  1.00  0.00     0.055 A 
ATOM     79  C   UNL A   1      43.604  25.438  25.365  1.00  0.00     0.041 A 
ATOM     80  F   UNL A   1      43.643  27.513  26.440  1.00  0.00    -0.206 F 
ATOM     81  C   UNL A   1      43.108  24.170  25.247  1.00  0.00     0.022 A 
BRANCH  78  82
ATOM     82  S   UNL A   1      42.056  21.949  26.347  1.00  0.00     0.124 S 
ATOM     83  O   UNL A   1      42.891  21.224  25.289  1.00  0.00    -0.237 OA
ATOM     84  O   UNL A   1      42.436  21.434  27.736  1.00  0.00    -0.237 OA
ATOM     85  O   UNL A   1      40.396  21.654  26.062  1.00  0.00    -0.744 OA
ENDBRANCH  78  82
ENDBRANCH  51  75
BRANCH  63  86
ATOM     86  C   UNL A   1      45.580  27.175  33.472  1.00  0.00     0.023 A 
ATOM     87  C   UNL A   1      45.529  26.047  34.274  1.00  0.00     0.031 A 
ATOM     88  C   UNL A   1      46.688  27.902  33.377  1.00  0.00     0.131 A 
ATOM     89  C   UNL A   1      46.617  25.929  35.170  1.00  0.00     0.055 A 
ATOM     90  C   UNL A   1      47.765  27.645  34.190  1.00  0.00     0.041 A 
ATOM     91  F   UNL A   1      46.754  28.888  32.487  1.00  0.00    -0.206 F 
ATOM     92  C   UNL A   1      47.760  26.581  35.050  1.00  0.00     0.022 A 
BRANCH  89  93
ATOM     93  S   UNL A   1      46.433  24.806  36.577  1.00  0.00     0.124 S 
ATOM     94  O   UNL A   1      47.786  24.170  36.903  1.00  0.00    -0.237 OA
ATOM     95  O   UNL A   1      45.930  25.589  37.792  1.00  0.00    -0.237 OA
ATOM     96  O   UNL A   1      45.307  23.581  36.183  1.00  0.00    -0.744 OA
ENDBRANCH  89  93
ENDBRANCH  63  86
ENDBRANCH  37  38
ENDBRANCH  29  32
ENDBRANCH   1  28
TORSDOF 15
ENDMDL
MODEL 3
REMARK VINA RESULT:     -12.7      1.411      1.726
REMARK SMILES O=C(NCCCNC(=O)c1ccc(-c2c3nc(c(-c4cc(S(=O)(=O)[O-])ccc4F)c4ccc([nH]4)c(-c4cc(S(=O)(=O)[O-])ccc4F)c4nc(c(-c5cc(S(=O)(=O)[O-])ccc5F)c5ccc2[nH]5)C=C4)C=C3)cc1)C1=Cc2cc(S(F)(F)(F)(F)F)ccc2O[C@@H]1C(F)(F)F
REMARK SMILES IDX 6 1 5 2 4 3 3 4 1 5 2 6 73 8 74 9 88 10 75 11 87 12 76 13
REMARK SMILES IDX 86 14 77 15 85 16 84 17 89 18 90 19 91 20 92 21 78 22 79 23
REMARK SMILES IDX 80 24 81 25 82 26 83 27 7 28 8 29 9 31 10 32 11 33 72 34
REMARK SMILES IDX 12 35 71 36 13 37 14 38 15 39 65 40 16 41 70 42 64 43 66 44
REMARK SMILES IDX 17 45 69 46 63 47 62 48 18 50 50 51 30 52 49 53 31 54 34 55
REMARK SMILES IDX 48 56 67 57 32 58 33 59 47 61 68 62 35 63 19 64 20 65 28 66
REMARK SMILES IDX 21 67 27 68 29 69 26 70 22 71 23 72 24 73 25 74 51 75 52 76
REMARK SMILES IDX 60 77 53 78 59 79 61 80 58 81 54 82 55 83 56 84 57 85 36 86
REMARK SMILES IDX 37 87 45 88 38 89 44 90 46 91 43 92 39 93 40 94 41 95 42 96
REMARK H PARENT 3 7 7 30 66 49 34 60
REMARK Flexibility Score: inf
ROOT
ATOM      1  C   UNL A   1      33.265  30.806  27.048  1.00  0.00     0.118 C 
ENDROOT
BRANCH   1   2
ATOM      2  C   UNL A   1      32.120  29.836  27.291  1.00  0.00     0.042 C 
BRANCH   2   3
ATOM      3  C   UNL A   1      32.663  28.421  27.384  1.00  0.00     0.118 C 
BRANCH   3   4
ATOM      4  N   UNL A   1      31.554  27.484  27.610  1.00  0.00    -0.352 N 
ATOM      5  O   UNL A   1      29.953  26.005  26.663  1.00  0.00    -0.270 OA
ATOM      6  C   UNL A   1      30.913  26.815  26.468  1.00  0.00     0.251 C 
ATOM      7  H   UNL A   1      31.239  27.304  28.526  1.00  0.00     0.163 HD
BRANCH   6   8
ATOM      8  C   UNL A   1      31.397  27.092  25.055  1.00  0.00     0.067 C 
ATOM      9  C   UNL A   1      32.453  26.397  24.550  1.00  0.00     0.025 C 
ATOM     10  C   UNL A   1      30.703  28.143  24.205  1.00  0.00     0.314 C 
ATOM     11  C   UNL A   1      33.147  25.345  25.399  1.00  0.00     0.019 A 
ATOM     12  O   UNL A   1      31.068  24.662  26.327  1.00  0.00    -0.475 OA
ATOM     13  C   UNL A   1      34.525  25.263  25.294  1.00  0.00     0.036 A 
ATOM     14  C   UNL A   1      32.456  24.459  26.108  1.00  0.00     0.128 A 
ATOM     15  C   UNL A   1      35.063  24.034  25.739  1.00  0.00     0.107 A 
ATOM     16  C   UNL A   1      33.073  23.348  26.629  1.00  0.00     0.048 A 
ATOM     17  C   UNL A   1      34.424  23.173  26.512  1.00  0.00     0.028 A 
BRANCH  10  18
ATOM     18  C   UNL A   1      30.148  27.494  22.948  1.00  0.00     0.429 C 
ATOM     19  F   UNL A   1      31.118  27.368  22.047  1.00  0.00    -0.167 F 
ATOM     20  F   UNL A   1      29.663  26.291  23.248  1.00  0.00    -0.167 F 
ATOM     21  F   UNL A   1      29.175  28.251  22.451  1.00  0.00    -0.167 F 
ENDBRANCH  10  18
BRANCH  15  22
ATOM     22  S   UNL A   1      36.743  23.608  25.215  1.00  0.00     0.310 S 
ATOM     23  F   UNL A   1      36.698  22.226  25.992  1.00  0.00    -0.094 F 
ATOM     24  F   UNL A   1      37.286  24.257  26.543  1.00  0.00    -0.094 F 
ATOM     25  F   UNL A   1      38.187  23.241  24.770  1.00  0.00    -0.094 F 
ATOM     26  F   UNL A   1      36.170  22.838  23.960  1.00  0.00    -0.094 F 
ATOM     27  F   UNL A   1      35.264  23.873  25.709  1.00  0.00    -0.094 F 
ENDBRANCH  15  22
ENDBRANCH   6   8
ENDBRANCH   3   4
ENDBRANCH   2   3
ENDBRANCH   1   2
BRANCH   1  28
ATOM     28  N   UNL A   1      32.777  32.185  27.187  1.00  0.00    -0.352 N 
ATOM     29  C   UNL A   1      33.543  33.160  27.978  1.00  0.00     0.251 C 
ATOM     30  H   UNL A   1      31.937  32.457  26.752  1.00  0.00     0.163 HD
ATOM     31  O   UNL A   1      33.120  34.352  28.098  1.00  0.00    -0.269 OA
BRANCH  29  32
ATOM     32  C   UNL A   1      34.839  32.741  28.651  1.00  0.00     0.039 A 
ATOM     33  C   UNL A   1      36.051  33.123  28.100  1.00  0.00     0.014 A 
ATOM     34  C   UNL A   1      34.784  31.895  29.673  1.00  0.00     0.014 A 
ATOM     35  C   UNL A   1      37.146  32.329  28.514  1.00  0.00     0.010 A 
ATOM     36  C   UNL A   1      35.917  31.255  30.114  1.00  0.00     0.010 A 
ATOM     37  C   UNL A   1      37.141  31.541  29.575  1.00  0.00    -0.014 A 
BRANCH  37  38
ATOM     38  C   UNL A   1      38.426  30.983  30.164  1.00  0.00     0.031 A 
ATOM     39  C   UNL A   1      38.801  31.450  31.425  1.00  0.00     0.074 A 
ATOM     40  C   UNL A   1      39.082  29.969  29.488  1.00  0.00     0.049 A 
ATOM     41  N   UNL A   1      39.794  31.005  32.196  1.00  0.00    -0.248 NA
ATOM     42  C   UNL A   1      38.126  32.551  32.130  1.00  0.00     0.031 C 
ATOM     43  C   UNL A   1      38.705  29.485  28.220  1.00  0.00     0.029 A 
ATOM     44  N   UNL A   1      40.187  29.257  29.899  1.00  0.00    -0.354 N 
ATOM     45  C   UNL A   1      39.831  31.688  33.341  1.00  0.00     0.074 A 
ATOM     46  C   UNL A   1      38.763  32.697  33.313  1.00  0.00     0.031 C 
ATOM     47  C   UNL A   1      39.577  28.505  27.866  1.00  0.00     0.029 A 
ATOM     48  C   UNL A   1      40.513  28.358  28.907  1.00  0.00     0.049 A 
ATOM     49  H   UNL A   1      40.663  29.371  30.753  1.00  0.00     0.167 HD
ATOM     50  C   UNL A   1      40.711  31.509  34.410  1.00  0.00     0.034 A 
ATOM     51  C   UNL A   1      41.564  27.455  28.892  1.00  0.00     0.034 A 
ATOM     52  C   UNL A   1      41.737  30.576  34.412  1.00  0.00     0.049 A 
ATOM     53  C   UNL A   1      42.482  27.316  29.936  1.00  0.00     0.074 A 
ATOM     54  C   UNL A   1      42.629  30.377  35.483  1.00  0.00     0.029 A 
ATOM     55  N   UNL A   1      42.078  29.695  33.410  1.00  0.00    -0.354 N 
ATOM     56  N   UNL A   1      42.494  27.972  31.097  1.00  0.00    -0.248 NA
ATOM     57  C   UNL A   1      43.618  26.385  29.916  1.00  0.00     0.031 C 
ATOM     58  C   UNL A   1      43.501  29.397  35.128  1.00  0.00     0.029 A 
ATOM     59  C   UNL A   1      43.169  28.968  33.829  1.00  0.00     0.049 A 
ATOM     60  H   UNL A   1      41.620  29.602  32.543  1.00  0.00     0.167 HD
ATOM     61  C   UNL A   1      43.514  27.555  31.850  1.00  0.00     0.074 A 
ATOM     62  C   UNL A   1      44.257  26.533  31.099  1.00  0.00     0.031 C 
ATOM     63  C   UNL A   1      43.853  27.981  33.135  1.00  0.00     0.034 A 
BRANCH  50  64
ATOM     64  C   UNL A   1      40.537  32.387  35.638  1.00  0.00     0.023 A 
ATOM     65  C   UNL A   1      39.682  32.011  36.661  1.00  0.00     0.031 A 
ATOM     66  C   UNL A   1      41.206  33.533  35.686  1.00  0.00     0.131 A 
ATOM     67  C   UNL A   1      39.376  33.055  37.564  1.00  0.00     0.055 A 
ATOM     68  C   UNL A   1      40.952  34.451  36.676  1.00  0.00     0.041 A 
ATOM     69  F   UNL A   1      42.130  33.796  34.766  1.00  0.00    -0.206 F 
ATOM     70  C   UNL A   1      40.074  34.169  37.686  1.00  0.00     0.022 A 
BRANCH  67  71
ATOM     71  S   UNL A   1      37.925  32.850  38.628  1.00  0.00     0.124 S 
ATOM     72  O   UNL A   1      37.865  31.407  39.136  1.00  0.00    -0.237 OA
ATOM     73  O   UNL A   1      38.027  33.806  39.818  1.00  0.00    -0.237 OA
ATOM     74  O   UNL A   1      36.509  33.198  37.735  1.00  0.00    -0.744 OA
ENDBRANCH  67  71
ENDBRANCH  50  64
BRANCH  51  75
ATOM     75  C   UNL A   1      41.729  26.566  27.670  1.00  0.00     0.023 A 
ATOM     76  C   UNL A   1      41.232  25.273  27.662  1.00  0.00     0.031 A 
ATOM     77  C   UNL A   1      42.337  27.077  26.606  1.00  0.00     0.131 A 
ATOM     78  C   UNL A   1      41.686  24.491  26.573  1.00  0.00     0.055 A 
ATOM     79  C   UNL A   1      42.629  26.286  25.520  1.00  0.00     0.041 A 
ATOM     80  F   UNL A   1      42.667  28.365  26.590  1.00  0.00    -0.206 F 
ATOM     81  C   UNL A   1      42.221  24.983  25.470  1.00  0.00     0.022 A 
BRANCH  78  82
ATOM     82  S   UNL A   1      41.523  22.693  26.703  1.00  0.00     0.124 S 
ATOM     83  O   UNL A   1      40.047  22.326  26.871  1.00  0.00    -0.237 OA
ATOM     84  O   UNL A   1      42.069  22.039  25.432  1.00  0.00    -0.237 OA
ATOM     85  O   UNL A   1      42.407  22.137  28.057  1.00  0.00    -0.744 OA
ENDBRANCH  78  82
ENDBRANCH  51  75
BRANCH  63  86
ATOM     86  C   UNL A   1      45.044  27.326  33.814  1.00  0.00     0.023 A 
ATOM     87  C   UNL A   1      46.311  27.860  33.645  1.00  0.00     0.031 A 
ATOM     88  C   UNL A   1      44.858  26.194  34.484  1.00  0.00     0.131 A 
ATOM     89  C   UNL A   1      47.359  26.969  33.976  1.00  0.00     0.055 A 
ATOM     90  C   UNL A   1      45.930  25.440  34.895  1.00  0.00     0.041 A 
ATOM     91  F   UNL A   1      43.622  25.787  34.757  1.00  0.00    -0.206 F 
ATOM     92  C   UNL A   1      47.212  25.880  34.709  1.00  0.00     0.022 A 
BRANCH  89  93
ATOM     93  S   UNL A   1      49.014  27.347  33.351  1.00  0.00     0.124 S 
ATOM     94  O   UNL A   1      49.909  26.115  33.500  1.00  0.00    -0.237 OA
ATOM     95  O   UNL A   1      48.926  27.739  31.874  1.00  0.00    -0.237 OA
ATOM     96  O   UNL A   1      49.678  28.645  34.246  1.00  0.00    -0.744 OA
ENDBRANCH  89  93
ENDBRANCH  63  86
ENDBRANCH  37  38
ENDBRANCH  29  32
ENDBRANCH   1  28
TORSDOF 15
ENDMDL
