MODEL 1
REMARK VINA RESULT:     -11.9      0.000      0.000
REMARK SMILES C[C@@H](C(=O)NCCCNC(=O)c1ccc(-c2c3nc(c(-c4cc(S(=O)(=O)[O-])ccc4F)c4ccc([nH]4)c(-c4cc(S(=O)(=O)[O-])ccc4F)c4nc(c(-c5cc(S(=O)(=O)[O-])ccc5F)c5ccc2[nH]5)C=C4)C=C3)cc1)c1ccc(Cc2cccs2)cc1F
REMARK SMILES IDX 7 1 6 2 5 3 3 4 4 5 2 7 1 8 75 9 76 10 86 11 77 12 85 13
REMARK SMILES IDX 87 14 78 15 79 16 80 17 81 18 84 19 82 20 83 21 8 22 9 23
REMARK SMILES IDX 10 24 11 26 12 27 13 28 74 29 14 30 73 31 15 32 16 33 17 34
REMARK SMILES IDX 67 35 18 36 72 37 66 38 68 39 19 40 71 41 65 42 64 43 20 45
REMARK SMILES IDX 52 46 32 47 51 48 33 49 36 50 50 51 69 52 34 53 35 54 49 56
REMARK SMILES IDX 70 57 37 58 21 59 22 60 30 61 23 62 29 63 31 64 28 65 24 66
REMARK SMILES IDX 25 67 26 68 27 69 53 70 54 71 62 72 55 73 61 74 63 75 60 76
REMARK SMILES IDX 56 77 57 78 58 79 59 80 38 81 39 82 47 83 40 84 46 85 48 86
REMARK SMILES IDX 45 87 41 88 42 89 43 90 44 91
REMARK H PARENT 5 6 9 25 68 44 36 55
REMARK Flexibility Score: inf
ROOT
ATOM      1  C   UNL A   1      32.784  27.985  25.924  1.00  0.00     0.042 C 
ENDROOT
BRANCH   1   2
ATOM      2  C   UNL A   1      33.622  26.737  25.660  1.00  0.00     0.117 C 
BRANCH   2   3
ATOM      3  N   UNL A   1      34.028  26.664  24.271  1.00  0.00    -0.356 N 
ATOM      4  C   UNL A   1      33.497  25.957  23.234  1.00  0.00     0.227 C 
ATOM      5  O   UNL A   1      34.118  25.990  22.169  1.00  0.00    -0.274 OA
ATOM      6  H   UNL A   1      34.813  27.211  24.040  1.00  0.00     0.163 HD
BRANCH   4   7
ATOM      7  C   UNL A   1      32.171  25.199  23.412  1.00  0.00     0.108 C 
ATOM      8  C   UNL A   1      32.013  24.045  22.413  1.00  0.00     0.023 C 
BRANCH   7   9
ATOM      9  C   UNL A   1      30.982  26.146  23.311  1.00  0.00    -0.000 A 
ATOM     10  C   UNL A   1      31.010  27.255  22.454  1.00  0.00     0.008 A 
ATOM     11  C   UNL A   1      29.846  25.954  24.101  1.00  0.00     0.127 A 
ATOM     12  C   UNL A   1      29.918  28.118  22.370  1.00  0.00     0.004 A 
ATOM     13  C   UNL A   1      28.760  26.828  24.041  1.00  0.00     0.043 A 
ATOM     14  F   UNL A   1      29.778  24.904  24.933  1.00  0.00    -0.207 F 
ATOM     15  C   UNL A   1      28.785  27.926  23.171  1.00  0.00    -0.040 A 
BRANCH  15  16
ATOM     16  C   UNL A   1      27.610  28.875  23.075  1.00  0.00     0.082 C 
BRANCH  16  17
ATOM     17  C   UNL A   1      27.939  30.219  22.477  1.00  0.00     0.009 A 
ATOM     18  C   UNL A   1      28.028  30.584  21.145  1.00  0.00     0.016 A 
ATOM     19  S   UNL A   1      28.199  31.574  23.500  1.00  0.00    -0.149 S 
ATOM     20  C   UNL A   1      28.317  31.967  20.968  1.00  0.00     0.012 A 
ATOM     21  C   UNL A   1      28.425  32.624  22.171  1.00  0.00     0.065 A 
ENDBRANCH  16  17
ENDBRANCH  15  16
ENDBRANCH   7   9
ENDBRANCH   4   7
ENDBRANCH   2   3
ENDBRANCH   1   2
BRANCH   1  22
ATOM     22  C   UNL A   1      33.300  29.233  25.214  1.00  0.00     0.118 C 
BRANCH  22  23
ATOM     23  N   UNL A   1      32.709  30.455  25.740  1.00  0.00    -0.352 N 
ATOM     24  C   UNL A   1      33.071  31.197  26.837  1.00  0.00     0.251 C 
ATOM     25  H   UNL A   1      31.937  30.799  25.235  1.00  0.00     0.163 HD
ATOM     26  O   UNL A   1      32.316  32.074  27.249  1.00  0.00    -0.269 OA
BRANCH  24  27
ATOM     27  C   UNL A   1      34.352  30.926  27.524  1.00  0.00     0.039 A 
ATOM     28  C   UNL A   1      35.291  31.952  27.647  1.00  0.00     0.014 A 
ATOM     29  C   UNL A   1      34.627  29.657  28.041  1.00  0.00     0.014 A 
ATOM     30  C   UNL A   1      36.481  31.722  28.343  1.00  0.00     0.010 A 
ATOM     31  C   UNL A   1      35.770  29.455  28.805  1.00  0.00     0.010 A 
ATOM     32  C   UNL A   1      36.715  30.482  28.957  1.00  0.00    -0.014 A 
BRANCH  32  33
ATOM     33  C   UNL A   1      37.952  30.212  29.736  1.00  0.00     0.031 A 
ATOM     34  C   UNL A   1      38.984  29.267  29.184  1.00  0.00     0.074 A 
ATOM     35  C   UNL A   1      38.109  30.744  30.964  1.00  0.00     0.049 A 
ATOM     36  N   UNL A   1      40.053  28.776  29.756  1.00  0.00    -0.248 NA
ATOM     37  C   UNL A   1      38.757  28.780  27.815  1.00  0.00     0.031 C 
ATOM     38  C   UNL A   1      37.169  31.657  31.616  1.00  0.00     0.029 A 
ATOM     39  N   UNL A   1      39.107  30.577  31.891  1.00  0.00    -0.354 N 
ATOM     40  C   UNL A   1      40.613  27.905  28.828  1.00  0.00     0.074 A 
ATOM     41  C   UNL A   1      39.724  27.887  27.685  1.00  0.00     0.031 C 
ATOM     42  C   UNL A   1      37.641  31.980  32.830  1.00  0.00     0.029 A 
ATOM     43  C   UNL A   1      38.886  31.253  33.068  1.00  0.00     0.049 A 
ATOM     44  H   UNL A   1      39.907  30.025  31.729  1.00  0.00     0.167 HD
ATOM     45  C   UNL A   1      41.772  27.205  28.910  1.00  0.00     0.034 A 
ATOM     46  C   UNL A   1      39.588  31.267  34.219  1.00  0.00     0.034 A 
ATOM     47  C   UNL A   1      42.645  27.243  30.059  1.00  0.00     0.049 A 
ATOM     48  C   UNL A   1      40.850  30.447  34.312  1.00  0.00     0.074 A 
ATOM     49  C   UNL A   1      43.863  26.610  30.237  1.00  0.00     0.029 A 
ATOM     50  N   UNL A   1      42.388  27.943  31.232  1.00  0.00    -0.354 N 
ATOM     51  N   UNL A   1      41.387  29.650  33.416  1.00  0.00    -0.248 NA
ATOM     52  C   UNL A   1      41.606  30.532  35.568  1.00  0.00     0.031 C 
ATOM     53  C   UNL A   1      44.301  26.860  31.542  1.00  0.00     0.029 A 
ATOM     54  C   UNL A   1      43.407  27.729  32.149  1.00  0.00     0.049 A 
ATOM     55  H   UNL A   1      41.598  28.508  31.389  1.00  0.00     0.167 HD
ATOM     56  C   UNL A   1      42.564  29.173  33.986  1.00  0.00     0.074 A 
ATOM     57  C   UNL A   1      42.659  29.772  35.301  1.00  0.00     0.031 C 
ATOM     58  C   UNL A   1      43.490  28.328  33.461  1.00  0.00     0.034 A 
BRANCH  45  59
ATOM     59  C   UNL A   1      42.129  26.317  27.740  1.00  0.00     0.023 A 
ATOM     60  C   UNL A   1      41.650  24.998  27.638  1.00  0.00     0.031 A 
ATOM     61  C   UNL A   1      43.009  26.771  26.741  1.00  0.00     0.131 A 
ATOM     62  C   UNL A   1      42.130  24.152  26.628  1.00  0.00     0.055 A 
ATOM     63  C   UNL A   1      43.403  25.954  25.679  1.00  0.00     0.041 A 
ATOM     64  F   UNL A   1      43.520  28.011  26.790  1.00  0.00    -0.206 F 
ATOM     65  C   UNL A   1      42.982  24.629  25.630  1.00  0.00     0.022 A 
BRANCH  62  66
ATOM     66  S   UNL A   1      41.778  22.377  26.752  1.00  0.00     0.124 S 
ATOM     67  O   UNL A   1      42.549  22.006  27.938  1.00  0.00    -0.237 OA
ATOM     68  O   UNL A   1      40.328  22.352  26.899  1.00  0.00    -0.237 OA
ATOM     69  O   UNL A   1      42.289  21.838  25.493  1.00  0.00    -0.744 OA
ENDBRANCH  62  66
ENDBRANCH  45  59
BRANCH  46  70
ATOM     70  C   UNL A   1      39.107  32.068  35.381  1.00  0.00     0.023 A 
ATOM     71  C   UNL A   1      38.479  31.455  36.476  1.00  0.00     0.031 A 
ATOM     72  C   UNL A   1      39.255  33.467  35.404  1.00  0.00     0.131 A 
ATOM     73  C   UNL A   1      37.988  32.241  37.531  1.00  0.00     0.055 A 
ATOM     74  C   UNL A   1      38.814  34.239  36.480  1.00  0.00     0.041 A 
ATOM     75  F   UNL A   1      39.853  34.104  34.385  1.00  0.00    -0.206 F 
ATOM     76  C   UNL A   1      38.165  33.626  37.548  1.00  0.00     0.022 A 
BRANCH  73  77
ATOM     77  S   UNL A   1      37.045  31.432  38.852  1.00  0.00     0.124 S 
ATOM     78  O   UNL A   1      35.824  32.229  38.875  1.00  0.00    -0.237 OA
ATOM     79  O   UNL A   1      36.916  30.070  38.343  1.00  0.00    -0.237 OA
ATOM     80  O   UNL A   1      37.907  31.578  40.024  1.00  0.00    -0.744 OA
ENDBRANCH  73  77
ENDBRANCH  46  70
BRANCH  58  81
ATOM     81  C   UNL A   1      44.725  28.052  34.286  1.00  0.00     0.023 A 
ATOM     82  C   UNL A   1      44.812  26.961  35.167  1.00  0.00     0.031 A 
ATOM     83  C   UNL A   1      45.845  28.897  34.170  1.00  0.00     0.131 A 
ATOM     84  C   UNL A   1      45.974  26.769  35.930  1.00  0.00     0.055 A 
ATOM     85  C   UNL A   1      47.021  28.665  34.882  1.00  0.00     0.041 A 
ATOM     86  F   UNL A   1      45.817  29.959  33.348  1.00  0.00    -0.206 F 
ATOM     87  C   UNL A   1      47.087  27.602  35.778  1.00  0.00     0.022 A 
BRANCH  84  88
ATOM     88  S   UNL A   1      45.988  25.468  37.193  1.00  0.00     0.124 S 
ATOM     89  O   UNL A   1      46.491  26.185  38.362  1.00  0.00    -0.237 OA
ATOM     90  O   UNL A   1      44.585  25.068  37.245  1.00  0.00    -0.237 OA
ATOM     91  O   UNL A   1      46.897  24.464  36.644  1.00  0.00    -0.744 OA
ENDBRANCH  84  88
ENDBRANCH  58  81
ENDBRANCH  32  33
ENDBRANCH  24  27
ENDBRANCH  22  23
ENDBRANCH   1  22
TORSDOF 16
ENDMDL
MODEL 2
REMARK VINA RESULT:     -11.8      3.023      4.687
REMARK SMILES C[C@@H](C(=O)NCCCNC(=O)c1ccc(-c2c3nc(c(-c4cc(S(=O)(=O)[O-])ccc4F)c4ccc([nH]4)c(-c4cc(S(=O)(=O)[O-])ccc4F)c4nc(c(-c5cc(S(=O)(=O)[O-])ccc5F)c5ccc2[nH]5)C=C4)C=C3)cc1)c1ccc(Cc2cccs2)cc1F
REMARK SMILES IDX 7 1 6 2 5 3 3 4 4 5 2 7 1 8 75 9 76 10 86 11 77 12 85 13
REMARK SMILES IDX 87 14 78 15 79 16 80 17 81 18 84 19 82 20 83 21 8 22 9 23
REMARK SMILES IDX 10 24 11 26 12 27 13 28 74 29 14 30 73 31 15 32 16 33 17 34
REMARK SMILES IDX 67 35 18 36 72 37 66 38 68 39 19 40 71 41 65 42 64 43 20 45
REMARK SMILES IDX 52 46 32 47 51 48 33 49 36 50 50 51 69 52 34 53 35 54 49 56
REMARK SMILES IDX 70 57 37 58 21 59 22 60 30 61 23 62 29 63 31 64 28 65 24 66
REMARK SMILES IDX 25 67 26 68 27 69 53 70 54 71 62 72 55 73 61 74 63 75 60 76
REMARK SMILES IDX 56 77 57 78 58 79 59 80 38 81 39 82 47 83 40 84 46 85 48 86
REMARK SMILES IDX 45 87 41 88 42 89 43 90 44 91
REMARK H PARENT 5 6 9 25 68 44 36 55
REMARK Flexibility Score: inf
ROOT
ATOM      1  C   UNL A   1      31.500  31.956  26.864  1.00  0.00     0.042 C 
ENDROOT
BRANCH   1   2
ATOM      2  C   UNL A   1      31.749  30.832  25.862  1.00  0.00     0.117 C 
BRANCH   2   3
ATOM      3  N   UNL A   1      33.031  30.197  26.094  1.00  0.00    -0.356 N 
ATOM      4  C   UNL A   1      33.359  28.877  26.179  1.00  0.00     0.227 C 
ATOM      5  O   UNL A   1      34.520  28.617  26.502  1.00  0.00    -0.274 OA
ATOM      6  H   UNL A   1      33.785  30.819  26.210  1.00  0.00     0.163 HD
BRANCH   4   7
ATOM      7  C   UNL A   1      32.316  27.797  25.847  1.00  0.00     0.108 C 
ATOM      8  C   UNL A   1      31.429  27.445  27.048  1.00  0.00     0.023 C 
BRANCH   7   9
ATOM      9  C   UNL A   1      32.984  26.541  25.303  1.00  0.00    -0.000 A 
ATOM     10  C   UNL A   1      33.260  25.448  26.136  1.00  0.00     0.008 A 
ATOM     11  C   UNL A   1      33.376  26.463  23.964  1.00  0.00     0.127 A 
ATOM     12  C   UNL A   1      33.874  24.303  25.630  1.00  0.00     0.004 A 
ATOM     13  C   UNL A   1      34.014  25.330  23.457  1.00  0.00     0.043 A 
ATOM     14  F   UNL A   1      33.129  27.486  23.132  1.00  0.00    -0.207 F 
ATOM     15  C   UNL A   1      34.272  24.233  24.288  1.00  0.00    -0.040 A 
BRANCH  15  16
ATOM     16  C   UNL A   1      34.945  22.987  23.754  1.00  0.00     0.082 C 
BRANCH  16  17
ATOM     17  C   UNL A   1      34.233  21.700  24.086  1.00  0.00     0.009 A 
ATOM     18  C   UNL A   1      34.659  20.644  24.872  1.00  0.00     0.016 A 
ATOM     19  S   UNL A   1      32.637  21.430  23.512  1.00  0.00    -0.149 S 
ATOM     20  C   UNL A   1      33.683  19.615  24.992  1.00  0.00     0.012 A 
ATOM     21  C   UNL A   1      32.530  19.922  24.308  1.00  0.00     0.065 A 
ENDBRANCH  16  17
ENDBRANCH  15  16
ENDBRANCH   7   9
ENDBRANCH   4   7
ENDBRANCH   2   3
ENDBRANCH   1   2
BRANCH   1  22
ATOM     22  C   UNL A   1      32.772  32.664  27.321  1.00  0.00     0.118 C 
BRANCH  22  23
ATOM     23  N   UNL A   1      32.540  34.063  27.649  1.00  0.00    -0.352 N 
ATOM     24  C   UNL A   1      33.098  34.831  28.641  1.00  0.00     0.251 C 
ATOM     25  H   UNL A   1      31.887  34.527  27.076  1.00  0.00     0.163 HD
ATOM     26  O   UNL A   1      32.613  35.930  28.900  1.00  0.00    -0.269 OA
BRANCH  24  27
ATOM     27  C   UNL A   1      34.260  34.326  29.402  1.00  0.00     0.039 A 
ATOM     28  C   UNL A   1      34.043  33.596  30.574  1.00  0.00     0.014 A 
ATOM     29  C   UNL A   1      35.563  34.580  28.965  1.00  0.00     0.014 A 
ATOM     30  C   UNL A   1      35.133  33.067  31.271  1.00  0.00     0.010 A 
ATOM     31  C   UNL A   1      36.639  33.982  29.611  1.00  0.00     0.010 A 
ATOM     32  C   UNL A   1      36.437  33.227  30.777  1.00  0.00    -0.014 A 
BRANCH  32  33
ATOM     33  C   UNL A   1      37.617  32.648  31.472  1.00  0.00     0.031 A 
ATOM     34  C   UNL A   1      38.355  31.496  30.847  1.00  0.00     0.074 A 
ATOM     35  C   UNL A   1      37.970  33.096  32.693  1.00  0.00     0.049 A 
ATOM     36  N   UNL A   1      39.306  30.748  31.345  1.00  0.00    -0.248 NA
ATOM     37  C   UNL A   1      37.936  31.112  29.490  1.00  0.00     0.031 C 
ATOM     38  C   UNL A   1      37.319  34.192  33.412  1.00  0.00     0.029 A 
ATOM     39  N   UNL A   1      38.952  32.670  33.553  1.00  0.00    -0.354 N 
ATOM     40  C   UNL A   1      39.582  29.792  30.374  1.00  0.00     0.074 A 
ATOM     41  C   UNL A   1      38.649  30.016  29.290  1.00  0.00     0.031 C 
ATOM     42  C   UNL A   1      37.927  34.361  34.597  1.00  0.00     0.029 A 
ATOM     43  C   UNL A   1      38.971  33.351  34.748  1.00  0.00     0.049 A 
ATOM     44  H   UNL A   1      39.583  31.947  33.335  1.00  0.00     0.167 HD
ATOM     45  C   UNL A   1      40.540  28.832  30.376  1.00  0.00     0.034 A 
ATOM     46  C   UNL A   1      39.723  33.166  35.852  1.00  0.00     0.034 A 
ATOM     47  C   UNL A   1      41.463  28.630  31.466  1.00  0.00     0.049 A 
ATOM     48  C   UNL A   1      40.753  32.064  35.857  1.00  0.00     0.074 A 
ATOM     49  C   UNL A   1      42.501  27.718  31.560  1.00  0.00     0.029 A 
ATOM     50  N   UNL A   1      41.454  29.342  32.660  1.00  0.00    -0.354 N 
ATOM     51  N   UNL A   1      41.027  31.185  34.920  1.00  0.00    -0.248 NA
ATOM     52  C   UNL A   1      41.581  31.934  37.062  1.00  0.00     0.031 C 
ATOM     53  C   UNL A   1      43.063  27.823  32.837  1.00  0.00     0.029 A 
ATOM     54  C   UNL A   1      42.443  28.866  33.508  1.00  0.00     0.049 A 
ATOM     55  H   UNL A   1      40.834  30.076  32.873  1.00  0.00     0.167 HD
ATOM     56  C   UNL A   1      42.086  30.425  35.409  1.00  0.00     0.074 A 
ATOM     57  C   UNL A   1      42.401  30.950  36.721  1.00  0.00     0.031 C 
ATOM     58  C   UNL A   1      42.747  29.395  34.818  1.00  0.00     0.034 A 
BRANCH  45  59
ATOM     59  C   UNL A   1      40.602  27.913  29.176  1.00  0.00     0.023 A 
ATOM     60  C   UNL A   1      41.559  28.086  28.160  1.00  0.00     0.031 A 
ATOM     61  C   UNL A   1      39.656  26.885  29.014  1.00  0.00     0.131 A 
ATOM     62  C   UNL A   1      41.485  27.320  26.987  1.00  0.00     0.055 A 
ATOM     63  C   UNL A   1      39.652  26.056  27.890  1.00  0.00     0.041 A 
ATOM     64  F   UNL A   1      38.703  26.679  29.936  1.00  0.00    -0.206 F 
ATOM     65  C   UNL A   1      40.556  26.286  26.856  1.00  0.00     0.022 A 
BRANCH  62  66
ATOM     66  S   UNL A   1      42.492  27.823  25.565  1.00  0.00     0.124 S 
ATOM     67  O   UNL A   1      43.816  27.949  26.171  1.00  0.00    -0.237 OA
ATOM     68  O   UNL A   1      42.314  26.708  24.642  1.00  0.00    -0.237 OA
ATOM     69  O   UNL A   1      41.886  29.085  25.145  1.00  0.00    -0.744 OA
ENDBRANCH  62  66
ENDBRANCH  45  59
BRANCH  46  70
ATOM     70  C   UNL A   1      39.520  34.031  37.050  1.00  0.00     0.023 A 
ATOM     71  C   UNL A   1      38.922  33.527  38.216  1.00  0.00     0.031 A 
ATOM     72  C   UNL A   1      39.908  35.383  37.039  1.00  0.00     0.131 A 
ATOM     73  C   UNL A   1      38.695  34.379  39.309  1.00  0.00     0.055 A 
ATOM     74  C   UNL A   1      39.730  36.212  38.148  1.00  0.00     0.041 A 
ATOM     75  F   UNL A   1      40.489  35.914  35.951  1.00  0.00    -0.206 F 
ATOM     76  C   UNL A   1      39.109  35.713  39.288  1.00  0.00     0.022 A 
BRANCH  73  77
ATOM     77  S   UNL A   1      37.781  33.736  40.737  1.00  0.00     0.124 S 
ATOM     78  O   UNL A   1      38.791  32.907  41.386  1.00  0.00    -0.237 OA
ATOM     79  O   UNL A   1      37.409  34.962  41.436  1.00  0.00    -0.237 OA
ATOM     80  O   UNL A   1      36.670  33.006  40.130  1.00  0.00    -0.744 OA
ENDBRANCH  73  77
ENDBRANCH  46  70
BRANCH  58  81
ATOM     81  C   UNL A   1      43.926  28.810  35.559  1.00  0.00     0.023 A 
ATOM     82  C   UNL A   1      43.796  27.715  36.432  1.00  0.00     0.031 A 
ATOM     83  C   UNL A   1      45.209  29.355  35.372  1.00  0.00     0.131 A 
ATOM     84  C   UNL A   1      44.921  27.231  37.117  1.00  0.00     0.055 A 
ATOM     85  C   UNL A   1      46.334  28.829  36.005  1.00  0.00     0.041 A 
ATOM     86  F   UNL A   1      45.392  30.405  34.554  1.00  0.00    -0.206 F 
ATOM     87  C   UNL A   1      46.193  27.767  36.893  1.00  0.00     0.022 A 
BRANCH  84  88
ATOM     88  S   UNL A   1      44.694  25.944  38.375  1.00  0.00     0.124 S 
ATOM     89  O   UNL A   1      44.150  26.707  39.494  1.00  0.00    -0.237 OA
ATOM     90  O   UNL A   1      43.768  25.026  37.719  1.00  0.00    -0.237 OA
ATOM     91  O   UNL A   1      46.043  25.420  38.579  1.00  0.00    -0.744 OA
ENDBRANCH  84  88
ENDBRANCH  58  81
ENDBRANCH  32  33
ENDBRANCH  24  27
ENDBRANCH  22  23
ENDBRANCH   1  22
TORSDOF 16
ENDMDL
MODEL 3
REMARK VINA RESULT:     -11.8      4.517     10.390
REMARK SMILES C[C@@H](C(=O)NCCCNC(=O)c1ccc(-c2c3nc(c(-c4cc(S(=O)(=O)[O-])ccc4F)c4ccc([nH]4)c(-c4cc(S(=O)(=O)[O-])ccc4F)c4nc(c(-c5cc(S(=O)(=O)[O-])ccc5F)c5ccc2[nH]5)C=C4)C=C3)cc1)c1ccc(Cc2cccs2)cc1F
REMARK SMILES IDX 7 1 6 2 5 3 3 4 4 5 2 7 1 8 75 9 76 10 86 11 77 12 85 13
REMARK SMILES IDX 87 14 78 15 79 16 80 17 81 18 84 19 82 20 83 21 8 22 9 23
REMARK SMILES IDX 10 24 11 26 12 27 13 28 74 29 14 30 73 31 15 32 16 33 17 34
REMARK SMILES IDX 67 35 18 36 72 37 66 38 68 39 19 40 71 41 65 42 64 43 20 45
REMARK SMILES IDX 52 46 32 47 51 48 33 49 36 50 50 51 69 52 34 53 35 54 49 56
REMARK SMILES IDX 70 57 37 58 21 59 22 60 30 61 23 62 29 63 31 64 28 65 24 66
REMARK SMILES IDX 25 67 26 68 27 69 53 70 54 71 62 72 55 73 61 74 63 75 60 76
REMARK SMILES IDX 56 77 57 78 58 79 59 80 38 81 39 82 47 83 40 84 46 85 48 86
REMARK SMILES IDX 45 87 41 88 42 89 43 90 44 91
REMARK H PARENT 5 6 9 25 68 44 36 55
REMARK Flexibility Score: inf
ROOT
ATOM      1  C   UNL A   1      34.346  34.850  28.665  1.00  0.00     0.042 C 
ENDROOT
BRANCH   1   2
ATOM      2  C   UNL A   1      33.654  34.459  29.968  1.00  0.00     0.117 C 
BRANCH   2   3
ATOM      3  N   UNL A   1      34.119  35.273  31.073  1.00  0.00    -0.356 N 
ATOM      4  C   UNL A   1      34.959  34.966  32.102  1.00  0.00     0.227 C 
ATOM      5  O   UNL A   1      35.095  35.824  32.977  1.00  0.00    -0.274 OA
ATOM      6  H   UNL A   1      33.774  36.194  31.082  1.00  0.00     0.163 HD
BRANCH   4   7
ATOM      7  C   UNL A   1      35.706  33.622  32.118  1.00  0.00     0.108 C 
ATOM      8  C   UNL A   1      35.758  32.992  33.515  1.00  0.00     0.023 C 
BRANCH   7   9
ATOM      9  C   UNL A   1      37.114  33.773  31.558  1.00  0.00    -0.000 A 
ATOM     10  C   UNL A   1      37.442  33.295  30.281  1.00  0.00     0.008 A 
ATOM     11  C   UNL A   1      38.128  34.359  32.320  1.00  0.00     0.127 A 
ATOM     12  C   UNL A   1      38.734  33.436  29.777  1.00  0.00     0.004 A 
ATOM     13  C   UNL A   1      39.430  34.480  31.832  1.00  0.00     0.043 A 
ATOM     14  F   UNL A   1      37.856  34.830  33.547  1.00  0.00    -0.207 F 
ATOM     15  C   UNL A   1      39.749  34.017  30.549  1.00  0.00    -0.040 A 
BRANCH  15  16
ATOM     16  C   UNL A   1      41.149  34.157  29.993  1.00  0.00     0.082 C 
BRANCH  16  17
ATOM     17  C   UNL A   1      42.070  33.009  30.322  1.00  0.00     0.009 A 
ATOM     18  C   UNL A   1      42.122  31.744  29.762  1.00  0.00     0.016 A 
ATOM     19  S   UNL A   1      43.305  33.209  31.498  1.00  0.00    -0.149 S 
ATOM     20  C   UNL A   1      43.166  30.942  30.306  1.00  0.00     0.012 A 
ATOM     21  C   UNL A   1      43.893  31.623  31.253  1.00  0.00     0.065 A 
ENDBRANCH  16  17
ENDBRANCH  15  16
ENDBRANCH   7   9
ENDBRANCH   4   7
ENDBRANCH   2   3
ENDBRANCH   1   2
BRANCH   1  22
ATOM     22  C   UNL A   1      35.078  33.695  27.988  1.00  0.00     0.118 C 
BRANCH  22  23
ATOM     23  N   UNL A   1      34.181  32.607  27.625  1.00  0.00    -0.352 N 
ATOM     24  C   UNL A   1      34.408  31.253  27.627  1.00  0.00     0.251 C 
ATOM     25  H   UNL A   1      33.281  32.882  27.337  1.00  0.00     0.163 HD
ATOM     26  O   UNL A   1      33.603  30.505  27.077  1.00  0.00    -0.269 OA
BRANCH  24  27
ATOM     27  C   UNL A   1      35.623  30.707  28.268  1.00  0.00     0.039 A 
ATOM     28  C   UNL A   1      35.521  30.118  29.531  1.00  0.00     0.014 A 
ATOM     29  C   UNL A   1      36.862  30.783  27.627  1.00  0.00     0.014 A 
ATOM     30  C   UNL A   1      36.653  29.549  30.123  1.00  0.00     0.010 A 
ATOM     31  C   UNL A   1      37.967  30.142  28.178  1.00  0.00     0.010 A 
ATOM     32  C   UNL A   1      37.877  29.526  29.436  1.00  0.00    -0.014 A 
BRANCH  32  33
ATOM     33  C   UNL A   1      39.092  28.899  30.018  1.00  0.00     0.031 A 
ATOM     34  C   UNL A   1      39.663  29.439  31.301  1.00  0.00     0.074 A 
ATOM     35  C   UNL A   1      39.726  27.910  29.358  1.00  0.00     0.049 A 
ATOM     36  N   UNL A   1      40.789  29.145  31.899  1.00  0.00    -0.248 NA
ATOM     37  C   UNL A   1      38.874  30.478  31.979  1.00  0.00     0.031 C 
ATOM     38  C   UNL A   1      39.283  27.317  28.095  1.00  0.00     0.029 A 
ATOM     39  N   UNL A   1      40.891  27.244  29.647  1.00  0.00    -0.354 N 
ATOM     40  C   UNL A   1      40.856  29.979  33.010  1.00  0.00     0.074 A 
ATOM     41  C   UNL A   1      39.689  30.834  32.959  1.00  0.00     0.031 C 
ATOM     42  C   UNL A   1      40.156  26.366  27.726  1.00  0.00     0.029 A 
ATOM     43  C   UNL A   1      41.251  26.321  28.692  1.00  0.00     0.049 A 
ATOM     44  H   UNL A   1      41.419  27.409  30.462  1.00  0.00     0.167 HD
ATOM     45  C   UNL A   1      41.790  30.012  33.993  1.00  0.00     0.034 A 
ATOM     46  C   UNL A   1      42.350  25.547  28.589  1.00  0.00     0.034 A 
ATOM     47  C   UNL A   1      42.943  29.145  34.025  1.00  0.00     0.049 A 
ATOM     48  C   UNL A   1      43.402  25.628  29.666  1.00  0.00     0.074 A 
ATOM     49  C   UNL A   1      43.931  29.060  34.990  1.00  0.00     0.029 A 
ATOM     50  N   UNL A   1      43.272  28.221  33.040  1.00  0.00    -0.354 N 
ATOM     51  N   UNL A   1      43.440  26.399  30.729  1.00  0.00    -0.248 NA
ATOM     52  C   UNL A   1      44.557  24.731  29.535  1.00  0.00     0.031 C 
ATOM     53  C   UNL A   1      44.896  28.147  34.551  1.00  0.00     0.029 A 
ATOM     54  C   UNL A   1      44.464  27.587  33.359  1.00  0.00     0.049 A 
ATOM     55  H   UNL A   1      42.737  28.042  32.234  1.00  0.00     0.167 HD
ATOM     56  C   UNL A   1      44.601  26.048  31.413  1.00  0.00     0.074 A 
ATOM     57  C   UNL A   1      45.233  24.998  30.644  1.00  0.00     0.031 C 
ATOM     58  C   UNL A   1      45.090  26.542  32.581  1.00  0.00     0.034 A 
BRANCH  45  59
ATOM     59  C   UNL A   1      41.611  31.044  35.084  1.00  0.00     0.023 A 
ATOM     60  C   UNL A   1      40.462  31.073  35.894  1.00  0.00     0.031 A 
ATOM     61  C   UNL A   1      42.574  32.050  35.280  1.00  0.00     0.131 A 
ATOM     62  C   UNL A   1      40.256  32.138  36.783  1.00  0.00     0.055 A 
ATOM     63  C   UNL A   1      42.411  33.051  36.240  1.00  0.00     0.041 A 
ATOM     64  F   UNL A   1      43.683  32.093  34.525  1.00  0.00    -0.206 F 
ATOM     65  C   UNL A   1      41.235  33.112  36.983  1.00  0.00     0.022 A 
BRANCH  62  66
ATOM     66  S   UNL A   1      38.613  32.334  37.527  1.00  0.00     0.124 S 
ATOM     67  O   UNL A   1      38.939  32.386  38.951  1.00  0.00    -0.237 OA
ATOM     68  O   UNL A   1      38.144  33.580  36.932  1.00  0.00    -0.237 OA
ATOM     69  O   UNL A   1      37.899  31.131  37.103  1.00  0.00    -0.744 OA
ENDBRANCH  62  66
ENDBRANCH  45  59
BRANCH  46  70
ATOM     70  C   UNL A   1      42.521  24.642  27.416  1.00  0.00     0.023 A 
ATOM     71  C   UNL A   1      41.984  23.345  27.417  1.00  0.00     0.031 A 
ATOM     72  C   UNL A   1      43.240  25.057  26.281  1.00  0.00     0.131 A 
ATOM     73  C   UNL A   1      42.207  22.495  26.321  1.00  0.00     0.055 A 
ATOM     74  C   UNL A   1      43.413  24.229  25.172  1.00  0.00     0.041 A 
ATOM     75  F   UNL A   1      43.771  26.289  26.227  1.00  0.00    -0.206 F 
ATOM     76  C   UNL A   1      42.904  22.934  25.193  1.00  0.00     0.022 A 
BRANCH  73  77
ATOM     77  S   UNL A   1      41.634  20.778  26.421  1.00  0.00     0.124 S 
ATOM     78  O   UNL A   1      42.001  20.423  27.787  1.00  0.00    -0.237 OA
ATOM     79  O   UNL A   1      40.206  20.918  26.154  1.00  0.00    -0.237 OA
ATOM     80  O   UNL A   1      42.398  20.103  25.374  1.00  0.00    -0.744 OA
ENDBRANCH  73  77
ENDBRANCH  46  70
BRANCH  58  81
ATOM     81  C   UNL A   1      46.341  25.902  33.136  1.00  0.00     0.023 A 
ATOM     82  C   UNL A   1      46.304  24.730  33.912  1.00  0.00     0.031 A 
ATOM     83  C   UNL A   1      47.597  26.476  32.865  1.00  0.00     0.131 A 
ATOM     84  C   UNL A   1      47.496  24.196  34.426  1.00  0.00     0.055 A 
ATOM     85  C   UNL A   1      48.783  25.904  33.324  1.00  0.00     0.041 A 
ATOM     86  F   UNL A   1      47.692  27.598  32.134  1.00  0.00    -0.206 F 
ATOM     87  C   UNL A   1      48.737  24.763  34.120  1.00  0.00     0.022 A 
BRANCH  84  88
ATOM     88  S   UNL A   1      47.403  22.797  35.576  1.00  0.00     0.124 S 
ATOM     89  O   UNL A   1      48.810  22.578  35.901  1.00  0.00    -0.237 OA
ATOM     90  O   UNL A   1      46.576  23.331  36.653  1.00  0.00    -0.237 OA
ATOM     91  O   UNL A   1      46.779  21.740  34.783  1.00  0.00    -0.744 OA
ENDBRANCH  84  88
ENDBRANCH  58  81
ENDBRANCH  32  33
ENDBRANCH  24  27
ENDBRANCH  22  23
ENDBRANCH   1  22
TORSDOF 16
ENDMDL
