MODEL 1
REMARK VINA RESULT:     -11.5      0.000      0.000
REMARK SMILES CCC[NH2+]C[C@H]1CCC[N@@H+](Cc2ccc(C(=O)NCCCNC(=O)c3ccc(-c4c5nc(c(-c6cc(S(=O)(=O)[O-])ccc6F)c6ccc([nH]6)c(-c6cc(S(=O)(=O)[O-])ccc6F)c6nc(c(-c7cc(S(=O)(=O)[O-])ccc7F)c7ccc4[nH]7)C=C6)C=C5)cc3)cc2)C1
REMARK SMILES IDX 16 1 17 2 18 3 15 5 12 6 13 7 89 8 14 9 88 10 11 11 10 12
REMARK SMILES IDX 6 13 7 14 90 15 8 16 9 17 5 19 4 20 3 23 2 24 1 25 19 26
REMARK SMILES IDX 20 27 21 28 22 29 23 30 24 32 25 33 26 34 87 35 27 36 86 37
REMARK SMILES IDX 28 38 29 39 30 40 80 41 31 42 85 43 79 44 81 45 32 46 84 47
REMARK SMILES IDX 78 48 77 49 33 51 65 52 45 53 64 54 46 55 49 56 63 57 82 58
REMARK SMILES IDX 47 59 48 60 62 62 83 63 50 64 34 65 35 66 43 67 36 68 42 69
REMARK SMILES IDX 44 70 41 71 37 72 38 73 39 74 40 75 66 76 67 77 75 78 68 79
REMARK SMILES IDX 74 80 76 81 73 82 69 83 70 84 71 85 72 86 51 87 52 88 60 89
REMARK SMILES IDX 53 90 59 91 61 92 58 93 54 94 55 95 56 96 57 97
REMARK H PARENT 18 4 10 18 4 21 4 22 22 31 81 50 49 61
REMARK Flexibility Score: inf
ROOT
ATOM      1  C   UNL A   1      30.585  29.475  23.714  1.00  0.00     0.251 C 
ATOM      2  O   UNL A   1      29.564  29.701  23.065  1.00  0.00    -0.269 OA
ATOM      3  N   UNL A   1      30.937  30.352  24.710  1.00  0.00    -0.352 N 
ATOM      4  H   UNL A   1      30.398  31.176  24.741  1.00  0.00     0.163 HD
ENDROOT
BRANCH   1   5
ATOM      5  C   UNL A   1      31.354  28.231  23.447  1.00  0.00     0.039 A 
ATOM      6  C   UNL A   1      32.774  25.813  23.155  1.00  0.00     0.006 A 
ATOM      7  C   UNL A   1      31.478  25.814  23.686  1.00  0.00     0.010 A 
ATOM      8  C   UNL A   1      33.308  27.022  22.685  1.00  0.00     0.010 A 
ATOM      9  C   UNL A   1      30.774  27.014  23.828  1.00  0.00     0.014 A 
ATOM     10  C   UNL A   1      32.600  28.217  22.819  1.00  0.00     0.014 A 
BRANCH   6  11
ATOM     11  C   UNL A   1      33.608  24.548  23.115  1.00  0.00     0.299 C 
BRANCH  11  12
ATOM     12  N   UNL A   1      33.552  23.688  24.316  1.00  0.00    -0.331 N 
ATOM     13  C   UNL A   1      33.304  21.366  25.245  1.00  0.00     0.099 C 
ATOM     14  C   UNL A   1      34.340  21.718  26.319  1.00  0.00     0.021 C 
ATOM     15  C   UNL A   1      33.487  22.251  23.998  1.00  0.00     0.271 C 
ATOM     16  C   UNL A   1      34.379  23.220  26.576  1.00  0.00     0.062 C 
ATOM     17  C   UNL A   1      34.626  23.977  25.271  1.00  0.00     0.262 C 
ATOM     18  H   UNL A   1      32.672  23.926  24.774  1.00  0.00     0.348 HD
BRANCH  13  19
ATOM     19  C   UNL A   1      33.266  19.855  24.890  1.00  0.00     0.269 C 
BRANCH  19  20
ATOM     20  N   UNL A   1      32.894  18.898  25.935  1.00  0.00    -0.346 N 
ATOM     21  H   UNL A   1      33.625  18.909  26.646  1.00  0.00     0.346 HD
ATOM     22  H   UNL A   1      31.983  19.199  26.282  1.00  0.00     0.346 HD
BRANCH  20  23
ATOM     23  C   UNL A   1      32.722  17.522  25.487  1.00  0.00     0.260 C 
BRANCH  23  24
ATOM     24  C   UNL A   1      34.028  16.894  24.986  1.00  0.00     0.058 C 
ATOM     25  C   UNL A   1      34.028  16.588  23.497  1.00  0.00     0.010 C 
ENDBRANCH  23  24
ENDBRANCH  20  23
ENDBRANCH  19  20
ENDBRANCH  13  19
ENDBRANCH  11  12
ENDBRANCH   6  11
ENDBRANCH   1   5
BRANCH   3  26
ATOM     26  C   UNL A   1      31.971  30.269  25.724  1.00  0.00     0.118 C 
BRANCH  26  27
ATOM     27  C   UNL A   1      31.735  31.252  26.865  1.00  0.00     0.042 C 
BRANCH  27  28
ATOM     28  C   UNL A   1      32.979  32.048  27.239  1.00  0.00     0.118 C 
BRANCH  28  29
ATOM     29  N   UNL A   1      32.676  33.443  27.528  1.00  0.00    -0.352 N 
ATOM     30  C   UNL A   1      33.185  34.265  28.506  1.00  0.00     0.251 C 
ATOM     31  H   UNL A   1      32.009  33.859  26.935  1.00  0.00     0.163 HD
ATOM     32  O   UNL A   1      32.656  35.348  28.723  1.00  0.00    -0.269 OA
BRANCH  30  33
ATOM     33  C   UNL A   1      34.351  33.825  29.306  1.00  0.00     0.039 A 
ATOM     34  C   UNL A   1      34.157  32.917  30.350  1.00  0.00     0.014 A 
ATOM     35  C   UNL A   1      35.632  34.304  29.022  1.00  0.00     0.014 A 
ATOM     36  C   UNL A   1      35.260  32.433  31.060  1.00  0.00     0.010 A 
ATOM     37  C   UNL A   1      36.734  33.758  29.672  1.00  0.00     0.010 A 
ATOM     38  C   UNL A   1      36.561  32.817  30.698  1.00  0.00    -0.014 A 
BRANCH  38  39
ATOM     39  C   UNL A   1      37.761  32.257  31.374  1.00  0.00     0.031 A 
ATOM     40  C   UNL A   1      38.512  31.118  30.739  1.00  0.00     0.074 A 
ATOM     41  C   UNL A   1      38.119  32.710  32.592  1.00  0.00     0.049 A 
ATOM     42  N   UNL A   1      39.488  30.396  31.224  1.00  0.00    -0.248 NA
ATOM     43  C   UNL A   1      38.082  30.720  29.390  1.00  0.00     0.031 C 
ATOM     44  C   UNL A   1      37.453  33.793  33.321  1.00  0.00     0.029 A 
ATOM     45  N   UNL A   1      39.119  32.308  33.443  1.00  0.00    -0.354 N 
ATOM     46  C   UNL A   1      39.776  29.446  30.249  1.00  0.00     0.074 A 
ATOM     47  C   UNL A   1      38.829  29.648  29.174  1.00  0.00     0.031 C 
ATOM     48  C   UNL A   1      38.073  33.979  34.495  1.00  0.00     0.029 A 
ATOM     49  C   UNL A   1      39.140  32.993  34.636  1.00  0.00     0.049 A 
ATOM     50  H   UNL A   1      39.760  31.595  33.220  1.00  0.00     0.167 HD
ATOM     51  C   UNL A   1      40.754  28.506  30.244  1.00  0.00     0.034 A 
ATOM     52  C   UNL A   1      39.914  32.831  35.729  1.00  0.00     0.034 A 
ATOM     53  C   UNL A   1      41.693  28.325  31.325  1.00  0.00     0.049 A 
ATOM     54  C   UNL A   1      40.966  31.749  35.720  1.00  0.00     0.074 A 
ATOM     55  C   UNL A   1      42.750  27.437  31.407  1.00  0.00     0.029 A 
ATOM     56  N   UNL A   1      41.685  29.041  32.516  1.00  0.00    -0.354 N 
ATOM     57  N   UNL A   1      41.248  30.880  34.777  1.00  0.00    -0.248 NA
ATOM     58  C   UNL A   1      41.807  31.630  36.918  1.00  0.00     0.031 C 
ATOM     59  C   UNL A   1      43.328  27.558  32.675  1.00  0.00     0.029 A 
ATOM     60  C   UNL A   1      42.696  28.590  33.350  1.00  0.00     0.049 A 
ATOM     61  H   UNL A   1      41.051  29.763  32.736  1.00  0.00     0.167 HD
ATOM     62  C   UNL A   1      42.330  30.142  35.252  1.00  0.00     0.074 A 
ATOM     63  C   UNL A   1      42.648  30.670  36.563  1.00  0.00     0.031 C 
ATOM     64  C   UNL A   1      43.005  29.129  34.654  1.00  0.00     0.034 A 
BRANCH  51  65
ATOM     65  C   UNL A   1      40.831  27.585  29.050  1.00  0.00     0.023 A 
ATOM     66  C   UNL A   1      41.794  27.763  28.039  1.00  0.00     0.031 A 
ATOM     67  C   UNL A   1      39.917  26.527  28.903  1.00  0.00     0.131 A 
ATOM     68  C   UNL A   1      41.769  26.950  26.895  1.00  0.00     0.055 A 
ATOM     69  C   UNL A   1      39.954  25.665  27.805  1.00  0.00     0.041 A 
ATOM     70  F   UNL A   1      38.959  26.319  29.822  1.00  0.00    -0.206 F 
ATOM     71  C   UNL A   1      40.874  25.884  26.785  1.00  0.00     0.022 A 
BRANCH  68  72
ATOM     72  S   UNL A   1      42.820  27.406  25.489  1.00  0.00     0.124 S 
ATOM     73  O   UNL A   1      42.124  28.581  24.970  1.00  0.00    -0.237 OA
ATOM     74  O   UNL A   1      44.109  27.654  26.126  1.00  0.00    -0.237 OA
ATOM     75  O   UNL A   1      42.766  26.228  24.626  1.00  0.00    -0.744 OA
ENDBRANCH  68  72
ENDBRANCH  51  65
BRANCH  52  76
ATOM     76  C   UNL A   1      39.720  33.696  36.929  1.00  0.00     0.023 A 
ATOM     77  C   UNL A   1      39.094  33.200  38.084  1.00  0.00     0.031 A 
ATOM     78  C   UNL A   1      40.116  35.045  36.925  1.00  0.00     0.131 A 
ATOM     79  C   UNL A   1      38.838  34.058  39.165  1.00  0.00     0.055 A 
ATOM     80  C   UNL A   1      39.914  35.879  38.026  1.00  0.00     0.041 A 
ATOM     81  F   UNL A   1      40.721  35.574  35.848  1.00  0.00    -0.206 F 
ATOM     82  C   UNL A   1      39.257  35.390  39.150  1.00  0.00     0.022 A 
BRANCH  79  83
ATOM     83  S   UNL A   1      37.855  33.431  40.555  1.00  0.00     0.124 S 
ATOM     84  O   UNL A   1      37.823  34.590  41.440  1.00  0.00    -0.237 OA
ATOM     85  O   UNL A   1      36.596  33.087  39.904  1.00  0.00    -0.237 OA
ATOM     86  O   UNL A   1      38.635  32.295  41.039  1.00  0.00    -0.744 OA
ENDBRANCH  79  83
ENDBRANCH  52  76
BRANCH  64  87
ATOM     87  C   UNL A   1      44.206  28.570  35.380  1.00  0.00     0.023 A 
ATOM     88  C   UNL A   1      44.094  27.557  36.347  1.00  0.00     0.031 A 
ATOM     89  C   UNL A   1      45.491  29.059  35.079  1.00  0.00     0.131 A 
ATOM     90  C   UNL A   1      45.242  27.097  37.012  1.00  0.00     0.055 A 
ATOM     91  C   UNL A   1      46.635  28.553  35.698  1.00  0.00     0.041 A 
ATOM     92  F   UNL A   1      45.657  30.031  34.168  1.00  0.00    -0.206 F 
ATOM     93  C   UNL A   1      46.513  27.573  36.678  1.00  0.00     0.022 A 
BRANCH  90  94
ATOM     94  S   UNL A   1      45.046  25.922  38.380  1.00  0.00     0.124 S 
ATOM     95  O   UNL A   1      43.779  25.279  38.048  1.00  0.00    -0.237 OA
ATOM     96  O   UNL A   1      46.236  25.088  38.248  1.00  0.00    -0.237 OA
ATOM     97  O   UNL A   1      45.018  26.776  39.565  1.00  0.00    -0.744 OA
ENDBRANCH  90  94
ENDBRANCH  64  87
ENDBRANCH  38  39
ENDBRANCH  30  33
ENDBRANCH  28  29
ENDBRANCH  27  28
ENDBRANCH  26  27
ENDBRANCH   3  26
TORSDOF 19
ENDMDL
MODEL 2
REMARK VINA RESULT:     -11.4      1.829      2.274
REMARK SMILES CCC[NH2+]C[C@H]1CCC[N@@H+](Cc2ccc(C(=O)NCCCNC(=O)c3ccc(-c4c5nc(c(-c6cc(S(=O)(=O)[O-])ccc6F)c6ccc([nH]6)c(-c6cc(S(=O)(=O)[O-])ccc6F)c6nc(c(-c7cc(S(=O)(=O)[O-])ccc7F)c7ccc4[nH]7)C=C6)C=C5)cc3)cc2)C1
REMARK SMILES IDX 16 1 17 2 18 3 15 5 12 6 13 7 89 8 14 9 88 10 11 11 10 12
REMARK SMILES IDX 6 13 7 14 90 15 8 16 9 17 5 19 4 20 3 23 2 24 1 25 19 26
REMARK SMILES IDX 20 27 21 28 22 29 23 30 24 32 25 33 26 34 87 35 27 36 86 37
REMARK SMILES IDX 28 38 29 39 30 40 80 41 31 42 85 43 79 44 81 45 32 46 84 47
REMARK SMILES IDX 78 48 77 49 33 51 65 52 45 53 64 54 46 55 49 56 63 57 82 58
REMARK SMILES IDX 47 59 48 60 62 62 83 63 50 64 34 65 35 66 43 67 36 68 42 69
REMARK SMILES IDX 44 70 41 71 37 72 38 73 39 74 40 75 66 76 67 77 75 78 68 79
REMARK SMILES IDX 74 80 76 81 73 82 69 83 70 84 71 85 72 86 51 87 52 88 60 89
REMARK SMILES IDX 53 90 59 91 61 92 58 93 54 94 55 95 56 96 57 97
REMARK H PARENT 18 4 10 18 4 21 4 22 22 31 81 50 49 61
REMARK Flexibility Score: inf
ROOT
ATOM      1  C   UNL A   1      30.878  28.979  22.715  1.00  0.00     0.251 C 
ATOM      2  O   UNL A   1      30.315  29.393  21.703  1.00  0.00    -0.269 OA
ATOM      3  N   UNL A   1      30.791  29.723  23.866  1.00  0.00    -0.352 N 
ATOM      4  H   UNL A   1      30.380  30.610  23.751  1.00  0.00     0.163 HD
ENDROOT
BRANCH   1   5
ATOM      5  C   UNL A   1      31.565  27.660  22.676  1.00  0.00     0.039 A 
ATOM      6  C   UNL A   1      32.759  25.109  22.791  1.00  0.00     0.006 A 
ATOM      7  C   UNL A   1      31.369  25.247  22.901  1.00  0.00     0.010 A 
ATOM      8  C   UNL A   1      33.528  26.253  22.526  1.00  0.00     0.010 A 
ATOM      9  C   UNL A   1      30.778  26.513  22.841  1.00  0.00     0.014 A 
ATOM     10  C   UNL A   1      32.936  27.514  22.458  1.00  0.00     0.014 A 
BRANCH   6  11
ATOM     11  C   UNL A   1      33.436  23.767  22.987  1.00  0.00     0.299 C 
BRANCH  11  12
ATOM     12  N   UNL A   1      33.306  23.157  24.327  1.00  0.00    -0.331 N 
ATOM     13  C   UNL A   1      33.376  21.062  25.713  1.00  0.00     0.099 C 
ATOM     14  C   UNL A   1      34.044  21.863  26.836  1.00  0.00     0.021 C 
ATOM     15  C   UNL A   1      33.630  21.720  24.344  1.00  0.00     0.271 C 
ATOM     16  C   UNL A   1      33.694  23.343  26.740  1.00  0.00     0.062 C 
ATOM     17  C   UNL A   1      34.050  23.886  25.357  1.00  0.00     0.262 C 
ATOM     18  H   UNL A   1      32.316  23.235  24.561  1.00  0.00     0.348 HD
BRANCH  13  19
ATOM     19  C   UNL A   1      33.751  19.554  25.717  1.00  0.00     0.269 C 
BRANCH  19  20
ATOM     20  N   UNL A   1      32.783  18.593  26.248  1.00  0.00    -0.346 N 
ATOM     21  H   UNL A   1      33.064  18.356  27.199  1.00  0.00     0.346 HD
ATOM     22  H   UNL A   1      31.872  19.049  26.193  1.00  0.00     0.346 HD
BRANCH  20  23
ATOM     23  C   UNL A   1      32.660  17.352  25.493  1.00  0.00     0.260 C 
BRANCH  23  24
ATOM     24  C   UNL A   1      33.977  16.925  24.835  1.00  0.00     0.058 C 
ATOM     25  C   UNL A   1      33.832  16.534  23.373  1.00  0.00     0.010 C 
ENDBRANCH  23  24
ENDBRANCH  20  23
ENDBRANCH  19  20
ENDBRANCH  13  19
ENDBRANCH  11  12
ENDBRANCH   6  11
ENDBRANCH   1   5
BRANCH   3  26
ATOM     26  C   UNL A   1      31.204  29.420  25.224  1.00  0.00     0.118 C 
BRANCH  26  27
ATOM     27  C   UNL A   1      32.525  30.090  25.584  1.00  0.00     0.042 C 
BRANCH  27  28
ATOM     28  C   UNL A   1      32.555  30.637  27.005  1.00  0.00     0.118 C 
BRANCH  28  29
ATOM     29  N   UNL A   1      32.592  32.093  27.035  1.00  0.00    -0.352 N 
ATOM     30  C   UNL A   1      33.507  32.933  27.627  1.00  0.00     0.251 C 
ATOM     31  H   UNL A   1      31.854  32.542  26.562  1.00  0.00     0.163 HD
ATOM     32  O   UNL A   1      33.258  34.129  27.721  1.00  0.00    -0.269 OA
BRANCH  30  33
ATOM     33  C   UNL A   1      34.771  32.384  28.166  1.00  0.00     0.039 A 
ATOM     34  C   UNL A   1      35.931  33.162  28.110  1.00  0.00     0.014 A 
ATOM     35  C   UNL A   1      34.811  31.107  28.730  1.00  0.00     0.014 A 
ATOM     36  C   UNL A   1      37.112  32.687  28.688  1.00  0.00     0.010 A 
ATOM     37  C   UNL A   1      35.962  30.672  29.377  1.00  0.00     0.010 A 
ATOM     38  C   UNL A   1      37.126  31.456  29.363  1.00  0.00    -0.014 A 
BRANCH  38  39
ATOM     39  C   UNL A   1      38.340  30.958  30.062  1.00  0.00     0.031 A 
ATOM     40  C   UNL A   1      39.208  29.920  29.404  1.00  0.00     0.074 A 
ATOM     41  C   UNL A   1      38.609  31.371  31.317  1.00  0.00     0.049 A 
ATOM     42  N   UNL A   1      40.221  29.253  29.894  1.00  0.00    -0.248 NA
ATOM     43  C   UNL A   1      38.868  29.564  28.018  1.00  0.00     0.031 C 
ATOM     44  C   UNL A   1      37.827  32.355  32.070  1.00  0.00     0.029 A 
ATOM     45  N   UNL A   1      39.604  31.004  32.190  1.00  0.00    -0.354 N 
ATOM     46  C   UNL A   1      40.626  28.385  28.886  1.00  0.00     0.074 A 
ATOM     47  C   UNL A   1      39.710  28.569  27.781  1.00  0.00     0.031 C 
ATOM     48  C   UNL A   1      38.381  32.525  33.279  1.00  0.00     0.029 A 
ATOM     49  C   UNL A   1      39.520  31.623  33.417  1.00  0.00     0.049 A 
ATOM     50  H   UNL A   1      40.311  30.358  31.960  1.00  0.00     0.167 HD
ATOM     51  C   UNL A   1      41.678  27.529  28.876  1.00  0.00     0.034 A 
ATOM     52  C   UNL A   1      40.259  31.464  34.533  1.00  0.00     0.034 A 
ATOM     53  C   UNL A   1      42.584  27.366  29.987  1.00  0.00     0.049 A 
ATOM     54  C   UNL A   1      41.397  30.472  34.516  1.00  0.00     0.074 A 
ATOM     55  C   UNL A   1      43.707  26.562  30.071  1.00  0.00     0.029 A 
ATOM     56  N   UNL A   1      42.468  28.012  31.212  1.00  0.00    -0.354 N 
ATOM     57  N   UNL A   1      41.789  29.681  33.543  1.00  0.00    -0.248 NA
ATOM     58  C   UNL A   1      42.196  30.355  35.743  1.00  0.00     0.031 C 
ATOM     59  C   UNL A   1      44.221  26.660  31.368  1.00  0.00     0.029 A 
ATOM     60  C   UNL A   1      43.479  27.599  32.066  1.00  0.00     0.049 A 
ATOM     61  H   UNL A   1      41.768  28.666  31.440  1.00  0.00     0.167 HD
ATOM     62  C   UNL A   1      42.908  29.008  34.028  1.00  0.00     0.074 A 
ATOM     63  C   UNL A   1      43.127  29.487  35.377  1.00  0.00     0.031 C 
ATOM     64  C   UNL A   1      43.689  28.088  33.409  1.00  0.00     0.034 A 
BRANCH  51  65
ATOM     65  C   UNL A   1      41.880  26.685  27.640  1.00  0.00     0.023 A 
ATOM     66  C   UNL A   1      41.437  25.351  27.575  1.00  0.00     0.031 A 
ATOM     67  C   UNL A   1      42.544  27.209  26.517  1.00  0.00     0.131 A 
ATOM     68  C   UNL A   1      41.733  24.567  26.449  1.00  0.00     0.055 A 
ATOM     69  C   UNL A   1      42.757  26.451  25.365  1.00  0.00     0.041 A 
ATOM     70  F   UNL A   1      43.012  28.468  26.526  1.00  0.00    -0.206 F 
ATOM     71  C   UNL A   1      42.365  25.117  25.331  1.00  0.00     0.022 A 
BRANCH  68  72
ATOM     72  S   UNL A   1      41.420  22.783  26.532  1.00  0.00     0.124 S 
ATOM     73  O   UNL A   1      42.182  22.296  25.384  1.00  0.00    -0.237 OA
ATOM     74  O   UNL A   1      41.946  22.431  27.846  1.00  0.00    -0.237 OA
ATOM     75  O   UNL A   1      39.968  22.684  26.393  1.00  0.00    -0.744 OA
ENDBRANCH  68  72
ENDBRANCH  51  65
BRANCH  52  76
ATOM     76  C   UNL A   1      39.946  32.243  35.766  1.00  0.00     0.023 A 
ATOM     77  C   UNL A   1      38.940  31.821  36.651  1.00  0.00     0.031 A 
ATOM     78  C   UNL A   1      40.615  33.444  36.057  1.00  0.00     0.131 A 
ATOM     79  C   UNL A   1      38.598  32.619  37.754  1.00  0.00     0.055 A 
ATOM     80  C   UNL A   1      40.312  34.204  37.190  1.00  0.00     0.041 A 
ATOM     81  F   UNL A   1      41.587  33.895  35.247  1.00  0.00    -0.206 F 
ATOM     82  C   UNL A   1      39.287  33.799  38.038  1.00  0.00     0.022 A 
BRANCH  79  83
ATOM     83  S   UNL A   1      37.165  32.141  38.759  1.00  0.00     0.124 S 
ATOM     84  O   UNL A   1      36.101  32.931  38.149  1.00  0.00    -0.237 OA
ATOM     85  O   UNL A   1      37.105  30.701  38.535  1.00  0.00    -0.237 OA
ATOM     86  O   UNL A   1      37.547  32.545  40.110  1.00  0.00    -0.744 OA
ENDBRANCH  79  83
ENDBRANCH  52  76
BRANCH  64  87
ATOM     87  C   UNL A   1      44.902  27.589  34.159  1.00  0.00     0.023 A 
ATOM     88  C   UNL A   1      44.861  26.447  34.977  1.00  0.00     0.031 A 
ATOM     89  C   UNL A   1      46.127  28.270  34.033  1.00  0.00     0.131 A 
ATOM     90  C   UNL A   1      46.012  26.047  35.673  1.00  0.00     0.055 A 
ATOM     91  C   UNL A   1      47.283  27.830  34.678  1.00  0.00     0.041 A 
ATOM     92  F   UNL A   1      46.222  29.371  33.270  1.00  0.00    -0.206 F 
ATOM     93  C   UNL A   1      47.227  26.718  35.512  1.00  0.00     0.022 A 
BRANCH  90  94
ATOM     94  S   UNL A   1      45.884  24.681  36.860  1.00  0.00     0.124 S 
ATOM     95  O   UNL A   1      46.127  23.519  36.011  1.00  0.00    -0.237 OA
ATOM     96  O   UNL A   1      46.935  25.000  37.819  1.00  0.00    -0.237 OA
ATOM     97  O   UNL A   1      44.521  24.799  37.373  1.00  0.00    -0.744 OA
ENDBRANCH  90  94
ENDBRANCH  64  87
ENDBRANCH  38  39
ENDBRANCH  30  33
ENDBRANCH  28  29
ENDBRANCH  27  28
ENDBRANCH  26  27
ENDBRANCH   3  26
TORSDOF 19
ENDMDL
MODEL 3
REMARK VINA RESULT:     -11.3      5.795     12.041
REMARK SMILES CCC[NH2+]C[C@H]1CCC[N@@H+](Cc2ccc(C(=O)NCCCNC(=O)c3ccc(-c4c5nc(c(-c6cc(S(=O)(=O)[O-])ccc6F)c6ccc([nH]6)c(-c6cc(S(=O)(=O)[O-])ccc6F)c6nc(c(-c7cc(S(=O)(=O)[O-])ccc7F)c7ccc4[nH]7)C=C6)C=C5)cc3)cc2)C1
REMARK SMILES IDX 16 1 17 2 18 3 15 5 12 6 13 7 89 8 14 9 88 10 11 11 10 12
REMARK SMILES IDX 6 13 7 14 90 15 8 16 9 17 5 19 4 20 3 23 2 24 1 25 19 26
REMARK SMILES IDX 20 27 21 28 22 29 23 30 24 32 25 33 26 34 87 35 27 36 86 37
REMARK SMILES IDX 28 38 29 39 30 40 80 41 31 42 85 43 79 44 81 45 32 46 84 47
REMARK SMILES IDX 78 48 77 49 33 51 65 52 45 53 64 54 46 55 49 56 63 57 82 58
REMARK SMILES IDX 47 59 48 60 62 62 83 63 50 64 34 65 35 66 43 67 36 68 42 69
REMARK SMILES IDX 44 70 41 71 37 72 38 73 39 74 40 75 66 76 67 77 75 78 68 79
REMARK SMILES IDX 74 80 76 81 73 82 69 83 70 84 71 85 72 86 51 87 52 88 60 89
REMARK SMILES IDX 53 90 59 91 61 92 58 93 54 94 55 95 56 96 57 97
REMARK H PARENT 18 4 10 18 4 21 4 22 22 31 81 50 49 61
REMARK Flexibility Score: inf
ROOT
ATOM      1  C   UNL A   1      34.425  20.298  25.010  1.00  0.00     0.251 C 
ATOM      2  O   UNL A   1      33.692  19.366  24.680  1.00  0.00    -0.269 OA
ATOM      3  N   UNL A   1      35.778  20.074  25.087  1.00  0.00    -0.352 N 
ATOM      4  H   UNL A   1      36.044  19.131  24.989  1.00  0.00     0.163 HD
ENDROOT
BRANCH   1   5
ATOM      5  C   UNL A   1      33.831  21.641  25.241  1.00  0.00     0.039 A 
ATOM      6  C   UNL A   1      32.535  24.086  25.784  1.00  0.00     0.006 A 
ATOM      7  C   UNL A   1      32.772  23.165  26.814  1.00  0.00     0.010 A 
ATOM      8  C   UNL A   1      33.041  23.808  24.506  1.00  0.00     0.010 A 
ATOM      9  C   UNL A   1      33.417  21.954  26.543  1.00  0.00     0.014 A 
ATOM     10  C   UNL A   1      33.692  22.603  24.239  1.00  0.00     0.014 A 
BRANCH   6  11
ATOM     11  C   UNL A   1      31.721  25.342  26.024  1.00  0.00     0.299 C 
BRANCH  11  12
ATOM     12  N   UNL A   1      32.141  26.547  25.278  1.00  0.00    -0.331 N 
ATOM     13  C   UNL A   1      31.443  28.635  24.067  1.00  0.00     0.099 C 
ATOM     14  C   UNL A   1      32.659  29.352  24.666  1.00  0.00     0.021 C 
ATOM     15  C   UNL A   1      31.021  27.444  24.948  1.00  0.00     0.271 C 
ATOM     16  C   UNL A   1      33.765  28.364  25.015  1.00  0.00     0.062 C 
ATOM     17  C   UNL A   1      33.230  27.271  25.939  1.00  0.00     0.262 C 
ATOM     18  H   UNL A   1      32.507  26.199  24.393  1.00  0.00     0.348 HD
BRANCH  13  19
ATOM     19  C   UNL A   1      30.254  29.583  23.754  1.00  0.00     0.269 C 
BRANCH  19  20
ATOM     20  N   UNL A   1      29.427  29.306  22.578  1.00  0.00    -0.346 N 
ATOM     21  H   UNL A   1      29.889  28.580  22.032  1.00  0.00     0.346 HD
ATOM     22  H   UNL A   1      28.512  29.029  22.935  1.00  0.00     0.346 HD
BRANCH  20  23
ATOM     23  C   UNL A   1      29.190  30.447  21.701  1.00  0.00     0.260 C 
BRANCH  23  24
ATOM     24  C   UNL A   1      28.783  31.710  22.469  1.00  0.00     0.058 C 
ATOM     25  C   UNL A   1      27.570  31.518  23.365  1.00  0.00     0.010 C 
ENDBRANCH  23  24
ENDBRANCH  20  23
ENDBRANCH  19  20
ENDBRANCH  13  19
ENDBRANCH  11  12
ENDBRANCH   6  11
ENDBRANCH   1   5
BRANCH   3  26
ATOM     26  C   UNL A   1      36.880  20.995  25.288  1.00  0.00     0.118 C 
BRANCH  26  27
ATOM     27  C   UNL A   1      38.224  20.367  24.937  1.00  0.00     0.042 C 
BRANCH  27  28
ATOM     28  C   UNL A   1      39.268  20.526  26.034  1.00  0.00     0.118 C 
BRANCH  28  29
ATOM     29  N   UNL A   1      40.248  19.449  26.024  1.00  0.00    -0.352 N 
ATOM     30  C   UNL A   1      41.622  19.515  26.074  1.00  0.00     0.251 C 
ATOM     31  H   UNL A   1      39.873  18.540  25.974  1.00  0.00     0.163 HD
ATOM     32  O   UNL A   1      42.285  18.511  25.846  1.00  0.00    -0.269 OA
BRANCH  30  33
ATOM     33  C   UNL A   1      42.287  20.802  26.378  1.00  0.00     0.039 A 
ATOM     34  C   UNL A   1      42.605  21.669  25.329  1.00  0.00     0.014 A 
ATOM     35  C   UNL A   1      42.592  21.154  27.695  1.00  0.00     0.014 A 
ATOM     36  C   UNL A   1      43.160  22.921  25.610  1.00  0.00     0.010 A 
ATOM     37  C   UNL A   1      43.066  22.431  27.978  1.00  0.00     0.010 A 
ATOM     38  C   UNL A   1      43.355  23.329  26.939  1.00  0.00    -0.014 A 
BRANCH  38  39
ATOM     39  C   UNL A   1      43.863  24.684  27.278  1.00  0.00     0.031 A 
ATOM     40  C   UNL A   1      42.916  25.724  27.814  1.00  0.00     0.074 A 
ATOM     41  C   UNL A   1      45.147  25.005  27.020  1.00  0.00     0.049 A 
ATOM     42  N   UNL A   1      43.120  26.997  28.035  1.00  0.00    -0.248 NA
ATOM     43  C   UNL A   1      41.547  25.274  28.108  1.00  0.00     0.031 C 
ATOM     44  C   UNL A   1      46.154  24.090  26.477  1.00  0.00     0.029 A 
ATOM     45  N   UNL A   1      45.823  26.191  27.163  1.00  0.00    -0.354 N 
ATOM     46  C   UNL A   1      41.902  27.504  28.476  1.00  0.00     0.074 A 
ATOM     47  C   UNL A   1      40.952  26.413  28.431  1.00  0.00     0.031 C 
ATOM     48  C   UNL A   1      47.319  24.743  26.352  1.00  0.00     0.029 A 
ATOM     49  C   UNL A   1      47.133  26.136  26.744  1.00  0.00     0.049 A 
ATOM     50  H   UNL A   1      45.409  27.006  27.530  1.00  0.00     0.167 HD
ATOM     51  C   UNL A   1      41.609  28.759  28.898  1.00  0.00     0.034 A 
ATOM     52  C   UNL A   1      48.071  27.102  26.663  1.00  0.00     0.034 A 
ATOM     53  C   UNL A   1      42.574  29.832  28.942  1.00  0.00     0.049 A 
ATOM     54  C   UNL A   1      47.711  28.503  27.094  1.00  0.00     0.074 A 
ATOM     55  C   UNL A   1      42.400  31.128  29.392  1.00  0.00     0.029 A 
ATOM     56  N   UNL A   1      43.892  29.736  28.512  1.00  0.00    -0.354 N 
ATOM     57  N   UNL A   1      46.563  28.960  27.541  1.00  0.00    -0.248 NA
ATOM     58  C   UNL A   1      48.772  29.515  27.020  1.00  0.00     0.031 C 
ATOM     59  C   UNL A   1      43.584  31.836  29.161  1.00  0.00     0.029 A 
ATOM     60  C   UNL A   1      44.530  30.958  28.656  1.00  0.00     0.049 A 
ATOM     61  H   UNL A   1      44.311  28.920  28.155  1.00  0.00     0.167 HD
ATOM     62  C   UNL A   1      46.781  30.303  27.842  1.00  0.00     0.074 A 
ATOM     63  C   UNL A   1      48.167  30.578  27.528  1.00  0.00     0.031 C 
ATOM     64  C   UNL A   1      45.916  31.219  28.343  1.00  0.00     0.034 A 
BRANCH  51  65
ATOM     65  C   UNL A   1      40.185  29.043  29.313  1.00  0.00     0.023 A 
ATOM     66  C   UNL A   1      39.794  29.048  30.664  1.00  0.00     0.031 A 
ATOM     67  C   UNL A   1      39.195  29.289  28.344  1.00  0.00     0.131 A 
ATOM     68  C   UNL A   1      38.443  29.214  31.003  1.00  0.00     0.055 A 
ATOM     69  C   UNL A   1      37.867  29.542  28.694  1.00  0.00     0.041 A 
ATOM     70  F   UNL A   1      39.500  29.273  27.036  1.00  0.00    -0.206 F 
ATOM     71  C   UNL A   1      37.481  29.490  30.029  1.00  0.00     0.022 A 
BRANCH  68  72
ATOM     72  S   UNL A   1      37.939  28.909  32.719  1.00  0.00     0.124 S 
ATOM     73  O   UNL A   1      39.060  29.483  33.461  1.00  0.00    -0.237 OA
ATOM     74  O   UNL A   1      36.675  29.629  32.810  1.00  0.00    -0.237 OA
ATOM     75  O   UNL A   1      37.836  27.453  32.791  1.00  0.00    -0.744 OA
ENDBRANCH  68  72
ENDBRANCH  51  65
BRANCH  52  76
ATOM     76  C   UNL A   1      49.433  26.792  26.138  1.00  0.00     0.023 A 
ATOM     77  C   UNL A   1      49.823  27.203  24.853  1.00  0.00     0.031 A 
ATOM     78  C   UNL A   1      50.351  26.043  26.895  1.00  0.00     0.131 A 
ATOM     79  C   UNL A   1      51.074  26.819  24.345  1.00  0.00     0.055 A 
ATOM     80  C   UNL A   1      51.618  25.715  26.408  1.00  0.00     0.041 A 
ATOM     81  F   UNL A   1      50.032  25.625  28.131  1.00  0.00    -0.206 F 
ATOM     82  C   UNL A   1      51.980  26.091  25.119  1.00  0.00     0.022 A 
BRANCH  79  83
ATOM     83  S   UNL A   1      51.460  27.199  22.613  1.00  0.00     0.124 S 
ATOM     84  O   UNL A   1      50.257  26.732  21.933  1.00  0.00    -0.237 OA
ATOM     85  O   UNL A   1      51.653  28.644  22.657  1.00  0.00    -0.237 OA
ATOM     86  O   UNL A   1      52.667  26.418  22.355  1.00  0.00    -0.744 OA
ENDBRANCH  79  83
ENDBRANCH  52  76
BRANCH  64  87
ATOM     87  C   UNL A   1      46.462  32.592  28.655  1.00  0.00     0.023 A 
ATOM     88  C   UNL A   1      46.372  33.660  27.745  1.00  0.00     0.031 A 
ATOM     89  C   UNL A   1      47.071  32.834  29.900  1.00  0.00     0.131 A 
ATOM     90  C   UNL A   1      46.924  34.907  28.077  1.00  0.00     0.055 A 
ATOM     91  C   UNL A   1      47.561  34.092  30.249  1.00  0.00     0.041 A 
ATOM     92  F   UNL A   1      47.190  31.849  30.805  1.00  0.00    -0.206 F 
ATOM     93  C   UNL A   1      47.498  35.135  29.330  1.00  0.00     0.022 A 
BRANCH  90  94
ATOM     94  S   UNL A   1      46.955  36.211  26.816  1.00  0.00     0.124 S 
ATOM     95  O   UNL A   1      45.857  37.072  27.245  1.00  0.00    -0.237 OA
ATOM     96  O   UNL A   1      48.296  36.764  26.971  1.00  0.00    -0.237 OA
ATOM     97  O   UNL A   1      46.725  35.488  25.568  1.00  0.00    -0.744 OA
ENDBRANCH  90  94
ENDBRANCH  64  87
ENDBRANCH  38  39
ENDBRANCH  30  33
ENDBRANCH  28  29
ENDBRANCH  27  28
ENDBRANCH  26  27
ENDBRANCH   3  26
TORSDOF 19
ENDMDL
