MODEL 1
REMARK VINA RESULT:     -11.1      0.000      0.000
REMARK SMILES CN(Cc1ccc(Cl)cc1Cl)S(=O)(=O)CCCC(=O)NCCCNC(=O)c1ccc(-c2c3nc(c(-c4cc(S(=O)(=O)[O-])ccc4F)c4ccc([nH]4)c(-c4cc(S(=O)(=O)[O-])ccc4F)c4nc(c(-c5cc(S(=O)(=O)[O-])ccc5F)c5ccc2[nH]5)C=C4)C=C3)cc1
REMARK SMILES IDX 18 1 19 2 20 3 17 5 16 6 15 7 12 8 13 9 14 10 2 11 1 12 3 13
REMARK SMILES IDX 4 14 5 15 10 16 6 17 9 18 11 19 7 20 8 21 21 22 22 23 23 24
REMARK SMILES IDX 24 25 25 26 26 28 27 29 28 30 89 31 29 32 88 33 30 34 31 35
REMARK SMILES IDX 32 36 82 37 33 38 87 39 81 40 83 41 34 42 86 43 80 44 79 45
REMARK SMILES IDX 35 47 67 48 47 49 66 50 48 51 51 52 65 53 84 54 49 55 50 56
REMARK SMILES IDX 64 58 85 59 52 60 36 61 37 62 45 63 38 64 44 65 46 66 43 67
REMARK SMILES IDX 39 68 40 69 41 70 42 71 68 72 69 73 77 74 70 75 76 76 78 77
REMARK SMILES IDX 75 78 71 79 72 80 73 81 74 82 53 83 54 84 62 85 55 86 61 87
REMARK SMILES IDX 63 88 60 89 56 90 57 91 58 92 59 93
REMARK H PARENT 20 4 24 27 83 46 51 57
REMARK Flexibility Score: inf
ROOT
ATOM      1  C   UNL A   1      33.264  26.000  26.082  1.00  0.00     0.220 C 
ATOM      2  O   UNL A   1      32.230  25.940  26.750  1.00  0.00    -0.275 OA
ATOM      3  N   UNL A   1      33.829  24.828  25.663  1.00  0.00    -0.356 N 
ATOM      4  H   UNL A   1      33.429  24.000  26.014  1.00  0.00     0.163 HD
ENDROOT
BRANCH   1   5
ATOM      5  C   UNL A   1      33.870  27.351  25.692  1.00  0.00     0.101 C 
BRANCH   5   6
ATOM      6  C   UNL A   1      32.941  28.287  24.913  1.00  0.00     0.027 C 
BRANCH   6   7
ATOM      7  C   UNL A   1      32.579  27.913  23.472  1.00  0.00     0.155 C 
BRANCH   7   8
ATOM      8  S   UNL A   1      30.991  27.126  23.162  1.00  0.00     0.214 S 
ATOM      9  O   UNL A   1      30.420  27.754  21.988  1.00  0.00    -0.212 OA
ATOM     10  O   UNL A   1      30.245  27.148  24.404  1.00  0.00    -0.212 OA
BRANCH   8  11
ATOM     11  N   UNL A   1      31.186  25.515  22.763  1.00  0.00    -0.201 NA
ATOM     12  C   UNL A   1      32.360  25.185  21.941  1.00  0.00     0.124 C 
BRANCH  11  13
ATOM     13  C   UNL A   1      30.527  24.368  23.379  1.00  0.00     0.138 C 
BRANCH  13  14
ATOM     14  C   UNL A   1      31.291  23.157  23.872  1.00  0.00    -0.014 A 
ATOM     15  C   UNL A   1      31.951  22.358  22.913  1.00  0.00     0.008 A 
ATOM     16  C   UNL A   1      31.256  22.675  25.193  1.00  0.00     0.047 A 
ATOM     17  C   UNL A   1      32.568  21.153  23.266  1.00  0.00     0.021 A 
ATOM     18  C   UNL A   1      31.893  21.481  25.550  1.00  0.00     0.041 A 
ATOM     19  Cl  UNL A   1      30.366  23.439  26.449  1.00  0.00    -0.084 Cl
ATOM     20  C   UNL A   1      32.550  20.728  24.588  1.00  0.00     0.042 A 
ATOM     21  Cl  UNL A   1      33.325  19.259  25.034  1.00  0.00    -0.084 Cl
ENDBRANCH  13  14
ENDBRANCH  11  13
ENDBRANCH   8  11
ENDBRANCH   7   8
ENDBRANCH   6   7
ENDBRANCH   5   6
ENDBRANCH   1   5
BRANCH   3  22
ATOM     22  C   UNL A   1      34.944  24.666  24.767  1.00  0.00     0.117 C 
BRANCH  22  23
ATOM     23  C   UNL A   1      35.406  23.245  24.527  1.00  0.00     0.042 C 
BRANCH  23  24
ATOM     24  C   UNL A   1      35.881  22.557  25.793  1.00  0.00     0.118 C 
BRANCH  24  25
ATOM     25  N   UNL A   1      36.864  21.502  25.546  1.00  0.00    -0.352 N 
ATOM     26  C   UNL A   1      38.229  21.451  25.727  1.00  0.00     0.251 C 
ATOM     27  H   UNL A   1      36.478  20.672  25.183  1.00  0.00     0.163 HD
ATOM     28  O   UNL A   1      38.836  20.452  25.343  1.00  0.00    -0.269 OA
BRANCH  26  29
ATOM     29  C   UNL A   1      38.967  22.580  26.333  1.00  0.00     0.039 A 
ATOM     30  C   UNL A   1      40.045  22.330  27.190  1.00  0.00     0.014 A 
ATOM     31  C   UNL A   1      38.594  23.894  26.068  1.00  0.00     0.014 A 
ATOM     32  C   UNL A   1      40.807  23.397  27.684  1.00  0.00     0.010 A 
ATOM     33  C   UNL A   1      39.424  24.939  26.446  1.00  0.00     0.010 A 
ATOM     34  C   UNL A   1      40.536  24.709  27.269  1.00  0.00    -0.014 A 
BRANCH  34  35
ATOM     35  C   UNL A   1      41.350  25.882  27.690  1.00  0.00     0.031 A 
ATOM     36  C   UNL A   1      40.705  26.962  28.521  1.00  0.00     0.074 A 
ATOM     37  C   UNL A   1      42.603  26.046  27.220  1.00  0.00     0.049 A 
ATOM     38  N   UNL A   1      41.119  28.175  28.781  1.00  0.00    -0.248 NA
ATOM     39  C   UNL A   1      39.382  26.647  29.085  1.00  0.00     0.031 C 
ATOM     40  C   UNL A   1      43.328  25.091  26.378  1.00  0.00     0.029 A 
ATOM     41  N   UNL A   1      43.481  27.092  27.361  1.00  0.00    -0.354 N 
ATOM     42  C   UNL A   1      40.088  28.782  29.492  1.00  0.00     0.074 A 
ATOM     43  C   UNL A   1      39.006  27.823  29.563  1.00  0.00     0.031 C 
ATOM     44  C   UNL A   1      44.543  25.587  26.094  1.00  0.00     0.029 A 
ATOM     45  C   UNL A   1      44.663  26.919  26.677  1.00  0.00     0.049 A 
ATOM     46  H   UNL A   1      43.284  27.891  27.901  1.00  0.00     0.167 HD
ATOM     47  C   UNL A   1      40.055  30.015  30.055  1.00  0.00     0.034 A 
ATOM     48  C   UNL A   1      45.711  27.751  26.513  1.00  0.00     0.034 A 
ATOM     49  C   UNL A   1      41.165  30.935  30.014  1.00  0.00     0.049 A 
ATOM     50  C   UNL A   1      45.656  29.118  27.149  1.00  0.00     0.074 A 
ATOM     51  C   UNL A   1      41.279  32.177  30.612  1.00  0.00     0.029 A 
ATOM     52  N   UNL A   1      42.359  30.708  29.339  1.00  0.00    -0.354 N 
ATOM     53  N   UNL A   1      44.688  29.668  27.845  1.00  0.00    -0.248 NA
ATOM     54  C   UNL A   1      46.836  29.974  26.979  1.00  0.00     0.031 C 
ATOM     55  C   UNL A   1      42.514  32.726  30.248  1.00  0.00     0.029 A 
ATOM     56  C   UNL A   1      43.203  31.798  29.484  1.00  0.00     0.049 A 
ATOM     57  H   UNL A   1      42.574  29.892  28.833  1.00  0.00     0.167 HD
ATOM     58  C   UNL A   1      45.154  30.925  28.217  1.00  0.00     0.074 A 
ATOM     59  C   UNL A   1      46.497  31.043  27.684  1.00  0.00     0.031 C 
ATOM     60  C   UNL A   1      44.534  31.897  28.934  1.00  0.00     0.034 A 
BRANCH  47  61
ATOM     61  C   UNL A   1      38.776  30.437  30.741  1.00  0.00     0.023 A 
ATOM     62  C   UNL A   1      37.773  31.152  30.061  1.00  0.00     0.031 A 
ATOM     63  C   UNL A   1      38.571  30.159  32.104  1.00  0.00     0.131 A 
ATOM     64  C   UNL A   1      36.662  31.643  30.763  1.00  0.00     0.055 A 
ATOM     65  C   UNL A   1      37.418  30.570  32.775  1.00  0.00     0.041 A 
ATOM     66  F   UNL A   1      39.499  29.498  32.813  1.00  0.00    -0.206 F 
ATOM     67  C   UNL A   1      36.463  31.334  32.110  1.00  0.00     0.022 A 
BRANCH  64  68
ATOM     68  S   UNL A   1      35.569  32.826  29.930  1.00  0.00     0.124 S 
ATOM     69  O   UNL A   1      34.799  33.356  31.053  1.00  0.00    -0.237 OA
ATOM     70  O   UNL A   1      36.513  33.748  29.311  1.00  0.00    -0.237 OA
ATOM     71  O   UNL A   1      34.807  31.993  29.001  1.00  0.00    -0.744 OA
ENDBRANCH  64  68
ENDBRANCH  47  61
BRANCH  48  72
ATOM     72  C   UNL A   1      46.894  27.334  25.705  1.00  0.00     0.023 A 
ATOM     73  C   UNL A   1      47.052  27.779  24.383  1.00  0.00     0.031 A 
ATOM     74  C   UNL A   1      47.863  26.458  26.225  1.00  0.00     0.131 A 
ATOM     75  C   UNL A   1      48.125  27.310  23.609  1.00  0.00     0.055 A 
ATOM     76  C   UNL A   1      48.960  26.038  25.469  1.00  0.00     0.041 A 
ATOM     77  F   UNL A   1      47.764  26.007  27.486  1.00  0.00    -0.206 F 
ATOM     78  C   UNL A   1      49.088  26.454  24.148  1.00  0.00     0.022 A 
BRANCH  75  79
ATOM     79  S   UNL A   1      48.197  27.772  21.856  1.00  0.00     0.124 S 
ATOM     80  O   UNL A   1      49.334  28.684  21.836  1.00  0.00    -0.237 OA
ATOM     81  O   UNL A   1      48.401  26.478  21.211  1.00  0.00    -0.237 OA
ATOM     82  O   UNL A   1      46.895  28.389  21.614  1.00  0.00    -0.744 OA
ENDBRANCH  75  79
ENDBRANCH  48  72
BRANCH  60  83
ATOM     83  C   UNL A   1      45.324  33.151  29.211  1.00  0.00     0.023 A 
ATOM     84  C   UNL A   1      45.209  34.290  28.396  1.00  0.00     0.031 A 
ATOM     85  C   UNL A   1      46.211  33.201  30.300  1.00  0.00     0.131 A 
ATOM     86  C   UNL A   1      46.010  35.413  28.651  1.00  0.00     0.055 A 
ATOM     87  C   UNL A   1      46.959  34.343  30.586  1.00  0.00     0.041 A 
ATOM     88  F   UNL A   1      46.361  32.140  31.110  1.00  0.00    -0.206 F 
ATOM     89  C   UNL A   1      46.871  35.454  29.751  1.00  0.00     0.022 A 
BRANCH  86  90
ATOM     90  S   UNL A   1      45.976  36.791  27.472  1.00  0.00     0.124 S 
ATOM     91  O   UNL A   1      44.545  37.044  27.344  1.00  0.00    -0.237 OA
ATOM     92  O   UNL A   1      46.746  37.817  28.169  1.00  0.00    -0.237 OA
ATOM     93  O   UNL A   1      46.618  36.238  26.281  1.00  0.00    -0.744 OA
ENDBRANCH  86  90
ENDBRANCH  60  83
ENDBRANCH  34  35
ENDBRANCH  26  29
ENDBRANCH  24  25
ENDBRANCH  23  24
ENDBRANCH  22  23
ENDBRANCH   3  22
TORSDOF 19
ENDMDL
MODEL 2
REMARK VINA RESULT:     -11.1      1.686      3.130
REMARK SMILES CN(Cc1ccc(Cl)cc1Cl)S(=O)(=O)CCCC(=O)NCCCNC(=O)c1ccc(-c2c3nc(c(-c4cc(S(=O)(=O)[O-])ccc4F)c4ccc([nH]4)c(-c4cc(S(=O)(=O)[O-])ccc4F)c4nc(c(-c5cc(S(=O)(=O)[O-])ccc5F)c5ccc2[nH]5)C=C4)C=C3)cc1
REMARK SMILES IDX 18 1 19 2 20 3 17 5 16 6 15 7 12 8 13 9 14 10 2 11 1 12 3 13
REMARK SMILES IDX 4 14 5 15 10 16 6 17 9 18 11 19 7 20 8 21 21 22 22 23 23 24
REMARK SMILES IDX 24 25 25 26 26 28 27 29 28 30 89 31 29 32 88 33 30 34 31 35
REMARK SMILES IDX 32 36 82 37 33 38 87 39 81 40 83 41 34 42 86 43 80 44 79 45
REMARK SMILES IDX 35 47 67 48 47 49 66 50 48 51 51 52 65 53 84 54 49 55 50 56
REMARK SMILES IDX 64 58 85 59 52 60 36 61 37 62 45 63 38 64 44 65 46 66 43 67
REMARK SMILES IDX 39 68 40 69 41 70 42 71 68 72 69 73 77 74 70 75 76 76 78 77
REMARK SMILES IDX 75 78 71 79 72 80 73 81 74 82 53 83 54 84 62 85 55 86 61 87
REMARK SMILES IDX 63 88 60 89 56 90 57 91 58 92 59 93
REMARK H PARENT 20 4 24 27 83 46 51 57
REMARK Flexibility Score: inf
ROOT
ATOM      1  C   UNL A   1      32.736  19.661  25.005  1.00  0.00     0.220 C 
ATOM      2  O   UNL A   1      32.175  18.597  25.271  1.00  0.00    -0.275 OA
ATOM      3  N   UNL A   1      33.575  20.198  25.942  1.00  0.00    -0.356 N 
ATOM      4  H   UNL A   1      33.596  19.750  26.819  1.00  0.00     0.163 HD
ENDROOT
BRANCH   1   5
ATOM      5  C   UNL A   1      32.537  20.338  23.646  1.00  0.00     0.101 C 
BRANCH   5   6
ATOM      6  C   UNL A   1      31.904  21.731  23.694  1.00  0.00     0.027 C 
BRANCH   6   7
ATOM      7  C   UNL A   1      32.576  22.860  22.906  1.00  0.00     0.155 C 
BRANCH   7   8
ATOM      8  S   UNL A   1      32.138  24.560  23.295  1.00  0.00     0.214 S 
ATOM      9  O   UNL A   1      32.727  24.876  24.580  1.00  0.00    -0.212 OA
ATOM     10  O   UNL A   1      30.703  24.687  23.131  1.00  0.00    -0.212 OA
BRANCH   8  11
ATOM     11  N   UNL A   1      32.828  25.624  22.207  1.00  0.00    -0.201 NA
ATOM     12  C   UNL A   1      32.360  25.528  20.817  1.00  0.00     0.124 C 
BRANCH  11  13
ATOM     13  C   UNL A   1      33.591  26.830  22.516  1.00  0.00     0.138 C 
BRANCH  13  14
ATOM     14  C   UNL A   1      33.095  27.883  23.483  1.00  0.00    -0.014 A 
ATOM     15  C   UNL A   1      33.923  28.216  24.578  1.00  0.00     0.008 A 
ATOM     16  C   UNL A   1      31.801  28.434  23.467  1.00  0.00     0.047 A 
ATOM     17  C   UNL A   1      33.485  29.079  25.588  1.00  0.00     0.021 A 
ATOM     18  C   UNL A   1      31.373  29.316  24.466  1.00  0.00     0.041 A 
ATOM     19  Cl  UNL A   1      30.614  28.014  22.298  1.00  0.00    -0.084 Cl
ATOM     20  C   UNL A   1      32.217  29.639  25.519  1.00  0.00     0.042 A 
ATOM     21  Cl  UNL A   1      31.680  30.719  26.745  1.00  0.00    -0.084 Cl
ENDBRANCH  13  14
ENDBRANCH  11  13
ENDBRANCH   8  11
ENDBRANCH   7   8
ENDBRANCH   6   7
ENDBRANCH   5   6
ENDBRANCH   1   5
BRANCH   3  22
ATOM     22  C   UNL A   1      34.433  21.345  25.793  1.00  0.00     0.117 C 
BRANCH  22  23
ATOM     23  C   UNL A   1      35.547  21.217  24.775  1.00  0.00     0.042 C 
BRANCH  23  24
ATOM     24  C   UNL A   1      36.879  21.727  25.292  1.00  0.00     0.118 C 
BRANCH  24  25
ATOM     25  N   UNL A   1      37.875  20.669  25.467  1.00  0.00    -0.352 N 
ATOM     26  C   UNL A   1      39.157  20.683  25.972  1.00  0.00     0.251 C 
ATOM     27  H   UNL A   1      37.573  19.781  25.169  1.00  0.00     0.163 HD
ATOM     28  O   UNL A   1      39.822  19.648  25.918  1.00  0.00    -0.269 OA
BRANCH  26  29
ATOM     29  C   UNL A   1      39.749  21.915  26.536  1.00  0.00     0.039 A 
ATOM     30  C   UNL A   1      40.732  21.828  27.529  1.00  0.00     0.014 A 
ATOM     31  C   UNL A   1      39.330  23.167  26.096  1.00  0.00     0.014 A 
ATOM     32  C   UNL A   1      41.363  22.989  27.991  1.00  0.00     0.010 A 
ATOM     33  C   UNL A   1      40.044  24.301  26.454  1.00  0.00     0.010 A 
ATOM     34  C   UNL A   1      41.064  24.232  27.414  1.00  0.00    -0.014 A 
BRANCH  34  35
ATOM     35  C   UNL A   1      41.750  25.496  27.799  1.00  0.00     0.031 A 
ATOM     36  C   UNL A   1      40.981  26.545  28.561  1.00  0.00     0.074 A 
ATOM     37  C   UNL A   1      42.995  25.758  27.353  1.00  0.00     0.049 A 
ATOM     38  N   UNL A   1      41.269  27.803  28.773  1.00  0.00    -0.248 NA
ATOM     39  C   UNL A   1      39.677  26.130  29.106  1.00  0.00     0.031 C 
ATOM     40  C   UNL A   1      43.832  24.841  26.577  1.00  0.00     0.029 A 
ATOM     41  N   UNL A   1      43.766  26.889  27.467  1.00  0.00    -0.354 N 
ATOM     42  C   UNL A   1      40.165  28.339  29.428  1.00  0.00     0.074 A 
ATOM     43  C   UNL A   1      39.178  27.284  29.517  1.00  0.00     0.031 C 
ATOM     44  C   UNL A   1      45.003  25.438  26.300  1.00  0.00     0.029 A 
ATOM     45  C   UNL A   1      44.978  26.801  26.821  1.00  0.00     0.049 A 
ATOM     46  H   UNL A   1      43.478  27.690  27.962  1.00  0.00     0.167 HD
ATOM     47  C   UNL A   1      39.998  29.588  29.931  1.00  0.00     0.034 A 
ATOM     48  C   UNL A   1      45.947  27.721  26.644  1.00  0.00     0.034 A 
ATOM     49  C   UNL A   1      41.017  30.607  29.873  1.00  0.00     0.049 A 
ATOM     50  C   UNL A   1      45.743  29.104  27.212  1.00  0.00     0.074 A 
ATOM     51  C   UNL A   1      40.994  31.881  30.414  1.00  0.00     0.029 A 
ATOM     52  N   UNL A   1      42.246  30.466  29.241  1.00  0.00    -0.354 N 
ATOM     53  N   UNL A   1      44.706  29.589  27.856  1.00  0.00    -0.248 NA
ATOM     54  C   UNL A   1      46.841  30.061  27.031  1.00  0.00     0.031 C 
ATOM     55  C   UNL A   1      42.181  32.529  30.055  1.00  0.00     0.029 A 
ATOM     56  C   UNL A   1      42.978  31.637  29.354  1.00  0.00     0.049 A 
ATOM     57  H   UNL A   1      42.552  29.652  28.779  1.00  0.00     0.167 HD
ATOM     58  C   UNL A   1      45.040  30.901  28.180  1.00  0.00     0.074 A 
ATOM     59  C   UNL A   1      46.381  31.123  27.676  1.00  0.00     0.031 C 
ATOM     60  C   UNL A   1      44.309  31.840  28.834  1.00  0.00     0.034 A 
BRANCH  47  61
ATOM     61  C   UNL A   1      38.665  29.915  30.562  1.00  0.00     0.023 A 
ATOM     62  C   UNL A   1      37.656  30.590  29.853  1.00  0.00     0.031 A 
ATOM     63  C   UNL A   1      38.411  29.586  31.906  1.00  0.00     0.131 A 
ATOM     64  C   UNL A   1      36.485  30.996  30.512  1.00  0.00     0.055 A 
ATOM     65  C   UNL A   1      37.205  29.910  32.530  1.00  0.00     0.041 A 
ATOM     66  F   UNL A   1      39.342  28.959  32.643  1.00  0.00    -0.206 F 
ATOM     67  C   UNL A   1      36.240  30.637  31.839  1.00  0.00     0.022 A 
BRANCH  64  68
ATOM     68  S   UNL A   1      35.365  32.137  29.657  1.00  0.00     0.124 S 
ATOM     69  O   UNL A   1      34.414  32.464  30.717  1.00  0.00    -0.237 OA
ATOM     70  O   UNL A   1      36.261  33.213  29.249  1.00  0.00    -0.237 OA
ATOM     71  O   UNL A   1      34.819  31.330  28.568  1.00  0.00    -0.744 OA
ENDBRANCH  64  68
ENDBRANCH  47  61
BRANCH  48  72
ATOM     72  C   UNL A   1      47.187  27.385  25.887  1.00  0.00     0.023 A 
ATOM     73  C   UNL A   1      47.314  27.724  24.531  1.00  0.00     0.031 A 
ATOM     74  C   UNL A   1      48.247  26.686  26.493  1.00  0.00     0.131 A 
ATOM     75  C   UNL A   1      48.452  27.326  23.811  1.00  0.00     0.055 A 
ATOM     76  C   UNL A   1      49.401  26.340  25.787  1.00  0.00     0.041 A 
ATOM     77  F   UNL A   1      48.181  26.342  27.789  1.00  0.00    -0.206 F 
ATOM     78  C   UNL A   1      49.503  26.649  24.435  1.00  0.00     0.022 A 
BRANCH  75  79
ATOM     79  S   UNL A   1      48.499  27.633  22.024  1.00  0.00     0.124 S 
ATOM     80  O   UNL A   1      48.734  26.293  21.500  1.00  0.00    -0.237 OA
ATOM     81  O   UNL A   1      47.174  28.195  21.780  1.00  0.00    -0.237 OA
ATOM     82  O   UNL A   1      49.609  28.569  21.870  1.00  0.00    -0.744 OA
ENDBRANCH  75  79
ENDBRANCH  48  72
BRANCH  60  83
ATOM     83  C   UNL A   1      44.968  33.176  29.070  1.00  0.00     0.023 A 
ATOM     84  C   UNL A   1      44.781  34.256  28.192  1.00  0.00     0.031 A 
ATOM     85  C   UNL A   1      45.803  33.364  30.186  1.00  0.00     0.131 A 
ATOM     86  C   UNL A   1      45.462  35.461  28.414  1.00  0.00     0.055 A 
ATOM     87  C   UNL A   1      46.430  34.585  30.436  1.00  0.00     0.041 A 
ATOM     88  F   UNL A   1      46.018  32.364  31.056  1.00  0.00    -0.206 F 
ATOM     89  C   UNL A   1      46.272  35.639  29.539  1.00  0.00     0.022 A 
BRANCH  86  90
ATOM     90  S   UNL A   1      45.348  36.769  27.161  1.00  0.00     0.124 S 
ATOM     91  O   UNL A   1      45.900  37.917  27.872  1.00  0.00    -0.237 OA
ATOM     92  O   UNL A   1      46.167  36.235  26.078  1.00  0.00    -0.237 OA
ATOM     93  O   UNL A   1      43.917  36.845  26.875  1.00  0.00    -0.744 OA
ENDBRANCH  86  90
ENDBRANCH  60  83
ENDBRANCH  34  35
ENDBRANCH  26  29
ENDBRANCH  24  25
ENDBRANCH  23  24
ENDBRANCH  22  23
ENDBRANCH   3  22
TORSDOF 19
ENDMDL
MODEL 3
REMARK VINA RESULT:     -11.0      5.673     10.542
REMARK SMILES CN(Cc1ccc(Cl)cc1Cl)S(=O)(=O)CCCC(=O)NCCCNC(=O)c1ccc(-c2c3nc(c(-c4cc(S(=O)(=O)[O-])ccc4F)c4ccc([nH]4)c(-c4cc(S(=O)(=O)[O-])ccc4F)c4nc(c(-c5cc(S(=O)(=O)[O-])ccc5F)c5ccc2[nH]5)C=C4)C=C3)cc1
REMARK SMILES IDX 18 1 19 2 20 3 17 5 16 6 15 7 12 8 13 9 14 10 2 11 1 12 3 13
REMARK SMILES IDX 4 14 5 15 10 16 6 17 9 18 11 19 7 20 8 21 21 22 22 23 23 24
REMARK SMILES IDX 24 25 25 26 26 28 27 29 28 30 89 31 29 32 88 33 30 34 31 35
REMARK SMILES IDX 32 36 82 37 33 38 87 39 81 40 83 41 34 42 86 43 80 44 79 45
REMARK SMILES IDX 35 47 67 48 47 49 66 50 48 51 51 52 65 53 84 54 49 55 50 56
REMARK SMILES IDX 64 58 85 59 52 60 36 61 37 62 45 63 38 64 44 65 46 66 43 67
REMARK SMILES IDX 39 68 40 69 41 70 42 71 68 72 69 73 77 74 70 75 76 76 78 77
REMARK SMILES IDX 75 78 71 79 72 80 73 81 74 82 53 83 54 84 62 85 55 86 61 87
REMARK SMILES IDX 63 88 60 89 56 90 57 91 58 92 59 93
REMARK H PARENT 20 4 24 27 83 46 51 57
REMARK Flexibility Score: inf
ROOT
ATOM      1  C   UNL A   1      31.339  28.917  23.839  1.00  0.00     0.220 C 
ATOM      2  O   UNL A   1      31.084  29.202  22.668  1.00  0.00    -0.275 OA
ATOM      3  N   UNL A   1      31.910  29.878  24.626  1.00  0.00    -0.356 N 
ATOM      4  H   UNL A   1      32.181  30.710  24.173  1.00  0.00     0.163 HD
ENDROOT
BRANCH   1   5
ATOM      5  C   UNL A   1      30.981  27.542  24.410  1.00  0.00     0.101 C 
BRANCH   5   6
ATOM      6  C   UNL A   1      32.164  26.593  24.622  1.00  0.00     0.027 C 
BRANCH   6   7
ATOM      7  C   UNL A   1      32.922  26.094  23.388  1.00  0.00     0.155 C 
BRANCH   7   8
ATOM      8  S   UNL A   1      33.556  24.410  23.392  1.00  0.00     0.214 S 
ATOM      9  O   UNL A   1      34.760  24.402  24.197  1.00  0.00    -0.212 OA
ATOM     10  O   UNL A   1      33.631  23.971  22.012  1.00  0.00    -0.212 OA
BRANCH   8  11
ATOM     11  N   UNL A   1      32.494  23.369  24.156  1.00  0.00    -0.201 NA
ATOM     12  C   UNL A   1      31.141  23.287  23.586  1.00  0.00     0.124 C 
BRANCH  11  13
ATOM     13  C   UNL A   1      32.826  22.311  25.105  1.00  0.00     0.138 C 
BRANCH  13  14
ATOM     14  C   UNL A   1      33.265  20.931  24.665  1.00  0.00    -0.014 A 
ATOM     15  C   UNL A   1      32.303  20.094  24.058  1.00  0.00     0.008 A 
ATOM     16  C   UNL A   1      34.515  20.359  24.965  1.00  0.00     0.047 A 
ATOM     17  C   UNL A   1      32.589  18.762  23.743  1.00  0.00     0.021 A 
ATOM     18  C   UNL A   1      34.808  19.032  24.628  1.00  0.00     0.041 A 
ATOM     19  Cl  UNL A   1      35.742  21.184  25.840  1.00  0.00    -0.084 Cl
ATOM     20  C   UNL A   1      33.847  18.240  24.015  1.00  0.00     0.042 A 
ATOM     21  Cl  UNL A   1      34.213  16.610  23.610  1.00  0.00    -0.084 Cl
ENDBRANCH  13  14
ENDBRANCH  11  13
ENDBRANCH   8  11
ENDBRANCH   7   8
ENDBRANCH   6   7
ENDBRANCH   5   6
ENDBRANCH   1   5
BRANCH   3  22
ATOM     22  C   UNL A   1      32.162  29.814  26.042  1.00  0.00     0.117 C 
BRANCH  22  23
ATOM     23  C   UNL A   1      31.827  31.058  26.837  1.00  0.00     0.042 C 
BRANCH  23  24
ATOM     24  C   UNL A   1      33.055  31.863  27.218  1.00  0.00     0.118 C 
BRANCH  24  25
ATOM     25  N   UNL A   1      32.756  33.259  27.541  1.00  0.00    -0.352 N 
ATOM     26  C   UNL A   1      33.302  34.131  28.457  1.00  0.00     0.251 C 
ATOM     27  H   UNL A   1      32.029  33.647  27.003  1.00  0.00     0.163 HD
ATOM     28  O   UNL A   1      32.789  35.243  28.587  1.00  0.00    -0.269 OA
BRANCH  26  29
ATOM     29  C   UNL A   1      34.453  33.743  29.299  1.00  0.00     0.039 A 
ATOM     30  C   UNL A   1      34.291  32.782  30.304  1.00  0.00     0.014 A 
ATOM     31  C   UNL A   1      35.700  34.331  29.111  1.00  0.00     0.014 A 
ATOM     32  C   UNL A   1      35.401  32.341  31.035  1.00  0.00     0.010 A 
ATOM     33  C   UNL A   1      36.818  33.803  29.739  1.00  0.00     0.010 A 
ATOM     34  C   UNL A   1      36.685  32.808  30.718  1.00  0.00    -0.014 A 
BRANCH  34  35
ATOM     35  C   UNL A   1      37.919  32.325  31.398  1.00  0.00     0.031 A 
ATOM     36  C   UNL A   1      38.734  31.235  30.750  1.00  0.00     0.074 A 
ATOM     37  C   UNL A   1      38.227  32.757  32.637  1.00  0.00     0.049 A 
ATOM     38  N   UNL A   1      39.675  30.481  31.258  1.00  0.00    -0.248 NA
ATOM     39  C   UNL A   1      38.395  30.909  29.354  1.00  0.00     0.031 C 
ATOM     40  C   UNL A   1      37.499  33.783  33.387  1.00  0.00     0.029 A 
ATOM     41  N   UNL A   1      39.222  32.365  33.499  1.00  0.00    -0.354 N 
ATOM     42  C   UNL A   1      40.003  29.565  30.264  1.00  0.00     0.074 A 
ATOM     43  C   UNL A   1      39.112  29.816  29.151  1.00  0.00     0.031 C 
ATOM     44  C   UNL A   1      38.080  33.951  34.585  1.00  0.00     0.029 A 
ATOM     45  C   UNL A   1      39.182  33.003  34.718  1.00  0.00     0.049 A 
ATOM     46  H   UNL A   1      39.900  31.689  33.267  1.00  0.00     0.167 HD
ATOM     47  C   UNL A   1      40.972  28.616  30.269  1.00  0.00     0.034 A 
ATOM     48  C   UNL A   1      39.928  32.823  35.826  1.00  0.00     0.034 A 
ATOM     49  C   UNL A   1      41.880  28.418  31.372  1.00  0.00     0.049 A 
ATOM     50  C   UNL A   1      41.003  31.764  35.811  1.00  0.00     0.074 A 
ATOM     51  C   UNL A   1      42.950  27.545  31.463  1.00  0.00     0.029 A 
ATOM     52  N   UNL A   1      41.829  29.109  32.577  1.00  0.00    -0.354 N 
ATOM     53  N   UNL A   1      41.323  30.925  34.854  1.00  0.00    -0.248 NA
ATOM     54  C   UNL A   1      41.818  31.633  37.025  1.00  0.00     0.031 C 
ATOM     55  C   UNL A   1      43.504  27.663  32.742  1.00  0.00     0.029 A 
ATOM     56  C   UNL A   1      42.830  28.663  33.425  1.00  0.00     0.049 A 
ATOM     57  H   UNL A   1      41.177  29.813  32.795  1.00  0.00     0.167 HD
ATOM     58  C   UNL A   1      42.394  30.182  35.342  1.00  0.00     0.074 A 
ATOM     59  C   UNL A   1      42.676  30.688  36.671  1.00  0.00     0.031 C 
ATOM     60  C   UNL A   1      43.085  29.174  34.751  1.00  0.00     0.034 A 
BRANCH  47  61
ATOM     61  C   UNL A   1      41.080  27.720  29.057  1.00  0.00     0.023 A 
ATOM     62  C   UNL A   1      42.072  27.914  28.079  1.00  0.00     0.031 A 
ATOM     63  C   UNL A   1      40.153  26.682  28.852  1.00  0.00     0.131 A 
ATOM     64  C   UNL A   1      42.057  27.149  26.903  1.00  0.00     0.055 A 
ATOM     65  C   UNL A   1      40.202  25.863  27.723  1.00  0.00     0.041 A 
ATOM     66  F   UNL A   1      39.170  26.459  29.739  1.00  0.00    -0.206 F 
ATOM     67  C   UNL A   1      41.146  26.106  26.729  1.00  0.00     0.022 A 
BRANCH  64  68
ATOM     68  S   UNL A   1      43.142  27.646  25.538  1.00  0.00     0.124 S 
ATOM     69  O   UNL A   1      43.720  26.364  25.141  1.00  0.00    -0.237 OA
ATOM     70  O   UNL A   1      42.207  28.244  24.592  1.00  0.00    -0.237 OA
ATOM     71  O   UNL A   1      44.080  28.576  26.165  1.00  0.00    -0.744 OA
ENDBRANCH  64  68
ENDBRANCH  47  61
BRANCH  48  72
ATOM     72  C   UNL A   1      39.684  33.643  37.048  1.00  0.00     0.023 A 
ATOM     73  C   UNL A   1      38.956  33.122  38.129  1.00  0.00     0.031 A 
ATOM     74  C   UNL A   1      40.140  34.971  37.141  1.00  0.00     0.131 A 
ATOM     75  C   UNL A   1      38.663  33.935  39.235  1.00  0.00     0.055 A 
ATOM     76  C   UNL A   1      39.894  35.758  38.268  1.00  0.00     0.041 A 
ATOM     77  F   UNL A   1      40.847  35.518  36.139  1.00  0.00    -0.206 F 
ATOM     78  C   UNL A   1      39.140  35.245  39.318  1.00  0.00     0.022 A 
BRANCH  75  79
ATOM     79  S   UNL A   1      37.575  33.278  40.530  1.00  0.00     0.124 S 
ATOM     80  O   UNL A   1      38.357  32.155  41.032  1.00  0.00    -0.237 OA
ATOM     81  O   UNL A   1      37.449  34.423  41.427  1.00  0.00    -0.237 OA
ATOM     82  O   UNL A   1      36.360  32.922  39.804  1.00  0.00    -0.744 OA
ENDBRANCH  75  79
ENDBRANCH  48  72
BRANCH  60  83
ATOM     83  C   UNL A   1      44.235  28.586  35.530  1.00  0.00     0.023 A 
ATOM     84  C   UNL A   1      44.046  27.541  36.448  1.00  0.00     0.031 A 
ATOM     85  C   UNL A   1      45.537  29.088  35.354  1.00  0.00     0.131 A 
ATOM     86  C   UNL A   1      45.131  27.066  37.198  1.00  0.00     0.055 A 
ATOM     87  C   UNL A   1      46.624  28.570  36.058  1.00  0.00     0.041 A 
ATOM     88  F   UNL A   1      45.774  30.088  34.490  1.00  0.00    -0.206 F 
ATOM     89  C   UNL A   1      46.422  27.561  36.996  1.00  0.00     0.022 A 
BRANCH  86  90
ATOM     90  S   UNL A   1      44.818  25.850  38.508  1.00  0.00     0.124 S 
ATOM     91  O   UNL A   1      43.975  26.607  39.427  1.00  0.00    -0.237 OA
ATOM     92  O   UNL A   1      44.160  24.770  37.780  1.00  0.00    -0.237 OA
ATOM     93  O   UNL A   1      46.154  25.534  39.009  1.00  0.00    -0.744 OA
ENDBRANCH  86  90
ENDBRANCH  60  83
ENDBRANCH  34  35
ENDBRANCH  26  29
ENDBRANCH  24  25
ENDBRANCH  23  24
ENDBRANCH  22  23
ENDBRANCH   3  22
TORSDOF 19
ENDMDL
