MODEL 1
REMARK VINA RESULT:     -11.0      0.000      0.000
REMARK SMILES O=C(COCCNC(=O)c1cc(Cl)c2c(c1)OCCO2)NCCCNC(=O)c1ccc(-c2c3nc(c(-c4cc(S(=O)(=O)[O-])ccc4F)c4ccc([nH]4)c(-c4cc(S(=O)(=O)[O-])ccc4F)c4nc(c(-c5cc(S(=O)(=O)[O-])ccc5F)c5ccc2[nH]5)C=C4)C=C3)cc1
REMARK SMILES IDX 22 1 21 2 1 3 2 4 3 6 4 7 5 8 6 9 7 10 8 11 9 13 10 14 11 15
REMARK SMILES IDX 16 16 12 17 15 18 13 19 14 20 17 21 20 22 18 23 19 24 23 25
REMARK SMILES IDX 24 26 25 27 26 28 27 30 28 31 29 32 90 33 30 34 89 35 31 36
REMARK SMILES IDX 32 37 33 38 83 39 34 40 88 41 82 42 84 43 35 44 87 45 81 46
REMARK SMILES IDX 80 47 36 49 68 50 48 51 67 52 49 53 52 54 66 55 85 56 50 57
REMARK SMILES IDX 51 58 65 60 86 61 53 62 37 63 38 64 46 65 39 66 45 67 47 68
REMARK SMILES IDX 44 69 40 70 41 71 42 72 43 73 69 74 70 75 78 76 71 77 77 78
REMARK SMILES IDX 79 79 76 80 72 81 73 82 74 83 75 84 54 85 55 86 63 87 56 88
REMARK SMILES IDX 62 89 64 90 61 91 57 92 58 93 59 94 60 95
REMARK H PARENT 21 5 7 12 25 29 84 48 52 59
REMARK Flexibility Score: inf
ROOT
ATOM      1  C   UNL A   1      36.809  20.727  25.086  1.00  0.00     0.117 C 
ENDROOT
BRANCH   1   2
ATOM      2  N   UNL A   1      35.584  19.984  24.899  1.00  0.00    -0.354 N 
ATOM      3  O   UNL A   1      34.313  21.203  26.383  1.00  0.00    -0.272 OA
ATOM      4  C   UNL A   1      34.417  20.298  25.564  1.00  0.00     0.245 C 
ATOM      5  H   UNL A   1      35.581  19.225  24.272  1.00  0.00     0.163 HD
BRANCH   4   6
ATOM      6  C   UNL A   1      33.250  19.384  25.186  1.00  0.00     0.260 C 
BRANCH   6   7
ATOM      7  O   UNL A   1      32.099  20.044  24.672  1.00  0.00    -0.370 OA
BRANCH   7   8
ATOM      8  C   UNL A   1      32.360  21.070  23.708  1.00  0.00     0.182 C 
BRANCH   8   9
ATOM      9  C   UNL A   1      31.918  22.472  24.144  1.00  0.00     0.144 C 
BRANCH   9  10
ATOM     10  N   UNL A   1      31.455  22.540  25.527  1.00  0.00    -0.350 N 
ATOM     11  C   UNL A   1      31.192  23.613  26.337  1.00  0.00     0.251 C 
ATOM     12  H   UNL A   1      31.308  21.663  25.951  1.00  0.00     0.163 HD
ATOM     13  O   UNL A   1      30.906  23.446  27.517  1.00  0.00    -0.269 OA
BRANCH  11  14
ATOM     14  C   UNL A   1      31.222  24.988  25.809  1.00  0.00     0.045 A 
ATOM     15  C   UNL A   1      30.195  25.460  24.990  1.00  0.00     0.038 A 
ATOM     16  C   UNL A   1      32.238  25.846  26.238  1.00  0.00     0.064 A 
ATOM     17  C   UNL A   1      30.218  26.783  24.549  1.00  0.00     0.087 A 
ATOM     18  C   UNL A   1      32.255  27.168  25.796  1.00  0.00     0.163 A 
ATOM     19  Cl  UNL A   1      28.943  27.318  23.513  1.00  0.00    -0.080 Cl
ATOM     20  C   UNL A   1      31.241  27.649  24.955  1.00  0.00     0.179 A 
ATOM     21  O   UNL A   1      33.293  27.944  26.246  1.00  0.00    -0.486 OA
ATOM     22  O   UNL A   1      31.212  28.949  24.511  1.00  0.00    -0.485 OA
ATOM     23  C   UNL A   1      33.411  29.162  25.505  1.00  0.00     0.271 C 
ATOM     24  C   UNL A   1      32.048  29.799  25.301  1.00  0.00     0.271 C 
ENDBRANCH  11  14
ENDBRANCH   9  10
ENDBRANCH   8   9
ENDBRANCH   7   8
ENDBRANCH   6   7
ENDBRANCH   4   6
ENDBRANCH   1   2
BRANCH   1  25
ATOM     25  C   UNL A   1      38.045  19.837  25.033  1.00  0.00     0.042 C 
BRANCH  25  26
ATOM     26  C   UNL A   1      39.227  20.370  25.835  1.00  0.00     0.118 C 
BRANCH  26  27
ATOM     27  N   UNL A   1      40.246  19.358  26.080  1.00  0.00    -0.352 N 
ATOM     28  C   UNL A   1      41.586  19.519  26.335  1.00  0.00     0.251 C 
ATOM     29  H   UNL A   1      39.930  18.426  26.059  1.00  0.00     0.163 HD
ATOM     30  O   UNL A   1      42.327  18.543  26.362  1.00  0.00    -0.269 OA
BRANCH  28  31
ATOM     31  C   UNL A   1      42.129  20.874  26.559  1.00  0.00     0.039 A 
ATOM     32  C   UNL A   1      42.360  21.701  25.458  1.00  0.00     0.014 A 
ATOM     33  C   UNL A   1      42.409  21.323  27.853  1.00  0.00     0.014 A 
ATOM     34  C   UNL A   1      42.823  23.003  25.657  1.00  0.00     0.010 A 
ATOM     35  C   UNL A   1      42.818  22.638  28.055  1.00  0.00     0.010 A 
ATOM     36  C   UNL A   1      43.036  23.487  26.959  1.00  0.00    -0.014 A 
BRANCH  36  37
ATOM     37  C   UNL A   1      43.513  24.871  27.191  1.00  0.00     0.031 A 
ATOM     38  C   UNL A   1      42.554  25.922  27.669  1.00  0.00     0.074 A 
ATOM     39  C   UNL A   1      44.793  25.191  26.922  1.00  0.00     0.049 A 
ATOM     40  N   UNL A   1      42.772  27.187  27.908  1.00  0.00    -0.248 NA
ATOM     41  C   UNL A   1      41.160  25.499  27.891  1.00  0.00     0.031 C 
ATOM     42  C   UNL A   1      45.802  24.265  26.409  1.00  0.00     0.029 A 
ATOM     43  N   UNL A   1      45.459  26.387  27.030  1.00  0.00    -0.354 N 
ATOM     44  C   UNL A   1      41.549  27.713  28.307  1.00  0.00     0.074 A 
ATOM     45  C   UNL A   1      40.581  26.643  28.224  1.00  0.00     0.031 C 
ATOM     46  C   UNL A   1      46.963  24.923  26.259  1.00  0.00     0.029 A 
ATOM     47  C   UNL A   1      46.777  26.323  26.638  1.00  0.00     0.049 A 
ATOM     48  H   UNL A   1      45.035  27.212  27.357  1.00  0.00     0.167 HD
ATOM     49  C   UNL A   1      41.268  28.967  28.730  1.00  0.00     0.034 A 
ATOM     50  C   UNL A   1      47.724  27.280  26.590  1.00  0.00     0.034 A 
ATOM     51  C   UNL A   1      42.244  30.019  28.828  1.00  0.00     0.049 A 
ATOM     52  C   UNL A   1      47.387  28.671  27.063  1.00  0.00     0.074 A 
ATOM     53  C   UNL A   1      42.067  31.305  29.306  1.00  0.00     0.029 A 
ATOM     54  N   UNL A   1      43.572  29.911  28.445  1.00  0.00    -0.354 N 
ATOM     55  N   UNL A   1      46.250  29.127  27.533  1.00  0.00    -0.248 NA
ATOM     56  C   UNL A   1      48.458  29.676  27.009  1.00  0.00     0.031 C 
ATOM     57  C   UNL A   1      43.277  31.989  29.171  1.00  0.00     0.029 A 
ATOM     58  C   UNL A   1      44.222  31.116  28.655  1.00  0.00     0.049 A 
ATOM     59  H   UNL A   1      43.992  29.100  28.078  1.00  0.00     0.167 HD
ATOM     60  C   UNL A   1      46.476  30.462  27.855  1.00  0.00     0.074 A 
ATOM     61  C   UNL A   1      47.863  30.737  27.542  1.00  0.00     0.031 C 
ATOM     62  C   UNL A   1      45.610  31.376  28.360  1.00  0.00     0.034 A 
BRANCH  49  63
ATOM     63  C   UNL A   1      39.859  29.275  29.159  1.00  0.00     0.023 A 
ATOM     64  C   UNL A   1      39.513  29.255  30.521  1.00  0.00     0.031 A 
ATOM     65  C   UNL A   1      38.841  29.480  28.211  1.00  0.00     0.131 A 
ATOM     66  C   UNL A   1      38.173  29.412  30.897  1.00  0.00     0.055 A 
ATOM     67  C   UNL A   1      37.513  29.670  28.593  1.00  0.00     0.041 A 
ATOM     68  F   UNL A   1      39.127  29.511  26.898  1.00  0.00    -0.206 F 
ATOM     69  C   UNL A   1      37.173  29.627  29.942  1.00  0.00     0.022 A 
BRANCH  66  70
ATOM     70  S   UNL A   1      37.671  29.316  32.635  1.00  0.00     0.124 S 
ATOM     71  O   UNL A   1      36.328  29.890  32.596  1.00  0.00    -0.237 OA
ATOM     72  O   UNL A   1      37.729  27.879  32.890  1.00  0.00    -0.237 OA
ATOM     73  O   UNL A   1      38.666  30.123  33.333  1.00  0.00    -0.744 OA
ENDBRANCH  66  70
ENDBRANCH  49  63
BRANCH  50  74
ATOM     74  C   UNL A   1      49.098  26.921  26.138  1.00  0.00     0.023 A 
ATOM     75  C   UNL A   1      50.144  26.744  27.061  1.00  0.00     0.031 A 
ATOM     76  C   UNL A   1      49.400  26.839  24.769  1.00  0.00     0.131 A 
ATOM     77  C   UNL A   1      51.452  26.545  26.600  1.00  0.00     0.055 A 
ATOM     78  C   UNL A   1      50.696  26.585  24.315  1.00  0.00     0.041 A 
ATOM     79  F   UNL A   1      48.435  27.012  23.853  1.00  0.00    -0.206 F 
ATOM     80  C   UNL A   1      51.732  26.449  25.233  1.00  0.00     0.022 A 
BRANCH  77  81
ATOM     81  S   UNL A   1      52.850  26.493  27.755  1.00  0.00     0.124 S 
ATOM     82  O   UNL A   1      52.201  26.119  29.007  1.00  0.00    -0.237 OA
ATOM     83  O   UNL A   1      53.693  25.465  27.149  1.00  0.00    -0.237 OA
ATOM     84  O   UNL A   1      53.387  27.849  27.706  1.00  0.00    -0.744 OA
ENDBRANCH  77  81
ENDBRANCH  50  74
BRANCH  62  85
ATOM     85  C   UNL A   1      46.107  32.774  28.626  1.00  0.00     0.023 A 
ATOM     86  C   UNL A   1      46.329  33.658  27.553  1.00  0.00     0.031 A 
ATOM     87  C   UNL A   1      46.515  33.168  29.911  1.00  0.00     0.131 A 
ATOM     88  C   UNL A   1      46.982  34.876  27.779  1.00  0.00     0.055 A 
ATOM     89  C   UNL A   1      47.127  34.401  30.138  1.00  0.00     0.041 A 
ATOM     90  F   UNL A   1      46.333  32.353  30.963  1.00  0.00    -0.206 F 
ATOM     91  C   UNL A   1      47.377  35.254  29.066  1.00  0.00     0.022 A 
BRANCH  88  92
ATOM     92  S   UNL A   1      47.409  35.978  26.403  1.00  0.00     0.124 S 
ATOM     93  O   UNL A   1      48.631  36.613  26.889  1.00  0.00    -0.237 OA
ATOM     94  O   UNL A   1      47.591  35.036  25.302  1.00  0.00    -0.237 OA
ATOM     95  O   UNL A   1      46.255  36.862  26.288  1.00  0.00    -0.744 OA
ENDBRANCH  88  92
ENDBRANCH  62  85
ENDBRANCH  36  37
ENDBRANCH  28  31
ENDBRANCH  26  27
ENDBRANCH  25  26
ENDBRANCH   1  25
TORSDOF 18
ENDMDL
MODEL 2
REMARK VINA RESULT:     -11.0      2.970      8.468
REMARK SMILES O=C(COCCNC(=O)c1cc(Cl)c2c(c1)OCCO2)NCCCNC(=O)c1ccc(-c2c3nc(c(-c4cc(S(=O)(=O)[O-])ccc4F)c4ccc([nH]4)c(-c4cc(S(=O)(=O)[O-])ccc4F)c4nc(c(-c5cc(S(=O)(=O)[O-])ccc5F)c5ccc2[nH]5)C=C4)C=C3)cc1
REMARK SMILES IDX 22 1 21 2 1 3 2 4 3 6 4 7 5 8 6 9 7 10 8 11 9 13 10 14 11 15
REMARK SMILES IDX 16 16 12 17 15 18 13 19 14 20 17 21 20 22 18 23 19 24 23 25
REMARK SMILES IDX 24 26 25 27 26 28 27 30 28 31 29 32 90 33 30 34 89 35 31 36
REMARK SMILES IDX 32 37 33 38 83 39 34 40 88 41 82 42 84 43 35 44 87 45 81 46
REMARK SMILES IDX 80 47 36 49 68 50 48 51 67 52 49 53 52 54 66 55 85 56 50 57
REMARK SMILES IDX 51 58 65 60 86 61 53 62 37 63 38 64 46 65 39 66 45 67 47 68
REMARK SMILES IDX 44 69 40 70 41 71 42 72 43 73 69 74 70 75 78 76 71 77 77 78
REMARK SMILES IDX 79 79 76 80 72 81 73 82 74 83 75 84 54 85 55 86 63 87 56 88
REMARK SMILES IDX 62 89 64 90 61 91 57 92 58 93 59 94 60 95
REMARK H PARENT 21 5 7 12 25 29 84 48 52 59
REMARK Flexibility Score: inf
ROOT
ATOM      1  C   UNL A   1      34.839  22.707  23.650  1.00  0.00     0.117 C 
ENDROOT
BRANCH   1   2
ATOM      2  N   UNL A   1      34.268  24.024  23.478  1.00  0.00    -0.354 N 
ATOM      3  O   UNL A   1      33.494  23.692  21.335  1.00  0.00    -0.272 OA
ATOM      4  C   UNL A   1      33.623  24.407  22.321  1.00  0.00     0.245 C 
ATOM      5  H   UNL A   1      34.343  24.672  24.215  1.00  0.00     0.163 HD
BRANCH   4   6
ATOM      6  C   UNL A   1      33.085  25.837  22.384  1.00  0.00     0.260 C 
BRANCH   6   7
ATOM      7  O   UNL A   1      33.805  26.795  21.616  1.00  0.00    -0.370 OA
BRANCH   7   8
ATOM      8  C   UNL A   1      34.347  27.893  22.359  1.00  0.00     0.182 C 
BRANCH   8   9
ATOM      9  C   UNL A   1      33.326  28.980  22.713  1.00  0.00     0.144 C 
BRANCH   9  10
ATOM     10  N   UNL A   1      33.494  29.533  24.053  1.00  0.00    -0.350 N 
ATOM     11  C   UNL A   1      33.048  29.093  25.272  1.00  0.00     0.251 C 
ATOM     12  H   UNL A   1      34.018  30.367  24.087  1.00  0.00     0.163 HD
ATOM     13  O   UNL A   1      33.218  29.772  26.278  1.00  0.00    -0.269 OA
BRANCH  11  14
ATOM     14  C   UNL A   1      32.378  27.789  25.409  1.00  0.00     0.045 A 
ATOM     15  C   UNL A   1      31.064  27.613  24.970  1.00  0.00     0.038 A 
ATOM     16  C   UNL A   1      33.119  26.703  25.882  1.00  0.00     0.064 A 
ATOM     17  C   UNL A   1      30.471  26.354  25.060  1.00  0.00     0.087 A 
ATOM     18  C   UNL A   1      32.522  25.446  25.967  1.00  0.00     0.163 A 
ATOM     19  Cl  UNL A   1      28.835  26.186  24.532  1.00  0.00    -0.080 Cl
ATOM     20  C   UNL A   1      31.197  25.260  25.549  1.00  0.00     0.179 A 
ATOM     21  O   UNL A   1      33.307  24.435  26.457  1.00  0.00    -0.486 OA
ATOM     22  O   UNL A   1      30.576  24.035  25.602  1.00  0.00    -0.485 OA
ATOM     23  C   UNL A   1      32.538  23.280  26.807  1.00  0.00     0.271 C 
ATOM     24  C   UNL A   1      31.520  22.967  25.725  1.00  0.00     0.271 C 
ENDBRANCH  11  14
ENDBRANCH   9  10
ENDBRANCH   8   9
ENDBRANCH   7   8
ENDBRANCH   6   7
ENDBRANCH   4   6
ENDBRANCH   1   2
BRANCH   1  25
ATOM     25  C   UNL A   1      36.349  22.747  23.853  1.00  0.00     0.042 C 
BRANCH  25  26
ATOM     26  C   UNL A   1      36.778  22.703  25.315  1.00  0.00     0.118 C 
BRANCH  26  27
ATOM     27  N   UNL A   1      37.740  21.643  25.590  1.00  0.00    -0.352 N 
ATOM     28  C   UNL A   1      39.021  21.737  26.075  1.00  0.00     0.251 C 
ATOM     29  H   UNL A   1      37.426  20.729  25.402  1.00  0.00     0.163 HD
ATOM     30  O   UNL A   1      39.743  20.746  26.097  1.00  0.00    -0.269 OA
BRANCH  28  31
ATOM     31  C   UNL A   1      39.528  23.039  26.553  1.00  0.00     0.039 A 
ATOM     32  C   UNL A   1      40.233  23.089  27.758  1.00  0.00     0.014 A 
ATOM     33  C   UNL A   1      39.306  24.204  25.813  1.00  0.00     0.014 A 
ATOM     34  C   UNL A   1      40.764  24.304  28.197  1.00  0.00     0.010 A 
ATOM     35  C   UNL A   1      39.881  25.403  26.224  1.00  0.00     0.010 A 
ATOM     36  C   UNL A   1      40.609  25.465  27.422  1.00  0.00    -0.014 A 
BRANCH  36  37
ATOM     37  C   UNL A   1      41.179  26.759  27.864  1.00  0.00     0.031 A 
ATOM     38  C   UNL A   1      42.625  27.068  27.605  1.00  0.00     0.074 A 
ATOM     39  C   UNL A   1      40.409  27.633  28.543  1.00  0.00     0.049 A 
ATOM     40  N   UNL A   1      43.311  28.130  27.931  1.00  0.00    -0.248 NA
ATOM     41  C   UNL A   1      43.408  26.038  26.900  1.00  0.00     0.031 C 
ATOM     42  C   UNL A   1      39.005  27.420  28.893  1.00  0.00     0.029 A 
ATOM     43  N   UNL A   1      40.704  28.866  29.070  1.00  0.00    -0.354 N 
ATOM     44  C   UNL A   1      44.603  27.901  27.476  1.00  0.00     0.074 A 
ATOM     45  C   UNL A   1      44.620  26.575  26.900  1.00  0.00     0.031 C 
ATOM     46  C   UNL A   1      38.556  28.492  29.566  1.00  0.00     0.029 A 
ATOM     47  C   UNL A   1      39.644  29.456  29.719  1.00  0.00     0.049 A 
ATOM     48  H   UNL A   1      41.589  29.288  28.991  1.00  0.00     0.167 HD
ATOM     49  C   UNL A   1      45.670  28.731  27.510  1.00  0.00     0.034 A 
ATOM     50  C   UNL A   1      39.560  30.637  30.363  1.00  0.00     0.034 A 
ATOM     51  C   UNL A   1      45.638  30.057  28.068  1.00  0.00     0.049 A 
ATOM     52  C   UNL A   1      40.762  31.546  30.393  1.00  0.00     0.074 A 
ATOM     53  C   UNL A   1      46.651  30.997  28.092  1.00  0.00     0.029 A 
ATOM     54  N   UNL A   1      44.542  30.630  28.695  1.00  0.00    -0.354 N 
ATOM     55  N   UNL A   1      41.950  31.355  29.868  1.00  0.00    -0.248 NA
ATOM     56  C   UNL A   1      40.616  32.831  31.090  1.00  0.00     0.031 C 
ATOM     57  C   UNL A   1      46.185  32.123  28.773  1.00  0.00     0.029 A 
ATOM     58  C   UNL A   1      44.863  31.905  29.131  1.00  0.00     0.049 A 
ATOM     59  H   UNL A   1      43.667  30.196  28.814  1.00  0.00     0.167 HD
ATOM     60  C   UNL A   1      42.683  32.505  30.149  1.00  0.00     0.074 A 
ATOM     61  C   UNL A   1      41.800  33.393  30.876  1.00  0.00     0.031 C 
ATOM     62  C   UNL A   1      43.971  32.793  29.837  1.00  0.00     0.034 A 
BRANCH  49  63
ATOM     63  C   UNL A   1      46.961  28.259  26.899  1.00  0.00     0.023 A 
ATOM     64  C   UNL A   1      47.101  28.193  25.502  1.00  0.00     0.031 A 
ATOM     65  C   UNL A   1      48.009  27.774  27.701  1.00  0.00     0.131 A 
ATOM     66  C   UNL A   1      48.256  27.627  24.948  1.00  0.00     0.055 A 
ATOM     67  C   UNL A   1      49.172  27.243  27.144  1.00  0.00     0.041 A 
ATOM     68  F   UNL A   1      47.921  27.822  29.041  1.00  0.00    -0.206 F 
ATOM     69  C   UNL A   1      49.295  27.160  25.760  1.00  0.00     0.022 A 
BRANCH  66  70
ATOM     70  S   UNL A   1      48.444  27.451  23.154  1.00  0.00     0.124 S 
ATOM     71  O   UNL A   1      47.296  28.204  22.653  1.00  0.00    -0.237 OA
ATOM     72  O   UNL A   1      49.746  28.071  22.923  1.00  0.00    -0.237 OA
ATOM     73  O   UNL A   1      48.379  26.011  22.934  1.00  0.00    -0.744 OA
ENDBRANCH  66  70
ENDBRANCH  49  63
BRANCH  50  74
ATOM     74  C   UNL A   1      38.260  31.045  30.967  1.00  0.00     0.023 A 
ATOM     75  C   UNL A   1      37.285  31.718  30.209  1.00  0.00     0.031 A 
ATOM     76  C   UNL A   1      38.015  30.845  32.336  1.00  0.00     0.131 A 
ATOM     77  C   UNL A   1      36.134  32.210  30.837  1.00  0.00     0.055 A 
ATOM     78  C   UNL A   1      36.840  31.289  32.946  1.00  0.00     0.041 A 
ATOM     79  F   UNL A   1      38.923  30.217  33.099  1.00  0.00    -0.206 F 
ATOM     80  C   UNL A   1      35.898  31.986  32.198  1.00  0.00     0.022 A 
BRANCH  77  81
ATOM     81  S   UNL A   1      34.943  33.236  29.930  1.00  0.00     0.124 S 
ATOM     82  O   UNL A   1      34.154  33.819  31.010  1.00  0.00    -0.237 OA
ATOM     83  O   UNL A   1      35.829  34.159  29.225  1.00  0.00    -0.237 OA
ATOM     84  O   UNL A   1      34.239  32.278  29.084  1.00  0.00    -0.744 OA
ENDBRANCH  77  81
ENDBRANCH  50  74
BRANCH  62  85
ATOM     85  C   UNL A   1      44.537  34.124  30.258  1.00  0.00     0.023 A 
ATOM     86  C   UNL A   1      44.526  35.210  29.361  1.00  0.00     0.031 A 
ATOM     87  C   UNL A   1      45.231  34.268  31.472  1.00  0.00     0.131 A 
ATOM     88  C   UNL A   1      45.233  36.377  29.674  1.00  0.00     0.055 A 
ATOM     89  C   UNL A   1      45.898  35.449  31.797  1.00  0.00     0.041 A 
ATOM     90  F   UNL A   1      45.277  33.256  32.353  1.00  0.00    -0.206 F 
ATOM     91  C   UNL A   1      45.913  36.505  30.889  1.00  0.00     0.022 A 
BRANCH  88  92
ATOM     92  S   UNL A   1      45.357  37.742  28.485  1.00  0.00     0.124 S 
ATOM     93  O   UNL A   1      44.716  38.836  29.211  1.00  0.00    -0.237 OA
ATOM     94  O   UNL A   1      46.801  37.868  28.314  1.00  0.00    -0.237 OA
ATOM     95  O   UNL A   1      44.626  37.261  27.318  1.00  0.00    -0.744 OA
ENDBRANCH  88  92
ENDBRANCH  62  85
ENDBRANCH  36  37
ENDBRANCH  28  31
ENDBRANCH  26  27
ENDBRANCH  25  26
ENDBRANCH   1  25
TORSDOF 18
ENDMDL
MODEL 3
REMARK VINA RESULT:     -10.9      3.308      8.810
REMARK SMILES O=C(COCCNC(=O)c1cc(Cl)c2c(c1)OCCO2)NCCCNC(=O)c1ccc(-c2c3nc(c(-c4cc(S(=O)(=O)[O-])ccc4F)c4ccc([nH]4)c(-c4cc(S(=O)(=O)[O-])ccc4F)c4nc(c(-c5cc(S(=O)(=O)[O-])ccc5F)c5ccc2[nH]5)C=C4)C=C3)cc1
REMARK SMILES IDX 22 1 21 2 1 3 2 4 3 6 4 7 5 8 6 9 7 10 8 11 9 13 10 14 11 15
REMARK SMILES IDX 16 16 12 17 15 18 13 19 14 20 17 21 20 22 18 23 19 24 23 25
REMARK SMILES IDX 24 26 25 27 26 28 27 30 28 31 29 32 90 33 30 34 89 35 31 36
REMARK SMILES IDX 32 37 33 38 83 39 34 40 88 41 82 42 84 43 35 44 87 45 81 46
REMARK SMILES IDX 80 47 36 49 68 50 48 51 67 52 49 53 52 54 66 55 85 56 50 57
REMARK SMILES IDX 51 58 65 60 86 61 53 62 37 63 38 64 46 65 39 66 45 67 47 68
REMARK SMILES IDX 44 69 40 70 41 71 42 72 43 73 69 74 70 75 78 76 71 77 77 78
REMARK SMILES IDX 79 79 76 80 72 81 73 82 74 83 75 84 54 85 55 86 63 87 56 88
REMARK SMILES IDX 62 89 64 90 61 91 57 92 58 93 59 94 60 95
REMARK H PARENT 21 5 7 12 25 29 84 48 52 59
REMARK Flexibility Score: inf
ROOT
ATOM      1  C   UNL A   1      35.080  23.150  23.798  1.00  0.00     0.117 C 
ENDROOT
BRANCH   1   2
ATOM      2  N   UNL A   1      34.378  24.368  23.464  1.00  0.00    -0.354 N 
ATOM      3  O   UNL A   1      33.324  23.554  21.586  1.00  0.00    -0.272 OA
ATOM      4  C   UNL A   1      33.536  24.465  22.377  1.00  0.00     0.245 C 
ATOM      5  H   UNL A   1      34.504  25.160  24.036  1.00  0.00     0.163 HD
BRANCH   4   6
ATOM      6  C   UNL A   1      32.890  25.845  22.242  1.00  0.00     0.260 C 
BRANCH   6   7
ATOM      7  O   UNL A   1      33.668  26.820  21.557  1.00  0.00    -0.370 OA
BRANCH   7   8
ATOM      8  C   UNL A   1      34.158  27.894  22.368  1.00  0.00     0.182 C 
BRANCH   8   9
ATOM      9  C   UNL A   1      33.096  28.935  22.743  1.00  0.00     0.144 C 
BRANCH   9  10
ATOM     10  N   UNL A   1      33.276  29.506  24.075  1.00  0.00    -0.350 N 
ATOM     11  C   UNL A   1      32.881  29.057  25.308  1.00  0.00     0.251 C 
ATOM     12  H   UNL A   1      33.763  30.362  24.089  1.00  0.00     0.163 HD
ATOM     13  O   UNL A   1      33.046  29.751  26.304  1.00  0.00    -0.269 OA
BRANCH  11  14
ATOM     14  C   UNL A   1      32.272  27.726  25.472  1.00  0.00     0.045 A 
ATOM     15  C   UNL A   1      30.953  27.492  25.079  1.00  0.00     0.038 A 
ATOM     16  C   UNL A   1      33.076  26.674  25.920  1.00  0.00     0.064 A 
ATOM     17  C   UNL A   1      30.418  26.209  25.193  1.00  0.00     0.087 A 
ATOM     18  C   UNL A   1      32.536  25.393  26.029  1.00  0.00     0.163 A 
ATOM     19  Cl  UNL A   1      28.773  25.969  24.723  1.00  0.00    -0.080 Cl
ATOM     20  C   UNL A   1      31.207  25.149  25.659  1.00  0.00     0.179 A 
ATOM     21  O   UNL A   1      33.381  24.418  26.493  1.00  0.00    -0.486 OA
ATOM     22  O   UNL A   1      30.641  23.899  25.736  1.00  0.00    -0.485 OA
ATOM     23  C   UNL A   1      32.675  23.233  26.872  1.00  0.00     0.271 C 
ATOM     24  C   UNL A   1      31.634  22.873  25.828  1.00  0.00     0.271 C 
ENDBRANCH  11  14
ENDBRANCH   9  10
ENDBRANCH   8   9
ENDBRANCH   7   8
ENDBRANCH   6   7
ENDBRANCH   4   6
ENDBRANCH   1   2
BRANCH   1  25
ATOM     25  C   UNL A   1      36.570  23.379  24.022  1.00  0.00     0.042 C 
BRANCH  25  26
ATOM     26  C   UNL A   1      36.965  23.487  25.490  1.00  0.00     0.118 C 
BRANCH  26  27
ATOM     27  N   UNL A   1      37.910  22.455  25.899  1.00  0.00    -0.352 N 
ATOM     28  C   UNL A   1      39.143  22.591  26.488  1.00  0.00     0.251 C 
ATOM     29  H   UNL A   1      37.624  21.529  25.728  1.00  0.00     0.163 HD
ATOM     30  O   UNL A   1      39.871  21.613  26.620  1.00  0.00    -0.269 OA
BRANCH  28  31
ATOM     31  C   UNL A   1      39.592  23.921  26.945  1.00  0.00     0.039 A 
ATOM     32  C   UNL A   1      40.368  24.704  26.086  1.00  0.00     0.014 A 
ATOM     33  C   UNL A   1      39.248  24.391  28.215  1.00  0.00     0.014 A 
ATOM     34  C   UNL A   1      40.756  25.986  26.483  1.00  0.00     0.010 A 
ATOM     35  C   UNL A   1      39.589  25.688  28.587  1.00  0.00     0.010 A 
ATOM     36  C   UNL A   1      40.351  26.494  27.728  1.00  0.00    -0.014 A 
BRANCH  36  37
ATOM     37  C   UNL A   1      40.740  27.857  28.159  1.00  0.00     0.031 A 
ATOM     38  C   UNL A   1      42.185  28.263  28.142  1.00  0.00     0.074 A 
ATOM     39  C   UNL A   1      39.801  28.709  28.614  1.00  0.00     0.049 A 
ATOM     40  N   UNL A   1      42.726  29.397  28.499  1.00  0.00    -0.248 NA
ATOM     41  C   UNL A   1      43.154  27.255  27.678  1.00  0.00     0.031 C 
ATOM     42  C   UNL A   1      38.373  28.408  28.721  1.00  0.00     0.029 A 
ATOM     43  N   UNL A   1      39.909  29.995  29.083  1.00  0.00    -0.354 N 
ATOM     44  C   UNL A   1      44.093  29.243  28.306  1.00  0.00     0.074 A 
ATOM     45  C   UNL A   1      44.306  27.886  27.853  1.00  0.00     0.031 C 
ATOM     46  C   UNL A   1      37.736  29.483  29.211  1.00  0.00     0.029 A 
ATOM     47  C   UNL A   1      38.709  30.540  29.480  1.00  0.00     0.049 A 
ATOM     48  H   UNL A   1      40.763  30.480  29.132  1.00  0.00     0.167 HD
ATOM     49  C   UNL A   1      45.076  30.157  28.465  1.00  0.00     0.034 A 
ATOM     50  C   UNL A   1      38.427  31.751  29.999  1.00  0.00     0.034 A 
ATOM     51  C   UNL A   1      44.852  31.510  28.898  1.00  0.00     0.049 A 
ATOM     52  C   UNL A   1      39.539  32.754  30.172  1.00  0.00     0.074 A 
ATOM     53  C   UNL A   1      45.777  32.530  29.029  1.00  0.00     0.029 A 
ATOM     54  N   UNL A   1      43.622  32.035  29.268  1.00  0.00    -0.354 N 
ATOM     55  N   UNL A   1      40.814  32.625  29.889  1.00  0.00    -0.248 NA
ATOM     56  C   UNL A   1      39.180  34.067  30.725  1.00  0.00     0.031 C 
ATOM     57  C   UNL A   1      45.117  33.657  29.520  1.00  0.00     0.029 A 
ATOM     58  C   UNL A   1      43.770  33.358  29.649  1.00  0.00     0.049 A 
ATOM     59  H   UNL A   1      42.771  31.541  29.261  1.00  0.00     0.167 HD
ATOM     60  C   UNL A   1      41.403  33.847  30.204  1.00  0.00     0.074 A 
ATOM     61  C   UNL A   1      40.342  34.708  30.684  1.00  0.00     0.031 C 
ATOM     62  C   UNL A   1      42.704  34.216  30.107  1.00  0.00     0.034 A 
BRANCH  49  63
ATOM     63  C   UNL A   1      46.487  29.751  28.139  1.00  0.00     0.023 A 
ATOM     64  C   UNL A   1      47.341  29.280  29.152  1.00  0.00     0.031 A 
ATOM     65  C   UNL A   1      47.016  29.934  26.849  1.00  0.00     0.131 A 
ATOM     66  C   UNL A   1      48.688  29.032  28.862  1.00  0.00     0.055 A 
ATOM     67  C   UNL A   1      48.351  29.653  26.557  1.00  0.00     0.041 A 
ATOM     68  F   UNL A   1      46.235  30.378  25.849  1.00  0.00    -0.206 F 
ATOM     69  C   UNL A   1      49.195  29.208  27.570  1.00  0.00     0.022 A 
BRANCH  66  70
ATOM     70  S   UNL A   1      49.841  28.499  30.155  1.00  0.00     0.124 S 
ATOM     71  O   UNL A   1      50.672  27.531  29.440  1.00  0.00    -0.237 OA
ATOM     72  O   UNL A   1      50.505  29.751  30.506  1.00  0.00    -0.237 OA
ATOM     73  O   UNL A   1      48.977  27.929  31.182  1.00  0.00    -0.744 OA
ENDBRANCH  66  70
ENDBRANCH  49  63
BRANCH  50  74
ATOM     74  C   UNL A   1      37.013  32.092  30.322  1.00  0.00     0.023 A 
ATOM     75  C   UNL A   1      36.166  32.669  29.360  1.00  0.00     0.031 A 
ATOM     76  C   UNL A   1      36.519  31.927  31.628  1.00  0.00     0.131 A 
ATOM     77  C   UNL A   1      34.888  33.106  29.731  1.00  0.00     0.055 A 
ATOM     78  C   UNL A   1      35.224  32.313  31.979  1.00  0.00     0.041 A 
ATOM     79  F   UNL A   1      37.297  31.390  32.581  1.00  0.00    -0.206 F 
ATOM     80  C   UNL A   1      34.406  32.917  31.031  1.00  0.00     0.022 A 
BRANCH  77  81
ATOM     81  S   UNL A   1      33.837  34.015  28.564  1.00  0.00     0.124 S 
ATOM     82  O   UNL A   1      32.832  34.600  29.445  1.00  0.00    -0.237 OA
ATOM     83  O   UNL A   1      34.791  34.955  27.982  1.00  0.00    -0.237 OA
ATOM     84  O   UNL A   1      33.353  32.978  27.659  1.00  0.00    -0.744 OA
ENDBRANCH  77  81
ENDBRANCH  50  74
BRANCH  62  85
ATOM     85  C   UNL A   1      43.092  35.615  30.514  1.00  0.00     0.023 A 
ATOM     86  C   UNL A   1      43.223  36.621  29.538  1.00  0.00     0.031 A 
ATOM     87  C   UNL A   1      43.489  35.905  31.830  1.00  0.00     0.131 A 
ATOM     88  C   UNL A   1      43.780  37.858  29.885  1.00  0.00     0.055 A 
ATOM     89  C   UNL A   1      44.003  37.154  32.180  1.00  0.00     0.041 A 
ATOM     90  F   UNL A   1      43.391  34.973  32.792  1.00  0.00    -0.206 F 
ATOM     91  C   UNL A   1      44.164  38.132  31.201  1.00  0.00     0.022 A 
BRANCH  88  92
ATOM     92  S   UNL A   1      44.093  39.128  28.629  1.00  0.00     0.124 S 
ATOM     93  O   UNL A   1      42.750  39.640  28.371  1.00  0.00    -0.237 OA
ATOM     94  O   UNL A   1      44.984  40.044  29.336  1.00  0.00    -0.237 OA
ATOM     95  O   UNL A   1      44.697  38.391  27.525  1.00  0.00    -0.744 OA
ENDBRANCH  88  92
ENDBRANCH  62  85
ENDBRANCH  36  37
ENDBRANCH  28  31
ENDBRANCH  26  27
ENDBRANCH  25  26
ENDBRANCH   1  25
TORSDOF 18
ENDMDL
