MODEL 1
REMARK VINA RESULT:     -11.7      0.000      0.000
REMARK SMILES CC1=C(C)C(=O)N(C[C@H](CC(C)C)C(=O)NCCCNC(=O)c2ccc(-c3c4nc(c(-c5cc(S(=O)(=O)[O-])ccc5F)c5ccc([nH]5)c(-c5cc(S(=O)(=O)[O-])ccc5F)c5nc(c(-c6cc(S(=O)(=O)[O-])ccc6F)c6ccc3[nH]6)C=C5)C=C4)cc2)C1=O
REMARK SMILES IDX 18 1 17 2 16 3 14 4 15 5 9 7 8 8 7 9 1 10 2 11 3 12 86 13
REMARK SMILES IDX 4 14 5 15 87 16 6 17 10 18 11 19 12 20 13 21 19 22 20 23
REMARK SMILES IDX 21 24 22 26 23 27 24 28 85 29 25 30 84 31 26 32 27 33 28 34
REMARK SMILES IDX 78 35 29 36 83 37 77 38 79 39 30 40 82 41 76 42 75 43 31 45
REMARK SMILES IDX 63 46 43 47 62 48 44 49 47 50 61 51 80 52 45 53 46 54 60 56
REMARK SMILES IDX 81 57 48 58 32 59 33 60 41 61 34 62 40 63 42 64 39 65 35 66
REMARK SMILES IDX 36 67 37 68 38 69 64 70 65 71 73 72 66 73 72 74 74 75 71 76
REMARK SMILES IDX 67 77 68 78 69 79 70 80 49 81 50 82 58 83 51 84 57 85 59 86
REMARK SMILES IDX 56 87 52 88 53 89 54 90 55 91
REMARK H PARENT 16 6 20 25 79 44 47 55
REMARK Flexibility Score: inf
ROOT
ATOM      1  C   UNL A   1      31.131  31.836  25.997  1.00  0.00     0.042 C 
ENDROOT
BRANCH   1   2
ATOM      2  C   UNL A   1      31.003  30.448  25.387  1.00  0.00     0.117 C 
BRANCH   2   3
ATOM      3  N   UNL A   1      30.413  30.457  24.064  1.00  0.00    -0.356 N 
ATOM      4  C   UNL A   1      30.324  29.507  23.102  1.00  0.00     0.224 C 
ATOM      5  O   UNL A   1      29.715  29.838  22.076  1.00  0.00    -0.275 OA
ATOM      6  H   UNL A   1      30.000  31.316  23.816  1.00  0.00     0.163 HD
BRANCH   4   7
ATOM      7  C   UNL A   1      30.953  28.105  23.173  1.00  0.00     0.099 C 
BRANCH   7   8
ATOM      8  C   UNL A   1      32.403  27.931  22.643  1.00  0.00     0.142 C 
BRANCH   8   9
ATOM      9  N   UNL A   1      33.135  26.754  23.078  1.00  0.00    -0.274 N 
ATOM     10  C   UNL A   1      34.637  24.597  25.634  1.00  0.00     0.051 C 
ATOM     11  C   UNL A   1      34.233  25.226  24.358  1.00  0.00     0.023 C 
ATOM     12  C   UNL A   1      34.012  24.661  23.165  1.00  0.00     0.023 C 
ATOM     13  C   UNL A   1      33.782  26.627  24.264  1.00  0.00     0.256 C 
ATOM     14  C   UNL A   1      34.094  23.240  22.759  1.00  0.00     0.051 C 
ATOM     15  C   UNL A   1      33.473  25.706  22.284  1.00  0.00     0.256 C 
ATOM     16  O   UNL A   1      33.970  27.473  25.120  1.00  0.00    -0.269 OA
ATOM     17  O   UNL A   1      33.363  25.600  21.075  1.00  0.00    -0.269 OA
ENDBRANCH   8   9
ENDBRANCH   7   8
BRANCH   7  18
ATOM     18  C   UNL A   1      29.914  26.958  23.072  1.00  0.00     0.018 C 
BRANCH  18  19
ATOM     19  C   UNL A   1      29.796  25.912  24.197  1.00  0.00    -0.017 C 
ATOM     20  C   UNL A   1      30.435  24.570  23.870  1.00  0.00     0.007 C 
ATOM     21  C   UNL A   1      30.465  26.434  25.477  1.00  0.00     0.007 C 
ENDBRANCH  18  19
ENDBRANCH   7  18
ENDBRANCH   4   7
ENDBRANCH   2   3
ENDBRANCH   1   2
BRANCH   1  22
ATOM     22  C   UNL A   1      32.192  31.948  27.075  1.00  0.00     0.118 C 
BRANCH  22  23
ATOM     23  N   UNL A   1      32.544  33.333  27.335  1.00  0.00    -0.352 N 
ATOM     24  C   UNL A   1      33.586  33.894  28.034  1.00  0.00     0.251 C 
ATOM     25  H   UNL A   1      31.925  33.988  26.939  1.00  0.00     0.163 HD
ATOM     26  O   UNL A   1      33.485  35.079  28.349  1.00  0.00    -0.269 OA
BRANCH  24  27
ATOM     27  C   UNL A   1      34.806  33.135  28.424  1.00  0.00     0.039 A 
ATOM     28  C   UNL A   1      34.640  31.874  29.015  1.00  0.00     0.014 A 
ATOM     29  C   UNL A   1      36.095  33.667  28.343  1.00  0.00     0.014 A 
ATOM     30  C   UNL A   1      35.743  31.170  29.517  1.00  0.00     0.010 A 
ATOM     31  C   UNL A   1      37.205  32.914  28.733  1.00  0.00     0.010 A 
ATOM     32  C   UNL A   1      37.041  31.683  29.379  1.00  0.00    -0.014 A 
BRANCH  32  33
ATOM     33  C   UNL A   1      38.213  31.013  30.012  1.00  0.00     0.031 A 
ATOM     34  C   UNL A   1      38.575  31.336  31.445  1.00  0.00     0.074 A 
ATOM     35  C   UNL A   1      38.964  30.141  29.312  1.00  0.00     0.049 A 
ATOM     36  N   UNL A   1      39.587  30.920  32.164  1.00  0.00    -0.248 NA
ATOM     37  C   UNL A   1      37.703  32.291  32.147  1.00  0.00     0.031 C 
ATOM     38  C   UNL A   1      38.748  29.772  27.912  1.00  0.00     0.029 A 
ATOM     39  N   UNL A   1      40.060  29.403  29.683  1.00  0.00    -0.354 N 
ATOM     40  C   UNL A   1      39.489  31.587  33.383  1.00  0.00     0.074 A 
ATOM     41  C   UNL A   1      38.364  32.489  33.276  1.00  0.00     0.031 C 
ATOM     42  C   UNL A   1      39.659  28.853  27.553  1.00  0.00     0.029 A 
ATOM     43  C   UNL A   1      40.546  28.592  28.683  1.00  0.00     0.049 A 
ATOM     44  H   UNL A   1      40.462  29.449  30.580  1.00  0.00     0.167 HD
ATOM     45  C   UNL A   1      40.243  31.441  34.503  1.00  0.00     0.034 A 
ATOM     46  C   UNL A   1      41.587  27.735  28.679  1.00  0.00     0.034 A 
ATOM     47  C   UNL A   1      41.335  30.504  34.613  1.00  0.00     0.049 A 
ATOM     48  C   UNL A   1      42.387  27.556  29.944  1.00  0.00     0.074 A 
ATOM     49  C   UNL A   1      42.141  30.236  35.706  1.00  0.00     0.029 A 
ATOM     50  N   UNL A   1      41.770  29.671  33.588  1.00  0.00    -0.354 N 
ATOM     51  N   UNL A   1      42.260  28.170  31.099  1.00  0.00    -0.248 NA
ATOM     52  C   UNL A   1      43.455  26.551  29.912  1.00  0.00     0.031 C 
ATOM     53  C   UNL A   1      43.092  29.279  35.329  1.00  0.00     0.029 A 
ATOM     54  C   UNL A   1      42.836  28.897  34.022  1.00  0.00     0.049 A 
ATOM     55  H   UNL A   1      41.378  29.635  32.686  1.00  0.00     0.167 HD
ATOM     56  C   UNL A   1      43.213  27.599  31.938  1.00  0.00     0.074 A 
ATOM     57  C   UNL A   1      43.890  26.579  31.163  1.00  0.00     0.031 C 
ATOM     58  C   UNL A   1      43.503  27.888  33.233  1.00  0.00     0.034 A 
BRANCH  45  59
ATOM     59  C   UNL A   1      39.916  32.331  35.683  1.00  0.00     0.023 A 
ATOM     60  C   UNL A   1      39.045  31.913  36.706  1.00  0.00     0.031 A 
ATOM     61  C   UNL A   1      40.439  33.633  35.762  1.00  0.00     0.131 A 
ATOM     62  C   UNL A   1      38.648  32.816  37.704  1.00  0.00     0.055 A 
ATOM     63  C   UNL A   1      40.113  34.497  36.812  1.00  0.00     0.041 A 
ATOM     64  F   UNL A   1      41.262  34.099  34.810  1.00  0.00    -0.206 F 
ATOM     65  C   UNL A   1      39.197  34.097  37.781  1.00  0.00     0.022 A 
BRANCH  62  66
ATOM     66  S   UNL A   1      37.280  32.347  38.800  1.00  0.00     0.124 S 
ATOM     67  O   UNL A   1      36.145  32.993  38.143  1.00  0.00    -0.237 OA
ATOM     68  O   UNL A   1      37.309  30.891  38.738  1.00  0.00    -0.237 OA
ATOM     69  O   UNL A   1      37.657  32.926  40.087  1.00  0.00    -0.744 OA
ENDBRANCH  62  66
ENDBRANCH  45  59
BRANCH  46  70
ATOM     70  C   UNL A   1      41.924  26.962  27.449  1.00  0.00     0.023 A 
ATOM     71  C   UNL A   1      41.727  25.573  27.390  1.00  0.00     0.031 A 
ATOM     72  C   UNL A   1      42.485  27.597  26.327  1.00  0.00     0.131 A 
ATOM     73  C   UNL A   1      42.132  24.855  26.254  1.00  0.00     0.055 A 
ATOM     74  C   UNL A   1      42.841  26.885  25.179  1.00  0.00     0.041 A 
ATOM     75  F   UNL A   1      42.685  28.924  26.327  1.00  0.00    -0.206 F 
ATOM     76  C   UNL A   1      42.678  25.503  25.144  1.00  0.00     0.022 A 
BRANCH  73  77
ATOM     77  S   UNL A   1      42.006  23.045  26.279  1.00  0.00     0.124 S 
ATOM     78  O   UNL A   1      42.632  22.685  25.013  1.00  0.00    -0.237 OA
ATOM     79  O   UNL A   1      42.754  22.708  27.485  1.00  0.00    -0.237 OA
ATOM     80  O   UNL A   1      40.566  22.807  26.355  1.00  0.00    -0.744 OA
ENDBRANCH  73  77
ENDBRANCH  46  70
BRANCH  58  81
ATOM     81  C   UNL A   1      44.566  27.047  33.896  1.00  0.00     0.023 A 
ATOM     82  C   UNL A   1      44.274  25.791  34.454  1.00  0.00     0.031 A 
ATOM     83  C   UNL A   1      45.883  27.530  34.003  1.00  0.00     0.131 A 
ATOM     84  C   UNL A   1      45.266  25.093  35.159  1.00  0.00     0.055 A 
ATOM     85  C   UNL A   1      46.882  26.800  34.650  1.00  0.00     0.041 A 
ATOM     86  F   UNL A   1      46.218  28.723  33.488  1.00  0.00    -0.206 F 
ATOM     87  C   UNL A   1      46.572  25.582  35.248  1.00  0.00     0.022 A 
BRANCH  84  88
ATOM     88  S   UNL A   1      44.795  23.591  36.063  1.00  0.00     0.124 S 
ATOM     89  O   UNL A   1      44.958  24.009  37.452  1.00  0.00    -0.237 OA
ATOM     90  O   UNL A   1      43.422  23.379  35.619  1.00  0.00    -0.237 OA
ATOM     91  O   UNL A   1      45.759  22.595  35.598  1.00  0.00    -0.744 OA
ENDBRANCH  84  88
ENDBRANCH  58  81
ENDBRANCH  32  33
ENDBRANCH  24  27
ENDBRANCH  22  23
ENDBRANCH   1  22
TORSDOF 17
ENDMDL
MODEL 2
REMARK VINA RESULT:     -11.6      1.966      3.072
REMARK SMILES CC1=C(C)C(=O)N(C[C@H](CC(C)C)C(=O)NCCCNC(=O)c2ccc(-c3c4nc(c(-c5cc(S(=O)(=O)[O-])ccc5F)c5ccc([nH]5)c(-c5cc(S(=O)(=O)[O-])ccc5F)c5nc(c(-c6cc(S(=O)(=O)[O-])ccc6F)c6ccc3[nH]6)C=C5)C=C4)cc2)C1=O
REMARK SMILES IDX 18 1 17 2 16 3 14 4 15 5 9 7 8 8 7 9 1 10 2 11 3 12 86 13
REMARK SMILES IDX 4 14 5 15 87 16 6 17 10 18 11 19 12 20 13 21 19 22 20 23
REMARK SMILES IDX 21 24 22 26 23 27 24 28 85 29 25 30 84 31 26 32 27 33 28 34
REMARK SMILES IDX 78 35 29 36 83 37 77 38 79 39 30 40 82 41 76 42 75 43 31 45
REMARK SMILES IDX 63 46 43 47 62 48 44 49 47 50 61 51 80 52 45 53 46 54 60 56
REMARK SMILES IDX 81 57 48 58 32 59 33 60 41 61 34 62 40 63 42 64 39 65 35 66
REMARK SMILES IDX 36 67 37 68 38 69 64 70 65 71 73 72 66 73 72 74 74 75 71 76
REMARK SMILES IDX 67 77 68 78 69 79 70 80 49 81 50 82 58 83 51 84 57 85 59 86
REMARK SMILES IDX 56 87 52 88 53 89 54 90 55 91
REMARK H PARENT 16 6 20 25 79 44 47 55
REMARK Flexibility Score: inf
ROOT
ATOM      1  C   UNL A   1      31.770  28.676  26.530  1.00  0.00     0.042 C 
ENDROOT
BRANCH   1   2
ATOM      2  C   UNL A   1      32.164  27.215  26.368  1.00  0.00     0.117 C 
BRANCH   2   3
ATOM      3  N   UNL A   1      31.108  26.294  26.732  1.00  0.00    -0.356 N 
ATOM      4  C   UNL A   1      30.666  25.146  26.163  1.00  0.00     0.224 C 
ATOM      5  O   UNL A   1      29.744  24.573  26.758  1.00  0.00    -0.275 OA
ATOM      6  H   UNL A   1      30.617  26.550  27.546  1.00  0.00     0.163 HD
BRANCH   4   7
ATOM      7  C   UNL A   1      31.182  24.551  24.842  1.00  0.00     0.099 C 
BRANCH   7   8
ATOM      8  C   UNL A   1      30.411  24.899  23.539  1.00  0.00     0.142 C 
BRANCH   8   9
ATOM      9  N   UNL A   1      29.981  26.277  23.366  1.00  0.00    -0.274 N 
ATOM     10  C   UNL A   1      30.358  29.679  22.054  1.00  0.00     0.051 C 
ATOM     11  C   UNL A   1      29.915  28.478  22.794  1.00  0.00     0.023 C 
ATOM     12  C   UNL A   1      28.686  28.134  23.196  1.00  0.00     0.023 C 
ATOM     13  C   UNL A   1      30.789  27.312  23.025  1.00  0.00     0.256 C 
ATOM     14  C   UNL A   1      27.397  28.840  23.017  1.00  0.00     0.051 C 
ATOM     15  C   UNL A   1      28.773  26.772  23.738  1.00  0.00     0.256 C 
ATOM     16  O   UNL A   1      32.002  27.324  22.910  1.00  0.00    -0.269 OA
ATOM     17  O   UNL A   1      27.895  26.229  24.386  1.00  0.00    -0.269 OA
ENDBRANCH   8   9
ENDBRANCH   7   8
BRANCH   7  18
ATOM     18  C   UNL A   1      31.893  23.184  25.017  1.00  0.00     0.018 C 
BRANCH  18  19
ATOM     19  C   UNL A   1      33.429  23.090  24.948  1.00  0.00    -0.017 C 
ATOM     20  C   UNL A   1      33.974  22.796  23.557  1.00  0.00     0.007 C 
ATOM     21  C   UNL A   1      34.062  24.409  25.413  1.00  0.00     0.007 C 
ENDBRANCH  18  19
ENDBRANCH   7  18
ENDBRANCH   4   7
ENDBRANCH   2   3
ENDBRANCH   1   2
BRANCH   1  22
ATOM     22  C   UNL A   1      32.639  29.646  25.752  1.00  0.00     0.118 C 
BRANCH  22  23
ATOM     23  N   UNL A   1      32.494  31.004  26.245  1.00  0.00    -0.352 N 
ATOM     24  C   UNL A   1      33.193  31.709  27.196  1.00  0.00     0.251 C 
ATOM     25  H   UNL A   1      31.764  31.512  25.822  1.00  0.00     0.163 HD
ATOM     26  O   UNL A   1      32.678  32.738  27.632  1.00  0.00    -0.269 OA
BRANCH  24  27
ATOM     27  C   UNL A   1      34.520  31.278  27.716  1.00  0.00     0.039 A 
ATOM     28  C   UNL A   1      34.701  29.923  28.027  1.00  0.00     0.014 A 
ATOM     29  C   UNL A   1      35.547  32.173  28.023  1.00  0.00     0.014 A 
ATOM     30  C   UNL A   1      35.882  29.481  28.637  1.00  0.00     0.010 A 
ATOM     31  C   UNL A   1      36.770  31.716  28.519  1.00  0.00     0.010 A 
ATOM     32  C   UNL A   1      36.933  30.375  28.889  1.00  0.00    -0.014 A 
BRANCH  32  33
ATOM     33  C   UNL A   1      38.147  29.955  29.646  1.00  0.00     0.031 A 
ATOM     34  C   UNL A   1      38.359  30.456  31.057  1.00  0.00     0.074 A 
ATOM     35  C   UNL A   1      39.066  29.151  29.075  1.00  0.00     0.049 A 
ATOM     36  N   UNL A   1      39.371  30.268  31.866  1.00  0.00    -0.248 NA
ATOM     37  C   UNL A   1      37.308  31.322  31.614  1.00  0.00     0.031 C 
ATOM     38  C   UNL A   1      39.003  28.631  27.709  1.00  0.00     0.029 A 
ATOM     39  N   UNL A   1      40.233  28.629  29.575  1.00  0.00    -0.354 N 
ATOM     40  C   UNL A   1      39.092  31.017  33.007  1.00  0.00     0.074 A 
ATOM     41  C   UNL A   1      37.854  31.720  32.752  1.00  0.00     0.031 C 
ATOM     42  C   UNL A   1      40.064  27.837  27.491  1.00  0.00     0.029 A 
ATOM     43  C   UNL A   1      40.902  27.818  28.687  1.00  0.00     0.049 A 
ATOM     44  H   UNL A   1      40.561  28.817  30.483  1.00  0.00     0.167 HD
ATOM     45  C   UNL A   1      39.782  31.091  34.175  1.00  0.00     0.034 A 
ATOM     46  C   UNL A   1      42.057  27.136  28.822  1.00  0.00     0.034 A 
ATOM     47  C   UNL A   1      40.992  30.349  34.434  1.00  0.00     0.049 A 
ATOM     48  C   UNL A   1      42.787  27.197  30.140  1.00  0.00     0.074 A 
ATOM     49  C   UNL A   1      41.753  30.308  35.589  1.00  0.00     0.029 A 
ATOM     50  N   UNL A   1      41.615  29.506  33.520  1.00  0.00    -0.354 N 
ATOM     51  N   UNL A   1      42.491  27.885  31.220  1.00  0.00    -0.248 NA
ATOM     52  C   UNL A   1      43.994  26.372  30.263  1.00  0.00     0.031 C 
ATOM     53  C   UNL A   1      42.859  29.481  35.359  1.00  0.00     0.029 A 
ATOM     54  C   UNL A   1      42.753  28.949  34.084  1.00  0.00     0.049 A 
ATOM     55  H   UNL A   1      41.294  29.329  32.607  1.00  0.00     0.167 HD
ATOM     56  C   UNL A   1      43.460  27.546  32.161  1.00  0.00     0.074 A 
ATOM     57  C   UNL A   1      44.333  26.579  31.527  1.00  0.00     0.031 C 
ATOM     58  C   UNL A   1      43.616  27.991  33.434  1.00  0.00     0.034 A 
BRANCH  45  59
ATOM     59  C   UNL A   1      39.245  32.020  35.242  1.00  0.00     0.023 A 
ATOM     60  C   UNL A   1      39.671  33.357  35.341  1.00  0.00     0.031 A 
ATOM     61  C   UNL A   1      38.334  31.551  36.206  1.00  0.00     0.131 A 
ATOM     62  C   UNL A   1      39.268  34.145  36.430  1.00  0.00     0.055 A 
ATOM     63  C   UNL A   1      37.862  32.371  37.235  1.00  0.00     0.041 A 
ATOM     64  F   UNL A   1      37.902  30.281  36.178  1.00  0.00    -0.206 F 
ATOM     65  C   UNL A   1      38.343  33.671  37.363  1.00  0.00     0.022 A 
BRANCH  62  66
ATOM     66  S   UNL A   1      40.095  35.737  36.700  1.00  0.00     0.124 S 
ATOM     67  O   UNL A   1      39.610  36.514  35.561  1.00  0.00    -0.237 OA
ATOM     68  O   UNL A   1      39.591  36.138  38.007  1.00  0.00    -0.237 OA
ATOM     69  O   UNL A   1      41.515  35.399  36.653  1.00  0.00    -0.744 OA
ENDBRANCH  62  66
ENDBRANCH  45  59
BRANCH  46  70
ATOM     70  C   UNL A   1      42.589  26.319  27.694  1.00  0.00     0.023 A 
ATOM     71  C   UNL A   1      42.163  24.996  27.495  1.00  0.00     0.031 A 
ATOM     72  C   UNL A   1      43.560  26.838  26.820  1.00  0.00     0.131 A 
ATOM     73  C   UNL A   1      42.742  24.220  26.479  1.00  0.00     0.055 A 
ATOM     74  C   UNL A   1      44.097  26.077  25.779  1.00  0.00     0.041 A 
ATOM     75  F   UNL A   1      43.994  28.101  26.959  1.00  0.00    -0.206 F 
ATOM     76  C   UNL A   1      43.698  24.755  25.613  1.00  0.00     0.022 A 
BRANCH  73  77
ATOM     77  S   UNL A   1      42.281  22.469  26.355  1.00  0.00     0.124 S 
ATOM     78  O   UNL A   1      42.770  21.941  27.623  1.00  0.00    -0.237 OA
ATOM     79  O   UNL A   1      40.833  22.549  26.207  1.00  0.00    -0.237 OA
ATOM     80  O   UNL A   1      43.002  22.012  25.168  1.00  0.00    -0.744 OA
ENDBRANCH  73  77
ENDBRANCH  46  70
BRANCH  58  81
ATOM     81  C   UNL A   1      44.745  27.388  34.233  1.00  0.00     0.023 A 
ATOM     82  C   UNL A   1      44.564  26.236  35.019  1.00  0.00     0.031 A 
ATOM     83  C   UNL A   1      46.013  27.998  34.235  1.00  0.00     0.131 A 
ATOM     84  C   UNL A   1      45.610  25.775  35.832  1.00  0.00     0.055 A 
ATOM     85  C   UNL A   1      47.069  27.495  34.997  1.00  0.00     0.041 A 
ATOM     86  F   UNL A   1      46.243  29.099  33.503  1.00  0.00    -0.206 F 
ATOM     87  C   UNL A   1      46.865  26.387  35.815  1.00  0.00     0.022 A 
BRANCH  84  88
ATOM     88  S   UNL A   1      45.270  24.433  37.005  1.00  0.00     0.124 S 
ATOM     89  O   UNL A   1      44.184  24.994  37.803  1.00  0.00    -0.237 OA
ATOM     90  O   UNL A   1      44.906  23.331  36.121  1.00  0.00    -0.237 OA
ATOM     91  O   UNL A   1      46.538  24.267  37.713  1.00  0.00    -0.744 OA
ENDBRANCH  84  88
ENDBRANCH  58  81
ENDBRANCH  32  33
ENDBRANCH  24  27
ENDBRANCH  22  23
ENDBRANCH   1  22
TORSDOF 17
ENDMDL
MODEL 3
REMARK VINA RESULT:     -11.5      5.106     10.490
REMARK SMILES CC1=C(C)C(=O)N(C[C@H](CC(C)C)C(=O)NCCCNC(=O)c2ccc(-c3c4nc(c(-c5cc(S(=O)(=O)[O-])ccc5F)c5ccc([nH]5)c(-c5cc(S(=O)(=O)[O-])ccc5F)c5nc(c(-c6cc(S(=O)(=O)[O-])ccc6F)c6ccc3[nH]6)C=C5)C=C4)cc2)C1=O
REMARK SMILES IDX 18 1 17 2 16 3 14 4 15 5 9 7 8 8 7 9 1 10 2 11 3 12 86 13
REMARK SMILES IDX 4 14 5 15 87 16 6 17 10 18 11 19 12 20 13 21 19 22 20 23
REMARK SMILES IDX 21 24 22 26 23 27 24 28 85 29 25 30 84 31 26 32 27 33 28 34
REMARK SMILES IDX 78 35 29 36 83 37 77 38 79 39 30 40 82 41 76 42 75 43 31 45
REMARK SMILES IDX 63 46 43 47 62 48 44 49 47 50 61 51 80 52 45 53 46 54 60 56
REMARK SMILES IDX 81 57 48 58 32 59 33 60 41 61 34 62 40 63 42 64 39 65 35 66
REMARK SMILES IDX 36 67 37 68 38 69 64 70 65 71 73 72 66 73 72 74 74 75 71 76
REMARK SMILES IDX 67 77 68 78 69 79 70 80 49 81 50 82 58 83 51 84 57 85 59 86
REMARK SMILES IDX 56 87 52 88 53 89 54 90 55 91
REMARK H PARENT 16 6 20 25 79 44 47 55
REMARK Flexibility Score: inf
ROOT
ATOM      1  C   UNL A   1      35.797  21.700  25.394  1.00  0.00     0.042 C 
ENDROOT
BRANCH   1   2
ATOM      2  C   UNL A   1      35.159  22.963  25.954  1.00  0.00     0.117 C 
BRANCH   2   3
ATOM      3  N   UNL A   1      34.309  22.716  27.100  1.00  0.00    -0.356 N 
ATOM      4  C   UNL A   1      32.962  22.665  27.239  1.00  0.00     0.224 C 
ATOM      5  O   UNL A   1      32.551  22.394  28.375  1.00  0.00    -0.275 OA
ATOM      6  H   UNL A   1      34.804  22.554  27.936  1.00  0.00     0.163 HD
BRANCH   4   7
ATOM      7  C   UNL A   1      31.940  22.963  26.130  1.00  0.00     0.099 C 
BRANCH   7   8
ATOM      8  C   UNL A   1      30.897  24.087  26.385  1.00  0.00     0.142 C 
BRANCH   8   9
ATOM      9  N   UNL A   1      30.935  25.244  25.508  1.00  0.00    -0.274 N 
ATOM     10  C   UNL A   1      31.700  28.749  24.749  1.00  0.00     0.051 C 
ATOM     11  C   UNL A   1      31.200  27.357  24.706  1.00  0.00     0.023 C 
ATOM     12  C   UNL A   1      31.024  26.551  23.653  1.00  0.00     0.023 C 
ATOM     13  C   UNL A   1      31.015  26.535  25.917  1.00  0.00     0.256 C 
ATOM     14  C   UNL A   1      31.279  26.798  22.216  1.00  0.00     0.051 C 
ATOM     15  C   UNL A   1      30.668  25.225  24.176  1.00  0.00     0.256 C 
ATOM     16  O   UNL A   1      30.959  26.977  27.051  1.00  0.00    -0.269 OA
ATOM     17  O   UNL A   1      30.229  24.311  23.501  1.00  0.00    -0.269 OA
ENDBRANCH   8   9
ENDBRANCH   7   8
BRANCH   7  18
ATOM     18  C   UNL A   1      31.597  21.727  25.259  1.00  0.00     0.018 C 
BRANCH  18  19
ATOM     19  C   UNL A   1      32.622  21.174  24.251  1.00  0.00    -0.017 C 
ATOM     20  C   UNL A   1      32.873  19.678  24.373  1.00  0.00     0.007 C 
ATOM     21  C   UNL A   1      32.147  21.439  22.815  1.00  0.00     0.007 C 
ENDBRANCH  18  19
ENDBRANCH   7  18
ENDBRANCH   4   7
ENDBRANCH   2   3
ENDBRANCH   1   2
BRANCH   1  22
ATOM     22  C   UNL A   1      37.198  21.898  24.847  1.00  0.00     0.118 C 
BRANCH  22  23
ATOM     23  N   UNL A   1      38.130  20.939  25.412  1.00  0.00    -0.352 N 
ATOM     24  C   UNL A   1      39.322  21.107  26.076  1.00  0.00     0.251 C 
ATOM     25  H   UNL A   1      37.860  19.999  25.299  1.00  0.00     0.163 HD
ATOM     26  O   UNL A   1      40.055  20.124  26.185  1.00  0.00    -0.269 OA
BRANCH  24  27
ATOM     27  C   UNL A   1      39.757  22.410  26.651  1.00  0.00     0.039 A 
ATOM     28  C   UNL A   1      39.180  23.582  26.142  1.00  0.00     0.014 A 
ATOM     29  C   UNL A   1      40.794  22.527  27.579  1.00  0.00     0.014 A 
ATOM     30  C   UNL A   1      39.639  24.841  26.553  1.00  0.00     0.010 A 
ATOM     31  C   UNL A   1      41.169  23.777  28.078  1.00  0.00     0.010 A 
ATOM     32  C   UNL A   1      40.640  24.952  27.529  1.00  0.00    -0.014 A 
BRANCH  32  33
ATOM     33  C   UNL A   1      41.230  26.272  27.892  1.00  0.00     0.031 A 
ATOM     34  C   UNL A   1      42.637  26.609  27.450  1.00  0.00     0.074 A 
ATOM     35  C   UNL A   1      40.528  27.157  28.627  1.00  0.00     0.049 A 
ATOM     36  N   UNL A   1      43.362  27.669  27.711  1.00  0.00    -0.248 NA
ATOM     37  C   UNL A   1      43.335  25.597  26.643  1.00  0.00     0.031 C 
ATOM     38  C   UNL A   1      39.178  26.940  29.151  1.00  0.00     0.029 A 
ATOM     39  N   UNL A   1      40.852  28.419  29.060  1.00  0.00    -0.354 N 
ATOM     40  C   UNL A   1      44.606  27.432  27.130  1.00  0.00     0.074 A 
ATOM     41  C   UNL A   1      44.558  26.099  26.571  1.00  0.00     0.031 C 
ATOM     42  C   UNL A   1      38.777  28.043  29.803  1.00  0.00     0.029 A 
ATOM     43  C   UNL A   1      39.851  29.032  29.778  1.00  0.00     0.049 A 
ATOM     44  H   UNL A   1      41.720  28.845  28.876  1.00  0.00     0.167 HD
ATOM     45  C   UNL A   1      45.681  28.257  27.039  1.00  0.00     0.034 A 
ATOM     46  C   UNL A   1      39.803  30.253  30.347  1.00  0.00     0.034 A 
ATOM     47  C   UNL A   1      45.699  29.602  27.562  1.00  0.00     0.049 A 
ATOM     48  C   UNL A   1      40.991  31.171  30.200  1.00  0.00     0.074 A 
ATOM     49  C   UNL A   1      46.710  30.545  27.491  1.00  0.00     0.029 A 
ATOM     50  N   UNL A   1      44.648  30.201  28.247  1.00  0.00    -0.354 N 
ATOM     51  N   UNL A   1      42.147  30.943  29.618  1.00  0.00    -0.248 NA
ATOM     52  C   UNL A   1      40.857  32.518  30.765  1.00  0.00     0.031 C 
ATOM     53  C   UNL A   1      46.291  31.693  28.175  1.00  0.00     0.029 A 
ATOM     54  C   UNL A   1      44.991  31.494  28.611  1.00  0.00     0.049 A 
ATOM     55  H   UNL A   1      43.786  29.770  28.443  1.00  0.00     0.167 HD
ATOM     56  C   UNL A   1      42.863  32.133  29.721  1.00  0.00     0.074 A 
ATOM     57  C   UNL A   1      42.000  33.078  30.400  1.00  0.00     0.031 C 
ATOM     58  C   UNL A   1      44.119  32.421  29.293  1.00  0.00     0.034 A 
BRANCH  45  59
ATOM     59  C   UNL A   1      46.921  27.712  26.365  1.00  0.00     0.023 A 
ATOM     60  C   UNL A   1      47.244  28.036  25.034  1.00  0.00     0.031 A 
ATOM     61  C   UNL A   1      47.766  26.815  27.042  1.00  0.00     0.131 A 
ATOM     62  C   UNL A   1      48.317  27.397  24.395  1.00  0.00     0.055 A 
ATOM     63  C   UNL A   1      48.890  26.253  26.429  1.00  0.00     0.041 A 
ATOM     64  F   UNL A   1      47.505  26.451  28.307  1.00  0.00    -0.206 F 
ATOM     65  C   UNL A   1      49.160  26.528  25.091  1.00  0.00     0.022 A 
BRANCH  62  66
ATOM     66  S   UNL A   1      48.493  27.589  22.600  1.00  0.00     0.124 S 
ATOM     67  O   UNL A   1      47.235  28.246  22.252  1.00  0.00    -0.237 OA
ATOM     68  O   UNL A   1      49.694  28.408  22.486  1.00  0.00    -0.237 OA
ATOM     69  O   UNL A   1      48.625  26.216  22.118  1.00  0.00    -0.744 OA
ENDBRANCH  62  66
ENDBRANCH  45  59
BRANCH  46  70
ATOM     70  C   UNL A   1      38.588  30.694  31.090  1.00  0.00     0.023 A 
ATOM     71  C   UNL A   1      37.520  31.317  30.425  1.00  0.00     0.031 A 
ATOM     72  C   UNL A   1      38.494  30.533  32.483  1.00  0.00     0.131 A 
ATOM     73  C   UNL A   1      36.425  31.800  31.158  1.00  0.00     0.055 A 
ATOM     74  C   UNL A   1      37.380  30.972  33.202  1.00  0.00     0.041 A 
ATOM     75  F   UNL A   1      39.482  29.935  33.166  1.00  0.00    -0.206 F 
ATOM     76  C   UNL A   1      36.342  31.622  32.540  1.00  0.00     0.022 A 
BRANCH  73  77
ATOM     77  S   UNL A   1      35.140  32.738  30.284  1.00  0.00     0.124 S 
ATOM     78  O   UNL A   1      35.880  33.913  29.837  1.00  0.00    -0.237 OA
ATOM     79  O   UNL A   1      34.736  31.799  29.244  1.00  0.00    -0.237 OA
ATOM     80  O   UNL A   1      34.138  32.987  31.319  1.00  0.00    -0.744 OA
ENDBRANCH  73  77
ENDBRANCH  46  70
BRANCH  58  81
ATOM     81  C   UNL A   1      44.603  33.835  29.506  1.00  0.00     0.023 A 
ATOM     82  C   UNL A   1      44.529  34.803  28.490  1.00  0.00     0.031 A 
ATOM     83  C   UNL A   1      45.181  34.206  30.733  1.00  0.00     0.131 A 
ATOM     84  C   UNL A   1      45.092  36.072  28.692  1.00  0.00     0.055 A 
ATOM     85  C   UNL A   1      45.680  35.491  30.951  1.00  0.00     0.041 A 
ATOM     86  F   UNL A   1      45.277  33.322  31.739  1.00  0.00    -0.206 F 
ATOM     87  C   UNL A   1      45.654  36.427  29.921  1.00  0.00     0.022 A 
BRANCH  84  88
ATOM     88  S   UNL A   1      45.188  37.214  27.286  1.00  0.00     0.124 S 
ATOM     89  O   UNL A   1      43.778  37.460  26.998  1.00  0.00    -0.237 OA
ATOM     90  O   UNL A   1      45.929  38.338  27.848  1.00  0.00    -0.237 OA
ATOM     91  O   UNL A   1      45.903  36.445  26.268  1.00  0.00    -0.744 OA
ENDBRANCH  84  88
ENDBRANCH  58  81
ENDBRANCH  32  33
ENDBRANCH  24  27
ENDBRANCH  22  23
ENDBRANCH   1  22
TORSDOF 17
ENDMDL
