MODEL 1
REMARK VINA RESULT:     -13.4      0.000      0.000
REMARK SMILES Cc1ccnc(-n2c(C)nc3c(C(=O)NCCCNC(=O)c4ccc(-c5c6nc(c(-c7cc(S(=O)(=O)[O-])ccc7F)c7ccc([nH]7)c(-c7cc(S(=O)(=O)[O-])ccc7F)c7nc(c(-c8cc(S(=O)(=O)[O-])ccc8F)c8ccc5[nH]8)C=C7)C=C6)cc4)cccc32)c1
REMARK SMILES IDX 18 1 17 2 16 3 15 4 13 5 14 6 12 8 7 9 8 10 88 11 9 12 10 13
REMARK SMILES IDX 11 14 87 15 86 16 85 17 6 18 1 19 2 20 3 21 89 22 4 23 5 24
REMARK SMILES IDX 19 25 20 26 21 28 22 29 23 30 84 31 24 32 83 33 25 34 26 35
REMARK SMILES IDX 27 36 77 37 28 38 82 39 76 40 78 41 29 42 81 43 75 44 74 45
REMARK SMILES IDX 30 47 62 48 42 49 61 50 43 51 46 52 60 53 79 54 44 55 45 56
REMARK SMILES IDX 59 58 80 59 47 60 31 61 32 62 40 63 33 64 39 65 41 66 38 67
REMARK SMILES IDX 34 68 35 69 36 70 37 71 63 72 64 73 72 74 65 75 71 76 73 77
REMARK SMILES IDX 70 78 66 79 67 80 68 81 69 82 48 83 49 84 57 85 50 86 56 87
REMARK SMILES IDX 58 88 55 89 51 90 52 91 53 92 54 93
REMARK H PARENT 15 7 19 27 78 46 46 57
REMARK Flexibility Score: inf
ROOT
ATOM      1  C   UNL A   1      33.550  30.071  27.486  1.00  0.00     0.118 C 
ENDROOT
BRANCH   1   2
ATOM      2  C   UNL A   1      32.326  30.024  26.573  1.00  0.00     0.042 C 
BRANCH   2   3
ATOM      3  C   UNL A   1      32.488  29.029  25.414  1.00  0.00     0.118 C 
BRANCH   3   4
ATOM      4  N   UNL A   1      31.240  28.832  24.688  1.00  0.00    -0.352 N 
ATOM      5  C   UNL A   1      30.738  27.897  23.810  1.00  0.00     0.253 C 
ATOM      6  O   UNL A   1      29.565  28.086  23.481  1.00  0.00    -0.269 OA
ATOM      7  H   UNL A   1      30.591  29.550  24.870  1.00  0.00     0.163 HD
BRANCH   5   8
ATOM      8  C   UNL A   1      31.492  26.714  23.290  1.00  0.00     0.067 A 
ATOM      9  N   UNL A   1      32.625  23.650  24.729  1.00  0.00    -0.281 N 
ATOM     10  C   UNL A   1      31.900  24.173  25.780  1.00  0.00     0.112 A 
ATOM     11  C   UNL A   1      32.554  24.557  23.681  1.00  0.00     0.075 A 
ATOM     12  C   UNL A   1      31.766  23.524  27.113  1.00  0.00     0.088 C 
ATOM     13  N   UNL A   1      31.450  25.378  25.479  1.00  0.00    -0.232 NA
ATOM     14  C   UNL A   1      31.797  25.628  24.162  1.00  0.00     0.102 A 
ATOM     15  C   UNL A   1      33.020  24.478  22.361  1.00  0.00     0.029 A 
ATOM     16  C   UNL A   1      32.668  25.504  21.501  1.00  0.00     0.003 A 
ATOM     17  C   UNL A   1      31.892  26.570  21.948  1.00  0.00     0.016 A 
BRANCH   9  18
ATOM     18  C   UNL A   1      33.290  22.402  24.678  1.00  0.00     0.138 A 
ATOM     19  C   UNL A   1      32.460  18.840  23.717  1.00  0.00     0.044 C 
ATOM     20  C   UNL A   1      33.180  20.045  24.240  1.00  0.00    -0.046 A 
ATOM     21  C   UNL A   1      34.472  19.943  24.754  1.00  0.00     0.023 A 
ATOM     22  C   UNL A   1      32.569  21.298  24.225  1.00  0.00     0.051 A 
ATOM     23  C   UNL A   1      35.116  21.097  25.177  1.00  0.00     0.114 A 
ATOM     24  N   UNL A   1      34.570  22.331  25.115  1.00  0.00    -0.239 NA
ENDBRANCH   9  18
ENDBRANCH   5   8
ENDBRANCH   3   4
ENDBRANCH   2   3
ENDBRANCH   1   2
BRANCH   1  25
ATOM     25  N   UNL A   1      34.175  31.375  27.524  1.00  0.00    -0.352 N 
ATOM     26  C   UNL A   1      35.413  31.872  27.772  1.00  0.00     0.251 C 
ATOM     27  H   UNL A   1      33.532  32.090  27.316  1.00  0.00     0.163 HD
ATOM     28  O   UNL A   1      35.527  33.084  27.555  1.00  0.00    -0.269 OA
BRANCH  26  29
ATOM     29  C   UNL A   1      36.552  31.145  28.378  1.00  0.00     0.039 A 
ATOM     30  C   UNL A   1      37.514  31.603  29.277  1.00  0.00     0.014 A 
ATOM     31  C   UNL A   1      36.645  29.817  27.961  1.00  0.00     0.014 A 
ATOM     32  C   UNL A   1      38.710  30.863  29.414  1.00  0.00     0.010 A 
ATOM     33  C   UNL A   1      37.689  29.029  28.385  1.00  0.00     0.010 A 
ATOM     34  C   UNL A   1      38.866  29.612  28.780  1.00  0.00    -0.014 A 
BRANCH  34  35
ATOM     35  C   UNL A   1      40.028  28.702  28.955  1.00  0.00     0.031 A 
ATOM     36  C   UNL A   1      40.220  28.525  30.436  1.00  0.00     0.074 A 
ATOM     37  C   UNL A   1      40.761  28.078  27.961  1.00  0.00     0.049 A 
ATOM     38  N   UNL A   1      41.092  29.176  31.132  1.00  0.00    -0.248 NA
ATOM     39  C   UNL A   1      39.180  27.912  31.297  1.00  0.00     0.031 C 
ATOM     40  C   UNL A   1      40.625  28.104  26.483  1.00  0.00     0.029 A 
ATOM     41  N   UNL A   1      41.886  27.255  28.069  1.00  0.00    -0.354 N 
ATOM     42  C   UNL A   1      40.949  28.737  32.441  1.00  0.00     0.074 A 
ATOM     43  C   UNL A   1      39.641  28.162  32.529  1.00  0.00     0.031 C 
ATOM     44  C   UNL A   1      41.407  27.150  25.892  1.00  0.00     0.029 A 
ATOM     45  C   UNL A   1      42.232  26.501  26.898  1.00  0.00     0.049 A 
ATOM     46  H   UNL A   1      42.411  27.196  28.900  1.00  0.00     0.167 HD
ATOM     47  C   UNL A   1      42.054  28.621  33.225  1.00  0.00     0.034 A 
ATOM     48  C   UNL A   1      43.286  25.615  26.703  1.00  0.00     0.034 A 
ATOM     49  C   UNL A   1      43.147  29.337  32.612  1.00  0.00     0.049 A 
ATOM     50  C   UNL A   1      44.247  25.858  27.807  1.00  0.00     0.074 A 
ATOM     51  C   UNL A   1      43.391  30.664  32.320  1.00  0.00     0.029 A 
ATOM     52  N   UNL A   1      43.878  28.593  31.722  1.00  0.00    -0.354 N 
ATOM     53  N   UNL A   1      44.954  26.952  27.857  1.00  0.00    -0.248 NA
ATOM     54  C   UNL A   1      43.913  25.219  29.075  1.00  0.00     0.031 C 
ATOM     55  C   UNL A   1      43.961  30.664  31.013  1.00  0.00     0.029 A 
ATOM     56  C   UNL A   1      44.214  29.347  30.630  1.00  0.00     0.049 A 
ATOM     57  H   UNL A   1      44.127  27.648  31.851  1.00  0.00     0.167 HD
ATOM     58  C   UNL A   1      44.698  27.429  29.128  1.00  0.00     0.074 A 
ATOM     59  C   UNL A   1      44.036  26.315  29.832  1.00  0.00     0.031 C 
ATOM     60  C   UNL A   1      44.692  28.769  29.393  1.00  0.00     0.034 A 
BRANCH  47  61
ATOM     61  C   UNL A   1      42.262  27.520  34.238  1.00  0.00     0.023 A 
ATOM     62  C   UNL A   1      43.053  26.373  34.008  1.00  0.00     0.031 A 
ATOM     63  C   UNL A   1      41.822  27.712  35.565  1.00  0.00     0.131 A 
ATOM     64  C   UNL A   1      43.318  25.453  35.039  1.00  0.00     0.055 A 
ATOM     65  C   UNL A   1      42.148  26.833  36.605  1.00  0.00     0.041 A 
ATOM     66  F   UNL A   1      41.089  28.786  35.898  1.00  0.00    -0.206 F 
ATOM     67  C   UNL A   1      42.890  25.690  36.342  1.00  0.00     0.022 A 
BRANCH  64  68
ATOM     68  S   UNL A   1      44.190  23.893  34.714  1.00  0.00     0.124 S 
ATOM     69  O   UNL A   1      45.337  24.333  33.928  1.00  0.00    -0.237 OA
ATOM     70  O   UNL A   1      44.492  23.444  36.071  1.00  0.00    -0.237 OA
ATOM     71  O   UNL A   1      43.199  23.089  34.003  1.00  0.00    -0.744 OA
ENDBRANCH  64  68
ENDBRANCH  47  61
BRANCH  48  72
ATOM     72  C   UNL A   1      43.269  24.220  26.111  1.00  0.00     0.023 A 
ATOM     73  C   UNL A   1      42.081  23.498  26.245  1.00  0.00     0.031 A 
ATOM     74  C   UNL A   1      44.425  23.449  25.788  1.00  0.00     0.131 A 
ATOM     75  C   UNL A   1      42.067  22.094  26.189  1.00  0.00     0.055 A 
ATOM     76  C   UNL A   1      44.395  22.038  25.659  1.00  0.00     0.041 A 
ATOM     77  F   UNL A   1      45.630  24.029  25.660  1.00  0.00    -0.206 F 
ATOM     78  C   UNL A   1      43.211  21.350  25.896  1.00  0.00     0.022 A 
BRANCH  75  79
ATOM     79  S   UNL A   1      40.559  21.224  26.688  1.00  0.00     0.124 S 
ATOM     80  O   UNL A   1      40.751  19.904  26.092  1.00  0.00    -0.237 OA
ATOM     81  O   UNL A   1      40.656  21.284  28.141  1.00  0.00    -0.237 OA
ATOM     82  O   UNL A   1      39.497  22.026  26.088  1.00  0.00    -0.744 OA
ENDBRANCH  75  79
ENDBRANCH  48  72
BRANCH  60  83
ATOM     83  C   UNL A   1      45.140  29.744  28.322  1.00  0.00     0.023 A 
ATOM     84  C   UNL A   1      46.498  30.083  28.342  1.00  0.00     0.031 A 
ATOM     85  C   UNL A   1      44.302  30.506  27.481  1.00  0.00     0.131 A 
ATOM     86  C   UNL A   1      46.978  31.161  27.596  1.00  0.00     0.055 A 
ATOM     87  C   UNL A   1      44.800  31.539  26.669  1.00  0.00     0.041 A 
ATOM     88  F   UNL A   1      42.973  30.343  27.490  1.00  0.00    -0.206 F 
ATOM     89  C   UNL A   1      46.146  31.878  26.733  1.00  0.00     0.022 A 
BRANCH  86  90
ATOM     90  S   UNL A   1      48.654  31.775  27.879  1.00  0.00     0.124 S 
ATOM     91  O   UNL A   1      49.313  31.473  26.619  1.00  0.00    -0.237 OA
ATOM     92  O   UNL A   1      48.422  33.187  28.155  1.00  0.00    -0.237 OA
ATOM     93  O   UNL A   1      49.122  30.992  29.036  1.00  0.00    -0.744 OA
ENDBRANCH  86  90
ENDBRANCH  60  83
ENDBRANCH  34  35
ENDBRANCH  26  29
ENDBRANCH   1  25
TORSDOF 14
ENDMDL
MODEL 2
REMARK VINA RESULT:     -13.4      3.369      9.093
REMARK SMILES Cc1ccnc(-n2c(C)nc3c(C(=O)NCCCNC(=O)c4ccc(-c5c6nc(c(-c7cc(S(=O)(=O)[O-])ccc7F)c7ccc([nH]7)c(-c7cc(S(=O)(=O)[O-])ccc7F)c7nc(c(-c8cc(S(=O)(=O)[O-])ccc8F)c8ccc5[nH]8)C=C7)C=C6)cc4)cccc32)c1
REMARK SMILES IDX 18 1 17 2 16 3 15 4 13 5 14 6 12 8 7 9 8 10 88 11 9 12 10 13
REMARK SMILES IDX 11 14 87 15 86 16 85 17 6 18 1 19 2 20 3 21 89 22 4 23 5 24
REMARK SMILES IDX 19 25 20 26 21 28 22 29 23 30 84 31 24 32 83 33 25 34 26 35
REMARK SMILES IDX 27 36 77 37 28 38 82 39 76 40 78 41 29 42 81 43 75 44 74 45
REMARK SMILES IDX 30 47 62 48 42 49 61 50 43 51 46 52 60 53 79 54 44 55 45 56
REMARK SMILES IDX 59 58 80 59 47 60 31 61 32 62 40 63 33 64 39 65 41 66 38 67
REMARK SMILES IDX 34 68 35 69 36 70 37 71 63 72 64 73 72 74 65 75 71 76 73 77
REMARK SMILES IDX 70 78 66 79 67 80 68 81 69 82 48 83 49 84 57 85 50 86 56 87
REMARK SMILES IDX 58 88 55 89 51 90 52 91 53 92 54 93
REMARK H PARENT 15 7 19 27 78 46 46 57
REMARK Flexibility Score: inf
ROOT
ATOM      1  C   UNL A   1      38.039  22.574  25.688  1.00  0.00     0.118 C 
ENDROOT
BRANCH   1   2
ATOM      2  C   UNL A   1      36.968  21.522  25.401  1.00  0.00     0.042 C 
BRANCH   2   3
ATOM      3  C   UNL A   1      35.545  22.041  25.650  1.00  0.00     0.118 C 
BRANCH   3   4
ATOM      4  N   UNL A   1      34.548  21.275  24.912  1.00  0.00    -0.352 N 
ATOM      5  C   UNL A   1      33.217  21.424  24.591  1.00  0.00     0.253 C 
ATOM      6  O   UNL A   1      32.768  20.537  23.862  1.00  0.00    -0.269 OA
ATOM      7  H   UNL A   1      34.922  20.439  24.551  1.00  0.00     0.163 HD
BRANCH   5   8
ATOM      8  C   UNL A   1      32.348  22.557  25.034  1.00  0.00     0.067 A 
ATOM      9  N   UNL A   1      31.871  25.915  23.920  1.00  0.00    -0.281 N 
ATOM     10  C   UNL A   1      32.732  25.445  22.951  1.00  0.00     0.112 A 
ATOM     11  C   UNL A   1      31.641  24.878  24.813  1.00  0.00     0.075 A 
ATOM     12  C   UNL A   1      33.264  26.267  21.830  1.00  0.00     0.088 C 
ATOM     13  N   UNL A   1      33.111  24.210  23.227  1.00  0.00    -0.232 NA
ATOM     14  C   UNL A   1      32.413  23.808  24.353  1.00  0.00     0.102 A 
ATOM     15  C   UNL A   1      30.776  24.783  25.912  1.00  0.00     0.029 A 
ATOM     16  C   UNL A   1      30.667  23.550  26.531  1.00  0.00     0.003 A 
ATOM     17  C   UNL A   1      31.406  22.460  26.077  1.00  0.00     0.016 A 
BRANCH   9  18
ATOM     18  C   UNL A   1      31.275  27.197  23.995  1.00  0.00     0.138 A 
ATOM     19  C   UNL A   1      28.158  28.900  22.699  1.00  0.00     0.044 C 
ATOM     20  C   UNL A   1      29.490  28.661  23.342  1.00  0.00    -0.046 A 
ATOM     21  C   UNL A   1      30.193  29.702  23.946  1.00  0.00     0.023 A 
ATOM     22  C   UNL A   1      30.056  27.387  23.347  1.00  0.00     0.051 A 
ATOM     23  C   UNL A   1      31.398  29.419  24.573  1.00  0.00     0.114 A 
ATOM     24  N   UNL A   1      31.938  28.183  24.647  1.00  0.00    -0.239 NA
ENDBRANCH   9  18
ENDBRANCH   5   8
ENDBRANCH   3   4
ENDBRANCH   2   3
ENDBRANCH   1   2
BRANCH   1  25
ATOM     25  N   UNL A   1      39.147  22.054  26.458  1.00  0.00    -0.352 N 
ATOM     26  C   UNL A   1      40.066  22.546  27.327  1.00  0.00     0.251 C 
ATOM     27  H   UNL A   1      39.266  21.088  26.313  1.00  0.00     0.163 HD
ATOM     28  O   UNL A   1      40.769  21.683  27.865  1.00  0.00    -0.269 OA
BRANCH  26  29
ATOM     29  C   UNL A   1      40.372  23.974  27.574  1.00  0.00     0.039 A 
ATOM     30  C   UNL A   1      41.602  24.586  27.812  1.00  0.00     0.014 A 
ATOM     31  C   UNL A   1      39.241  24.791  27.566  1.00  0.00     0.014 A 
ATOM     32  C   UNL A   1      41.610  25.871  28.398  1.00  0.00     0.010 A 
ATOM     33  C   UNL A   1      39.353  26.133  27.846  1.00  0.00     0.010 A 
ATOM     34  C   UNL A   1      40.409  26.587  28.594  1.00  0.00    -0.014 A 
BRANCH  34  35
ATOM     35  C   UNL A   1      40.316  27.986  29.087  1.00  0.00     0.031 A 
ATOM     36  C   UNL A   1      41.375  28.770  28.364  1.00  0.00     0.074 A 
ATOM     37  C   UNL A   1      39.398  28.497  29.988  1.00  0.00     0.049 A 
ATOM     38  N   UNL A   1      42.529  29.058  28.867  1.00  0.00    -0.248 NA
ATOM     39  C   UNL A   1      41.366  28.932  26.889  1.00  0.00     0.031 C 
ATOM     40  C   UNL A   1      38.268  27.856  30.703  1.00  0.00     0.029 A 
ATOM     41  N   UNL A   1      39.298  29.787  30.519  1.00  0.00    -0.354 N 
ATOM     42  C   UNL A   1      43.209  29.776  27.893  1.00  0.00     0.074 A 
ATOM     43  C   UNL A   1      42.568  29.470  26.651  1.00  0.00     0.031 C 
ATOM     44  C   UNL A   1      37.468  28.784  31.311  1.00  0.00     0.029 A 
ATOM     45  C   UNL A   1      38.062  30.105  31.176  1.00  0.00     0.049 A 
ATOM     46  H   UNL A   1      40.032  30.439  30.446  1.00  0.00     0.167 HD
ATOM     47  C   UNL A   1      44.034  30.789  28.272  1.00  0.00     0.034 A 
ATOM     48  C   UNL A   1      37.677  31.288  31.797  1.00  0.00     0.034 A 
ATOM     49  C   UNL A   1      44.306  30.673  29.685  1.00  0.00     0.049 A 
ATOM     50  C   UNL A   1      38.917  32.073  32.010  1.00  0.00     0.074 A 
ATOM     51  C   UNL A   1      44.950  29.741  30.473  1.00  0.00     0.029 A 
ATOM     52  N   UNL A   1      43.394  31.311  30.487  1.00  0.00    -0.354 N 
ATOM     53  N   UNL A   1      39.807  31.705  32.888  1.00  0.00    -0.248 NA
ATOM     54  C   UNL A   1      39.393  32.812  30.846  1.00  0.00     0.031 C 
ATOM     55  C   UNL A   1      44.128  29.591  31.627  1.00  0.00     0.029 A 
ATOM     56  C   UNL A   1      43.120  30.554  31.594  1.00  0.00     0.049 A 
ATOM     57  H   UNL A   1      42.993  32.190  30.293  1.00  0.00     0.167 HD
ATOM     58  C   UNL A   1      40.976  31.677  32.153  1.00  0.00     0.074 A 
ATOM     59  C   UNL A   1      40.653  32.364  30.889  1.00  0.00     0.031 C 
ATOM     60  C   UNL A   1      41.977  30.796  32.448  1.00  0.00     0.034 A 
BRANCH  47  61
ATOM     61  C   UNL A   1      44.191  32.083  27.510  1.00  0.00     0.023 A 
ATOM     62  C   UNL A   1      43.620  33.311  27.911  1.00  0.00     0.031 A 
ATOM     63  C   UNL A   1      45.117  32.150  26.447  1.00  0.00     0.131 A 
ATOM     64  C   UNL A   1      43.918  34.508  27.234  1.00  0.00     0.055 A 
ATOM     65  C   UNL A   1      45.466  33.353  25.822  1.00  0.00     0.041 A 
ATOM     66  F   UNL A   1      45.739  31.045  26.008  1.00  0.00    -0.206 F 
ATOM     67  C   UNL A   1      44.857  34.538  26.206  1.00  0.00     0.022 A 
BRANCH  64  68
ATOM     68  S   UNL A   1      43.063  36.059  27.633  1.00  0.00     0.124 S 
ATOM     69  O   UNL A   1      41.686  35.765  27.253  1.00  0.00    -0.237 OA
ATOM     70  O   UNL A   1      43.310  36.164  29.069  1.00  0.00    -0.237 OA
ATOM     71  O   UNL A   1      43.753  37.052  26.813  1.00  0.00    -0.744 OA
ENDBRANCH  64  68
ENDBRANCH  47  61
BRANCH  48  72
ATOM     72  C   UNL A   1      36.390  32.075  31.646  1.00  0.00     0.023 A 
ATOM     73  C   UNL A   1      35.759  32.007  30.403  1.00  0.00     0.031 A 
ATOM     74  C   UNL A   1      35.981  33.152  32.487  1.00  0.00     0.131 A 
ATOM     75  C   UNL A   1      34.877  33.015  29.974  1.00  0.00     0.055 A 
ATOM     76  C   UNL A   1      35.035  34.126  32.081  1.00  0.00     0.041 A 
ATOM     77  F   UNL A   1      36.537  33.335  33.696  1.00  0.00    -0.206 F 
ATOM     78  C   UNL A   1      34.503  34.076  30.798  1.00  0.00     0.022 A 
BRANCH  75  79
ATOM     79  S   UNL A   1      34.352  33.024  28.240  1.00  0.00     0.124 S 
ATOM     80  O   UNL A   1      35.551  33.502  27.556  1.00  0.00    -0.237 OA
ATOM     81  O   UNL A   1      34.019  31.620  28.030  1.00  0.00    -0.237 OA
ATOM     82  O   UNL A   1      33.225  33.952  28.237  1.00  0.00    -0.744 OA
ENDBRANCH  75  79
ENDBRANCH  48  72
BRANCH  60  83
ATOM     83  C   UNL A   1      41.882  29.951  33.703  1.00  0.00     0.023 A 
ATOM     84  C   UNL A   1      42.445  30.513  34.855  1.00  0.00     0.031 A 
ATOM     85  C   UNL A   1      41.508  28.592  33.770  1.00  0.00     0.131 A 
ATOM     86  C   UNL A   1      42.666  29.739  35.995  1.00  0.00     0.055 A 
ATOM     87  C   UNL A   1      41.655  27.835  34.945  1.00  0.00     0.041 A 
ATOM     88  F   UNL A   1      41.082  27.933  32.686  1.00  0.00    -0.206 F 
ATOM     89  C   UNL A   1      42.248  28.408  36.064  1.00  0.00     0.022 A 
BRANCH  86  90
ATOM     90  S   UNL A   1      43.673  30.393  37.346  1.00  0.00     0.124 S 
ATOM     91  O   UNL A   1      44.192  29.183  37.961  1.00  0.00    -0.237 OA
ATOM     92  O   UNL A   1      44.645  31.214  36.634  1.00  0.00    -0.237 OA
ATOM     93  O   UNL A   1      42.710  31.151  38.164  1.00  0.00    -0.744 OA
ENDBRANCH  86  90
ENDBRANCH  60  83
ENDBRANCH  34  35
ENDBRANCH  26  29
ENDBRANCH   1  25
TORSDOF 14
ENDMDL
MODEL 3
REMARK VINA RESULT:     -13.3      3.310      9.066
REMARK SMILES Cc1ccnc(-n2c(C)nc3c(C(=O)NCCCNC(=O)c4ccc(-c5c6nc(c(-c7cc(S(=O)(=O)[O-])ccc7F)c7ccc([nH]7)c(-c7cc(S(=O)(=O)[O-])ccc7F)c7nc(c(-c8cc(S(=O)(=O)[O-])ccc8F)c8ccc5[nH]8)C=C7)C=C6)cc4)cccc32)c1
REMARK SMILES IDX 18 1 17 2 16 3 15 4 13 5 14 6 12 8 7 9 8 10 88 11 9 12 10 13
REMARK SMILES IDX 11 14 87 15 86 16 85 17 6 18 1 19 2 20 3 21 89 22 4 23 5 24
REMARK SMILES IDX 19 25 20 26 21 28 22 29 23 30 84 31 24 32 83 33 25 34 26 35
REMARK SMILES IDX 27 36 77 37 28 38 82 39 76 40 78 41 29 42 81 43 75 44 74 45
REMARK SMILES IDX 30 47 62 48 42 49 61 50 43 51 46 52 60 53 79 54 44 55 45 56
REMARK SMILES IDX 59 58 80 59 47 60 31 61 32 62 40 63 33 64 39 65 41 66 38 67
REMARK SMILES IDX 34 68 35 69 36 70 37 71 63 72 64 73 72 74 65 75 71 76 73 77
REMARK SMILES IDX 70 78 66 79 67 80 68 81 69 82 48 83 49 84 57 85 50 86 56 87
REMARK SMILES IDX 58 88 55 89 51 90 52 91 53 92 54 93
REMARK H PARENT 15 7 19 27 78 46 46 57
REMARK Flexibility Score: inf
ROOT
ATOM      1  C   UNL A   1      37.978  22.487  25.542  1.00  0.00     0.118 C 
ENDROOT
BRANCH   1   2
ATOM      2  C   UNL A   1      37.247  21.566  24.567  1.00  0.00     0.042 C 
BRANCH   2   3
ATOM      3  C   UNL A   1      37.046  20.150  25.125  1.00  0.00     0.118 C 
BRANCH   3   4
ATOM      4  N   UNL A   1      35.744  19.602  24.768  1.00  0.00    -0.352 N 
ATOM      5  C   UNL A   1      34.428  19.958  24.962  1.00  0.00     0.253 C 
ATOM      6  O   UNL A   1      33.614  19.217  24.407  1.00  0.00    -0.269 OA
ATOM      7  H   UNL A   1      35.826  18.763  24.259  1.00  0.00     0.163 HD
BRANCH   5   8
ATOM      8  C   UNL A   1      33.966  21.148  25.741  1.00  0.00     0.067 A 
ATOM      9  N   UNL A   1      33.180  24.527  24.899  1.00  0.00    -0.281 N 
ATOM     10  C   UNL A   1      33.406  23.998  23.646  1.00  0.00     0.112 A 
ATOM     11  C   UNL A   1      33.374  23.510  25.823  1.00  0.00     0.075 A 
ATOM     12  C   UNL A   1      33.344  24.781  22.381  1.00  0.00     0.088 C 
ATOM     13  N   UNL A   1      33.803  22.742  23.737  1.00  0.00    -0.232 NA
ATOM     14  C   UNL A   1      33.747  22.390  25.076  1.00  0.00     0.102 A 
ATOM     15  C   UNL A   1      33.178  23.475  27.211  1.00  0.00     0.029 A 
ATOM     16  C   UNL A   1      33.329  22.254  27.844  1.00  0.00     0.003 A 
ATOM     17  C   UNL A   1      33.675  21.116  27.118  1.00  0.00     0.016 A 
BRANCH   9  18
ATOM     18  C   UNL A   1      32.775  25.845  25.218  1.00  0.00     0.138 A 
ATOM     19  C   UNL A   1      34.337  28.961  26.685  1.00  0.00     0.044 C 
ATOM     20  C   UNL A   1      33.335  27.985  26.148  1.00  0.00    -0.046 A 
ATOM     21  C   UNL A   1      31.989  28.330  26.030  1.00  0.00     0.023 A 
ATOM     22  C   UNL A   1      33.729  26.708  25.755  1.00  0.00     0.051 A 
ATOM     23  C   UNL A   1      31.110  27.409  25.477  1.00  0.00     0.114 A 
ATOM     24  N   UNL A   1      31.478  26.189  25.031  1.00  0.00    -0.239 NA
ENDBRANCH   9  18
ENDBRANCH   5   8
ENDBRANCH   3   4
ENDBRANCH   2   3
ENDBRANCH   1   2
BRANCH   1  25
ATOM     25  N   UNL A   1      39.021  21.811  26.280  1.00  0.00    -0.352 N 
ATOM     26  C   UNL A   1      40.008  22.161  27.144  1.00  0.00     0.251 C 
ATOM     27  H   UNL A   1      39.015  20.842  26.111  1.00  0.00     0.163 HD
ATOM     28  O   UNL A   1      40.603  21.203  27.650  1.00  0.00    -0.269 OA
BRANCH  26  29
ATOM     29  C   UNL A   1      40.497  23.532  27.420  1.00  0.00     0.039 A 
ATOM     30  C   UNL A   1      41.748  23.950  27.867  1.00  0.00     0.014 A 
ATOM     31  C   UNL A   1      39.535  24.517  27.192  1.00  0.00     0.014 A 
ATOM     32  C   UNL A   1      41.865  25.243  28.423  1.00  0.00     0.010 A 
ATOM     33  C   UNL A   1      39.816  25.835  27.466  1.00  0.00     0.010 A 
ATOM     34  C   UNL A   1      40.783  26.150  28.386  1.00  0.00    -0.014 A 
BRANCH  34  35
ATOM     35  C   UNL A   1      40.837  27.566  28.831  1.00  0.00     0.031 A 
ATOM     36  C   UNL A   1      42.054  28.174  28.191  1.00  0.00     0.074 A 
ATOM     37  C   UNL A   1      39.919  28.230  29.626  1.00  0.00     0.049 A 
ATOM     38  N   UNL A   1      43.186  28.326  28.794  1.00  0.00    -0.248 NA
ATOM     39  C   UNL A   1      42.200  28.278  26.718  1.00  0.00     0.031 C 
ATOM     40  C   UNL A   1      38.652  27.773  30.248  1.00  0.00     0.029 A 
ATOM     41  N   UNL A   1      39.947  29.541  30.111  1.00  0.00    -0.354 N 
ATOM     42  C   UNL A   1      44.043  28.909  27.870  1.00  0.00     0.074 A 
ATOM     43  C   UNL A   1      43.481  28.643  26.581  1.00  0.00     0.031 C 
ATOM     44  C   UNL A   1      37.934  28.822  30.751  1.00  0.00     0.029 A 
ATOM     45  C   UNL A   1      38.712  30.046  30.639  1.00  0.00     0.049 A 
ATOM     46  H   UNL A   1      40.767  30.087  30.091  1.00  0.00     0.167 HD
ATOM     47  C   UNL A   1      44.959  29.818  28.299  1.00  0.00     0.034 A 
ATOM     48  C   UNL A   1      38.436  31.292  31.189  1.00  0.00     0.034 A 
ATOM     49  C   UNL A   1      45.084  29.722  29.734  1.00  0.00     0.049 A 
ATOM     50  C   UNL A   1      39.747  31.914  31.498  1.00  0.00     0.074 A 
ATOM     51  C   UNL A   1      45.522  28.744  30.604  1.00  0.00     0.029 A 
ATOM     52  N   UNL A   1      44.198  30.506  30.428  1.00  0.00    -0.354 N 
ATOM     53  N   UNL A   1      40.495  31.465  32.466  1.00  0.00    -0.248 NA
ATOM     54  C   UNL A   1      40.422  32.537  30.365  1.00  0.00     0.031 C 
ATOM     55  C   UNL A   1      44.585  28.749  31.678  1.00  0.00     0.029 A 
ATOM     56  C   UNL A   1      43.725  29.836  31.524  1.00  0.00     0.049 A 
ATOM     57  H   UNL A   1      43.940  31.422  30.174  1.00  0.00     0.167 HD
ATOM     58  C   UNL A   1      41.711  31.254  31.847  1.00  0.00     0.074 A 
ATOM     59  C   UNL A   1      41.600  31.928  30.540  1.00  0.00     0.031 C 
ATOM     60  C   UNL A   1      42.553  30.260  32.258  1.00  0.00     0.034 A 
BRANCH  47  61
ATOM     61  C   UNL A   1      45.359  31.049  27.521  1.00  0.00     0.023 A 
ATOM     62  C   UNL A   1      44.534  32.182  27.356  1.00  0.00     0.031 A 
ATOM     63  C   UNL A   1      46.697  31.191  27.095  1.00  0.00     0.131 A 
ATOM     64  C   UNL A   1      45.016  33.351  26.739  1.00  0.00     0.055 A 
ATOM     65  C   UNL A   1      47.194  32.379  26.547  1.00  0.00     0.041 A 
ATOM     66  F   UNL A   1      47.573  30.184  27.234  1.00  0.00    -0.206 F 
ATOM     67  C   UNL A   1      46.350  33.463  26.355  1.00  0.00     0.022 A 
BRANCH  64  68
ATOM     68  S   UNL A   1      43.918  34.749  26.370  1.00  0.00     0.124 S 
ATOM     69  O   UNL A   1      44.846  35.873  26.325  1.00  0.00    -0.237 OA
ATOM     70  O   UNL A   1      43.356  34.344  25.084  1.00  0.00    -0.237 OA
ATOM     71  O   UNL A   1      42.974  34.746  27.486  1.00  0.00    -0.744 OA
ENDBRANCH  64  68
ENDBRANCH  47  61
BRANCH  48  72
ATOM     72  C   UNL A   1      37.287  32.237  30.895  1.00  0.00     0.023 A 
ATOM     73  C   UNL A   1      36.650  32.809  31.998  1.00  0.00     0.031 A 
ATOM     74  C   UNL A   1      36.564  32.296  29.667  1.00  0.00     0.131 A 
ATOM     75  C   UNL A   1      35.332  33.289  31.915  1.00  0.00     0.055 A 
ATOM     76  C   UNL A   1      35.262  32.848  29.569  1.00  0.00     0.041 A 
ATOM     77  F   UNL A   1      37.063  31.755  28.544  1.00  0.00    -0.206 F 
ATOM     78  C   UNL A   1      34.626  33.319  30.712  1.00  0.00     0.022 A 
BRANCH  75  79
ATOM     79  S   UNL A   1      34.468  33.716  33.449  1.00  0.00     0.124 S 
ATOM     80  O   UNL A   1      35.325  33.112  34.466  1.00  0.00    -0.237 OA
ATOM     81  O   UNL A   1      34.480  35.173  33.392  1.00  0.00    -0.237 OA
ATOM     82  O   UNL A   1      33.162  33.085  33.284  1.00  0.00    -0.744 OA
ENDBRANCH  75  79
ENDBRANCH  48  72
BRANCH  60  83
ATOM     83  C   UNL A   1      42.231  29.485  33.521  1.00  0.00     0.023 A 
ATOM     84  C   UNL A   1      42.948  29.862  34.662  1.00  0.00     0.031 A 
ATOM     85  C   UNL A   1      41.476  28.296  33.603  1.00  0.00     0.131 A 
ATOM     86  C   UNL A   1      42.946  29.062  35.806  1.00  0.00     0.055 A 
ATOM     87  C   UNL A   1      41.410  27.533  34.781  1.00  0.00     0.041 A 
ATOM     88  F   UNL A   1      40.862  27.786  32.528  1.00  0.00    -0.206 F 
ATOM     89  C   UNL A   1      42.158  27.912  35.890  1.00  0.00     0.022 A 
BRANCH  86  90
ATOM     90  S   UNL A   1      44.118  29.398  37.140  1.00  0.00     0.124 S 
ATOM     91  O   UNL A   1      45.349  29.660  36.414  1.00  0.00    -0.237 OA
ATOM     92  O   UNL A   1      43.511  30.546  37.801  1.00  0.00    -0.237 OA
ATOM     93  O   UNL A   1      44.109  28.157  37.934  1.00  0.00    -0.744 OA
ENDBRANCH  86  90
ENDBRANCH  60  83
ENDBRANCH  34  35
ENDBRANCH  26  29
ENDBRANCH   1  25
TORSDOF 14
ENDMDL
