MODEL 1
REMARK VINA RESULT:     -13.7      0.000      0.000
REMARK SMILES O=C(NCCCNC(=O)c1nnn(-c2ccc(C(F)(F)F)cc2)c1-c1cccc(Cl)c1)c1ccc(-c2c3nc(c(-c4cc(S(=O)(=O)[O-])ccc4F)c4ccc([nH]4)c(-c4cc(S(=O)(=O)[O-])ccc4F)c4nc(c(-c5cc(S(=O)(=O)[O-])ccc5F)c5ccc2[nH]5)C=C4)C=C3)cc1
REMARK SMILES IDX 4 1 3 2 1 3 2 4 32 6 33 7 94 8 34 9 93 10 35 11 36 12 37 13
REMARK SMILES IDX 87 14 38 15 92 16 86 17 88 18 39 19 91 20 85 21 84 22 40 24
REMARK SMILES IDX 72 25 52 26 71 27 53 28 56 29 70 30 89 31 54 32 55 33 69 35
REMARK SMILES IDX 90 36 57 37 41 38 42 39 50 40 43 41 49 42 51 43 48 44 44 45
REMARK SMILES IDX 45 46 46 47 47 48 73 49 74 50 82 51 75 52 81 53 83 54 80 55
REMARK SMILES IDX 76 56 77 57 78 58 79 59 58 60 59 61 67 62 60 63 66 64 68 65
REMARK SMILES IDX 65 66 61 67 62 68 63 69 64 70 5 71 6 72 7 73 8 74 9 76 10 77
REMARK SMILES IDX 11 78 24 79 12 80 13 81 25 82 26 83 31 84 27 85 29 86 28 87
REMARK SMILES IDX 30 88 14 89 15 90 23 91 16 92 22 93 17 94 18 95 19 96 20 97
REMARK SMILES IDX 21 98
REMARK H PARENT 3 5 88 23 56 34 7 75
REMARK Flexibility Score: inf
ROOT
ATOM      1  C   UNL A   1      37.652  22.939  26.302  1.00  0.00     0.118 C 
ENDROOT
BRANCH   1   2
ATOM      2  N   UNL A   1      39.040  22.525  26.286  1.00  0.00    -0.352 N 
ATOM      3  O   UNL A   1      41.134  22.189  26.854  1.00  0.00    -0.269 OA
ATOM      4  C   UNL A   1      40.196  22.994  26.848  1.00  0.00     0.251 C 
ATOM      5  H   UNL A   1      39.185  21.716  25.743  1.00  0.00     0.163 HD
BRANCH   4   6
ATOM      6  C   UNL A   1      40.431  24.372  27.368  1.00  0.00     0.039 A 
ATOM      7  C   UNL A   1      41.440  24.772  28.245  1.00  0.00     0.014 A 
ATOM      8  C   UNL A   1      39.477  25.332  26.973  1.00  0.00     0.014 A 
ATOM      9  C   UNL A   1      41.438  26.068  28.777  1.00  0.00     0.010 A 
ATOM     10  C   UNL A   1      39.471  26.620  27.499  1.00  0.00     0.010 A 
ATOM     11  C   UNL A   1      40.430  26.982  28.437  1.00  0.00    -0.014 A 
BRANCH  11  12
ATOM     12  C   UNL A   1      40.505  28.366  28.927  1.00  0.00     0.031 A 
ATOM     13  C   UNL A   1      41.653  29.141  28.368  1.00  0.00     0.074 A 
ATOM     14  C   UNL A   1      39.554  28.978  29.670  1.00  0.00     0.049 A 
ATOM     15  N   UNL A   1      42.651  29.661  29.004  1.00  0.00    -0.248 NA
ATOM     16  C   UNL A   1      41.774  29.241  26.904  1.00  0.00     0.031 C 
ATOM     17  C   UNL A   1      38.246  28.454  30.075  1.00  0.00     0.029 A 
ATOM     18  N   UNL A   1      39.518  30.258  30.155  1.00  0.00    -0.354 N 
ATOM     19  C   UNL A   1      43.417  30.335  28.053  1.00  0.00     0.074 A 
ATOM     20  C   UNL A   1      42.923  29.905  26.772  1.00  0.00     0.031 C 
ATOM     21  C   UNL A   1      37.473  29.465  30.539  1.00  0.00     0.029 A 
ATOM     22  C   UNL A   1      38.263  30.685  30.599  1.00  0.00     0.049 A 
ATOM     23  H   UNL A   1      40.316  30.834  30.189  1.00  0.00     0.167 HD
ATOM     24  C   UNL A   1      44.264  31.344  28.404  1.00  0.00     0.034 A 
ATOM     25  C   UNL A   1      37.884  31.948  30.959  1.00  0.00     0.034 A 
ATOM     26  C   UNL A   1      44.561  31.299  29.816  1.00  0.00     0.049 A 
ATOM     27  C   UNL A   1      39.126  32.676  31.315  1.00  0.00     0.074 A 
ATOM     28  C   UNL A   1      45.148  30.368  30.652  1.00  0.00     0.029 A 
ATOM     29  N   UNL A   1      43.902  32.174  30.649  1.00  0.00    -0.354 N 
ATOM     30  N   UNL A   1      39.873  32.356  32.336  1.00  0.00    -0.248 NA
ATOM     31  C   UNL A   1      39.794  33.427  30.263  1.00  0.00     0.031 C 
ATOM     32  C   UNL A   1      44.375  30.422  31.850  1.00  0.00     0.029 A 
ATOM     33  C   UNL A   1      43.430  31.439  31.708  1.00  0.00     0.049 A 
ATOM     34  H   UNL A   1      43.790  33.142  30.512  1.00  0.00     0.167 HD
ATOM     35  C   UNL A   1      41.174  32.466  31.870  1.00  0.00     0.074 A 
ATOM     36  C   UNL A   1      41.065  33.205  30.613  1.00  0.00     0.031 C 
ATOM     37  C   UNL A   1      42.185  31.715  32.397  1.00  0.00     0.034 A 
BRANCH  24  38
ATOM     38  C   UNL A   1      44.546  32.579  27.572  1.00  0.00     0.023 A 
ATOM     39  C   UNL A   1      43.940  33.785  27.980  1.00  0.00     0.031 A 
ATOM     40  C   UNL A   1      45.099  32.582  26.272  1.00  0.00     0.131 A 
ATOM     41  C   UNL A   1      43.790  34.861  27.087  1.00  0.00     0.055 A 
ATOM     42  C   UNL A   1      45.007  33.681  25.411  1.00  0.00     0.041 A 
ATOM     43  F   UNL A   1      45.674  31.506  25.727  1.00  0.00    -0.206 F 
ATOM     44  C   UNL A   1      44.318  34.815  25.801  1.00  0.00     0.022 A 
BRANCH  41  45
ATOM     45  S   UNL A   1      42.722  36.242  27.573  1.00  0.00     0.124 S 
ATOM     46  O   UNL A   1      41.395  35.675  27.361  1.00  0.00    -0.237 OA
ATOM     47  O   UNL A   1      43.119  36.454  28.961  1.00  0.00    -0.237 OA
ATOM     48  O   UNL A   1      43.102  37.306  26.647  1.00  0.00    -0.744 OA
ENDBRANCH  41  45
ENDBRANCH  24  38
BRANCH  25  49
ATOM     49  C   UNL A   1      36.591  32.644  30.653  1.00  0.00     0.023 A 
ATOM     50  C   UNL A   1      35.887  33.461  31.575  1.00  0.00     0.031 A 
ATOM     51  C   UNL A   1      36.159  32.711  29.309  1.00  0.00     0.131 A 
ATOM     52  C   UNL A   1      34.810  34.280  31.138  1.00  0.00     0.055 A 
ATOM     53  C   UNL A   1      35.103  33.521  28.884  1.00  0.00     0.041 A 
ATOM     54  F   UNL A   1      36.809  32.047  28.341  1.00  0.00    -0.206 F 
ATOM     55  C   UNL A   1      34.428  34.316  29.795  1.00  0.00     0.022 A 
BRANCH  52  56
ATOM     56  S   UNL A   1      33.913  35.375  32.297  1.00  0.00     0.124 S 
ATOM     57  O   UNL A   1      33.265  36.321  31.396  1.00  0.00    -0.237 OA
ATOM     58  O   UNL A   1      33.040  34.443  33.001  1.00  0.00    -0.237 OA
ATOM     59  O   UNL A   1      34.979  35.950  33.120  1.00  0.00    -0.744 OA
ENDBRANCH  52  56
ENDBRANCH  25  49
BRANCH  37  60
ATOM     60  C   UNL A   1      41.944  30.956  33.686  1.00  0.00     0.023 A 
ATOM     61  C   UNL A   1      41.816  29.552  33.797  1.00  0.00     0.031 A 
ATOM     62  C   UNL A   1      42.006  31.704  34.875  1.00  0.00     0.131 A 
ATOM     63  C   UNL A   1      41.761  28.952  35.073  1.00  0.00     0.055 A 
ATOM     64  C   UNL A   1      41.973  31.105  36.132  1.00  0.00     0.041 A 
ATOM     65  F   UNL A   1      42.154  33.039  34.831  1.00  0.00    -0.206 F 
ATOM     66  C   UNL A   1      41.848  29.726  36.236  1.00  0.00     0.022 A 
BRANCH  63  67
ATOM     67  S   UNL A   1      41.581  27.145  35.254  1.00  0.00     0.124 S 
ATOM     68  O   UNL A   1      41.189  26.980  36.648  1.00  0.00    -0.237 OA
ATOM     69  O   UNL A   1      40.559  26.820  34.260  1.00  0.00    -0.237 OA
ATOM     70  O   UNL A   1      42.915  26.634  34.932  1.00  0.00    -0.744 OA
ENDBRANCH  63  67
ENDBRANCH  37  60
ENDBRANCH  11  12
ENDBRANCH   4   6
ENDBRANCH   1   2
BRANCH   1  71
ATOM     71  C   UNL A   1      37.103  23.408  24.959  1.00  0.00     0.042 C 
BRANCH  71  72
ATOM     72  C   UNL A   1      35.652  23.875  24.968  1.00  0.00     0.118 C 
BRANCH  72  73
ATOM     73  N   UNL A   1      34.887  23.445  26.128  1.00  0.00    -0.351 N 
ATOM     74  C   UNL A   1      33.529  23.533  26.351  1.00  0.00     0.274 C 
ATOM     75  H   UNL A   1      35.410  23.035  26.854  1.00  0.00     0.163 HD
ATOM     76  O   UNL A   1      33.088  23.136  27.434  1.00  0.00    -0.267 OA
BRANCH  74  77
ATOM     77  C   UNL A   1      32.657  24.081  25.323  1.00  0.00     0.178 A 
ATOM     78  N   UNL A   1      32.080  23.289  24.361  1.00  0.00    -0.124 NA
ATOM     79  C   UNL A   1      32.240  25.395  25.144  1.00  0.00     0.108 A 
ATOM     80  N   UNL A   1      31.239  24.033  23.655  1.00  0.00    -0.061 NA
ATOM     81  N   UNL A   1      31.387  25.316  24.048  1.00  0.00    -0.212 N 
BRANCH  79  82
ATOM     82  C   UNL A   1      32.412  26.584  25.978  1.00  0.00     0.004 A 
ATOM     83  C   UNL A   1      31.325  27.065  26.732  1.00  0.00     0.010 A 
ATOM     84  C   UNL A   1      33.644  27.236  26.064  1.00  0.00     0.031 A 
ATOM     85  C   UNL A   1      31.463  28.179  27.556  1.00  0.00     0.002 A 
ATOM     86  C   UNL A   1      33.773  28.359  26.885  1.00  0.00     0.041 A 
ATOM     87  C   UNL A   1      32.692  28.830  27.631  1.00  0.00     0.020 A 
ATOM     88  Cl  UNL A   1      35.286  29.173  26.975  1.00  0.00    -0.084 Cl
ENDBRANCH  79  82
BRANCH  81  89
ATOM     89  C   UNL A   1      30.675  26.379  23.447  1.00  0.00     0.067 A 
ATOM     90  C   UNL A   1      29.312  26.529  23.710  1.00  0.00     0.029 A 
ATOM     91  C   UNL A   1      31.377  27.358  22.733  1.00  0.00     0.029 A 
ATOM     92  C   UNL A   1      28.680  27.725  23.350  1.00  0.00     0.015 A 
ATOM     93  C   UNL A   1      30.733  28.531  22.349  1.00  0.00     0.015 A 
ATOM     94  C   UNL A   1      29.388  28.743  22.684  1.00  0.00     0.056 A 
BRANCH  94  95
ATOM     95  C   UNL A   1      28.719  30.059  22.364  1.00  0.00     0.416 C 
ATOM     96  F   UNL A   1      28.112  30.612  23.451  1.00  0.00    -0.166 F 
ATOM     97  F   UNL A   1      29.584  30.991  21.891  1.00  0.00    -0.166 F 
ATOM     98  F   UNL A   1      27.742  29.945  21.418  1.00  0.00    -0.166 F 
ENDBRANCH  94  95
ENDBRANCH  81  89
ENDBRANCH  74  77
ENDBRANCH  72  73
ENDBRANCH  71  72
ENDBRANCH   1  71
TORSDOF 16
ENDMDL
MODEL 2
REMARK VINA RESULT:     -13.7      4.304      9.516
REMARK SMILES O=C(NCCCNC(=O)c1nnn(-c2ccc(C(F)(F)F)cc2)c1-c1cccc(Cl)c1)c1ccc(-c2c3nc(c(-c4cc(S(=O)(=O)[O-])ccc4F)c4ccc([nH]4)c(-c4cc(S(=O)(=O)[O-])ccc4F)c4nc(c(-c5cc(S(=O)(=O)[O-])ccc5F)c5ccc2[nH]5)C=C4)C=C3)cc1
REMARK SMILES IDX 4 1 3 2 1 3 2 4 32 6 33 7 94 8 34 9 93 10 35 11 36 12 37 13
REMARK SMILES IDX 87 14 38 15 92 16 86 17 88 18 39 19 91 20 85 21 84 22 40 24
REMARK SMILES IDX 72 25 52 26 71 27 53 28 56 29 70 30 89 31 54 32 55 33 69 35
REMARK SMILES IDX 90 36 57 37 41 38 42 39 50 40 43 41 49 42 51 43 48 44 44 45
REMARK SMILES IDX 45 46 46 47 47 48 73 49 74 50 82 51 75 52 81 53 83 54 80 55
REMARK SMILES IDX 76 56 77 57 78 58 79 59 58 60 59 61 67 62 60 63 66 64 68 65
REMARK SMILES IDX 65 66 61 67 62 68 63 69 64 70 5 71 6 72 7 73 8 74 9 76 10 77
REMARK SMILES IDX 11 78 24 79 12 80 13 81 25 82 26 83 31 84 27 85 29 86 28 87
REMARK SMILES IDX 30 88 14 89 15 90 23 91 16 92 22 93 17 94 18 95 19 96 20 97
REMARK SMILES IDX 21 98
REMARK H PARENT 3 5 88 23 56 34 7 75
REMARK Flexibility Score: inf
ROOT
ATOM      1  C   UNL A   1      33.604  29.717  26.773  1.00  0.00     0.118 C 
ENDROOT
BRANCH   1   2
ATOM      2  N   UNL A   1      33.598  30.852  27.673  1.00  0.00    -0.352 N 
ATOM      3  O   UNL A   1      34.197  32.643  28.793  1.00  0.00    -0.269 OA
ATOM      4  C   UNL A   1      34.553  31.536  28.375  1.00  0.00     0.251 C 
ATOM      5  H   UNL A   1      32.694  31.216  27.812  1.00  0.00     0.163 HD
BRANCH   4   6
ATOM      6  C   UNL A   1      35.915  31.041  28.728  1.00  0.00     0.039 A 
ATOM      7  C   UNL A   1      37.051  31.818  28.958  1.00  0.00     0.014 A 
ATOM      8  C   UNL A   1      36.055  29.638  28.753  1.00  0.00     0.014 A 
ATOM      9  C   UNL A   1      38.302  31.207  29.118  1.00  0.00     0.010 A 
ATOM     10  C   UNL A   1      37.295  29.027  28.912  1.00  0.00     0.010 A 
ATOM     11  C   UNL A   1      38.433  29.811  29.054  1.00  0.00    -0.014 A 
BRANCH  11  12
ATOM     12  C   UNL A   1      39.736  29.188  29.326  1.00  0.00     0.031 A 
ATOM     13  C   UNL A   1      40.068  29.097  30.780  1.00  0.00     0.074 A 
ATOM     14  C   UNL A   1      40.513  28.579  28.400  1.00  0.00     0.049 A 
ATOM     15  N   UNL A   1      41.050  29.653  31.410  1.00  0.00    -0.248 NA
ATOM     16  C   UNL A   1      39.116  28.408  31.667  1.00  0.00     0.031 C 
ATOM     17  C   UNL A   1      40.213  28.338  26.986  1.00  0.00     0.029 A 
ATOM     18  N   UNL A   1      41.722  27.955  28.553  1.00  0.00    -0.354 N 
ATOM     19  C   UNL A   1      40.968  29.216  32.732  1.00  0.00     0.074 A 
ATOM     20  C   UNL A   1      39.678  28.595  32.862  1.00  0.00     0.031 C 
ATOM     21  C   UNL A   1      41.095  27.443  26.479  1.00  0.00     0.029 A 
ATOM     22  C   UNL A   1      42.106  27.145  27.480  1.00  0.00     0.049 A 
ATOM     23  H   UNL A   1      42.279  28.069  29.357  1.00  0.00     0.167 HD
ATOM     24  C   UNL A   1      42.054  29.228  33.557  1.00  0.00     0.034 A 
ATOM     25  C   UNL A   1      43.155  26.270  27.422  1.00  0.00     0.034 A 
ATOM     26  C   UNL A   1      43.080  30.104  33.044  1.00  0.00     0.049 A 
ATOM     27  C   UNL A   1      44.123  26.700  28.459  1.00  0.00     0.074 A 
ATOM     28  C   UNL A   1      43.146  31.454  32.758  1.00  0.00     0.029 A 
ATOM     29  N   UNL A   1      44.151  29.540  32.390  1.00  0.00    -0.354 N 
ATOM     30  N   UNL A   1      44.763  27.837  28.410  1.00  0.00    -0.248 NA
ATOM     31  C   UNL A   1      44.003  26.108  29.783  1.00  0.00     0.031 C 
ATOM     32  C   UNL A   1      43.898  31.531  31.548  1.00  0.00     0.029 A 
ATOM     33  C   UNL A   1      44.322  30.242  31.222  1.00  0.00     0.049 A 
ATOM     34  H   UNL A   1      44.692  28.778  32.699  1.00  0.00     0.167 HD
ATOM     35  C   UNL A   1      44.736  28.314  29.711  1.00  0.00     0.074 A 
ATOM     36  C   UNL A   1      44.325  27.171  30.526  1.00  0.00     0.031 C 
ATOM     37  C   UNL A   1      44.779  29.652  29.980  1.00  0.00     0.034 A 
BRANCH  24  38
ATOM     38  C   UNL A   1      42.351  28.196  34.626  1.00  0.00     0.023 A 
ATOM     39  C   UNL A   1      43.129  27.081  34.249  1.00  0.00     0.031 A 
ATOM     40  C   UNL A   1      41.683  28.083  35.865  1.00  0.00     0.131 A 
ATOM     41  C   UNL A   1      43.117  25.898  35.008  1.00  0.00     0.055 A 
ATOM     42  C   UNL A   1      41.729  26.927  36.651  1.00  0.00     0.041 A 
ATOM     43  F   UNL A   1      40.878  29.038  36.343  1.00  0.00    -0.206 F 
ATOM     44  C   UNL A   1      42.418  25.812  36.207  1.00  0.00     0.022 A 
BRANCH  41  45
ATOM     45  S   UNL A   1      43.873  24.411  34.298  1.00  0.00     0.124 S 
ATOM     46  O   UNL A   1      43.963  24.774  32.888  1.00  0.00    -0.237 OA
ATOM     47  O   UNL A   1      45.134  24.338  35.028  1.00  0.00    -0.237 OA
ATOM     48  O   UNL A   1      42.909  23.359  34.612  1.00  0.00    -0.744 OA
ENDBRANCH  41  45
ENDBRANCH  24  38
BRANCH  25  49
ATOM     49  C   UNL A   1      43.182  24.906  26.799  1.00  0.00     0.023 A 
ATOM     50  C   UNL A   1      44.116  24.498  25.812  1.00  0.00     0.031 A 
ATOM     51  C   UNL A   1      42.410  23.877  27.386  1.00  0.00     0.131 A 
ATOM     52  C   UNL A   1      44.235  23.127  25.454  1.00  0.00     0.055 A 
ATOM     53  C   UNL A   1      42.536  22.530  27.034  1.00  0.00     0.041 A 
ATOM     54  F   UNL A   1      41.560  24.139  28.390  1.00  0.00    -0.206 F 
ATOM     55  C   UNL A   1      43.454  22.147  26.071  1.00  0.00     0.022 A 
BRANCH  52  56
ATOM     56  S   UNL A   1      45.460  22.568  24.216  1.00  0.00     0.124 S 
ATOM     57  O   UNL A   1      44.613  22.047  23.149  1.00  0.00    -0.237 OA
ATOM     58  O   UNL A   1      46.196  23.793  23.924  1.00  0.00    -0.237 OA
ATOM     59  O   UNL A   1      46.233  21.550  24.932  1.00  0.00    -0.744 OA
ENDBRANCH  52  56
ENDBRANCH  25  49
BRANCH  37  60
ATOM     60  C   UNL A   1      45.137  30.615  28.867  1.00  0.00     0.023 A 
ATOM     61  C   UNL A   1      46.448  31.033  28.537  1.00  0.00     0.031 A 
ATOM     62  C   UNL A   1      44.093  30.997  28.006  1.00  0.00     0.131 A 
ATOM     63  C   UNL A   1      46.667  31.801  27.374  1.00  0.00     0.055 A 
ATOM     64  C   UNL A   1      44.317  31.737  26.848  1.00  0.00     0.041 A 
ATOM     65  F   UNL A   1      42.831  30.607  28.255  1.00  0.00    -0.206 F 
ATOM     66  C   UNL A   1      45.606  32.144  26.528  1.00  0.00     0.022 A 
BRANCH  63  67
ATOM     67  S   UNL A   1      48.342  32.371  26.926  1.00  0.00     0.124 S 
ATOM     68  O   UNL A   1      49.027  31.142  26.541  1.00  0.00    -0.237 OA
ATOM     69  O   UNL A   1      48.083  33.323  25.848  1.00  0.00    -0.237 OA
ATOM     70  O   UNL A   1      48.838  32.983  28.160  1.00  0.00    -0.744 OA
ENDBRANCH  63  67
ENDBRANCH  37  60
ENDBRANCH  11  12
ENDBRANCH   4   6
ENDBRANCH   1   2
BRANCH   1  71
ATOM     71  C   UNL A   1      32.726  28.547  27.202  1.00  0.00     0.042 C 
BRANCH  71  72
ATOM     72  C   UNL A   1      32.817  27.301  26.330  1.00  0.00     0.118 C 
BRANCH  72  73
ATOM     73  N   UNL A   1      33.241  27.552  24.961  1.00  0.00    -0.351 N 
ATOM     74  C   UNL A   1      33.181  26.713  23.868  1.00  0.00     0.274 C 
ATOM     75  H   UNL A   1      33.624  28.443  24.791  1.00  0.00     0.163 HD
ATOM     76  O   UNL A   1      33.636  27.119  22.794  1.00  0.00    -0.267 OA
BRANCH  74  77
ATOM     77  C   UNL A   1      32.591  25.389  23.998  1.00  0.00     0.178 A 
ATOM     78  N   UNL A   1      31.239  25.180  23.875  1.00  0.00    -0.124 NA
ATOM     79  C   UNL A   1      33.224  24.172  24.220  1.00  0.00     0.108 A 
ATOM     80  N   UNL A   1      31.014  23.873  23.903  1.00  0.00    -0.061 NA
ATOM     81  N   UNL A   1      32.177  23.256  24.201  1.00  0.00    -0.212 N 
BRANCH  79  82
ATOM     82  C   UNL A   1      34.641  23.812  24.248  1.00  0.00     0.004 A 
ATOM     83  C   UNL A   1      35.207  23.140  23.148  1.00  0.00     0.010 A 
ATOM     84  C   UNL A   1      35.453  24.148  25.334  1.00  0.00     0.031 A 
ATOM     85  C   UNL A   1      36.559  22.806  23.132  1.00  0.00     0.002 A 
ATOM     86  C   UNL A   1      36.805  23.802  25.315  1.00  0.00     0.041 A 
ATOM     87  C   UNL A   1      37.361  23.137  24.221  1.00  0.00     0.020 A 
ATOM     88  Cl  UNL A   1      37.800  24.200  26.662  1.00  0.00    -0.084 Cl
ENDBRANCH  79  82
BRANCH  81  89
ATOM     89  C   UNL A   1      32.270  21.856  24.369  1.00  0.00     0.067 A 
ATOM     90  C   UNL A   1      32.110  21.018  23.262  1.00  0.00     0.029 A 
ATOM     91  C   UNL A   1      32.683  21.338  25.603  1.00  0.00     0.029 A 
ATOM     92  C   UNL A   1      32.478  19.673  23.373  1.00  0.00     0.015 A 
ATOM     93  C   UNL A   1      33.016  19.990  25.713  1.00  0.00     0.015 A 
ATOM     94  C   UNL A   1      32.952  19.151  24.591  1.00  0.00     0.056 A 
BRANCH  94  95
ATOM     95  C   UNL A   1      33.415  17.717  24.683  1.00  0.00     0.416 C 
ATOM     96  F   UNL A   1      34.771  17.612  24.765  1.00  0.00    -0.166 F 
ATOM     97  F   UNL A   1      32.913  17.066  25.763  1.00  0.00    -0.166 F 
ATOM     98  F   UNL A   1      33.057  16.969  23.598  1.00  0.00    -0.166 F 
ENDBRANCH  94  95
ENDBRANCH  81  89
ENDBRANCH  74  77
ENDBRANCH  72  73
ENDBRANCH  71  72
ENDBRANCH   1  71
TORSDOF 16
ENDMDL
MODEL 3
REMARK VINA RESULT:     -13.6      4.693      9.071
REMARK SMILES O=C(NCCCNC(=O)c1nnn(-c2ccc(C(F)(F)F)cc2)c1-c1cccc(Cl)c1)c1ccc(-c2c3nc(c(-c4cc(S(=O)(=O)[O-])ccc4F)c4ccc([nH]4)c(-c4cc(S(=O)(=O)[O-])ccc4F)c4nc(c(-c5cc(S(=O)(=O)[O-])ccc5F)c5ccc2[nH]5)C=C4)C=C3)cc1
REMARK SMILES IDX 4 1 3 2 1 3 2 4 32 6 33 7 94 8 34 9 93 10 35 11 36 12 37 13
REMARK SMILES IDX 87 14 38 15 92 16 86 17 88 18 39 19 91 20 85 21 84 22 40 24
REMARK SMILES IDX 72 25 52 26 71 27 53 28 56 29 70 30 89 31 54 32 55 33 69 35
REMARK SMILES IDX 90 36 57 37 41 38 42 39 50 40 43 41 49 42 51 43 48 44 44 45
REMARK SMILES IDX 45 46 46 47 47 48 73 49 74 50 82 51 75 52 81 53 83 54 80 55
REMARK SMILES IDX 76 56 77 57 78 58 79 59 58 60 59 61 67 62 60 63 66 64 68 65
REMARK SMILES IDX 65 66 61 67 62 68 63 69 64 70 5 71 6 72 7 73 8 74 9 76 10 77
REMARK SMILES IDX 11 78 24 79 12 80 13 81 25 82 26 83 31 84 27 85 29 86 28 87
REMARK SMILES IDX 30 88 14 89 15 90 23 91 16 92 22 93 17 94 18 95 19 96 20 97
REMARK SMILES IDX 21 98
REMARK H PARENT 3 5 88 23 56 34 7 75
REMARK Flexibility Score: inf
ROOT
ATOM      1  C   UNL A   1      34.850  28.659  27.108  1.00  0.00     0.118 C 
ENDROOT
BRANCH   1   2
ATOM      2  N   UNL A   1      35.094  29.428  28.311  1.00  0.00    -0.352 N 
ATOM      3  O   UNL A   1      36.024  30.733  29.813  1.00  0.00    -0.269 OA
ATOM      4  C   UNL A   1      36.210  29.823  28.997  1.00  0.00     0.251 C 
ATOM      5  H   UNL A   1      34.262  29.740  28.733  1.00  0.00     0.163 HD
BRANCH   4   6
ATOM      6  C   UNL A   1      37.569  29.215  28.900  1.00  0.00     0.039 A 
ATOM      7  C   UNL A   1      38.135  28.292  29.779  1.00  0.00     0.014 A 
ATOM      8  C   UNL A   1      38.367  29.699  27.842  1.00  0.00     0.014 A 
ATOM      9  C   UNL A   1      39.485  27.935  29.654  1.00  0.00     0.010 A 
ATOM     10  C   UNL A   1      39.706  29.346  27.712  1.00  0.00     0.010 A 
ATOM     11  C   UNL A   1      40.284  28.493  28.645  1.00  0.00    -0.014 A 
BRANCH  11  12
ATOM     12  C   UNL A   1      41.666  28.026  28.469  1.00  0.00     0.031 A 
ATOM     13  C   UNL A   1      41.776  26.727  27.740  1.00  0.00     0.074 A 
ATOM     14  C   UNL A   1      42.773  28.751  28.759  1.00  0.00     0.049 A 
ATOM     15  N   UNL A   1      42.253  25.606  28.174  1.00  0.00    -0.248 NA
ATOM     16  C   UNL A   1      41.160  26.626  26.407  1.00  0.00     0.031 C 
ATOM     17  C   UNL A   1      42.847  30.140  29.222  1.00  0.00     0.029 A 
ATOM     18  N   UNL A   1      44.093  28.420  28.615  1.00  0.00    -0.354 N 
ATOM     19  C   UNL A   1      42.195  24.713  27.104  1.00  0.00     0.074 A 
ATOM     20  C   UNL A   1      41.371  25.343  26.109  1.00  0.00     0.031 C 
ATOM     21  C   UNL A   1      44.119  30.592  29.105  1.00  0.00     0.029 A 
ATOM     22  C   UNL A   1      44.982  29.496  28.692  1.00  0.00     0.049 A 
ATOM     23  H   UNL A   1      44.394  27.494  28.468  1.00  0.00     0.167 HD
ATOM     24  C   UNL A   1      42.997  23.612  27.051  1.00  0.00     0.034 A 
ATOM     25  C   UNL A   1      46.319  29.504  28.409  1.00  0.00     0.034 A 
ATOM     26  C   UNL A   1      43.528  23.297  28.356  1.00  0.00     0.049 A 
ATOM     27  C   UNL A   1      46.783  28.100  28.525  1.00  0.00     0.074 A 
ATOM     28  C   UNL A   1      42.968  22.964  29.574  1.00  0.00     0.029 A 
ATOM     29  N   UNL A   1      44.824  23.666  28.638  1.00  0.00    -0.354 N 
ATOM     30  N   UNL A   1      46.785  27.439  29.651  1.00  0.00    -0.248 NA
ATOM     31  C   UNL A   1      46.769  27.282  27.322  1.00  0.00     0.031 C 
ATOM     32  C   UNL A   1      43.760  23.657  30.537  1.00  0.00     0.029 A 
ATOM     33  C   UNL A   1      44.804  24.291  29.861  1.00  0.00     0.049 A 
ATOM     34  H   UNL A   1      45.614  23.512  28.072  1.00  0.00     0.167 HD
ATOM     35  C   UNL A   1      46.332  26.173  29.318  1.00  0.00     0.074 A 
ATOM     36  C   UNL A   1      46.413  26.111  27.859  1.00  0.00     0.031 C 
ATOM     37  C   UNL A   1      45.673  25.392  30.224  1.00  0.00     0.034 A 
BRANCH  24  38
ATOM     38  C   UNL A   1      43.595  23.026  25.787  1.00  0.00     0.023 A 
ATOM     39  C   UNL A   1      43.629  21.620  25.681  1.00  0.00     0.031 A 
ATOM     40  C   UNL A   1      44.387  23.729  24.853  1.00  0.00     0.131 A 
ATOM     41  C   UNL A   1      44.504  20.981  24.784  1.00  0.00     0.055 A 
ATOM     42  C   UNL A   1      45.206  23.088  23.917  1.00  0.00     0.041 A 
ATOM     43  F   UNL A   1      44.491  25.062  24.848  1.00  0.00    -0.206 F 
ATOM     44  C   UNL A   1      45.297  21.707  23.902  1.00  0.00     0.022 A 
BRANCH  41  45
ATOM     45  S   UNL A   1      44.730  19.188  24.931  1.00  0.00     0.124 S 
ATOM     46  O   UNL A   1      44.776  18.783  23.530  1.00  0.00    -0.237 OA
ATOM     47  O   UNL A   1      45.986  19.104  25.669  1.00  0.00    -0.237 OA
ATOM     48  O   UNL A   1      43.544  18.758  25.668  1.00  0.00    -0.744 OA
ENDBRANCH  41  45
ENDBRANCH  24  38
BRANCH  25  49
ATOM     49  C   UNL A   1      47.104  30.564  27.696  1.00  0.00     0.023 A 
ATOM     50  C   UNL A   1      46.529  31.711  27.090  1.00  0.00     0.031 A 
ATOM     51  C   UNL A   1      48.511  30.574  27.834  1.00  0.00     0.131 A 
ATOM     52  C   UNL A   1      47.352  32.785  26.653  1.00  0.00     0.055 A 
ATOM     53  C   UNL A   1      49.314  31.636  27.409  1.00  0.00     0.041 A 
ATOM     54  F   UNL A   1      49.149  29.581  28.472  1.00  0.00    -0.206 F 
ATOM     55  C   UNL A   1      48.738  32.750  26.822  1.00  0.00     0.022 A 
BRANCH  52  56
ATOM     56  S   UNL A   1      46.634  34.293  25.908  1.00  0.00     0.124 S 
ATOM     57  O   UNL A   1      47.692  34.732  25.006  1.00  0.00    -0.237 OA
ATOM     58  O   UNL A   1      45.415  33.790  25.286  1.00  0.00    -0.237 OA
ATOM     59  O   UNL A   1      46.411  35.172  27.059  1.00  0.00    -0.744 OA
ENDBRANCH  52  56
ENDBRANCH  25  49
BRANCH  37  60
ATOM     60  C   UNL A   1      45.679  25.794  31.685  1.00  0.00     0.023 A 
ATOM     61  C   UNL A   1      44.544  26.195  32.428  1.00  0.00     0.031 A 
ATOM     62  C   UNL A   1      46.884  25.603  32.384  1.00  0.00     0.131 A 
ATOM     63  C   UNL A   1      44.649  26.384  33.822  1.00  0.00     0.055 A 
ATOM     64  C   UNL A   1      46.978  25.769  33.763  1.00  0.00     0.041 A 
ATOM     65  F   UNL A   1      47.988  25.197  31.735  1.00  0.00    -0.206 F 
ATOM     66  C   UNL A   1      45.860  26.163  34.488  1.00  0.00     0.022 A 
BRANCH  63  67
ATOM     67  S   UNL A   1      43.210  26.916  34.808  1.00  0.00     0.124 S 
ATOM     68  O   UNL A   1      42.499  27.821  33.913  1.00  0.00    -0.237 OA
ATOM     69  O   UNL A   1      42.537  25.654  35.107  1.00  0.00    -0.237 OA
ATOM     70  O   UNL A   1      43.814  27.564  35.975  1.00  0.00    -0.744 OA
ENDBRANCH  63  67
ENDBRANCH  37  60
ENDBRANCH  11  12
ENDBRANCH   4   6
ENDBRANCH   1   2
BRANCH   1  71
ATOM     71  C   UNL A   1      33.396  28.259  26.881  1.00  0.00     0.042 C 
BRANCH  71  72
ATOM     72  C   UNL A   1      33.177  27.086  25.933  1.00  0.00     0.118 C 
BRANCH  72  73
ATOM     73  N   UNL A   1      33.392  27.397  24.528  1.00  0.00    -0.351 N 
ATOM     74  C   UNL A   1      33.145  26.613  23.420  1.00  0.00     0.274 C 
ATOM     75  H   UNL A   1      33.765  28.289  24.342  1.00  0.00     0.163 HD
ATOM     76  O   UNL A   1      33.440  27.063  22.309  1.00  0.00    -0.267 OA
BRANCH  74  77
ATOM     77  C   UNL A   1      32.552  25.294  23.580  1.00  0.00     0.178 A 
ATOM     78  N   UNL A   1      31.212  25.070  23.375  1.00  0.00    -0.124 NA
ATOM     79  C   UNL A   1      33.171  24.094  23.907  1.00  0.00     0.108 A 
ATOM     80  N   UNL A   1      30.989  23.765  23.457  1.00  0.00    -0.061 NA
ATOM     81  N   UNL A   1      32.131  23.171  23.865  1.00  0.00    -0.212 N 
BRANCH  79  82
ATOM     82  C   UNL A   1      34.584  23.745  24.051  1.00  0.00     0.004 A 
ATOM     83  C   UNL A   1      35.236  23.055  23.011  1.00  0.00     0.010 A 
ATOM     84  C   UNL A   1      35.308  24.108  25.188  1.00  0.00     0.031 A 
ATOM     85  C   UNL A   1      36.587  22.731  23.105  1.00  0.00     0.002 A 
ATOM     86  C   UNL A   1      36.660  23.771  25.280  1.00  0.00     0.041 A 
ATOM     87  C   UNL A   1      37.302  23.089  24.245  1.00  0.00     0.020 A 
ATOM     88  Cl  UNL A   1      37.547  24.203  26.690  1.00  0.00    -0.084 Cl
ENDBRANCH  79  82
BRANCH  81  89
ATOM     89  C   UNL A   1      32.215  21.783  24.112  1.00  0.00     0.067 A 
ATOM     90  C   UNL A   1      32.142  20.888  23.042  1.00  0.00     0.029 A 
ATOM     91  C   UNL A   1      32.537  21.332  25.399  1.00  0.00     0.029 A 
ATOM     92  C   UNL A   1      32.506  19.553  23.249  1.00  0.00     0.015 A 
ATOM     93  C   UNL A   1      32.865  19.995  25.603  1.00  0.00     0.015 A 
ATOM     94  C   UNL A   1      32.888  19.098  24.525  1.00  0.00     0.056 A 
BRANCH  94  95
ATOM     95  C   UNL A   1      33.349  17.674  24.725  1.00  0.00     0.416 C 
ATOM     96  F   UNL A   1      34.698  17.540  24.596  1.00  0.00    -0.166 F 
ATOM     97  F   UNL A   1      33.029  17.181  25.949  1.00  0.00    -0.166 F 
ATOM     98  F   UNL A   1      32.807  16.805  23.822  1.00  0.00    -0.166 F 
ENDBRANCH  94  95
ENDBRANCH  81  89
ENDBRANCH  74  77
ENDBRANCH  72  73
ENDBRANCH  71  72
ENDBRANCH   1  71
TORSDOF 16
ENDMDL
