MODEL 1
REMARK VINA RESULT:     -12.9      0.000      0.000
REMARK SMILES O=C(NCCCNC(=O)C1CCN(c2ccc(C(F)(F)F)cc2[N+](=O)[O-])CC1)c1ccc(-c2c3nc(c(-c4cc(S(=O)(=O)[O-])ccc4F)c4ccc([nH]4)c(-c4cc(S(=O)(=O)[O-])ccc4F)c4nc(c(-c5cc(S(=O)(=O)[O-])ccc5F)c5ccc2[nH]5)C=C4)C=C3)cc1
REMARK SMILES IDX 4 1 3 2 1 3 2 4 29 6 30 7 91 8 31 9 90 10 32 11 33 12 34 13
REMARK SMILES IDX 84 14 35 15 89 16 83 17 85 18 36 19 88 20 82 21 81 22 37 24
REMARK SMILES IDX 69 25 49 26 68 27 50 28 53 29 67 30 86 31 51 32 52 33 66 35
REMARK SMILES IDX 87 36 54 37 38 38 39 39 47 40 40 41 46 42 48 43 45 44 41 45
REMARK SMILES IDX 42 46 43 47 44 48 70 49 71 50 79 51 72 52 78 53 80 54 77 55
REMARK SMILES IDX 73 56 74 57 75 58 76 59 55 60 56 61 64 62 57 63 63 64 65 65
REMARK SMILES IDX 62 66 58 67 59 68 60 69 61 70 5 71 6 72 7 73 8 74 9 76 10 77
REMARK SMILES IDX 11 78 28 79 12 80 27 81 13 82 14 83 15 84 23 85 16 86 22 87
REMARK SMILES IDX 17 88 24 89 25 90 26 91 18 92 19 93 20 94 21 95
REMARK H PARENT 3 5 85 23 53 34 7 75
REMARK Flexibility Score: inf
ROOT
ATOM      1  C   UNL A   1      32.582  29.820  26.243  1.00  0.00     0.118 C 
ENDROOT
BRANCH   1   2
ATOM      2  N   UNL A   1      32.464  31.242  26.540  1.00  0.00    -0.352 N 
ATOM      3  O   UNL A   1      32.895  33.221  27.510  1.00  0.00    -0.269 OA
ATOM      4  C   UNL A   1      33.265  32.070  27.289  1.00  0.00     0.251 C 
ATOM      5  H   UNL A   1      31.681  31.683  26.137  1.00  0.00     0.163 HD
BRANCH   4   6
ATOM      6  C   UNL A   1      34.545  31.584  27.854  1.00  0.00     0.039 A 
ATOM      7  C   UNL A   1      34.714  30.249  28.226  1.00  0.00     0.014 A 
ATOM      8  C   UNL A   1      35.607  32.483  27.994  1.00  0.00     0.014 A 
ATOM      9  C   UNL A   1      35.873  29.856  28.888  1.00  0.00     0.010 A 
ATOM     10  C   UNL A   1      36.807  32.064  28.581  1.00  0.00     0.010 A 
ATOM     11  C   UNL A   1      36.933  30.759  29.078  1.00  0.00    -0.014 A 
BRANCH  11  12
ATOM     12  C   UNL A   1      38.157  30.306  29.795  1.00  0.00     0.031 A 
ATOM     13  C   UNL A   1      38.413  30.715  31.222  1.00  0.00     0.074 A 
ATOM     14  C   UNL A   1      39.016  29.477  29.168  1.00  0.00     0.049 A 
ATOM     15  N   UNL A   1      39.390  30.365  32.020  1.00  0.00    -0.248 NA
ATOM     16  C   UNL A   1      37.453  31.649  31.827  1.00  0.00     0.031 C 
ATOM     17  C   UNL A   1      38.885  29.021  27.782  1.00  0.00     0.029 A 
ATOM     18  N   UNL A   1      40.151  28.850  29.616  1.00  0.00    -0.354 N 
ATOM     19  C   UNL A   1      39.176  31.048  33.214  1.00  0.00     0.074 A 
ATOM     20  C   UNL A   1      37.995  31.864  33.018  1.00  0.00     0.031 C 
ATOM     21  C   UNL A   1      39.863  28.145  27.513  1.00  0.00     0.029 A 
ATOM     22  C   UNL A   1      40.725  28.019  28.683  1.00  0.00     0.049 A 
ATOM     23  H   UNL A   1      40.519  28.981  30.520  1.00  0.00     0.167 HD
ATOM     24  C   UNL A   1      39.890  30.993  34.367  1.00  0.00     0.034 A 
ATOM     25  C   UNL A   1      41.825  27.243  28.755  1.00  0.00     0.034 A 
ATOM     26  C   UNL A   1      41.060  30.166  34.552  1.00  0.00     0.049 A 
ATOM     27  C   UNL A   1      42.605  27.207  30.042  1.00  0.00     0.074 A 
ATOM     28  C   UNL A   1      41.833  30.006  35.690  1.00  0.00     0.029 A 
ATOM     29  N   UNL A   1      41.632  29.364  33.572  1.00  0.00    -0.354 N 
ATOM     30  N   UNL A   1      42.370  27.839  31.169  1.00  0.00    -0.248 NA
ATOM     31  C   UNL A   1      43.793  26.348  30.066  1.00  0.00     0.031 C 
ATOM     32  C   UNL A   1      42.904  29.158  35.381  1.00  0.00     0.029 A 
ATOM     33  C   UNL A   1      42.761  28.730  34.070  1.00  0.00     0.049 A 
ATOM     34  H   UNL A   1      41.286  29.260  32.656  1.00  0.00     0.167 HD
ATOM     35  C   UNL A   1      43.372  27.432  32.045  1.00  0.00     0.074 A 
ATOM     36  C   UNL A   1      44.197  26.487  31.321  1.00  0.00     0.031 C 
ATOM     37  C   UNL A   1      43.588  27.803  33.333  1.00  0.00     0.034 A 
BRANCH  24  38
ATOM     38  C   UNL A   1      39.448  31.888  35.501  1.00  0.00     0.023 A 
ATOM     39  C   UNL A   1      38.700  31.398  36.587  1.00  0.00     0.031 A 
ATOM     40  C   UNL A   1      39.757  33.260  35.483  1.00  0.00     0.131 A 
ATOM     41  C   UNL A   1      38.225  32.283  37.568  1.00  0.00     0.055 A 
ATOM     42  C   UNL A   1      39.348  34.122  36.504  1.00  0.00     0.041 A 
ATOM     43  F   UNL A   1      40.451  33.791  34.465  1.00  0.00    -0.206 F 
ATOM     44  C   UNL A   1      38.564  33.638  37.547  1.00  0.00     0.022 A 
BRANCH  41  45
ATOM     45  S   UNL A   1      37.038  31.664  38.794  1.00  0.00     0.124 S 
ATOM     46  O   UNL A   1      35.880  32.520  38.545  1.00  0.00    -0.237 OA
ATOM     47  O   UNL A   1      36.890  30.266  38.411  1.00  0.00    -0.237 OA
ATOM     48  O   UNL A   1      37.710  31.896  40.071  1.00  0.00    -0.744 OA
ENDBRANCH  41  45
ENDBRANCH  24  38
BRANCH  25  49
ATOM     49  C   UNL A   1      42.260  26.446  27.575  1.00  0.00     0.023 A 
ATOM     50  C   UNL A   1      41.893  25.098  27.436  1.00  0.00     0.031 A 
ATOM     51  C   UNL A   1      43.073  27.015  26.580  1.00  0.00     0.131 A 
ATOM     52  C   UNL A   1      42.372  24.353  26.348  1.00  0.00     0.055 A 
ATOM     53  C   UNL A   1      43.506  26.285  25.472  1.00  0.00     0.041 A 
ATOM     54  F   UNL A   1      43.446  28.303  26.663  1.00  0.00    -0.206 F 
ATOM     55  C   UNL A   1      43.165  24.941  25.359  1.00  0.00     0.022 A 
BRANCH  52  56
ATOM     56  S   UNL A   1      42.002  22.579  26.280  1.00  0.00     0.124 S 
ATOM     57  O   UNL A   1      42.670  22.089  27.481  1.00  0.00    -0.237 OA
ATOM     58  O   UNL A   1      40.544  22.573  26.310  1.00  0.00    -0.237 OA
ATOM     59  O   UNL A   1      42.599  22.155  25.016  1.00  0.00    -0.744 OA
ENDBRANCH  52  56
ENDBRANCH  25  49
BRANCH  37  60
ATOM     60  C   UNL A   1      44.744  27.145  34.042  1.00  0.00     0.023 A 
ATOM     61  C   UNL A   1      44.597  25.922  34.720  1.00  0.00     0.031 A 
ATOM     62  C   UNL A   1      46.003  27.771  34.073  1.00  0.00     0.131 A 
ATOM     63  C   UNL A   1      45.671  25.396  35.454  1.00  0.00     0.055 A 
ATOM     64  C   UNL A   1      47.085  27.213  34.755  1.00  0.00     0.041 A 
ATOM     65  F   UNL A   1      46.199  28.941  33.444  1.00  0.00    -0.206 F 
ATOM     66  C   UNL A   1      46.918  26.027  35.465  1.00  0.00     0.022 A 
BRANCH  63  67
ATOM     67  S   UNL A   1      45.387  23.930  36.485  1.00  0.00     0.124 S 
ATOM     68  O   UNL A   1      44.806  24.513  37.691  1.00  0.00    -0.237 OA
ATOM     69  O   UNL A   1      44.480  23.140  35.659  1.00  0.00    -0.237 OA
ATOM     70  O   UNL A   1      46.725  23.364  36.653  1.00  0.00    -0.744 OA
ENDBRANCH  63  67
ENDBRANCH  37  60
ENDBRANCH  11  12
ENDBRANCH   4   6
ENDBRANCH   1   2
BRANCH   1  71
ATOM     71  C   UNL A   1      31.669  28.943  27.100  1.00  0.00     0.042 C 
BRANCH  71  72
ATOM     72  C   UNL A   1      31.854  27.443  26.897  1.00  0.00     0.117 C 
BRANCH  72  73
ATOM     73  N   UNL A   1      31.644  27.045  25.516  1.00  0.00    -0.356 N 
ATOM     74  C   UNL A   1      32.402  26.244  24.716  1.00  0.00     0.223 C 
ATOM     75  H   UNL A   1      30.832  27.409  25.094  1.00  0.00     0.163 HD
ATOM     76  O   UNL A   1      32.107  26.177  23.524  1.00  0.00    -0.275 OA
BRANCH  74  77
ATOM     77  C   UNL A   1      33.531  25.430  25.333  1.00  0.00     0.082 C 
ATOM     78  C   UNL A   1      34.407  24.773  24.253  1.00  0.00     0.035 C 
ATOM     79  C   UNL A   1      32.954  24.392  26.311  1.00  0.00     0.035 C 
ATOM     80  C   UNL A   1      33.755  23.550  23.609  1.00  0.00     0.117 C 
ATOM     81  C   UNL A   1      32.320  23.192  25.597  1.00  0.00     0.117 C 
ATOM     82  N   UNL A   1      33.300  22.645  24.664  1.00  0.00    -0.366 N 
BRANCH  82  83
ATOM     83  C   UNL A   1      33.563  21.297  24.535  1.00  0.00     0.116 A 
ATOM     84  C   UNL A   1      32.515  20.481  24.065  1.00  0.00     0.034 A 
ATOM     85  C   UNL A   1      34.773  20.642  24.813  1.00  0.00     0.293 A 
ATOM     86  C   UNL A   1      32.661  19.102  23.879  1.00  0.00     0.016 A 
ATOM     87  C   UNL A   1      34.937  19.251  24.633  1.00  0.00     0.101 A 
ATOM     88  C   UNL A   1      33.876  18.469  24.162  1.00  0.00     0.062 A 
BRANCH  85  89
ATOM     89  N   UNL A   1      35.912  21.356  25.368  1.00  0.00     0.064 N 
ATOM     90  O   UNL A   1      36.945  21.373  24.680  1.00  0.00    -0.258 OA
ATOM     91  O   UNL A   1      35.807  21.829  26.507  1.00  0.00    -0.258 OA
ENDBRANCH  85  89
BRANCH  88  92
ATOM     92  C   UNL A   1      34.010  16.979  23.970  1.00  0.00     0.416 C 
ATOM     93  F   UNL A   1      34.256  16.642  22.674  1.00  0.00    -0.166 F 
ATOM     94  F   UNL A   1      35.032  16.450  24.695  1.00  0.00    -0.166 F 
ATOM     95  F   UNL A   1      32.895  16.284  24.330  1.00  0.00    -0.166 F 
ENDBRANCH  88  92
ENDBRANCH  82  83
ENDBRANCH  74  77
ENDBRANCH  72  73
ENDBRANCH  71  72
ENDBRANCH   1  71
TORSDOF 16
ENDMDL
MODEL 2
REMARK VINA RESULT:     -12.9      1.421      1.770
REMARK SMILES O=C(NCCCNC(=O)C1CCN(c2ccc(C(F)(F)F)cc2[N+](=O)[O-])CC1)c1ccc(-c2c3nc(c(-c4cc(S(=O)(=O)[O-])ccc4F)c4ccc([nH]4)c(-c4cc(S(=O)(=O)[O-])ccc4F)c4nc(c(-c5cc(S(=O)(=O)[O-])ccc5F)c5ccc2[nH]5)C=C4)C=C3)cc1
REMARK SMILES IDX 4 1 3 2 1 3 2 4 29 6 30 7 91 8 31 9 90 10 32 11 33 12 34 13
REMARK SMILES IDX 84 14 35 15 89 16 83 17 85 18 36 19 88 20 82 21 81 22 37 24
REMARK SMILES IDX 69 25 49 26 68 27 50 28 53 29 67 30 86 31 51 32 52 33 66 35
REMARK SMILES IDX 87 36 54 37 38 38 39 39 47 40 40 41 46 42 48 43 45 44 41 45
REMARK SMILES IDX 42 46 43 47 44 48 70 49 71 50 79 51 72 52 78 53 80 54 77 55
REMARK SMILES IDX 73 56 74 57 75 58 76 59 55 60 56 61 64 62 57 63 63 64 65 65
REMARK SMILES IDX 62 66 58 67 59 68 60 69 61 70 5 71 6 72 7 73 8 74 9 76 10 77
REMARK SMILES IDX 11 78 28 79 12 80 27 81 13 82 14 83 15 84 23 85 16 86 22 87
REMARK SMILES IDX 17 88 24 89 25 90 26 91 18 92 19 93 20 94 21 95
REMARK H PARENT 3 5 85 23 53 34 7 75
REMARK Flexibility Score: inf
ROOT
ATOM      1  C   UNL A   1      32.085  29.900  26.756  1.00  0.00     0.118 C 
ENDROOT
BRANCH   1   2
ATOM      2  N   UNL A   1      32.060  31.357  26.786  1.00  0.00    -0.352 N 
ATOM      3  O   UNL A   1      32.662  33.450  27.332  1.00  0.00    -0.269 OA
ATOM      4  C   UNL A   1      32.957  32.257  27.309  1.00  0.00     0.251 C 
ATOM      5  H   UNL A   1      31.271  31.763  26.361  1.00  0.00     0.163 HD
BRANCH   4   6
ATOM      6  C   UNL A   1      34.252  31.805  27.867  1.00  0.00     0.039 A 
ATOM      7  C   UNL A   1      34.484  30.462  28.168  1.00  0.00     0.014 A 
ATOM      8  C   UNL A   1      35.266  32.747  28.074  1.00  0.00     0.014 A 
ATOM      9  C   UNL A   1      35.652  30.091  28.826  1.00  0.00     0.010 A 
ATOM     10  C   UNL A   1      36.477  32.356  28.656  1.00  0.00     0.010 A 
ATOM     11  C   UNL A   1      36.663  31.033  29.083  1.00  0.00    -0.014 A 
BRANCH  11  12
ATOM     12  C   UNL A   1      37.898  30.603  29.794  1.00  0.00     0.031 A 
ATOM     13  C   UNL A   1      38.150  31.013  31.221  1.00  0.00     0.074 A 
ATOM     14  C   UNL A   1      38.771  29.794  29.161  1.00  0.00     0.049 A 
ATOM     15  N   UNL A   1      39.138  30.680  32.015  1.00  0.00    -0.248 NA
ATOM     16  C   UNL A   1      37.174  31.925  31.833  1.00  0.00     0.031 C 
ATOM     17  C   UNL A   1      38.644  29.340  27.774  1.00  0.00     0.029 A 
ATOM     18  N   UNL A   1      39.920  29.189  29.603  1.00  0.00    -0.354 N 
ATOM     19  C   UNL A   1      38.915  31.356  33.211  1.00  0.00     0.074 A 
ATOM     20  C   UNL A   1      37.717  32.147  33.022  1.00  0.00     0.031 C 
ATOM     21  C   UNL A   1      39.639  28.485  27.499  1.00  0.00     0.029 A 
ATOM     22  C   UNL A   1      40.508  28.372  28.665  1.00  0.00     0.049 A 
ATOM     23  H   UNL A   1      40.289  29.325  30.505  1.00  0.00     0.167 HD
ATOM     24  C   UNL A   1      39.634  31.311  34.361  1.00  0.00     0.034 A 
ATOM     25  C   UNL A   1      41.623  27.618  28.731  1.00  0.00     0.034 A 
ATOM     26  C   UNL A   1      40.821  30.507  34.539  1.00  0.00     0.049 A 
ATOM     27  C   UNL A   1      42.408  27.594  30.015  1.00  0.00     0.074 A 
ATOM     28  C   UNL A   1      41.601  30.359  35.674  1.00  0.00     0.029 A 
ATOM     29  N   UNL A   1      41.406  29.720  33.555  1.00  0.00    -0.354 N 
ATOM     30  N   UNL A   1      42.165  28.217  31.145  1.00  0.00    -0.248 NA
ATOM     31  C   UNL A   1      43.614  26.759  30.032  1.00  0.00     0.031 C 
ATOM     32  C   UNL A   1      42.688  29.534  35.358  1.00  0.00     0.029 A 
ATOM     33  C   UNL A   1      42.549  29.108  34.047  1.00  0.00     0.049 A 
ATOM     34  H   UNL A   1      41.058  29.611  32.640  1.00  0.00     0.167 HD
ATOM     35  C   UNL A   1      43.178  27.828  32.016  1.00  0.00     0.074 A 
ATOM     36  C   UNL A   1      44.020  26.902  31.286  1.00  0.00     0.031 C 
ATOM     37  C   UNL A   1      43.391  28.200  33.304  1.00  0.00     0.034 A 
BRANCH  24  38
ATOM     38  C   UNL A   1      39.178  32.193  35.500  1.00  0.00     0.023 A 
ATOM     39  C   UNL A   1      39.611  33.525  35.630  1.00  0.00     0.031 A 
ATOM     40  C   UNL A   1      38.314  31.685  36.488  1.00  0.00     0.131 A 
ATOM     41  C   UNL A   1      39.242  34.277  36.757  1.00  0.00     0.055 A 
ATOM     42  C   UNL A   1      37.888  32.465  37.567  1.00  0.00     0.041 A 
ATOM     43  F   UNL A   1      37.881  30.416  36.430  1.00  0.00    -0.206 F 
ATOM     44  C   UNL A   1      38.363  33.764  37.714  1.00  0.00     0.022 A 
BRANCH  41  45
ATOM     45  S   UNL A   1      40.041  35.884  37.028  1.00  0.00     0.124 S 
ATOM     46  O   UNL A   1      41.440  35.496  37.193  1.00  0.00    -0.237 OA
ATOM     47  O   UNL A   1      39.720  36.606  35.803  1.00  0.00    -0.237 OA
ATOM     48  O   UNL A   1      39.397  36.389  38.239  1.00  0.00    -0.744 OA
ENDBRANCH  41  45
ENDBRANCH  24  38
BRANCH  25  49
ATOM     49  C   UNL A   1      42.070  26.834  27.546  1.00  0.00     0.023 A 
ATOM     50  C   UNL A   1      41.807  25.459  27.448  1.00  0.00     0.031 A 
ATOM     51  C   UNL A   1      42.790  27.445  26.506  1.00  0.00     0.131 A 
ATOM     52  C   UNL A   1      42.298  24.731  26.353  1.00  0.00     0.055 A 
ATOM     53  C   UNL A   1      43.232  26.729  25.393  1.00  0.00     0.041 A 
ATOM     54  F   UNL A   1      43.061  28.760  26.550  1.00  0.00    -0.206 F 
ATOM     55  C   UNL A   1      42.996  25.360  25.319  1.00  0.00     0.022 A 
BRANCH  52  56
ATOM     56  S   UNL A   1      42.070  22.932  26.333  1.00  0.00     0.124 S 
ATOM     57  O   UNL A   1      40.622  22.813  26.461  1.00  0.00    -0.237 OA
ATOM     58  O   UNL A   1      42.632  22.571  25.036  1.00  0.00    -0.237 OA
ATOM     59  O   UNL A   1      42.839  22.480  27.490  1.00  0.00    -0.744 OA
ENDBRANCH  52  56
ENDBRANCH  25  49
BRANCH  37  60
ATOM     60  C   UNL A   1      44.564  27.563  34.007  1.00  0.00     0.023 A 
ATOM     61  C   UNL A   1      44.412  26.417  34.808  1.00  0.00     0.031 A 
ATOM     62  C   UNL A   1      45.844  28.134  33.904  1.00  0.00     0.131 A 
ATOM     63  C   UNL A   1      45.509  25.918  35.528  1.00  0.00     0.055 A 
ATOM     64  C   UNL A   1      46.945  27.597  34.575  1.00  0.00     0.041 A 
ATOM     65  F   UNL A   1      46.046  29.229  33.154  1.00  0.00    -0.206 F 
ATOM     66  C   UNL A   1      46.777  26.493  35.405  1.00  0.00     0.022 A 
BRANCH  63  67
ATOM     67  S   UNL A   1      45.233  24.571  36.712  1.00  0.00     0.124 S 
ATOM     68  O   UNL A   1      45.191  23.402  35.839  1.00  0.00    -0.237 OA
ATOM     69  O   UNL A   1      46.401  24.676  37.579  1.00  0.00    -0.237 OA
ATOM     70  O   UNL A   1      43.961  24.922  37.340  1.00  0.00    -0.744 OA
ENDBRANCH  63  67
ENDBRANCH  37  60
ENDBRANCH  11  12
ENDBRANCH   4   6
ENDBRANCH   1   2
BRANCH   1  71
ATOM     71  C   UNL A   1      31.768  29.316  25.380  1.00  0.00     0.042 C 
BRANCH  71  72
ATOM     72  C   UNL A   1      32.550  28.054  25.029  1.00  0.00     0.117 C 
BRANCH  72  73
ATOM     73  N   UNL A   1      31.763  27.119  24.244  1.00  0.00    -0.356 N 
ATOM     74  C   UNL A   1      32.068  25.858  23.831  1.00  0.00     0.223 C 
ATOM     75  H   UNL A   1      30.875  27.446  23.970  1.00  0.00     0.163 HD
ATOM     76  O   UNL A   1      31.303  25.313  23.036  1.00  0.00    -0.275 OA
BRANCH  74  77
ATOM     77  C   UNL A   1      33.294  25.161  24.405  1.00  0.00     0.082 C 
ATOM     78  C   UNL A   1      34.044  24.361  23.328  1.00  0.00     0.035 C 
ATOM     79  C   UNL A   1      32.882  24.273  25.593  1.00  0.00     0.035 C 
ATOM     80  C   UNL A   1      33.356  23.047  22.962  1.00  0.00     0.117 C 
ATOM     81  C   UNL A   1      32.202  22.971  25.153  1.00  0.00     0.117 C 
ATOM     82  N   UNL A   1      33.071  22.305  24.190  1.00  0.00    -0.366 N 
BRANCH  82  83
ATOM     83  C   UNL A   1      33.360  20.956  24.226  1.00  0.00     0.116 A 
ATOM     84  C   UNL A   1      32.412  20.081  23.660  1.00  0.00     0.034 A 
ATOM     85  C   UNL A   1      34.509  20.352  24.760  1.00  0.00     0.293 A 
ATOM     86  C   UNL A   1      32.595  18.694  23.624  1.00  0.00     0.016 A 
ATOM     87  C   UNL A   1      34.710  18.955  24.734  1.00  0.00     0.101 A 
ATOM     88  C   UNL A   1      33.748  18.113  24.162  1.00  0.00     0.062 A 
BRANCH  85  89
ATOM     89  N   UNL A   1      35.533  21.134  25.433  1.00  0.00     0.064 N 
ATOM     90  O   UNL A   1      36.627  21.232  24.855  1.00  0.00    -0.258 OA
ATOM     91  O   UNL A   1      35.281  21.583  26.559  1.00  0.00    -0.258 OA
ENDBRANCH  85  89
BRANCH  88  92
ATOM     92  C   UNL A   1      33.921  16.616  24.127  1.00  0.00     0.416 C 
ATOM     93  F   UNL A   1      34.865  16.181  25.007  1.00  0.00    -0.166 F 
ATOM     94  F   UNL A   1      32.778  15.950  24.446  1.00  0.00    -0.166 F 
ATOM     95  F   UNL A   1      34.303  16.142  22.908  1.00  0.00    -0.166 F 
ENDBRANCH  88  92
ENDBRANCH  82  83
ENDBRANCH  74  77
ENDBRANCH  72  73
ENDBRANCH  71  72
ENDBRANCH   1  71
TORSDOF 16
ENDMDL
MODEL 3
REMARK VINA RESULT:     -12.7      2.321      8.037
REMARK SMILES O=C(NCCCNC(=O)C1CCN(c2ccc(C(F)(F)F)cc2[N+](=O)[O-])CC1)c1ccc(-c2c3nc(c(-c4cc(S(=O)(=O)[O-])ccc4F)c4ccc([nH]4)c(-c4cc(S(=O)(=O)[O-])ccc4F)c4nc(c(-c5cc(S(=O)(=O)[O-])ccc5F)c5ccc2[nH]5)C=C4)C=C3)cc1
REMARK SMILES IDX 4 1 3 2 1 3 2 4 29 6 30 7 91 8 31 9 90 10 32 11 33 12 34 13
REMARK SMILES IDX 84 14 35 15 89 16 83 17 85 18 36 19 88 20 82 21 81 22 37 24
REMARK SMILES IDX 69 25 49 26 68 27 50 28 53 29 67 30 86 31 51 32 52 33 66 35
REMARK SMILES IDX 87 36 54 37 38 38 39 39 47 40 40 41 46 42 48 43 45 44 41 45
REMARK SMILES IDX 42 46 43 47 44 48 70 49 71 50 79 51 72 52 78 53 80 54 77 55
REMARK SMILES IDX 73 56 74 57 75 58 76 59 55 60 56 61 64 62 57 63 63 64 65 65
REMARK SMILES IDX 62 66 58 67 59 68 60 69 61 70 5 71 6 72 7 73 8 74 9 76 10 77
REMARK SMILES IDX 11 78 28 79 12 80 27 81 13 82 14 83 15 84 23 85 16 86 22 87
REMARK SMILES IDX 17 88 24 89 25 90 26 91 18 92 19 93 20 94 21 95
REMARK H PARENT 3 5 85 23 53 34 7 75
REMARK Flexibility Score: inf
ROOT
ATOM      1  C   UNL A   1      32.844  32.484  27.176  1.00  0.00     0.118 C 
ENDROOT
BRANCH   1   2
ATOM      2  N   UNL A   1      32.621  33.865  27.586  1.00  0.00    -0.352 N 
ATOM      3  O   UNL A   1      32.751  35.724  28.839  1.00  0.00    -0.269 OA
ATOM      4  C   UNL A   1      33.193  34.603  28.594  1.00  0.00     0.251 C 
ATOM      5  H   UNL A   1      31.950  34.349  27.052  1.00  0.00     0.163 HD
BRANCH   4   6
ATOM      6  C   UNL A   1      34.307  34.056  29.401  1.00  0.00     0.039 A 
ATOM      7  C   UNL A   1      35.638  34.307  29.065  1.00  0.00     0.014 A 
ATOM      8  C   UNL A   1      34.010  33.293  30.535  1.00  0.00     0.014 A 
ATOM      9  C   UNL A   1      36.660  33.661  29.754  1.00  0.00     0.010 A 
ATOM     10  C   UNL A   1      35.044  32.714  31.281  1.00  0.00     0.010 A 
ATOM     11  C   UNL A   1      36.377  32.853  30.868  1.00  0.00    -0.014 A 
BRANCH  11  12
ATOM     12  C   UNL A   1      37.494  32.172  31.579  1.00  0.00     0.031 A 
ATOM     13  C   UNL A   1      38.291  31.086  30.904  1.00  0.00     0.074 A 
ATOM     14  C   UNL A   1      37.824  32.575  32.822  1.00  0.00     0.049 A 
ATOM     15  N   UNL A   1      39.335  30.430  31.347  1.00  0.00    -0.248 NA
ATOM     16  C   UNL A   1      37.851  30.674  29.564  1.00  0.00     0.031 C 
ATOM     17  C   UNL A   1      37.119  33.608  33.585  1.00  0.00     0.029 A 
ATOM     18  N   UNL A   1      38.845  32.189  33.652  1.00  0.00    -0.354 N 
ATOM     19  C   UNL A   1      39.665  29.514  30.351  1.00  0.00     0.074 A 
ATOM     20  C   UNL A   1      38.684  29.677  29.298  1.00  0.00     0.031 C 
ATOM     21  C   UNL A   1      37.761  33.813  34.744  1.00  0.00     0.029 A 
ATOM     22  C   UNL A   1      38.888  32.891  34.835  1.00  0.00     0.049 A 
ATOM     23  H   UNL A   1      39.487  31.479  33.424  1.00  0.00     0.167 HD
ATOM     24  C   UNL A   1      40.694  28.631  30.314  1.00  0.00     0.034 A 
ATOM     25  C   UNL A   1      39.735  32.803  35.879  1.00  0.00     0.034 A 
ATOM     26  C   UNL A   1      41.673  28.489  31.367  1.00  0.00     0.049 A 
ATOM     27  C   UNL A   1      40.862  31.808  35.817  1.00  0.00     0.074 A 
ATOM     28  C   UNL A   1      42.777  27.653  31.413  1.00  0.00     0.029 A 
ATOM     29  N   UNL A   1      41.663  29.192  32.565  1.00  0.00    -0.354 N 
ATOM     30  N   UNL A   1      41.175  30.971  34.854  1.00  0.00    -0.248 NA
ATOM     31  C   UNL A   1      41.754  31.752  36.981  1.00  0.00     0.031 C 
ATOM     32  C   UNL A   1      43.396  27.807  32.659  1.00  0.00     0.029 A 
ATOM     33  C   UNL A   1      42.722  28.791  33.365  1.00  0.00     0.049 A 
ATOM     34  H   UNL A   1      41.000  29.878  32.810  1.00  0.00     0.167 HD
ATOM     35  C   UNL A   1      42.317  30.306  35.289  1.00  0.00     0.074 A 
ATOM     36  C   UNL A   1      42.647  30.854  36.589  1.00  0.00     0.031 C 
ATOM     37  C   UNL A   1      43.031  29.332  34.669  1.00  0.00     0.034 A 
BRANCH  24  38
ATOM     38  C   UNL A   1      40.784  27.720  29.112  1.00  0.00     0.023 A 
ATOM     39  C   UNL A   1      41.725  27.929  28.088  1.00  0.00     0.031 A 
ATOM     40  C   UNL A   1      39.896  26.637  28.975  1.00  0.00     0.131 A 
ATOM     41  C   UNL A   1      41.708  27.119  26.942  1.00  0.00     0.055 A 
ATOM     42  C   UNL A   1      39.936  25.786  27.868  1.00  0.00     0.041 A 
ATOM     43  F   UNL A   1      38.963  26.397  29.909  1.00  0.00    -0.206 F 
ATOM     44  C   UNL A   1      40.836  26.033  26.835  1.00  0.00     0.022 A 
BRANCH  41  45
ATOM     45  S   UNL A   1      42.745  27.591  25.529  1.00  0.00     0.124 S 
ATOM     46  O   UNL A   1      42.672  26.394  24.693  1.00  0.00    -0.237 OA
ATOM     47  O   UNL A   1      42.060  28.770  25.015  1.00  0.00    -0.237 OA
ATOM     48  O   UNL A   1      44.053  27.841  26.131  1.00  0.00    -0.744 OA
ENDBRANCH  41  45
ENDBRANCH  24  38
BRANCH  25  49
ATOM     49  C   UNL A   1      39.546  33.671  37.074  1.00  0.00     0.023 A 
ATOM     50  C   UNL A   1      38.931  33.179  38.236  1.00  0.00     0.031 A 
ATOM     51  C   UNL A   1      39.955  35.016  37.062  1.00  0.00     0.131 A 
ATOM     52  C   UNL A   1      38.706  34.037  39.323  1.00  0.00     0.055 A 
ATOM     53  C   UNL A   1      39.776  35.852  38.164  1.00  0.00     0.041 A 
ATOM     54  F   UNL A   1      40.555  35.532  35.976  1.00  0.00    -0.206 F 
ATOM     55  C   UNL A   1      39.137  35.367  39.300  1.00  0.00     0.022 A 
BRANCH  52  56
ATOM     56  S   UNL A   1      37.776  33.409  40.747  1.00  0.00     0.124 S 
ATOM     57  O   UNL A   1      38.595  32.275  41.161  1.00  0.00    -0.237 OA
ATOM     58  O   UNL A   1      37.778  34.561  41.642  1.00  0.00    -0.237 OA
ATOM     59  O   UNL A   1      36.474  33.067  40.179  1.00  0.00    -0.744 OA
ENDBRANCH  52  56
ENDBRANCH  25  49
BRANCH  37  60
ATOM     60  C   UNL A   1      44.262  28.834  35.384  1.00  0.00     0.023 A 
ATOM     61  C   UNL A   1      44.202  27.781  36.314  1.00  0.00     0.031 A 
ATOM     62  C   UNL A   1      45.507  29.449  35.160  1.00  0.00     0.131 A 
ATOM     63  C   UNL A   1      45.350  27.419  37.034  1.00  0.00     0.055 A 
ATOM     64  C   UNL A   1      46.659  29.044  35.836  1.00  0.00     0.041 A 
ATOM     65  F   UNL A   1      45.621  30.460  34.283  1.00  0.00    -0.206 F 
ATOM     66  C   UNL A   1      46.581  28.034  36.791  1.00  0.00     0.022 A 
BRANCH  63  67
ATOM     67  S   UNL A   1      45.192  26.204  38.372  1.00  0.00     0.124 S 
ATOM     68  O   UNL A   1      46.559  26.127  38.878  1.00  0.00    -0.237 OA
ATOM     69  O   UNL A   1      44.221  26.839  39.256  1.00  0.00    -0.237 OA
ATOM     70  O   UNL A   1      44.715  25.002  37.689  1.00  0.00    -0.744 OA
ENDBRANCH  63  67
ENDBRANCH  37  60
ENDBRANCH  11  12
ENDBRANCH   4   6
ENDBRANCH   1   2
BRANCH   1  71
ATOM     71  C   UNL A   1      31.602  31.819  26.584  1.00  0.00     0.042 C 
BRANCH  71  72
ATOM     72  C   UNL A   1      31.674  30.297  26.502  1.00  0.00     0.117 C 
BRANCH  72  73
ATOM     73  N   UNL A   1      31.616  29.817  25.133  1.00  0.00    -0.356 N 
ATOM     74  C   UNL A   1      31.424  28.553  24.662  1.00  0.00     0.223 C 
ATOM     75  H   UNL A   1      31.732  30.509  24.441  1.00  0.00     0.163 HD
ATOM     76  O   UNL A   1      31.573  28.361  23.456  1.00  0.00    -0.275 OA
BRANCH  74  77
ATOM     77  C   UNL A   1      30.982  27.458  25.623  1.00  0.00     0.082 C 
ATOM     78  C   UNL A   1      32.185  26.684  26.187  1.00  0.00     0.035 C 
ATOM     79  C   UNL A   1      29.978  26.525  24.925  1.00  0.00     0.035 C 
ATOM     80  C   UNL A   1      32.786  25.694  25.192  1.00  0.00     0.117 C 
ATOM     81  C   UNL A   1      30.650  25.556  23.944  1.00  0.00     0.117 C 
ATOM     82  N   UNL A   1      31.716  24.855  24.652  1.00  0.00    -0.366 N 
BRANCH  82  83
ATOM     83  C   UNL A   1      31.925  23.494  24.567  1.00  0.00     0.116 A 
ATOM     84  C   UNL A   1      32.139  22.958  23.281  1.00  0.00     0.034 A 
ATOM     85  C   UNL A   1      31.958  22.576  25.627  1.00  0.00     0.293 A 
ATOM     86  C   UNL A   1      32.375  21.596  23.064  1.00  0.00     0.016 A 
ATOM     87  C   UNL A   1      32.193  21.198  25.427  1.00  0.00     0.101 A 
ATOM     88  C   UNL A   1      32.403  20.698  24.136  1.00  0.00     0.062 A 
BRANCH  85  89
ATOM     89  N   UNL A   1      31.685  22.987  26.995  1.00  0.00     0.064 N 
ATOM     90  O   UNL A   1      32.609  22.847  27.812  1.00  0.00    -0.258 OA
ATOM     91  O   UNL A   1      30.542  23.373  27.273  1.00  0.00    -0.258 OA
ENDBRANCH  85  89
BRANCH  88  92
ATOM     92  C   UNL A   1      32.644  19.231  23.881  1.00  0.00     0.416 C 
ATOM     93  F   UNL A   1      33.944  18.876  24.077  1.00  0.00    -0.166 F 
ATOM     94  F   UNL A   1      31.909  18.432  24.701  1.00  0.00    -0.166 F 
ATOM     95  F   UNL A   1      32.341  18.845  22.611  1.00  0.00    -0.166 F 
ENDBRANCH  88  92
ENDBRANCH  82  83
ENDBRANCH  74  77
ENDBRANCH  72  73
ENDBRANCH  71  72
ENDBRANCH   1  71
TORSDOF 16
ENDMDL
