MODEL 1
REMARK VINA RESULT:     -12.2      0.000      0.000
REMARK SMILES COc1ccc(F)cc1-c1cc(C(=O)NCCCNC(=O)c2ccc(-c3c4nc(c(-c5cc(S(=O)(=O)[O-])ccc5F)c5ccc([nH]5)c(-c5cc(S(=O)(=O)[O-])ccc5F)c5nc(c(-c6cc(S(=O)(=O)[O-])ccc6F)c6ccc3[nH]6)C=C5)C=C4)cc2)n(C)n1
REMARK SMILES IDX 17 1 16 2 15 3 13 4 14 5 12 7 10 8 11 9 87 10 85 11 86 12
REMARK SMILES IDX 9 13 3 14 4 15 5 16 8 17 6 18 7 19 2 20 1 21 18 22 19 23
REMARK SMILES IDX 20 24 21 26 22 27 23 28 84 29 24 30 83 31 25 32 26 33 27 34
REMARK SMILES IDX 77 35 28 36 82 37 76 38 78 39 29 40 81 41 75 42 74 43 30 45
REMARK SMILES IDX 62 46 42 47 61 48 43 49 46 50 60 51 79 52 44 53 45 54 59 56
REMARK SMILES IDX 80 57 47 58 31 59 32 60 40 61 33 62 39 63 41 64 38 65 34 66
REMARK SMILES IDX 35 67 36 68 37 69 63 70 64 71 72 72 65 73 71 74 73 75 70 76
REMARK SMILES IDX 66 77 67 78 68 79 69 80 48 81 49 82 57 83 50 84 56 85 58 86
REMARK SMILES IDX 55 87 51 88 52 89 53 90 54 91
REMARK H PARENT 15 6 19 25 78 44 46 55
REMARK Flexibility Score: inf
ROOT
ATOM      1  C   UNL A   1      33.007  28.807  23.443  1.00  0.00     0.042 C 
ENDROOT
BRANCH   1   2
ATOM      2  C   UNL A   1      33.739  27.633  22.793  1.00  0.00     0.118 C 
BRANCH   2   3
ATOM      3  N   UNL A   1      32.979  27.125  21.672  1.00  0.00    -0.351 N 
ATOM      4  C   UNL A   1      32.300  25.969  21.426  1.00  0.00     0.269 C 
ATOM      5  O   UNL A   1      31.750  25.941  20.314  1.00  0.00    -0.268 OA
ATOM      6  H   UNL A   1      32.946  27.756  20.917  1.00  0.00     0.163 HD
BRANCH   4   7
ATOM      7  C   UNL A   1      32.121  24.882  22.362  1.00  0.00     0.126 A 
ATOM      8  C   UNL A   1      32.465  22.895  23.374  1.00  0.00     0.097 A 
ATOM      9  C   UNL A   1      32.884  23.719  22.313  1.00  0.00     0.064 A 
ATOM     10  N   UNL A   1      31.423  23.451  23.997  1.00  0.00    -0.172 NA
ATOM     11  N   UNL A   1      31.378  24.711  23.508  1.00  0.00    -0.262 N 
ATOM     12  C   UNL A   1      30.764  25.686  24.376  1.00  0.00     0.174 C 
BRANCH   8  13
ATOM     13  C   UNL A   1      33.017  21.617  23.795  1.00  0.00     0.047 A 
ATOM     14  C   UNL A   1      34.204  21.545  24.551  1.00  0.00     0.128 A 
ATOM     15  C   UNL A   1      34.686  20.302  24.980  1.00  0.00     0.050 A 
ATOM     16  C   UNL A   1      34.010  19.134  24.626  1.00  0.00     0.043 A 
ATOM     17  C   UNL A   1      32.343  20.438  23.453  1.00  0.00     0.053 A 
ATOM     18  C   UNL A   1      32.849  19.213  23.866  1.00  0.00     0.124 A 
ATOM     19  F   UNL A   1      32.203  18.086  23.536  1.00  0.00    -0.207 F 
BRANCH  14  20
ATOM     20  O   UNL A   1      34.795  22.714  24.960  1.00  0.00    -0.496 OA
ATOM     21  C   UNL A   1      34.646  22.982  26.352  1.00  0.00     0.278 C 
ENDBRANCH  14  20
ENDBRANCH   8  13
ENDBRANCH   4   7
ENDBRANCH   2   3
ENDBRANCH   1   2
BRANCH   1  22
ATOM     22  C   UNL A   1      33.379  29.023  24.906  1.00  0.00     0.118 C 
BRANCH  22  23
ATOM     23  N   UNL A   1      32.740  30.206  25.457  1.00  0.00    -0.352 N 
ATOM     24  C   UNL A   1      33.009  30.878  26.623  1.00  0.00     0.251 C 
ATOM     25  H   UNL A   1      32.007  30.580  24.915  1.00  0.00     0.163 HD
ATOM     26  O   UNL A   1      32.193  31.709  27.033  1.00  0.00    -0.269 OA
BRANCH  24  27
ATOM     27  C   UNL A   1      34.242  30.606  27.395  1.00  0.00     0.039 A 
ATOM     28  C   UNL A   1      35.124  31.658  27.656  1.00  0.00     0.014 A 
ATOM     29  C   UNL A   1      34.555  29.314  27.830  1.00  0.00     0.014 A 
ATOM     30  C   UNL A   1      36.287  31.428  28.396  1.00  0.00     0.010 A 
ATOM     31  C   UNL A   1      35.677  29.099  28.629  1.00  0.00     0.010 A 
ATOM     32  C   UNL A   1      36.560  30.152  28.915  1.00  0.00    -0.014 A 
BRANCH  32  33
ATOM     33  C   UNL A   1      37.768  29.889  29.741  1.00  0.00     0.031 A 
ATOM     34  C   UNL A   1      38.867  29.010  29.206  1.00  0.00     0.074 A 
ATOM     35  C   UNL A   1      37.851  30.392  30.989  1.00  0.00     0.049 A 
ATOM     36  N   UNL A   1      39.932  28.556  29.815  1.00  0.00    -0.248 NA
ATOM     37  C   UNL A   1      38.737  28.564  27.810  1.00  0.00     0.031 C 
ATOM     38  C   UNL A   1      36.848  31.248  31.625  1.00  0.00     0.029 A 
ATOM     39  N   UNL A   1      38.823  30.253  31.948  1.00  0.00    -0.354 N 
ATOM     40  C   UNL A   1      40.589  27.758  28.885  1.00  0.00     0.074 A 
ATOM     41  C   UNL A   1      39.779  27.755  27.686  1.00  0.00     0.031 C 
ATOM     42  C   UNL A   1      37.268  31.579  32.856  1.00  0.00     0.029 A 
ATOM     43  C   UNL A   1      38.543  30.919  33.120  1.00  0.00     0.049 A 
ATOM     44  H   UNL A   1      39.642  29.726  31.812  1.00  0.00     0.167 HD
ATOM     45  C   UNL A   1      41.769  27.103  29.014  1.00  0.00     0.034 A 
ATOM     46  C   UNL A   1      39.227  30.981  34.279  1.00  0.00     0.034 A 
ATOM     47  C   UNL A   1      42.582  27.136  30.203  1.00  0.00     0.049 A 
ATOM     48  C   UNL A   1      40.521  30.222  34.408  1.00  0.00     0.074 A 
ATOM     49  C   UNL A   1      43.813  26.540  30.419  1.00  0.00     0.029 A 
ATOM     50  N   UNL A   1      42.254  27.808  31.372  1.00  0.00    -0.354 N 
ATOM     51  N   UNL A   1      41.119  29.459  33.524  1.00  0.00    -0.248 NA
ATOM     52  C   UNL A   1      41.230  30.331  35.690  1.00  0.00     0.031 C 
ATOM     53  C   UNL A   1      44.202  26.806  31.735  1.00  0.00     0.029 A 
ATOM     54  C   UNL A   1      43.248  27.623  32.319  1.00  0.00     0.049 A 
ATOM     55  H   UNL A   1      41.436  28.339  31.508  1.00  0.00     0.167 HD
ATOM     56  C   UNL A   1      42.285  29.012  34.136  1.00  0.00     0.074 A 
ATOM     57  C   UNL A   1      42.309  29.594  35.463  1.00  0.00     0.031 C 
ATOM     58  C   UNL A   1      43.250  28.197  33.643  1.00  0.00     0.034 A 
BRANCH  45  59
ATOM     59  C   UNL A   1      42.244  26.281  27.844  1.00  0.00     0.023 A 
ATOM     60  C   UNL A   1      41.836  24.947  27.668  1.00  0.00     0.031 A 
ATOM     61  C   UNL A   1      43.097  26.845  26.879  1.00  0.00     0.131 A 
ATOM     62  C   UNL A   1      42.319  24.209  26.579  1.00  0.00     0.055 A 
ATOM     63  C   UNL A   1      43.522  26.124  25.763  1.00  0.00     0.041 A 
ATOM     64  F   UNL A   1      43.530  28.110  27.008  1.00  0.00    -0.206 F 
ATOM     65  C   UNL A   1      43.139  24.794  25.612  1.00  0.00     0.022 A 
BRANCH  62  66
ATOM     66  S   UNL A   1      41.922  22.442  26.483  1.00  0.00     0.124 S 
ATOM     67  O   UNL A   1      40.462  22.469  26.501  1.00  0.00    -0.237 OA
ATOM     68  O   UNL A   1      42.538  22.045  25.221  1.00  0.00    -0.237 OA
ATOM     69  O   UNL A   1      42.545  21.885  27.682  1.00  0.00    -0.744 OA
ENDBRANCH  62  66
ENDBRANCH  45  59
BRANCH  46  70
ATOM     70  C   UNL A   1      38.692  31.779  35.417  1.00  0.00     0.023 A 
ATOM     71  C   UNL A   1      38.130  31.147  36.537  1.00  0.00     0.031 A 
ATOM     72  C   UNL A   1      38.739  33.183  35.401  1.00  0.00     0.131 A 
ATOM     73  C   UNL A   1      37.616  31.920  37.588  1.00  0.00     0.055 A 
ATOM     74  C   UNL A   1      38.261  33.948  36.466  1.00  0.00     0.041 A 
ATOM     75  F   UNL A   1      39.278  33.832  34.356  1.00  0.00    -0.206 F 
ATOM     76  C   UNL A   1      37.689  33.316  37.567  1.00  0.00     0.022 A 
BRANCH  73  77
ATOM     77  S   UNL A   1      36.825  31.076  38.985  1.00  0.00     0.124 S 
ATOM     78  O   UNL A   1      37.820  31.246  40.037  1.00  0.00    -0.237 OA
ATOM     79  O   UNL A   1      35.589  31.836  39.140  1.00  0.00    -0.237 OA
ATOM     80  O   UNL A   1      36.653  29.708  38.501  1.00  0.00    -0.744 OA
ENDBRANCH  73  77
ENDBRANCH  46  70
BRANCH  58  81
ATOM     81  C   UNL A   1      44.433  27.911  34.528  1.00  0.00     0.023 A 
ATOM     82  C   UNL A   1      44.459  26.796  35.380  1.00  0.00     0.031 A 
ATOM     83  C   UNL A   1      45.563  28.746  34.487  1.00  0.00     0.131 A 
ATOM     84  C   UNL A   1      45.586  26.560  36.183  1.00  0.00     0.055 A 
ATOM     85  C   UNL A   1      46.698  28.482  35.253  1.00  0.00     0.041 A 
ATOM     86  F   UNL A   1      45.587  29.824  33.685  1.00  0.00    -0.206 F 
ATOM     87  C   UNL A   1      46.712  27.386  36.112  1.00  0.00     0.022 A 
BRANCH  84  88
ATOM     88  S   UNL A   1      45.549  25.175  37.353  1.00  0.00     0.124 S 
ATOM     89  O   UNL A   1      46.958  24.804  37.427  1.00  0.00    -0.237 OA
ATOM     90  O   UNL A   1      44.988  25.789  38.552  1.00  0.00    -0.237 OA
ATOM     91  O   UNL A   1      44.683  24.195  36.698  1.00  0.00    -0.744 OA
ENDBRANCH  84  88
ENDBRANCH  58  81
ENDBRANCH  32  33
ENDBRANCH  24  27
ENDBRANCH  22  23
ENDBRANCH   1  22
TORSDOF 15
ENDMDL
MODEL 2
REMARK VINA RESULT:     -12.1      5.255     10.340
REMARK SMILES COc1ccc(F)cc1-c1cc(C(=O)NCCCNC(=O)c2ccc(-c3c4nc(c(-c5cc(S(=O)(=O)[O-])ccc5F)c5ccc([nH]5)c(-c5cc(S(=O)(=O)[O-])ccc5F)c5nc(c(-c6cc(S(=O)(=O)[O-])ccc6F)c6ccc3[nH]6)C=C5)C=C4)cc2)n(C)n1
REMARK SMILES IDX 17 1 16 2 15 3 13 4 14 5 12 7 10 8 11 9 87 10 85 11 86 12
REMARK SMILES IDX 9 13 3 14 4 15 5 16 8 17 6 18 7 19 2 20 1 21 18 22 19 23
REMARK SMILES IDX 20 24 21 26 22 27 23 28 84 29 24 30 83 31 25 32 26 33 27 34
REMARK SMILES IDX 77 35 28 36 82 37 76 38 78 39 29 40 81 41 75 42 74 43 30 45
REMARK SMILES IDX 62 46 42 47 61 48 43 49 46 50 60 51 79 52 44 53 45 54 59 56
REMARK SMILES IDX 80 57 47 58 31 59 32 60 40 61 33 62 39 63 41 64 38 65 34 66
REMARK SMILES IDX 35 67 36 68 37 69 63 70 64 71 72 72 65 73 71 74 73 75 70 76
REMARK SMILES IDX 66 77 67 78 68 79 69 80 48 81 49 82 57 83 50 84 56 85 58 86
REMARK SMILES IDX 55 87 51 88 52 89 53 90 54 91
REMARK H PARENT 15 6 19 25 78 44 46 55
REMARK Flexibility Score: inf
ROOT
ATOM      1  C   UNL A   1      34.502  21.603  26.595  1.00  0.00     0.042 C 
ENDROOT
BRANCH   1   2
ATOM      2  C   UNL A   1      33.586  21.115  25.473  1.00  0.00     0.118 C 
BRANCH   2   3
ATOM      3  N   UNL A   1      32.200  21.337  25.823  1.00  0.00    -0.351 N 
ATOM      4  C   UNL A   1      31.364  22.413  25.767  1.00  0.00     0.269 C 
ATOM      5  O   UNL A   1      30.211  22.168  26.153  1.00  0.00    -0.268 OA
ATOM      6  H   UNL A   1      31.764  20.532  26.181  1.00  0.00     0.163 HD
BRANCH   4   7
ATOM      7  C   UNL A   1      31.700  23.714  25.235  1.00  0.00     0.126 A 
ATOM      8  C   UNL A   1      32.202  25.914  25.207  1.00  0.00     0.097 A 
ATOM      9  C   UNL A   1      31.859  24.835  26.044  1.00  0.00     0.064 A 
ATOM     10  N   UNL A   1      32.160  25.529  23.929  1.00  0.00    -0.172 NA
ATOM     11  N   UNL A   1      32.062  24.182  23.992  1.00  0.00    -0.262 N 
ATOM     12  C   UNL A   1      32.567  23.475  22.840  1.00  0.00     0.174 C 
BRANCH   8  13
ATOM     13  C   UNL A   1      32.556  27.272  25.588  1.00  0.00     0.047 A 
ATOM     14  C   UNL A   1      31.783  28.375  25.172  1.00  0.00     0.128 A 
ATOM     15  C   UNL A   1      32.123  29.666  25.593  1.00  0.00     0.050 A 
ATOM     16  C   UNL A   1      33.250  29.863  26.393  1.00  0.00     0.043 A 
ATOM     17  C   UNL A   1      33.679  27.482  26.398  1.00  0.00     0.053 A 
ATOM     18  C   UNL A   1      34.016  28.772  26.785  1.00  0.00     0.124 A 
ATOM     19  F   UNL A   1      35.092  28.970  27.559  1.00  0.00    -0.207 F 
BRANCH  14  20
ATOM     20  O   UNL A   1      30.632  28.141  24.462  1.00  0.00    -0.496 OA
ATOM     21  C   UNL A   1      30.218  29.238  23.653  1.00  0.00     0.278 C 
ENDBRANCH  14  20
ENDBRANCH   8  13
ENDBRANCH   4   7
ENDBRANCH   2   3
ENDBRANCH   1   2
BRANCH   1  22
ATOM     22  C   UNL A   1      35.836  22.152  26.100  1.00  0.00     0.118 C 
BRANCH  22  23
ATOM     23  N   UNL A   1      36.796  21.092  25.847  1.00  0.00    -0.352 N 
ATOM     24  C   UNL A   1      38.165  21.157  25.769  1.00  0.00     0.251 C 
ATOM     25  H   UNL A   1      36.409  20.196  25.713  1.00  0.00     0.163 HD
ATOM     26  O   UNL A   1      38.781  20.194  25.302  1.00  0.00    -0.269 OA
BRANCH  24  27
ATOM     27  C   UNL A   1      38.899  22.361  26.215  1.00  0.00     0.039 A 
ATOM     28  C   UNL A   1      40.017  22.207  27.040  1.00  0.00     0.014 A 
ATOM     29  C   UNL A   1      38.473  23.645  25.859  1.00  0.00     0.014 A 
ATOM     30  C   UNL A   1      40.735  23.329  27.462  1.00  0.00     0.010 A 
ATOM     31  C   UNL A   1      39.230  24.758  26.220  1.00  0.00     0.010 A 
ATOM     32  C   UNL A   1      40.367  24.614  27.031  1.00  0.00    -0.014 A 
BRANCH  32  33
ATOM     33  C   UNL A   1      41.137  25.821  27.430  1.00  0.00     0.031 A 
ATOM     34  C   UNL A   1      40.495  26.870  28.297  1.00  0.00     0.074 A 
ATOM     35  C   UNL A   1      42.391  26.000  26.968  1.00  0.00     0.049 A 
ATOM     36  N   UNL A   1      40.950  28.047  28.643  1.00  0.00    -0.248 NA
ATOM     37  C   UNL A   1      39.155  26.566  28.821  1.00  0.00     0.031 C 
ATOM     38  C   UNL A   1      43.120  25.061  26.113  1.00  0.00     0.029 A 
ATOM     39  N   UNL A   1      43.274  27.035  27.150  1.00  0.00    -0.354 N 
ATOM     40  C   UNL A   1      39.947  28.630  29.411  1.00  0.00     0.074 A 
ATOM     41  C   UNL A   1      38.842  27.695  29.441  1.00  0.00     0.031 C 
ATOM     42  C   UNL A   1      44.346  25.551  25.866  1.00  0.00     0.029 A 
ATOM     43  C   UNL A   1      44.475  26.859  26.501  1.00  0.00     0.049 A 
ATOM     44  H   UNL A   1      43.068  27.829  27.693  1.00  0.00     0.167 HD
ATOM     45  C   UNL A   1      39.953  29.827  30.046  1.00  0.00     0.034 A 
ATOM     46  C   UNL A   1      45.552  27.664  26.413  1.00  0.00     0.034 A 
ATOM     47  C   UNL A   1      41.070  30.738  30.034  1.00  0.00     0.049 A 
ATOM     48  C   UNL A   1      45.525  29.001  27.104  1.00  0.00     0.074 A 
ATOM     49  C   UNL A   1      41.191  31.957  30.679  1.00  0.00     0.029 A 
ATOM     50  N   UNL A   1      42.259  30.529  29.350  1.00  0.00    -0.354 N 
ATOM     51  N   UNL A   1      44.562  29.543  27.812  1.00  0.00    -0.248 NA
ATOM     52  C   UNL A   1      46.729  29.836  26.984  1.00  0.00     0.031 C 
ATOM     53  C   UNL A   1      42.431  32.509  30.342  1.00  0.00     0.029 A 
ATOM     54  C   UNL A   1      43.110  31.606  29.541  1.00  0.00     0.049 A 
ATOM     55  H   UNL A   1      42.468  29.734  28.810  1.00  0.00     0.167 HD
ATOM     56  C   UNL A   1      45.051  30.774  28.237  1.00  0.00     0.074 A 
ATOM     57  C   UNL A   1      46.396  30.893  27.711  1.00  0.00     0.031 C 
ATOM     58  C   UNL A   1      44.442  31.717  28.998  1.00  0.00     0.034 A 
BRANCH  45  59
ATOM     59  C   UNL A   1      38.710  30.228  30.796  1.00  0.00     0.023 A 
ATOM     60  C   UNL A   1      37.692  30.979  30.185  1.00  0.00     0.031 A 
ATOM     61  C   UNL A   1      38.530  29.834  32.134  1.00  0.00     0.131 A 
ATOM     62  C   UNL A   1      36.560  31.352  30.924  1.00  0.00     0.055 A 
ATOM     63  C   UNL A   1      37.372  30.155  32.844  1.00  0.00     0.041 A 
ATOM     64  F   UNL A   1      39.479  29.130  32.772  1.00  0.00    -0.206 F 
ATOM     65  C   UNL A   1      36.381  30.924  32.241  1.00  0.00     0.022 A 
BRANCH  62  66
ATOM     66  S   UNL A   1      35.355  32.473  30.162  1.00  0.00     0.124 S 
ATOM     67  O   UNL A   1      34.378  32.625  31.237  1.00  0.00    -0.237 OA
ATOM     68  O   UNL A   1      36.161  33.650  29.861  1.00  0.00    -0.237 OA
ATOM     69  O   UNL A   1      34.883  31.727  28.998  1.00  0.00    -0.744 OA
ENDBRANCH  62  66
ENDBRANCH  45  59
BRANCH  46  70
ATOM     70  C   UNL A   1      46.741  27.233  25.627  1.00  0.00     0.023 A 
ATOM     71  C   UNL A   1      46.968  27.734  24.335  1.00  0.00     0.031 A 
ATOM     72  C   UNL A   1      47.666  26.319  26.157  1.00  0.00     0.131 A 
ATOM     73  C   UNL A   1      48.085  27.299  23.606  1.00  0.00     0.055 A 
ATOM     74  C   UNL A   1      48.797  25.918  25.443  1.00  0.00     0.041 A 
ATOM     75  F   UNL A   1      47.497  25.822  27.393  1.00  0.00    -0.206 F 
ATOM     76  C   UNL A   1      49.008  26.405  24.156  1.00  0.00     0.022 A 
BRANCH  73  77
ATOM     77  S   UNL A   1      48.308  27.903  21.911  1.00  0.00     0.124 S 
ATOM     78  O   UNL A   1      47.147  28.772  21.751  1.00  0.00    -0.237 OA
ATOM     79  O   UNL A   1      49.603  28.569  21.992  1.00  0.00    -0.237 OA
ATOM     80  O   UNL A   1      48.289  26.681  21.110  1.00  0.00    -0.744 OA
ENDBRANCH  73  77
ENDBRANCH  46  70
BRANCH  58  81
ATOM     81  C   UNL A   1      45.236  32.950  29.337  1.00  0.00     0.023 A 
ATOM     82  C   UNL A   1      45.153  34.114  28.557  1.00  0.00     0.031 A 
ATOM     83  C   UNL A   1      46.056  32.968  30.479  1.00  0.00     0.131 A 
ATOM     84  C   UNL A   1      45.903  35.245  28.914  1.00  0.00     0.055 A 
ATOM     85  C   UNL A   1      46.764  34.110  30.854  1.00  0.00     0.041 A 
ATOM     86  F   UNL A   1      46.166  31.879  31.258  1.00  0.00    -0.206 F 
ATOM     87  C   UNL A   1      46.694  35.256  30.066  1.00  0.00     0.022 A 
BRANCH  84  88
ATOM     88  S   UNL A   1      45.861  36.697  27.829  1.00  0.00     0.124 S 
ATOM     89  O   UNL A   1      45.298  36.142  26.603  1.00  0.00    -0.237 OA
ATOM     90  O   UNL A   1      45.002  37.618  28.565  1.00  0.00    -0.237 OA
ATOM     91  O   UNL A   1      47.265  37.100  27.740  1.00  0.00    -0.744 OA
ENDBRANCH  84  88
ENDBRANCH  58  81
ENDBRANCH  32  33
ENDBRANCH  24  27
ENDBRANCH  22  23
ENDBRANCH   1  22
TORSDOF 15
ENDMDL
MODEL 3
REMARK VINA RESULT:     -12.0      2.823      8.147
REMARK SMILES COc1ccc(F)cc1-c1cc(C(=O)NCCCNC(=O)c2ccc(-c3c4nc(c(-c5cc(S(=O)(=O)[O-])ccc5F)c5ccc([nH]5)c(-c5cc(S(=O)(=O)[O-])ccc5F)c5nc(c(-c6cc(S(=O)(=O)[O-])ccc6F)c6ccc3[nH]6)C=C5)C=C4)cc2)n(C)n1
REMARK SMILES IDX 17 1 16 2 15 3 13 4 14 5 12 7 10 8 11 9 87 10 85 11 86 12
REMARK SMILES IDX 9 13 3 14 4 15 5 16 8 17 6 18 7 19 2 20 1 21 18 22 19 23
REMARK SMILES IDX 20 24 21 26 22 27 23 28 84 29 24 30 83 31 25 32 26 33 27 34
REMARK SMILES IDX 77 35 28 36 82 37 76 38 78 39 29 40 81 41 75 42 74 43 30 45
REMARK SMILES IDX 62 46 42 47 61 48 43 49 46 50 60 51 79 52 44 53 45 54 59 56
REMARK SMILES IDX 80 57 47 58 31 59 32 60 40 61 33 62 39 63 41 64 38 65 34 66
REMARK SMILES IDX 35 67 36 68 37 69 63 70 64 71 72 72 65 73 71 74 73 75 70 76
REMARK SMILES IDX 66 77 67 78 68 79 69 80 48 81 49 82 57 83 50 84 56 85 58 86
REMARK SMILES IDX 55 87 51 88 52 89 53 90 54 91
REMARK H PARENT 15 6 19 25 78 44 46 55
REMARK Flexibility Score: inf
ROOT
ATOM      1  C   UNL A   1      32.494  28.139  27.406  1.00  0.00     0.042 C 
ENDROOT
BRANCH   1   2
ATOM      2  C   UNL A   1      31.359  27.803  26.438  1.00  0.00     0.118 C 
BRANCH   2   3
ATOM      3  N   UNL A   1      30.880  26.459  26.672  1.00  0.00    -0.351 N 
ATOM      4  C   UNL A   1      31.340  25.215  26.355  1.00  0.00     0.269 C 
ATOM      5  O   UNL A   1      30.621  24.295  26.776  1.00  0.00    -0.268 OA
ATOM      6  H   UNL A   1      30.033  26.437  27.171  1.00  0.00     0.163 HD
BRANCH   4   7
ATOM      7  C   UNL A   1      32.584  24.924  25.680  1.00  0.00     0.126 A 
ATOM      8  C   UNL A   1      34.587  23.968  25.272  1.00  0.00     0.097 A 
ATOM      9  C   UNL A   1      33.519  24.025  26.186  1.00  0.00     0.064 A 
ATOM     10  N   UNL A   1      34.397  24.857  24.294  1.00  0.00    -0.172 NA
ATOM     11  N   UNL A   1      33.115  25.256  24.453  1.00  0.00    -0.262 N 
ATOM     12  C   UNL A   1      32.469  25.740  23.258  1.00  0.00     0.174 C 
BRANCH   8  13
ATOM     13  C   UNL A   1      35.761  23.109  25.310  1.00  0.00     0.047 A 
ATOM     14  C   UNL A   1      35.708  21.775  24.860  1.00  0.00     0.128 A 
ATOM     15  C   UNL A   1      36.865  20.988  24.867  1.00  0.00     0.050 A 
ATOM     16  C   UNL A   1      38.062  21.514  25.355  1.00  0.00     0.043 A 
ATOM     17  C   UNL A   1      36.970  23.630  25.789  1.00  0.00     0.053 A 
ATOM     18  C   UNL A   1      38.102  22.827  25.811  1.00  0.00     0.124 A 
ATOM     19  F   UNL A   1      39.257  23.326  26.272  1.00  0.00    -0.207 F 
BRANCH  14  20
ATOM     20  O   UNL A   1      34.540  21.315  24.303  1.00  0.00    -0.496 OA
ATOM     21  C   UNL A   1      33.866  20.342  25.096  1.00  0.00     0.278 C 
ENDBRANCH  14  20
ENDBRANCH   8  13
ENDBRANCH   4   7
ENDBRANCH   2   3
ENDBRANCH   1   2
BRANCH   1  22
ATOM     22  C   UNL A   1      33.682  28.826  26.740  1.00  0.00     0.118 C 
BRANCH  22  23
ATOM     23  N   UNL A   1      33.704  30.252  27.012  1.00  0.00    -0.352 N 
ATOM     24  C   UNL A   1      34.584  30.980  27.773  1.00  0.00     0.251 C 
ATOM     25  H   UNL A   1      32.983  30.773  26.589  1.00  0.00     0.163 HD
ATOM     26  O   UNL A   1      34.288  32.139  28.080  1.00  0.00    -0.269 OA
BRANCH  24  27
ATOM     27  C   UNL A   1      35.860  30.392  28.238  1.00  0.00     0.039 A 
ATOM     28  C   UNL A   1      36.991  30.497  27.424  1.00  0.00     0.014 A 
ATOM     29  C   UNL A   1      35.941  29.703  29.453  1.00  0.00     0.014 A 
ATOM     30  C   UNL A   1      38.211  29.962  27.850  1.00  0.00     0.010 A 
ATOM     31  C   UNL A   1      37.171  29.234  29.909  1.00  0.00     0.010 A 
ATOM     32  C   UNL A   1      38.319  29.352  29.110  1.00  0.00    -0.014 A 
BRANCH  32  33
ATOM     33  C   UNL A   1      39.613  28.812  29.606  1.00  0.00     0.031 A 
ATOM     34  C   UNL A   1      40.345  29.517  30.716  1.00  0.00     0.074 A 
ATOM     35  C   UNL A   1      40.154  27.724  29.022  1.00  0.00     0.049 A 
ATOM     36  N   UNL A   1      41.539  29.283  31.197  1.00  0.00    -0.248 NA
ATOM     37  C   UNL A   1      39.653  30.649  31.351  1.00  0.00     0.031 C 
ATOM     38  C   UNL A   1      39.547  26.959  27.931  1.00  0.00     0.029 A 
ATOM     39  N   UNL A   1      41.339  27.074  29.262  1.00  0.00    -0.354 N 
ATOM     40  C   UNL A   1      41.749  30.247  32.177  1.00  0.00     0.074 A 
ATOM     41  C   UNL A   1      40.577  31.095  32.190  1.00  0.00     0.031 C 
ATOM     42  C   UNL A   1      40.351  25.931  27.615  1.00  0.00     0.029 A 
ATOM     43  C   UNL A   1      41.552  25.990  28.441  1.00  0.00     0.049 A 
ATOM     44  H   UNL A   1      41.978  27.358  29.955  1.00  0.00     0.167 HD
ATOM     45  C   UNL A   1      42.814  30.399  33.002  1.00  0.00     0.034 A 
ATOM     46  C   UNL A   1      42.601  25.149  28.353  1.00  0.00     0.034 A 
ATOM     47  C   UNL A   1      43.964  29.531  33.000  1.00  0.00     0.049 A 
ATOM     48  C   UNL A   1      43.784  25.355  29.260  1.00  0.00     0.074 A 
ATOM     49  C   UNL A   1      45.076  29.576  33.823  1.00  0.00     0.029 A 
ATOM     50  N   UNL A   1      44.147  28.456  32.142  1.00  0.00    -0.354 N 
ATOM     51  N   UNL A   1      43.972  26.282  30.170  1.00  0.00    -0.248 NA
ATOM     52  C   UNL A   1      44.897  24.404  29.129  1.00  0.00     0.031 C 
ATOM     53  C   UNL A   1      45.955  28.564  33.427  1.00  0.00     0.029 A 
ATOM     54  C   UNL A   1      45.363  27.845  32.401  1.00  0.00     0.049 A 
ATOM     55  H   UNL A   1      43.507  28.170  31.451  1.00  0.00     0.167 HD
ATOM     56  C   UNL A   1      45.216  26.014  30.732  1.00  0.00     0.074 A 
ATOM     57  C   UNL A   1      45.732  24.836  30.064  1.00  0.00     0.031 C 
ATOM     58  C   UNL A   1      45.869  26.681  31.716  1.00  0.00     0.034 A 
BRANCH  45  59
ATOM     59  C   UNL A   1      42.792  31.557  33.965  1.00  0.00     0.023 A 
ATOM     60  C   UNL A   1      42.177  31.455  35.225  1.00  0.00     0.031 A 
ATOM     61  C   UNL A   1      43.414  32.773  33.628  1.00  0.00     0.131 A 
ATOM     62  C   UNL A   1      42.158  32.563  36.083  1.00  0.00     0.055 A 
ATOM     63  C   UNL A   1      43.446  33.851  34.514  1.00  0.00     0.041 A 
ATOM     64  F   UNL A   1      44.000  32.930  32.431  1.00  0.00    -0.206 F 
ATOM     65  C   UNL A   1      42.809  33.752  35.748  1.00  0.00     0.022 A 
BRANCH  62  66
ATOM     66  S   UNL A   1      41.200  32.456  37.619  1.00  0.00     0.124 S 
ATOM     67  O   UNL A   1      42.071  31.627  38.449  1.00  0.00    -0.237 OA
ATOM     68  O   UNL A   1      41.080  33.854  38.018  1.00  0.00    -0.237 OA
ATOM     69  O   UNL A   1      39.954  31.818  37.202  1.00  0.00    -0.744 OA
ENDBRANCH  62  66
ENDBRANCH  45  59
BRANCH  46  70
ATOM     70  C   UNL A   1      42.586  24.043  27.356  1.00  0.00     0.023 A 
ATOM     71  C   UNL A   1      42.047  22.789  27.683  1.00  0.00     0.031 A 
ATOM     72  C   UNL A   1      43.106  24.226  26.064  1.00  0.00     0.131 A 
ATOM     73  C   UNL A   1      42.059  21.756  26.733  1.00  0.00     0.055 A 
ATOM     74  C   UNL A   1      43.082  23.207  25.110  1.00  0.00     0.041 A 
ATOM     75  F   UNL A   1      43.622  25.411  25.702  1.00  0.00    -0.206 F 
ATOM     76  C   UNL A   1      42.562  21.960  25.445  1.00  0.00     0.022 A 
BRANCH  73  77
ATOM     77  S   UNL A   1      41.429  20.125  27.212  1.00  0.00     0.124 S 
ATOM     78  O   UNL A   1      42.663  19.366  27.377  1.00  0.00    -0.237 OA
ATOM     79  O   UNL A   1      40.693  20.429  28.435  1.00  0.00    -0.237 OA
ATOM     80  O   UNL A   1      40.601  19.732  26.073  1.00  0.00    -0.744 OA
ENDBRANCH  73  77
ENDBRANCH  46  70
BRANCH  58  81
ATOM     81  C   UNL A   1      47.201  26.134  32.154  1.00  0.00     0.023 A 
ATOM     82  C   UNL A   1      47.306  25.205  33.201  1.00  0.00     0.031 A 
ATOM     83  C   UNL A   1      48.377  26.522  31.487  1.00  0.00     0.131 A 
ATOM     84  C   UNL A   1      48.567  24.713  33.572  1.00  0.00     0.055 A 
ATOM     85  C   UNL A   1      49.622  25.996  31.829  1.00  0.00     0.041 A 
ATOM     86  F   UNL A   1      48.328  27.407  30.477  1.00  0.00    -0.206 F 
ATOM     87  C   UNL A   1      49.723  25.090  32.882  1.00  0.00     0.022 A 
BRANCH  84  88
ATOM     88  S   UNL A   1      48.683  23.599  34.997  1.00  0.00     0.124 S 
ATOM     89  O   UNL A   1      47.450  22.828  34.880  1.00  0.00    -0.237 OA
ATOM     90  O   UNL A   1      49.918  22.870  34.729  1.00  0.00    -0.237 OA
ATOM     91  O   UNL A   1      48.739  24.509  36.141  1.00  0.00    -0.744 OA
ENDBRANCH  84  88
ENDBRANCH  58  81
ENDBRANCH  32  33
ENDBRANCH  24  27
ENDBRANCH  22  23
ENDBRANCH   1  22
TORSDOF 15
ENDMDL
