MODEL 1
REMARK VINA RESULT:     -12.8      0.000      0.000
REMARK SMILES Cc1ccc(Cl)cc1S(=O)(=O)N1CC[C@@H](C(=O)NCCCNC(=O)c2ccc(-c3c4nc(c(-c5cc(S(=O)(=O)[O-])ccc5F)c5ccc([nH]5)c(-c5cc(S(=O)(=O)[O-])ccc5F)c5nc(c(-c6cc(S(=O)(=O)[O-])ccc6F)c6ccc3[nH]6)C=C5)C=C4)cc2)[C@@H]1C
REMARK SMILES IDX 20 1 19 2 18 3 16 4 17 5 15 7 12 8 13 9 88 10 14 11 89 12
REMARK SMILES IDX 9 13 10 14 11 15 8 16 1 17 2 18 3 19 4 20 7 21 5 22 6 23
REMARK SMILES IDX 21 24 22 25 23 26 24 28 25 29 26 30 87 31 27 32 86 33 28 34
REMARK SMILES IDX 29 35 30 36 80 37 31 38 85 39 79 40 81 41 32 42 84 43 78 44
REMARK SMILES IDX 77 45 33 47 65 48 45 49 64 50 46 51 49 52 63 53 82 54 47 55
REMARK SMILES IDX 48 56 62 58 83 59 50 60 34 61 35 62 43 63 36 64 42 65 44 66
REMARK SMILES IDX 41 67 37 68 38 69 39 70 40 71 66 72 67 73 75 74 68 75 74 76
REMARK SMILES IDX 76 77 73 78 69 79 70 80 71 81 72 82 51 83 52 84 60 85 53 86
REMARK SMILES IDX 59 87 61 88 58 89 54 90 55 91 56 92 57 93
REMARK H PARENT 18 6 22 27 81 46 49 57
REMARK Flexibility Score: inf
ROOT
ATOM      1  C   UNL A   1      36.156  21.193  25.644  1.00  0.00     0.042 C 
ENDROOT
BRANCH   1   2
ATOM      2  C   UNL A   1      35.195  20.313  24.859  1.00  0.00     0.117 C 
BRANCH   2   3
ATOM      3  N   UNL A   1      34.065  19.800  25.611  1.00  0.00    -0.356 N 
ATOM      4  C   UNL A   1      32.756  19.798  25.221  1.00  0.00     0.224 C 
ATOM      5  O   UNL A   1      32.127  18.751  25.418  1.00  0.00    -0.275 OA
ATOM      6  H   UNL A   1      34.262  19.414  26.494  1.00  0.00     0.163 HD
BRANCH   4   7
ATOM      7  C   UNL A   1      32.012  21.034  24.700  1.00  0.00     0.098 C 
ATOM      8  N   UNL A   1      33.201  23.034  24.568  1.00  0.00    -0.194 NA
ATOM      9  C   UNL A   1      32.934  22.740  23.166  1.00  0.00     0.104 C 
ATOM     10  C   UNL A   1      32.177  22.380  25.407  1.00  0.00     0.082 C 
ATOM     11  C   UNL A   1      32.341  21.327  23.213  1.00  0.00     0.032 C 
ATOM     12  C   UNL A   1      30.855  23.161  25.377  1.00  0.00     0.026 C 
BRANCH   8  13
ATOM     13  S   UNL A   1      34.197  24.273  25.061  1.00  0.00     0.243 S 
ATOM     14  O   UNL A   1      35.282  24.321  24.104  1.00  0.00    -0.207 OA
ATOM     15  O   UNL A   1      34.438  24.118  26.480  1.00  0.00    -0.207 OA
BRANCH  13  16
ATOM     16  C   UNL A   1      33.323  25.847  24.886  1.00  0.00     0.087 A 
ATOM     17  C   UNL A   1      33.411  26.088  22.305  1.00  0.00     0.046 C 
ATOM     18  C   UNL A   1      33.050  26.541  23.685  1.00  0.00    -0.031 A 
ATOM     19  C   UNL A   1      32.362  27.773  23.760  1.00  0.00     0.006 A 
ATOM     20  C   UNL A   1      31.937  28.300  24.977  1.00  0.00     0.021 A 
ATOM     21  C   UNL A   1      32.882  26.394  26.110  1.00  0.00     0.042 A 
ATOM     22  C   UNL A   1      32.188  27.601  26.148  1.00  0.00     0.042 A 
ATOM     23  Cl  UNL A   1      31.613  28.214  27.648  1.00  0.00    -0.084 Cl
ENDBRANCH  13  16
ENDBRANCH   8  13
ENDBRANCH   4   7
ENDBRANCH   2   3
ENDBRANCH   1   2
BRANCH   1  24
ATOM     24  C   UNL A   1      37.520  21.342  24.979  1.00  0.00     0.118 C 
BRANCH  24  25
ATOM     25  N   UNL A   1      38.548  20.481  25.563  1.00  0.00    -0.352 N 
ATOM     26  C   UNL A   1      39.673  20.777  26.300  1.00  0.00     0.251 C 
ATOM     27  H   UNL A   1      38.410  19.520  25.402  1.00  0.00     0.163 HD
ATOM     28  O   UNL A   1      40.434  19.866  26.617  1.00  0.00    -0.269 OA
BRANCH  26  29
ATOM     29  C   UNL A   1      39.983  22.172  26.683  1.00  0.00     0.039 A 
ATOM     30  C   UNL A   1      41.050  22.425  27.551  1.00  0.00     0.014 A 
ATOM     31  C   UNL A   1      39.227  23.233  26.186  1.00  0.00     0.014 A 
ATOM     32  C   UNL A   1      41.432  23.744  27.824  1.00  0.00     0.010 A 
ATOM     33  C   UNL A   1      39.659  24.539  26.388  1.00  0.00     0.010 A 
ATOM     34  C   UNL A   1      40.778  24.812  27.191  1.00  0.00    -0.014 A 
BRANCH  34  35
ATOM     35  C   UNL A   1      41.236  26.225  27.304  1.00  0.00     0.031 A 
ATOM     36  C   UNL A   1      42.582  26.612  26.754  1.00  0.00     0.074 A 
ATOM     37  C   UNL A   1      40.526  27.105  28.040  1.00  0.00     0.049 A 
ATOM     38  N   UNL A   1      43.307  27.671  27.000  1.00  0.00    -0.248 NA
ATOM     39  C   UNL A   1      43.217  25.645  25.843  1.00  0.00     0.031 C 
ATOM     40  C   UNL A   1      39.222  26.844  28.655  1.00  0.00     0.029 A 
ATOM     41  N   UNL A   1      40.824  28.387  28.439  1.00  0.00    -0.354 N 
ATOM     42  C   UNL A   1      44.507  27.474  26.325  1.00  0.00     0.074 A 
ATOM     43  C   UNL A   1      44.416  26.183  25.676  1.00  0.00     0.031 C 
ATOM     44  C   UNL A   1      38.840  27.922  29.357  1.00  0.00     0.029 A 
ATOM     45  C   UNL A   1      39.896  28.926  29.302  1.00  0.00     0.049 A 
ATOM     46  H   UNL A   1      41.625  28.873  28.137  1.00  0.00     0.167 HD
ATOM     47  C   UNL A   1      45.582  28.298  26.255  1.00  0.00     0.034 A 
ATOM     48  C   UNL A   1      39.913  30.074  30.009  1.00  0.00     0.034 A 
ATOM     49  C   UNL A   1      45.627  29.607  26.857  1.00  0.00     0.049 A 
ATOM     50  C   UNL A   1      41.114  30.980  29.898  1.00  0.00     0.074 A 
ATOM     51  C   UNL A   1      46.615  30.571  26.749  1.00  0.00     0.029 A 
ATOM     52  N   UNL A   1      44.644  30.136  27.683  1.00  0.00    -0.354 N 
ATOM     53  N   UNL A   1      42.222  30.801  29.217  1.00  0.00    -0.248 NA
ATOM     54  C   UNL A   1      41.067  32.240  30.653  1.00  0.00     0.031 C 
ATOM     55  C   UNL A   1      46.258  31.657  27.554  1.00  0.00     0.029 A 
ATOM     56  C   UNL A   1      45.018  31.398  28.117  1.00  0.00     0.049 A 
ATOM     57  H   UNL A   1      43.804  29.682  27.924  1.00  0.00     0.167 HD
ATOM     58  C   UNL A   1      42.995  31.935  29.450  1.00  0.00     0.074 A 
ATOM     59  C   UNL A   1      42.220  32.799  30.316  1.00  0.00     0.031 C 
ATOM     60  C   UNL A   1      44.235  32.238  28.990  1.00  0.00     0.034 A 
BRANCH  47  61
ATOM     61  C   UNL A   1      46.807  27.798  25.530  1.00  0.00     0.023 A 
ATOM     62  C   UNL A   1      47.042  28.086  24.176  1.00  0.00     0.031 A 
ATOM     63  C   UNL A   1      47.757  27.017  26.213  1.00  0.00     0.131 A 
ATOM     64  C   UNL A   1      48.165  27.545  23.531  1.00  0.00     0.055 A 
ATOM     65  C   UNL A   1      48.910  26.543  25.586  1.00  0.00     0.041 A 
ATOM     66  F   UNL A   1      47.576  26.695  27.504  1.00  0.00    -0.206 F 
ATOM     67  C   UNL A   1      49.113  26.796  24.232  1.00  0.00     0.022 A 
BRANCH  64  68
ATOM     68  S   UNL A   1      48.311  27.742  21.735  1.00  0.00     0.124 S 
ATOM     69  O   UNL A   1      48.695  26.394  21.321  1.00  0.00    -0.237 OA
ATOM     70  O   UNL A   1      46.971  28.170  21.353  1.00  0.00    -0.237 OA
ATOM     71  O   UNL A   1      49.355  28.754  21.584  1.00  0.00    -0.744 OA
ENDBRANCH  64  68
ENDBRANCH  47  61
BRANCH  48  72
ATOM     72  C   UNL A   1      38.793  30.415  30.935  1.00  0.00     0.023 A 
ATOM     73  C   UNL A   1      37.660  31.101  30.472  1.00  0.00     0.031 A 
ATOM     74  C   UNL A   1      38.867  30.112  32.307  1.00  0.00     0.131 A 
ATOM     75  C   UNL A   1      36.670  31.510  31.381  1.00  0.00     0.055 A 
ATOM     76  C   UNL A   1      37.854  30.472  33.197  1.00  0.00     0.041 A 
ATOM     77  F   UNL A   1      39.928  29.456  32.801  1.00  0.00    -0.206 F 
ATOM     78  C   UNL A   1      36.753  31.189  32.738  1.00  0.00     0.022 A 
BRANCH  75  79
ATOM     79  S   UNL A   1      35.321  32.562  30.777  1.00  0.00     0.124 S 
ATOM     80  O   UNL A   1      34.877  31.829  29.596  1.00  0.00    -0.237 OA
ATOM     81  O   UNL A   1      34.406  32.561  31.913  1.00  0.00    -0.237 OA
ATOM     82  O   UNL A   1      35.979  33.838  30.507  1.00  0.00    -0.744 OA
ENDBRANCH  75  79
ENDBRANCH  48  72
BRANCH  60  83
ATOM     83  C   UNL A   1      44.805  33.573  29.391  1.00  0.00     0.023 A 
ATOM     84  C   UNL A   1      44.526  34.740  28.659  1.00  0.00     0.031 A 
ATOM     85  C   UNL A   1      45.640  33.676  30.516  1.00  0.00     0.131 A 
ATOM     86  C   UNL A   1      45.112  35.956  29.040  1.00  0.00     0.055 A 
ATOM     87  C   UNL A   1      46.180  34.897  30.920  1.00  0.00     0.041 A 
ATOM     88  F   UNL A   1      45.937  32.589  31.247  1.00  0.00    -0.206 F 
ATOM     89  C   UNL A   1      45.924  36.045  30.174  1.00  0.00     0.022 A 
BRANCH  86  90
ATOM     90  S   UNL A   1      44.847  37.416  27.997  1.00  0.00     0.124 S 
ATOM     91  O   UNL A   1      45.895  37.266  26.993  1.00  0.00    -0.237 OA
ATOM     92  O   UNL A   1      43.480  37.221  27.524  1.00  0.00    -0.237 OA
ATOM     93  O   UNL A   1      45.027  38.535  28.920  1.00  0.00    -0.744 OA
ENDBRANCH  86  90
ENDBRANCH  60  83
ENDBRANCH  34  35
ENDBRANCH  26  29
ENDBRANCH  24  25
ENDBRANCH   1  24
TORSDOF 15
ENDMDL
MODEL 2
REMARK VINA RESULT:     -12.7      5.210      7.423
REMARK SMILES Cc1ccc(Cl)cc1S(=O)(=O)N1CC[C@@H](C(=O)NCCCNC(=O)c2ccc(-c3c4nc(c(-c5cc(S(=O)(=O)[O-])ccc5F)c5ccc([nH]5)c(-c5cc(S(=O)(=O)[O-])ccc5F)c5nc(c(-c6cc(S(=O)(=O)[O-])ccc6F)c6ccc3[nH]6)C=C5)C=C4)cc2)[C@@H]1C
REMARK SMILES IDX 20 1 19 2 18 3 16 4 17 5 15 7 12 8 13 9 88 10 14 11 89 12
REMARK SMILES IDX 9 13 10 14 11 15 8 16 1 17 2 18 3 19 4 20 7 21 5 22 6 23
REMARK SMILES IDX 21 24 22 25 23 26 24 28 25 29 26 30 87 31 27 32 86 33 28 34
REMARK SMILES IDX 29 35 30 36 80 37 31 38 85 39 79 40 81 41 32 42 84 43 78 44
REMARK SMILES IDX 77 45 33 47 65 48 45 49 64 50 46 51 49 52 63 53 82 54 47 55
REMARK SMILES IDX 48 56 62 58 83 59 50 60 34 61 35 62 43 63 36 64 42 65 44 66
REMARK SMILES IDX 41 67 37 68 38 69 39 70 40 71 66 72 67 73 75 74 68 75 74 76
REMARK SMILES IDX 76 77 73 78 69 79 70 80 71 81 72 82 51 83 52 84 60 85 53 86
REMARK SMILES IDX 59 87 61 88 58 89 54 90 55 91 56 92 57 93
REMARK H PARENT 18 6 22 27 81 46 49 57
REMARK Flexibility Score: inf
ROOT
ATOM      1  C   UNL A   1      31.403  27.699  27.238  1.00  0.00     0.042 C 
ENDROOT
BRANCH   1   2
ATOM      2  C   UNL A   1      31.290  26.700  26.097  1.00  0.00     0.117 C 
BRANCH   2   3
ATOM      3  N   UNL A   1      30.845  25.372  26.475  1.00  0.00    -0.356 N 
ATOM      4  C   UNL A   1      31.623  24.260  26.624  1.00  0.00     0.224 C 
ATOM      5  O   UNL A   1      31.406  23.567  27.625  1.00  0.00    -0.275 OA
ATOM      6  H   UNL A   1      29.882  25.260  26.643  1.00  0.00     0.163 HD
BRANCH   4   7
ATOM      7  C   UNL A   1      32.623  23.763  25.571  1.00  0.00     0.098 C 
ATOM      8  N   UNL A   1      32.889  25.048  23.644  1.00  0.00    -0.194 NA
ATOM      9  C   UNL A   1      34.193  25.176  24.284  1.00  0.00     0.104 C 
ATOM     10  C   UNL A   1      32.250  23.793  24.088  1.00  0.00     0.082 C 
ATOM     11  C   UNL A   1      33.975  24.518  25.652  1.00  0.00     0.032 C 
ATOM     12  C   UNL A   1      32.850  22.579  23.364  1.00  0.00     0.026 C 
BRANCH   8  13
ATOM     13  S   UNL A   1      32.447  25.929  22.303  1.00  0.00     0.243 S 
ATOM     14  O   UNL A   1      31.411  25.163  21.643  1.00  0.00    -0.207 OA
ATOM     15  O   UNL A   1      33.653  26.334  21.614  1.00  0.00    -0.207 OA
BRANCH  13  16
ATOM     16  C   UNL A   1      31.652  27.465  22.836  1.00  0.00     0.087 A 
ATOM     17  C   UNL A   1      33.754  28.784  23.587  1.00  0.00     0.046 C 
ATOM     18  C   UNL A   1      32.283  28.609  23.375  1.00  0.00    -0.031 A 
ATOM     19  C   UNL A   1      31.480  29.710  23.746  1.00  0.00     0.006 A 
ATOM     20  C   UNL A   1      30.098  29.698  23.575  1.00  0.00     0.021 A 
ATOM     21  C   UNL A   1      30.251  27.470  22.666  1.00  0.00     0.042 A 
ATOM     22  C   UNL A   1      29.489  28.581  23.023  1.00  0.00     0.042 A 
ATOM     23  Cl  UNL A   1      27.791  28.580  22.752  1.00  0.00    -0.084 Cl
ENDBRANCH  13  16
ENDBRANCH   8  13
ENDBRANCH   4   7
ENDBRANCH   2   3
ENDBRANCH   1   2
BRANCH   1  24
ATOM     24  C   UNL A   1      32.669  28.549  27.176  1.00  0.00     0.118 C 
BRANCH  24  25
ATOM     25  N   UNL A   1      32.401  29.982  27.074  1.00  0.00    -0.352 N 
ATOM     26  C   UNL A   1      33.193  31.078  27.342  1.00  0.00     0.251 C 
ATOM     27  H   UNL A   1      31.496  30.205  26.758  1.00  0.00     0.163 HD
ATOM     28  O   UNL A   1      32.706  32.201  27.251  1.00  0.00    -0.269 OA
BRANCH  26  29
ATOM     29  C   UNL A   1      34.601  30.910  27.762  1.00  0.00     0.039 A 
ATOM     30  C   UNL A   1      35.393  32.043  27.979  1.00  0.00     0.014 A 
ATOM     31  C   UNL A   1      35.144  29.639  27.948  1.00  0.00     0.014 A 
ATOM     32  C   UNL A   1      36.686  31.903  28.496  1.00  0.00     0.010 A 
ATOM     33  C   UNL A   1      36.395  29.505  28.540  1.00  0.00     0.010 A 
ATOM     34  C   UNL A   1      37.174  30.634  28.842  1.00  0.00    -0.014 A 
BRANCH  34  35
ATOM     35  C   UNL A   1      38.470  30.427  29.546  1.00  0.00     0.031 A 
ATOM     36  C   UNL A   1      39.445  29.410  29.017  1.00  0.00     0.074 A 
ATOM     37  C   UNL A   1      38.691  31.022  30.737  1.00  0.00     0.049 A 
ATOM     38  N   UNL A   1      40.465  28.849  29.611  1.00  0.00    -0.248 NA
ATOM     39  C   UNL A   1      39.203  28.924  27.649  1.00  0.00     0.031 C 
ATOM     40  C   UNL A   1      37.808  32.002  31.374  1.00  0.00     0.029 A 
ATOM     41  N   UNL A   1      39.705  30.852  31.650  1.00  0.00    -0.354 N 
ATOM     42  C   UNL A   1      40.951  27.902  28.716  1.00  0.00     0.074 A 
ATOM     43  C   UNL A   1      40.099  27.953  27.547  1.00  0.00     0.031 C 
ATOM     44  C   UNL A   1      38.312  32.338  32.573  1.00  0.00     0.029 A 
ATOM     45  C   UNL A   1      39.514  31.550  32.822  1.00  0.00     0.049 A 
ATOM     46  H   UNL A   1      40.492  30.286  31.482  1.00  0.00     0.167 HD
ATOM     47  C   UNL A   1      42.011  27.068  28.861  1.00  0.00     0.034 A 
ATOM     48  C   UNL A   1      40.197  31.524  33.984  1.00  0.00     0.034 A 
ATOM     49  C   UNL A   1      42.885  27.078  30.008  1.00  0.00     0.049 A 
ATOM     50  C   UNL A   1      41.384  30.601  34.111  1.00  0.00     0.074 A 
ATOM     51  C   UNL A   1      44.054  26.363  30.205  1.00  0.00     0.029 A 
ATOM     52  N   UNL A   1      42.684  27.836  31.153  1.00  0.00    -0.354 N 
ATOM     53  N   UNL A   1      41.859  29.744  33.237  1.00  0.00    -0.248 NA
ATOM     54  C   UNL A   1      42.123  30.639  35.381  1.00  0.00     0.031 C 
ATOM     55  C   UNL A   1      44.529  26.645  31.490  1.00  0.00     0.029 A 
ATOM     56  C   UNL A   1      43.689  27.582  32.073  1.00  0.00     0.049 A 
ATOM     57  H   UNL A   1      41.939  28.464  31.292  1.00  0.00     0.167 HD
ATOM     58  C   UNL A   1      42.963  29.156  33.847  1.00  0.00     0.074 A 
ATOM     59  C   UNL A   1      43.094  29.768  35.153  1.00  0.00     0.031 C 
ATOM     60  C   UNL A   1      43.796  28.195  33.374  1.00  0.00     0.034 A 
BRANCH  47  61
ATOM     61  C   UNL A   1      42.267  26.058  27.771  1.00  0.00     0.023 A 
ATOM     62  C   UNL A   1      41.705  24.771  27.799  1.00  0.00     0.031 A 
ATOM     63  C   UNL A   1      43.092  26.394  26.682  1.00  0.00     0.131 A 
ATOM     64  C   UNL A   1      42.024  23.847  26.792  1.00  0.00     0.055 A 
ATOM     65  C   UNL A   1      43.347  25.495  25.645  1.00  0.00     0.041 A 
ATOM     66  F   UNL A   1      43.671  27.603  26.611  1.00  0.00    -0.206 F 
ATOM     67  C   UNL A   1      42.822  24.207  25.703  1.00  0.00     0.022 A 
BRANCH  64  68
ATOM     68  S   UNL A   1      41.473  22.131  26.984  1.00  0.00     0.124 S 
ATOM     69  O   UNL A   1      41.808  21.566  25.680  1.00  0.00    -0.237 OA
ATOM     70  O   UNL A   1      42.277  21.664  28.108  1.00  0.00    -0.237 OA
ATOM     71  O   UNL A   1      40.042  22.258  27.253  1.00  0.00    -0.744 OA
ENDBRANCH  64  68
ENDBRANCH  47  61
BRANCH  48  72
ATOM     72  C   UNL A   1      39.752  32.345  35.148  1.00  0.00     0.023 A 
ATOM     73  C   UNL A   1      39.015  31.772  36.196  1.00  0.00     0.031 A 
ATOM     74  C   UNL A   1      40.006  33.728  35.200  1.00  0.00     0.131 A 
ATOM     75  C   UNL A   1      38.512  32.584  37.224  1.00  0.00     0.055 A 
ATOM     76  C   UNL A   1      39.551  34.522  36.253  1.00  0.00     0.041 A 
ATOM     77  F   UNL A   1      40.707  34.327  34.225  1.00  0.00    -0.206 F 
ATOM     78  C   UNL A   1      38.785  33.954  37.267  1.00  0.00     0.022 A 
BRANCH  75  79
ATOM     79  S   UNL A   1      37.402  31.840  38.452  1.00  0.00     0.124 S 
ATOM     80  O   UNL A   1      36.230  32.702  38.355  1.00  0.00    -0.237 OA
ATOM     81  O   UNL A   1      37.247  30.485  37.936  1.00  0.00    -0.237 OA
ATOM     82  O   UNL A   1      38.155  31.949  39.699  1.00  0.00    -0.744 OA
ENDBRANCH  75  79
ENDBRANCH  48  72
BRANCH  60  83
ATOM     83  C   UNL A   1      44.937  27.781  34.264  1.00  0.00     0.023 A 
ATOM     84  C   UNL A   1      44.817  26.704  35.159  1.00  0.00     0.031 A 
ATOM     85  C   UNL A   1      46.158  28.475  34.218  1.00  0.00     0.131 A 
ATOM     86  C   UNL A   1      45.888  26.376  36.002  1.00  0.00     0.055 A 
ATOM     87  C   UNL A   1      47.238  28.113  35.024  1.00  0.00     0.041 A 
ATOM     88  F   UNL A   1      46.322  29.512  33.381  1.00  0.00    -0.206 F 
ATOM     89  C   UNL A   1      47.102  27.064  35.930  1.00  0.00     0.022 A 
BRANCH  86  90
ATOM     90  S   UNL A   1      45.655  25.074  37.243  1.00  0.00     0.124 S 
ATOM     91  O   UNL A   1      46.828  25.252  38.094  1.00  0.00    -0.237 OA
ATOM     92  O   UNL A   1      44.374  25.435  37.842  1.00  0.00    -0.237 OA
ATOM     93  O   UNL A   1      45.643  23.845  36.453  1.00  0.00    -0.744 OA
ENDBRANCH  86  90
ENDBRANCH  60  83
ENDBRANCH  34  35
ENDBRANCH  26  29
ENDBRANCH  24  25
ENDBRANCH   1  24
TORSDOF 15
ENDMDL
MODEL 3
REMARK VINA RESULT:     -12.5      5.096      7.678
REMARK SMILES Cc1ccc(Cl)cc1S(=O)(=O)N1CC[C@@H](C(=O)NCCCNC(=O)c2ccc(-c3c4nc(c(-c5cc(S(=O)(=O)[O-])ccc5F)c5ccc([nH]5)c(-c5cc(S(=O)(=O)[O-])ccc5F)c5nc(c(-c6cc(S(=O)(=O)[O-])ccc6F)c6ccc3[nH]6)C=C5)C=C4)cc2)[C@@H]1C
REMARK SMILES IDX 20 1 19 2 18 3 16 4 17 5 15 7 12 8 13 9 88 10 14 11 89 12
REMARK SMILES IDX 9 13 10 14 11 15 8 16 1 17 2 18 3 19 4 20 7 21 5 22 6 23
REMARK SMILES IDX 21 24 22 25 23 26 24 28 25 29 26 30 87 31 27 32 86 33 28 34
REMARK SMILES IDX 29 35 30 36 80 37 31 38 85 39 79 40 81 41 32 42 84 43 78 44
REMARK SMILES IDX 77 45 33 47 65 48 45 49 64 50 46 51 49 52 63 53 82 54 47 55
REMARK SMILES IDX 48 56 62 58 83 59 50 60 34 61 35 62 43 63 36 64 42 65 44 66
REMARK SMILES IDX 41 67 37 68 38 69 39 70 40 71 66 72 67 73 75 74 68 75 74 76
REMARK SMILES IDX 76 77 73 78 69 79 70 80 71 81 72 82 51 83 52 84 60 85 53 86
REMARK SMILES IDX 59 87 61 88 58 89 54 90 55 91 56 92 57 93
REMARK H PARENT 18 6 22 27 81 46 49 57
REMARK Flexibility Score: inf
ROOT
ATOM      1  C   UNL A   1      32.066  28.185  25.661  1.00  0.00     0.042 C 
ENDROOT
BRANCH   1   2
ATOM      2  C   UNL A   1      32.688  26.836  25.337  1.00  0.00     0.117 C 
BRANCH   2   3
ATOM      3  N   UNL A   1      33.576  26.819  24.190  1.00  0.00    -0.356 N 
ATOM      4  C   UNL A   1      33.269  26.410  22.924  1.00  0.00     0.224 C 
ATOM      5  O   UNL A   1      33.664  27.134  22.002  1.00  0.00    -0.275 OA
ATOM      6  H   UNL A   1      34.496  27.135  24.339  1.00  0.00     0.163 HD
BRANCH   4   7
ATOM      7  C   UNL A   1      32.605  25.067  22.591  1.00  0.00     0.098 C 
ATOM      8  N   UNL A   1      32.317  23.545  24.332  1.00  0.00    -0.194 NA
ATOM      9  C   UNL A   1      30.941  23.887  23.990  1.00  0.00     0.104 C 
ATOM     10  C   UNL A   1      33.182  23.769  23.157  1.00  0.00     0.082 C 
ATOM     11  C   UNL A   1      31.109  25.042  22.995  1.00  0.00     0.032 C 
ATOM     12  C   UNL A   1      33.034  22.632  22.136  1.00  0.00     0.026 C 
BRANCH   8  13
ATOM     13  S   UNL A   1      32.717  22.622  25.658  1.00  0.00     0.243 S 
ATOM     14  O   UNL A   1      31.944  21.403  25.548  1.00  0.00    -0.207 OA
ATOM     15  O   UNL A   1      32.647  23.467  26.831  1.00  0.00    -0.207 OA
BRANCH  13  16
ATOM     16  C   UNL A   1      34.449  22.113  25.528  1.00  0.00     0.087 A 
ATOM     17  C   UNL A   1      34.109  19.695  24.655  1.00  0.00     0.046 C 
ATOM     18  C   UNL A   1      34.939  20.856  25.108  1.00  0.00    -0.031 A 
ATOM     19  C   UNL A   1      36.336  20.648  25.089  1.00  0.00     0.006 A 
ATOM     20  C   UNL A   1      37.229  21.652  25.455  1.00  0.00     0.021 A 
ATOM     21  C   UNL A   1      35.368  23.121  25.892  1.00  0.00     0.042 A 
ATOM     22  C   UNL A   1      36.741  22.890  25.844  1.00  0.00     0.042 A 
ATOM     23  Cl  UNL A   1      37.838  24.154  26.238  1.00  0.00    -0.084 Cl
ENDBRANCH  13  16
ENDBRANCH   8  13
ENDBRANCH   4   7
ENDBRANCH   2   3
ENDBRANCH   1   2
BRANCH   1  24
ATOM     24  C   UNL A   1      33.064  29.338  25.620  1.00  0.00     0.118 C 
BRANCH  24  25
ATOM     25  N   UNL A   1      32.586  30.544  26.294  1.00  0.00    -0.352 N 
ATOM     26  C   UNL A   1      33.181  31.362  27.229  1.00  0.00     0.251 C 
ATOM     27  H   UNL A   1      31.678  30.822  26.033  1.00  0.00     0.163 HD
ATOM     28  O   UNL A   1      32.534  32.289  27.709  1.00  0.00    -0.269 OA
BRANCH  26  29
ATOM     29  C   UNL A   1      34.571  31.117  27.673  1.00  0.00     0.039 A 
ATOM     30  C   UNL A   1      35.485  32.176  27.684  1.00  0.00     0.014 A 
ATOM     31  C   UNL A   1      34.976  29.848  28.085  1.00  0.00     0.014 A 
ATOM     32  C   UNL A   1      36.765  31.989  28.219  1.00  0.00     0.010 A 
ATOM     33  C   UNL A   1      36.215  29.685  28.694  1.00  0.00     0.010 A 
ATOM     34  C   UNL A   1      37.118  30.756  28.788  1.00  0.00    -0.014 A 
BRANCH  34  35
ATOM     35  C   UNL A   1      38.397  30.537  29.519  1.00  0.00     0.031 A 
ATOM     36  C   UNL A   1      39.383  29.527  28.998  1.00  0.00     0.074 A 
ATOM     37  C   UNL A   1      38.590  31.114  30.724  1.00  0.00     0.049 A 
ATOM     38  N   UNL A   1      40.389  28.956  29.607  1.00  0.00    -0.248 NA
ATOM     39  C   UNL A   1      39.173  29.063  27.617  1.00  0.00     0.031 C 
ATOM     40  C   UNL A   1      37.694  32.085  31.356  1.00  0.00     0.029 A 
ATOM     41  N   UNL A   1      39.582  30.929  31.658  1.00  0.00    -0.354 N 
ATOM     42  C   UNL A   1      40.894  28.022  28.709  1.00  0.00     0.074 A 
ATOM     43  C   UNL A   1      40.070  28.092  27.521  1.00  0.00     0.031 C 
ATOM     44  C   UNL A   1      38.169  32.401  32.571  1.00  0.00     0.029 A 
ATOM     45  C   UNL A   1      39.364  31.609  32.836  1.00  0.00     0.049 A 
ATOM     46  H   UNL A   1      40.373  30.364  31.500  1.00  0.00     0.167 HD
ATOM     47  C   UNL A   1      41.950  27.185  28.866  1.00  0.00     0.034 A 
ATOM     48  C   UNL A   1      40.020  31.563  34.014  1.00  0.00     0.034 A 
ATOM     49  C   UNL A   1      42.797  27.176  30.034  1.00  0.00     0.049 A 
ATOM     50  C   UNL A   1      41.203  30.637  34.154  1.00  0.00     0.074 A 
ATOM     51  C   UNL A   1      43.960  26.457  30.247  1.00  0.00     0.029 A 
ATOM     52  N   UNL A   1      42.570  27.916  31.185  1.00  0.00    -0.354 N 
ATOM     53  N   UNL A   1      41.698  29.793  33.279  1.00  0.00    -0.248 NA
ATOM     54  C   UNL A   1      41.911  30.655  35.441  1.00  0.00     0.031 C 
ATOM     55  C   UNL A   1      44.405  26.718  31.547  1.00  0.00     0.029 A 
ATOM     56  C   UNL A   1      43.553  27.647  32.124  1.00  0.00     0.049 A 
ATOM     57  H   UNL A   1      41.822  28.543  31.316  1.00  0.00     0.167 HD
ATOM     58  C   UNL A   1      42.786  29.194  33.905  1.00  0.00     0.074 A 
ATOM     59  C   UNL A   1      42.887  29.787  35.223  1.00  0.00     0.031 C 
ATOM     60  C   UNL A   1      43.629  28.240  33.437  1.00  0.00     0.034 A 
BRANCH  47  61
ATOM     61  C   UNL A   1      42.231  26.191  27.767  1.00  0.00     0.023 A 
ATOM     62  C   UNL A   1      41.733  24.878  27.803  1.00  0.00     0.031 A 
ATOM     63  C   UNL A   1      43.014  26.570  26.661  1.00  0.00     0.131 A 
ATOM     64  C   UNL A   1      42.075  23.974  26.786  1.00  0.00     0.055 A 
ATOM     65  C   UNL A   1      43.290  25.687  25.616  1.00  0.00     0.041 A 
ATOM     66  F   UNL A   1      43.532  27.806  26.582  1.00  0.00    -0.206 F 
ATOM     67  C   UNL A   1      42.830  24.375  25.681  1.00  0.00     0.022 A 
BRANCH  64  68
ATOM     68  S   UNL A   1      41.611  22.232  26.983  1.00  0.00     0.124 S 
ATOM     69  O   UNL A   1      42.635  21.759  27.912  1.00  0.00    -0.237 OA
ATOM     70  O   UNL A   1      40.258  22.324  27.518  1.00  0.00    -0.237 OA
ATOM     71  O   UNL A   1      41.711  21.694  25.628  1.00  0.00    -0.744 OA
ENDBRANCH  64  68
ENDBRANCH  47  61
BRANCH  48  72
ATOM     72  C   UNL A   1      39.548  32.367  35.179  1.00  0.00     0.023 A 
ATOM     73  C   UNL A   1      38.867  31.760  36.245  1.00  0.00     0.031 A 
ATOM     74  C   UNL A   1      39.720  33.763  35.215  1.00  0.00     0.131 A 
ATOM     75  C   UNL A   1      38.335  32.551  37.276  1.00  0.00     0.055 A 
ATOM     76  C   UNL A   1      39.237  34.538  36.270  1.00  0.00     0.041 A 
ATOM     77  F   UNL A   1      40.365  34.394  34.222  1.00  0.00    -0.206 F 
ATOM     78  C   UNL A   1      38.526  33.934  37.303  1.00  0.00     0.022 A 
BRANCH  75  79
ATOM     79  S   UNL A   1      37.295  31.753  38.531  1.00  0.00     0.124 S 
ATOM     80  O   UNL A   1      36.097  32.583  38.498  1.00  0.00    -0.237 OA
ATOM     81  O   UNL A   1      37.156  30.404  37.994  1.00  0.00    -0.237 OA
ATOM     82  O   UNL A   1      38.093  31.858  39.751  1.00  0.00    -0.744 OA
ENDBRANCH  75  79
ENDBRANCH  48  72
BRANCH  60  83
ATOM     83  C   UNL A   1      44.749  27.810  34.347  1.00  0.00     0.023 A 
ATOM     84  C   UNL A   1      44.579  26.774  35.281  1.00  0.00     0.031 A 
ATOM     85  C   UNL A   1      45.999  28.449  34.281  1.00  0.00     0.131 A 
ATOM     86  C   UNL A   1      45.633  26.432  36.141  1.00  0.00     0.055 A 
ATOM     87  C   UNL A   1      47.059  28.072  35.105  1.00  0.00     0.041 A 
ATOM     88  F   UNL A   1      46.210  29.446  33.406  1.00  0.00    -0.206 F 
ATOM     89  C   UNL A   1      46.876  27.064  36.049  1.00  0.00     0.022 A 
BRANCH  86  90
ATOM     90  S   UNL A   1      45.340  25.189  37.428  1.00  0.00     0.124 S 
ATOM     91  O   UNL A   1      45.607  25.945  38.648  1.00  0.00    -0.237 OA
ATOM     92  O   UNL A   1      43.946  24.821  37.199  1.00  0.00    -0.237 OA
ATOM     93  O   UNL A   1      46.314  24.142  37.122  1.00  0.00    -0.744 OA
ENDBRANCH  86  90
ENDBRANCH  60  83
ENDBRANCH  34  35
ENDBRANCH  26  29
ENDBRANCH  24  25
ENDBRANCH   1  24
TORSDOF 15
ENDMDL
