MODEL 1
REMARK VINA RESULT:     -12.1      0.000      0.000
REMARK SMILES O=C(NCCCNC(=O)[C@@H]1CCN(C(=O)c2c(F)cc(Br)cc2F)C1)c1ccc(-c2c3nc(c(-c4cc(S(=O)(=O)[O-])ccc4F)c4ccc([nH]4)c(-c4cc(S(=O)(=O)[O-])ccc4F)c4nc(c(-c5cc(S(=O)(=O)[O-])ccc5F)c5ccc2[nH]5)C=C4)C=C3)cc1
REMARK SMILES IDX 4 1 3 2 1 3 2 4 26 6 27 7 88 8 28 9 87 10 29 11 30 12 31 13
REMARK SMILES IDX 81 14 32 15 86 16 80 17 82 18 33 19 85 20 79 21 78 22 34 24
REMARK SMILES IDX 66 25 46 26 65 27 47 28 50 29 64 30 83 31 48 32 49 33 63 35
REMARK SMILES IDX 84 36 51 37 35 38 36 39 44 40 37 41 43 42 45 43 42 44 38 45
REMARK SMILES IDX 39 46 40 47 41 48 67 49 68 50 76 51 69 52 75 53 77 54 74 55
REMARK SMILES IDX 70 56 71 57 72 58 73 59 52 60 53 61 61 62 54 63 60 64 62 65
REMARK SMILES IDX 59 66 55 67 56 68 57 69 58 70 5 71 6 72 7 73 8 74 9 76 10 77
REMARK SMILES IDX 11 78 25 79 12 80 13 81 14 82 15 83 16 84 17 85 23 86 18 87
REMARK SMILES IDX 19 88 22 89 24 90 20 91 21 92
REMARK H PARENT 3 5 82 23 50 34 7 75
REMARK Flexibility Score: inf
ROOT
ATOM      1  C   UNL A   1      33.948  29.175  26.155  1.00  0.00     0.118 C 
ENDROOT
BRANCH   1   2
ATOM      2  N   UNL A   1      33.844  30.529  26.691  1.00  0.00    -0.352 N 
ATOM      3  O   UNL A   1      34.112  32.179  28.190  1.00  0.00    -0.269 OA
ATOM      4  C   UNL A   1      34.535  31.129  27.714  1.00  0.00     0.251 C 
ATOM      5  H   UNL A   1      33.174  31.101  26.250  1.00  0.00     0.163 HD
BRANCH   4   6
ATOM      6  C   UNL A   1      35.779  30.523  28.229  1.00  0.00     0.039 A 
ATOM      7  C   UNL A   1      36.987  30.702  27.550  1.00  0.00     0.014 A 
ATOM      8  C   UNL A   1      35.752  29.822  29.438  1.00  0.00     0.014 A 
ATOM      9  C   UNL A   1      38.140  30.082  28.008  1.00  0.00     0.010 A 
ATOM     10  C   UNL A   1      36.933  29.278  29.949  1.00  0.00     0.010 A 
ATOM     11  C   UNL A   1      38.133  29.392  29.229  1.00  0.00    -0.014 A 
BRANCH  11  12
ATOM     12  C   UNL A   1      39.411  28.873  29.773  1.00  0.00     0.031 A 
ATOM     13  C   UNL A   1      40.078  29.535  30.942  1.00  0.00     0.074 A 
ATOM     14  C   UNL A   1      39.961  27.788  29.193  1.00  0.00     0.049 A 
ATOM     15  N   UNL A   1      41.211  29.237  31.523  1.00  0.00    -0.248 NA
ATOM     16  C   UNL A   1      39.388  30.696  31.522  1.00  0.00     0.031 C 
ATOM     17  C   UNL A   1      39.395  27.076  28.042  1.00  0.00     0.029 A 
ATOM     18  N   UNL A   1      41.105  27.092  29.482  1.00  0.00    -0.354 N 
ATOM     19  C   UNL A   1      41.381  30.180  32.530  1.00  0.00     0.074 A 
ATOM     20  C   UNL A   1      40.252  31.085  32.447  1.00  0.00     0.031 C 
ATOM     21  C   UNL A   1      40.180  26.032  27.742  1.00  0.00     0.029 A 
ATOM     22  C   UNL A   1      41.340  26.045  28.624  1.00  0.00     0.049 A 
ATOM     23  H   UNL A   1      41.700  27.320  30.233  1.00  0.00     0.167 HD
ATOM     24  C   UNL A   1      42.385  30.271  33.439  1.00  0.00     0.034 A 
ATOM     25  C   UNL A   1      42.392  25.210  28.527  1.00  0.00     0.034 A 
ATOM     26  C   UNL A   1      43.504  29.357  33.485  1.00  0.00     0.049 A 
ATOM     27  C   UNL A   1      43.519  25.361  29.509  1.00  0.00     0.074 A 
ATOM     28  C   UNL A   1      44.559  29.326  34.381  1.00  0.00     0.029 A 
ATOM     29  N   UNL A   1      43.727  28.322  32.580  1.00  0.00    -0.354 N 
ATOM     30  N   UNL A   1      43.653  26.237  30.479  1.00  0.00    -0.248 NA
ATOM     31  C   UNL A   1      44.632  24.413  29.390  1.00  0.00     0.031 C 
ATOM     32  C   UNL A   1      45.454  28.331  33.972  1.00  0.00     0.029 A 
ATOM     33  C   UNL A   1      44.921  27.678  32.873  1.00  0.00     0.049 A 
ATOM     34  H   UNL A   1      43.124  28.083  31.840  1.00  0.00     0.167 HD
ATOM     35  C   UNL A   1      44.861  25.933  31.099  1.00  0.00     0.074 A 
ATOM     36  C   UNL A   1      45.404  24.783  30.401  1.00  0.00     0.031 C 
ATOM     37  C   UNL A   1      45.461  26.546  32.151  1.00  0.00     0.034 A 
BRANCH  24  38
ATOM     38  C   UNL A   1      42.339  31.433  34.409  1.00  0.00     0.023 A 
ATOM     39  C   UNL A   1      41.472  31.444  35.518  1.00  0.00     0.031 A 
ATOM     40  C   UNL A   1      43.135  32.572  34.190  1.00  0.00     0.131 A 
ATOM     41  C   UNL A   1      41.351  32.600  36.302  1.00  0.00     0.055 A 
ATOM     42  C   UNL A   1      43.079  33.684  35.034  1.00  0.00     0.041 A 
ATOM     43  F   UNL A   1      43.965  32.636  33.138  1.00  0.00    -0.206 F 
ATOM     44  C   UNL A   1      42.170  33.711  36.086  1.00  0.00     0.022 A 
BRANCH  41  45
ATOM     45  S   UNL A   1      39.987  32.698  37.498  1.00  0.00     0.124 S 
ATOM     46  O   UNL A   1      39.131  31.593  37.069  1.00  0.00    -0.237 OA
ATOM     47  O   UNL A   1      40.674  32.516  38.772  1.00  0.00    -0.237 OA
ATOM     48  O   UNL A   1      39.428  34.029  37.273  1.00  0.00    -0.744 OA
ENDBRANCH  41  45
ENDBRANCH  24  38
BRANCH  25  49
ATOM     49  C   UNL A   1      42.438  24.207  27.426  1.00  0.00     0.023 A 
ATOM     50  C   UNL A   1      41.692  23.022  27.483  1.00  0.00     0.031 A 
ATOM     51  C   UNL A   1      43.235  24.433  26.287  1.00  0.00     0.131 A 
ATOM     52  C   UNL A   1      41.774  22.096  26.431  1.00  0.00     0.055 A 
ATOM     53  C   UNL A   1      43.272  23.536  25.221  1.00  0.00     0.041 A 
ATOM     54  F   UNL A   1      43.963  25.557  26.181  1.00  0.00    -0.206 F 
ATOM     55  C   UNL A   1      42.546  22.352  25.293  1.00  0.00     0.022 A 
BRANCH  52  56
ATOM     56  S   UNL A   1      40.904  20.513  26.594  1.00  0.00     0.124 S 
ATOM     57  O   UNL A   1      39.610  20.822  25.996  1.00  0.00    -0.237 OA
ATOM     58  O   UNL A   1      41.765  19.615  25.833  1.00  0.00    -0.237 OA
ATOM     59  O   UNL A   1      40.887  20.283  28.037  1.00  0.00    -0.744 OA
ENDBRANCH  52  56
ENDBRANCH  25  49
BRANCH  37  60
ATOM     60  C   UNL A   1      46.763  25.953  32.630  1.00  0.00     0.023 A 
ATOM     61  C   UNL A   1      46.802  24.929  33.592  1.00  0.00     0.031 A 
ATOM     62  C   UNL A   1      47.985  26.426  32.117  1.00  0.00     0.131 A 
ATOM     63  C   UNL A   1      48.037  24.446  34.049  1.00  0.00     0.055 A 
ATOM     64  C   UNL A   1      49.208  25.899  32.530  1.00  0.00     0.041 A 
ATOM     65  F   UNL A   1      48.006  27.407  31.201  1.00  0.00    -0.206 F 
ATOM     66  C   UNL A   1      49.240  24.912  33.509  1.00  0.00     0.022 A 
BRANCH  63  67
ATOM     67  S   UNL A   1      48.059  23.260  35.421  1.00  0.00     0.124 S 
ATOM     68  O   UNL A   1      46.818  23.583  36.119  1.00  0.00    -0.237 OA
ATOM     69  O   UNL A   1      48.084  21.977  34.726  1.00  0.00    -0.237 OA
ATOM     70  O   UNL A   1      49.283  23.596  36.145  1.00  0.00    -0.744 OA
ENDBRANCH  63  67
ENDBRANCH  37  60
ENDBRANCH  11  12
ENDBRANCH   4   6
ENDBRANCH   1   2
BRANCH   1  71
ATOM     71  C   UNL A   1      33.242  28.164  27.049  1.00  0.00     0.042 C 
BRANCH  71  72
ATOM     72  C   UNL A   1      31.726  28.270  26.966  1.00  0.00     0.117 C 
BRANCH  72  73
ATOM     73  N   UNL A   1      31.073  26.981  27.073  1.00  0.00    -0.356 N 
ATOM     74  C   UNL A   1      30.889  25.958  26.208  1.00  0.00     0.224 C 
ATOM     75  H   UNL A   1      30.683  26.816  27.961  1.00  0.00     0.163 HD
ATOM     76  O   UNL A   1      30.296  24.971  26.664  1.00  0.00    -0.275 OA
BRANCH  74  77
ATOM     77  C   UNL A   1      31.294  25.954  24.741  1.00  0.00     0.099 C 
ATOM     78  C   UNL A   1      30.294  25.579  23.655  1.00  0.00     0.037 C 
ATOM     79  C   UNL A   1      32.516  25.082  24.481  1.00  0.00     0.133 C 
ATOM     80  C   UNL A   1      30.697  24.181  23.200  1.00  0.00     0.120 C 
ATOM     81  N   UNL A   1      32.113  24.095  23.490  1.00  0.00    -0.338 N 
BRANCH  81  82
ATOM     82  C   UNL A   1      33.039  23.166  23.039  1.00  0.00     0.259 C 
ATOM     83  O   UNL A   1      33.938  23.466  22.257  1.00  0.00    -0.269 OA
BRANCH  82  84
ATOM     84  C   UNL A   1      32.999  21.792  23.558  1.00  0.00     0.111 A 
ATOM     85  C   UNL A   1      32.288  20.778  22.924  1.00  0.00     0.140 A 
ATOM     86  C   UNL A   1      33.732  21.487  24.706  1.00  0.00     0.140 A 
ATOM     87  F   UNL A   1      31.629  21.007  21.778  1.00  0.00    -0.206 F 
ATOM     88  C   UNL A   1      32.233  19.498  23.470  1.00  0.00     0.056 A 
ATOM     89  C   UNL A   1      33.720  20.201  25.246  1.00  0.00     0.056 A 
ATOM     90  F   UNL A   1      34.431  22.441  25.338  1.00  0.00    -0.206 F 
ATOM     91  C   UNL A   1      32.948  19.217  24.635  1.00  0.00     0.023 A 
ATOM     92  Br  UNL A   1      32.843  17.489  25.390  1.00  0.00    -0.051 Br
ENDBRANCH  82  84
ENDBRANCH  81  82
ENDBRANCH  74  77
ENDBRANCH  72  73
ENDBRANCH  71  72
ENDBRANCH   1  71
TORSDOF 15
ENDMDL
MODEL 2
REMARK VINA RESULT:     -12.1      3.328      8.667
REMARK SMILES O=C(NCCCNC(=O)[C@@H]1CCN(C(=O)c2c(F)cc(Br)cc2F)C1)c1ccc(-c2c3nc(c(-c4cc(S(=O)(=O)[O-])ccc4F)c4ccc([nH]4)c(-c4cc(S(=O)(=O)[O-])ccc4F)c4nc(c(-c5cc(S(=O)(=O)[O-])ccc5F)c5ccc2[nH]5)C=C4)C=C3)cc1
REMARK SMILES IDX 4 1 3 2 1 3 2 4 26 6 27 7 88 8 28 9 87 10 29 11 30 12 31 13
REMARK SMILES IDX 81 14 32 15 86 16 80 17 82 18 33 19 85 20 79 21 78 22 34 24
REMARK SMILES IDX 66 25 46 26 65 27 47 28 50 29 64 30 83 31 48 32 49 33 63 35
REMARK SMILES IDX 84 36 51 37 35 38 36 39 44 40 37 41 43 42 45 43 42 44 38 45
REMARK SMILES IDX 39 46 40 47 41 48 67 49 68 50 76 51 69 52 75 53 77 54 74 55
REMARK SMILES IDX 70 56 71 57 72 58 73 59 52 60 53 61 61 62 54 63 60 64 62 65
REMARK SMILES IDX 59 66 55 67 56 68 57 69 58 70 5 71 6 72 7 73 8 74 9 76 10 77
REMARK SMILES IDX 11 78 25 79 12 80 13 81 14 82 15 83 16 84 17 85 23 86 18 87
REMARK SMILES IDX 19 88 22 89 24 90 20 91 21 92
REMARK H PARENT 3 5 82 23 50 34 7 75
REMARK Flexibility Score: inf
ROOT
ATOM      1  C   UNL A   1      32.717  32.515  27.230  1.00  0.00     0.118 C 
ENDROOT
BRANCH   1   2
ATOM      2  N   UNL A   1      32.533  33.906  27.630  1.00  0.00    -0.352 N 
ATOM      3  O   UNL A   1      32.585  35.680  29.007  1.00  0.00    -0.269 OA
ATOM      4  C   UNL A   1      33.075  34.601  28.683  1.00  0.00     0.251 C 
ATOM      5  H   UNL A   1      31.925  34.428  27.057  1.00  0.00     0.163 HD
BRANCH   4   6
ATOM      6  C   UNL A   1      34.241  34.062  29.410  1.00  0.00     0.039 A 
ATOM      7  C   UNL A   1      34.063  33.168  30.470  1.00  0.00     0.014 A 
ATOM      8  C   UNL A   1      35.531  34.401  28.989  1.00  0.00     0.014 A 
ATOM      9  C   UNL A   1      35.161  32.711  31.185  1.00  0.00     0.010 A 
ATOM     10  C   UNL A   1      36.638  33.865  29.651  1.00  0.00     0.010 A 
ATOM     11  C   UNL A   1      36.460  33.028  30.763  1.00  0.00    -0.014 A 
BRANCH  11  12
ATOM     12  C   UNL A   1      37.615  32.401  31.449  1.00  0.00     0.031 A 
ATOM     13  C   UNL A   1      38.379  31.281  30.807  1.00  0.00     0.074 A 
ATOM     14  C   UNL A   1      37.966  32.863  32.665  1.00  0.00     0.049 A 
ATOM     15  N   UNL A   1      39.389  30.596  31.277  1.00  0.00    -0.248 NA
ATOM     16  C   UNL A   1      37.936  30.864  29.470  1.00  0.00     0.031 C 
ATOM     17  C   UNL A   1      37.279  33.943  33.381  1.00  0.00     0.029 A 
ATOM     18  N   UNL A   1      38.976  32.494  33.514  1.00  0.00    -0.354 N 
ATOM     19  C   UNL A   1      39.699  29.656  30.300  1.00  0.00     0.074 A 
ATOM     20  C   UNL A   1      38.736  29.836  29.232  1.00  0.00     0.031 C 
ATOM     21  C   UNL A   1      37.904  34.165  34.546  1.00  0.00     0.029 A 
ATOM     22  C   UNL A   1      38.983  33.197  34.695  1.00  0.00     0.049 A 
ATOM     23  H   UNL A   1      39.634  31.794  33.298  1.00  0.00     0.167 HD
ATOM     24  C   UNL A   1      40.699  28.739  30.300  1.00  0.00     0.034 A 
ATOM     25  C   UNL A   1      39.743  33.053  35.797  1.00  0.00     0.034 A 
ATOM     26  C   UNL A   1      41.635  28.579  31.389  1.00  0.00     0.049 A 
ATOM     27  C   UNL A   1      40.811  31.996  35.797  1.00  0.00     0.074 A 
ATOM     28  C   UNL A   1      42.710  27.712  31.486  1.00  0.00     0.029 A 
ATOM     29  N   UNL A   1      41.595  29.290  32.586  1.00  0.00    -0.354 N 
ATOM     30  N   UNL A   1      41.115  31.134  34.854  1.00  0.00    -0.248 NA
ATOM     31  C   UNL A   1      41.638  31.891  37.003  1.00  0.00     0.031 C 
ATOM     32  C   UNL A   1      43.265  27.842  32.764  1.00  0.00     0.029 A 
ATOM     33  C   UNL A   1      42.598  28.851  33.439  1.00  0.00     0.049 A 
ATOM     34  H   UNL A   1      40.948  30.001  32.796  1.00  0.00     0.167 HD
ATOM     35  C   UNL A   1      42.185  30.395  35.347  1.00  0.00     0.074 A 
ATOM     36  C   UNL A   1      42.480  30.926  36.664  1.00  0.00     0.031 C 
ATOM     37  C   UNL A   1      42.863  29.375  34.762  1.00  0.00     0.034 A 
BRANCH  24  38
ATOM     38  C   UNL A   1      40.783  27.806  29.111  1.00  0.00     0.023 A 
ATOM     39  C   UNL A   1      41.712  28.003  28.072  1.00  0.00     0.031 A 
ATOM     40  C   UNL A   1      39.881  26.733  28.985  1.00  0.00     0.131 A 
ATOM     41  C   UNL A   1      41.656  27.208  26.918  1.00  0.00     0.055 A 
ATOM     42  C   UNL A   1      39.895  25.884  27.876  1.00  0.00     0.041 A 
ATOM     43  F   UNL A   1      38.954  26.504  29.928  1.00  0.00    -0.206 F 
ATOM     44  C   UNL A   1      40.772  26.130  26.824  1.00  0.00     0.022 A 
BRANCH  41  45
ATOM     45  S   UNL A   1      42.632  27.709  25.471  1.00  0.00     0.124 S 
ATOM     46  O   UNL A   1      42.550  26.518  24.626  1.00  0.00    -0.237 OA
ATOM     47  O   UNL A   1      41.906  28.881  24.995  1.00  0.00    -0.237 OA
ATOM     48  O   UNL A   1      43.957  27.976  26.026  1.00  0.00    -0.744 OA
ENDBRANCH  41  45
ENDBRANCH  24  38
BRANCH  25  49
ATOM     49  C   UNL A   1      39.474  33.898  36.994  1.00  0.00     0.023 A 
ATOM     50  C   UNL A   1      38.855  33.375  38.137  1.00  0.00     0.031 A 
ATOM     51  C   UNL A   1      39.849  35.255  37.008  1.00  0.00     0.131 A 
ATOM     52  C   UNL A   1      38.607  34.209  39.239  1.00  0.00     0.055 A 
ATOM     53  C   UNL A   1      39.650  36.066  38.124  1.00  0.00     0.041 A 
ATOM     54  F   UNL A   1      40.452  35.804  35.941  1.00  0.00    -0.206 F 
ATOM     55  C   UNL A   1      39.015  35.546  39.247  1.00  0.00     0.022 A 
BRANCH  52  56
ATOM     56  S   UNL A   1      37.683  33.537  40.648  1.00  0.00     0.124 S 
ATOM     57  O   UNL A   1      37.564  34.708  41.510  1.00  0.00    -0.237 OA
ATOM     58  O   UNL A   1      36.453  33.080  40.012  1.00  0.00    -0.237 OA
ATOM     59  O   UNL A   1      38.554  32.477  41.151  1.00  0.00    -0.744 OA
ENDBRANCH  52  56
ENDBRANCH  25  49
BRANCH  37  60
ATOM     60  C   UNL A   1      44.018  28.793  35.539  1.00  0.00     0.023 A 
ATOM     61  C   UNL A   1      43.852  27.696  36.403  1.00  0.00     0.031 A 
ATOM     62  C   UNL A   1      45.303  29.350  35.416  1.00  0.00     0.131 A 
ATOM     63  C   UNL A   1      44.943  27.223  37.148  1.00  0.00     0.055 A 
ATOM     64  C   UNL A   1      46.396  28.837  36.112  1.00  0.00     0.041 A 
ATOM     65  F   UNL A   1      45.516  30.403  34.610  1.00  0.00    -0.206 F 
ATOM     66  C   UNL A   1      46.218  27.775  36.993  1.00  0.00     0.022 A 
BRANCH  63  67
ATOM     67  S   UNL A   1      44.659  25.931  38.389  1.00  0.00     0.124 S 
ATOM     68  O   UNL A   1      44.126  26.700  39.509  1.00  0.00    -0.237 OA
ATOM     69  O   UNL A   1      43.713  25.050  37.713  1.00  0.00    -0.237 OA
ATOM     70  O   UNL A   1      45.990  25.364  38.603  1.00  0.00    -0.744 OA
ENDBRANCH  63  67
ENDBRANCH  37  60
ENDBRANCH  11  12
ENDBRANCH   4   6
ENDBRANCH   1   2
BRANCH   1  71
ATOM     71  C   UNL A   1      31.466  31.953  26.567  1.00  0.00     0.042 C 
BRANCH  71  72
ATOM     72  C   UNL A   1      31.605  30.479  26.212  1.00  0.00     0.117 C 
BRANCH  72  73
ATOM     73  N   UNL A   1      31.246  30.204  24.836  1.00  0.00    -0.356 N 
ATOM     74  C   UNL A   1      31.053  29.063  24.136  1.00  0.00     0.224 C 
ATOM     75  H   UNL A   1      31.114  31.017  24.299  1.00  0.00     0.163 HD
ATOM     76  O   UNL A   1      30.715  29.210  22.954  1.00  0.00    -0.275 OA
BRANCH  74  77
ATOM     77  C   UNL A   1      31.273  27.652  24.663  1.00  0.00     0.099 C 
ATOM     78  C   UNL A   1      32.364  27.360  25.685  1.00  0.00     0.037 C 
ATOM     79  C   UNL A   1      31.492  26.644  23.541  1.00  0.00     0.133 C 
ATOM     80  C   UNL A   1      33.465  26.649  24.908  1.00  0.00     0.120 C 
ATOM     81  N   UNL A   1      32.784  26.022  23.795  1.00  0.00    -0.338 N 
BRANCH  81  82
ATOM     82  C   UNL A   1      33.244  25.036  22.935  1.00  0.00     0.259 C 
ATOM     83  O   UNL A   1      33.651  25.292  21.804  1.00  0.00    -0.269 OA
BRANCH  82  84
ATOM     84  C   UNL A   1      33.318  23.644  23.402  1.00  0.00     0.111 A 
ATOM     85  C   UNL A   1      34.501  23.074  23.859  1.00  0.00     0.140 A 
ATOM     86  C   UNL A   1      32.148  22.883  23.422  1.00  0.00     0.140 A 
ATOM     87  F   UNL A   1      35.633  23.790  23.927  1.00  0.00    -0.206 F 
ATOM     88  C   UNL A   1      34.543  21.737  24.250  1.00  0.00     0.056 A 
ATOM     89  C   UNL A   1      32.163  21.554  23.846  1.00  0.00     0.056 A 
ATOM     90  F   UNL A   1      30.990  23.405  22.992  1.00  0.00    -0.206 F 
ATOM     91  C   UNL A   1      33.371  20.981  24.236  1.00  0.00     0.023 A 
ATOM     92  Br  UNL A   1      33.440  19.160  24.734  1.00  0.00    -0.051 Br
ENDBRANCH  82  84
ENDBRANCH  81  82
ENDBRANCH  74  77
ENDBRANCH  72  73
ENDBRANCH  71  72
ENDBRANCH   1  71
TORSDOF 15
ENDMDL
MODEL 3
REMARK VINA RESULT:     -11.9      1.517      1.967
REMARK SMILES O=C(NCCCNC(=O)[C@@H]1CCN(C(=O)c2c(F)cc(Br)cc2F)C1)c1ccc(-c2c3nc(c(-c4cc(S(=O)(=O)[O-])ccc4F)c4ccc([nH]4)c(-c4cc(S(=O)(=O)[O-])ccc4F)c4nc(c(-c5cc(S(=O)(=O)[O-])ccc5F)c5ccc2[nH]5)C=C4)C=C3)cc1
REMARK SMILES IDX 4 1 3 2 1 3 2 4 26 6 27 7 88 8 28 9 87 10 29 11 30 12 31 13
REMARK SMILES IDX 81 14 32 15 86 16 80 17 82 18 33 19 85 20 79 21 78 22 34 24
REMARK SMILES IDX 66 25 46 26 65 27 47 28 50 29 64 30 83 31 48 32 49 33 63 35
REMARK SMILES IDX 84 36 51 37 35 38 36 39 44 40 37 41 43 42 45 43 42 44 38 45
REMARK SMILES IDX 39 46 40 47 41 48 67 49 68 50 76 51 69 52 75 53 77 54 74 55
REMARK SMILES IDX 70 56 71 57 72 58 73 59 52 60 53 61 61 62 54 63 60 64 62 65
REMARK SMILES IDX 59 66 55 67 56 68 57 69 58 70 5 71 6 72 7 73 8 74 9 76 10 77
REMARK SMILES IDX 11 78 25 79 12 80 13 81 14 82 15 83 16 84 17 85 23 86 18 87
REMARK SMILES IDX 19 88 22 89 24 90 20 91 21 92
REMARK H PARENT 3 5 82 23 50 34 7 75
REMARK Flexibility Score: inf
ROOT
ATOM      1  C   UNL A   1      33.199  29.765  26.428  1.00  0.00     0.118 C 
ENDROOT
BRANCH   1   2
ATOM      2  N   UNL A   1      33.190  31.198  26.701  1.00  0.00    -0.352 N 
ATOM      3  O   UNL A   1      33.600  33.080  27.856  1.00  0.00    -0.269 OA
ATOM      4  C   UNL A   1      33.946  31.935  27.578  1.00  0.00     0.251 C 
ATOM      5  H   UNL A   1      32.541  31.719  26.173  1.00  0.00     0.163 HD
BRANCH   4   6
ATOM      6  C   UNL A   1      35.169  31.359  28.174  1.00  0.00     0.039 A 
ATOM      7  C   UNL A   1      36.344  32.112  28.243  1.00  0.00     0.014 A 
ATOM      8  C   UNL A   1      35.124  30.076  28.728  1.00  0.00     0.014 A 
ATOM      9  C   UNL A   1      37.503  31.544  28.750  1.00  0.00     0.010 A 
ATOM     10  C   UNL A   1      36.268  29.541  29.326  1.00  0.00     0.010 A 
ATOM     11  C   UNL A   1      37.470  30.266  29.327  1.00  0.00    -0.014 A 
BRANCH  11  12
ATOM     12  C   UNL A   1      38.684  29.746  30.002  1.00  0.00     0.031 A 
ATOM     13  C   UNL A   1      39.093  30.255  31.352  1.00  0.00     0.074 A 
ATOM     14  C   UNL A   1      39.410  28.801  29.375  1.00  0.00     0.049 A 
ATOM     15  N   UNL A   1      40.139  29.938  32.071  1.00  0.00    -0.248 NA
ATOM     16  C   UNL A   1      38.223  31.266  31.967  1.00  0.00     0.031 C 
ATOM     17  C   UNL A   1      39.101  28.247  28.053  1.00  0.00     0.029 A 
ATOM     18  N   UNL A   1      40.548  28.139  29.753  1.00  0.00    -0.354 N 
ATOM     19  C   UNL A   1      40.064  30.719  33.218  1.00  0.00     0.074 A 
ATOM     20  C   UNL A   1      38.890  31.556  33.074  1.00  0.00     0.031 C 
ATOM     21  C   UNL A   1      40.011  27.312  27.744  1.00  0.00     0.029 A 
ATOM     22  C   UNL A   1      41.008  27.256  28.805  1.00  0.00     0.049 A 
ATOM     23  H   UNL A   1      40.993  28.281  30.620  1.00  0.00     0.167 HD
ATOM     24  C   UNL A   1      40.897  30.727  34.290  1.00  0.00     0.034 A 
ATOM     25  C   UNL A   1      42.130  26.512  28.771  1.00  0.00     0.034 A 
ATOM     26  C   UNL A   1      42.068  29.886  34.395  1.00  0.00     0.049 A 
ATOM     27  C   UNL A   1      43.066  26.573  29.944  1.00  0.00     0.074 A 
ATOM     28  C   UNL A   1      42.963  29.778  35.445  1.00  0.00     0.029 A 
ATOM     29  N   UNL A   1      42.521  29.022  33.401  1.00  0.00    -0.354 N 
ATOM     30  N   UNL A   1      42.967  27.292  31.039  1.00  0.00    -0.248 NA
ATOM     31  C   UNL A   1      44.260  25.725  29.882  1.00  0.00     0.031 C 
ATOM     32  C   UNL A   1      43.995  28.915  35.056  1.00  0.00     0.029 A 
ATOM     33  C   UNL A   1      43.703  28.412  33.799  1.00  0.00     0.049 A 
ATOM     34  H   UNL A   1      42.068  28.866  32.542  1.00  0.00     0.167 HD
ATOM     35  C   UNL A   1      44.080  26.968  31.807  1.00  0.00     0.074 A 
ATOM     36  C   UNL A   1      44.825  25.977  31.054  1.00  0.00     0.031 C 
ATOM     37  C   UNL A   1      44.448  27.443  33.024  1.00  0.00     0.034 A 
BRANCH  24  38
ATOM     38  C   UNL A   1      40.595  31.716  35.395  1.00  0.00     0.023 A 
ATOM     39  C   UNL A   1      39.567  31.498  36.331  1.00  0.00     0.031 A 
ATOM     40  C   UNL A   1      41.311  32.924  35.481  1.00  0.00     0.131 A 
ATOM     41  C   UNL A   1      39.222  32.507  37.242  1.00  0.00     0.055 A 
ATOM     42  C   UNL A   1      41.025  33.884  36.455  1.00  0.00     0.041 A 
ATOM     43  F   UNL A   1      42.289  33.205  34.605  1.00  0.00    -0.206 F 
ATOM     44  C   UNL A   1      39.962  33.688  37.331  1.00  0.00     0.022 A 
BRANCH  41  45
ATOM     45  S   UNL A   1      37.683  32.328  38.191  1.00  0.00     0.124 S 
ATOM     46  O   UNL A   1      38.087  32.808  39.512  1.00  0.00    -0.237 OA
ATOM     47  O   UNL A   1      36.760  33.184  37.455  1.00  0.00    -0.237 OA
ATOM     48  O   UNL A   1      37.401  30.896  38.121  1.00  0.00    -0.744 OA
ENDBRANCH  41  45
ENDBRANCH  24  38
BRANCH  25  49
ATOM     49  C   UNL A   1      42.438  25.699  27.561  1.00  0.00     0.023 A 
ATOM     50  C   UNL A   1      42.063  24.352  27.467  1.00  0.00     0.031 A 
ATOM     51  C   UNL A   1      43.113  26.274  26.467  1.00  0.00     0.131 A 
ATOM     52  C   UNL A   1      42.385  23.616  26.315  1.00  0.00     0.055 A 
ATOM     53  C   UNL A   1      43.383  25.556  25.304  1.00  0.00     0.041 A 
ATOM     54  F   UNL A   1      43.488  27.563  26.504  1.00  0.00    -0.206 F 
ATOM     55  C   UNL A   1      43.028  24.214  25.227  1.00  0.00     0.022 A 
BRANCH  52  56
ATOM     56  S   UNL A   1      42.007  21.843  26.280  1.00  0.00     0.124 S 
ATOM     57  O   UNL A   1      40.598  21.847  25.903  1.00  0.00    -0.237 OA
ATOM     58  O   UNL A   1      42.941  21.355  25.272  1.00  0.00    -0.237 OA
ATOM     59  O   UNL A   1      42.287  21.409  27.647  1.00  0.00    -0.744 OA
ENDBRANCH  52  56
ENDBRANCH  25  49
BRANCH  37  60
ATOM     60  C   UNL A   1      45.702  26.862  33.629  1.00  0.00     0.023 A 
ATOM     61  C   UNL A   1      45.685  25.659  34.358  1.00  0.00     0.031 A 
ATOM     62  C   UNL A   1      46.933  27.526  33.478  1.00  0.00     0.131 A 
ATOM     63  C   UNL A   1      46.865  25.184  34.950  1.00  0.00     0.055 A 
ATOM     64  C   UNL A   1      48.113  27.018  34.017  1.00  0.00     0.041 A 
ATOM     65  F   UNL A   1      47.004  28.681  32.798  1.00  0.00    -0.206 F 
ATOM     66  C   UNL A   1      48.083  25.846  34.767  1.00  0.00     0.022 A 
BRANCH  63  67
ATOM     67  S   UNL A   1      46.776  23.734  36.035  1.00  0.00     0.124 S 
ATOM     68  O   UNL A   1      45.343  23.457  36.052  1.00  0.00    -0.237 OA
ATOM     69  O   UNL A   1      47.605  22.762  35.329  1.00  0.00    -0.237 OA
ATOM     70  O   UNL A   1      47.330  24.217  37.299  1.00  0.00    -0.744 OA
ENDBRANCH  63  67
ENDBRANCH  37  60
ENDBRANCH  11  12
ENDBRANCH   4   6
ENDBRANCH   1   2
BRANCH   1  71
ATOM     71  C   UNL A   1      31.811  29.157  26.583  1.00  0.00     0.042 C 
BRANCH  71  72
ATOM     72  C   UNL A   1      31.782  28.017  27.591  1.00  0.00     0.117 C 
BRANCH  72  73
ATOM     73  N   UNL A   1      31.295  26.780  27.016  1.00  0.00    -0.356 N 
ATOM     74  C   UNL A   1      31.852  25.848  26.210  1.00  0.00     0.224 C 
ATOM     75  H   UNL A   1      30.365  26.575  27.263  1.00  0.00     0.163 HD
ATOM     76  O   UNL A   1      31.133  24.878  25.935  1.00  0.00    -0.275 OA
BRANCH  74  77
ATOM     77  C   UNL A   1      33.238  25.930  25.585  1.00  0.00     0.099 C 
ATOM     78  C   UNL A   1      33.462  26.674  24.275  1.00  0.00     0.037 C 
ATOM     79  C   UNL A   1      33.861  24.555  25.378  1.00  0.00     0.133 C 
ATOM     80  C   UNL A   1      33.655  25.590  23.222  1.00  0.00     0.120 C 
ATOM     81  N   UNL A   1      34.161  24.450  23.957  1.00  0.00    -0.338 N 
BRANCH  81  82
ATOM     82  C   UNL A   1      34.761  23.298  23.472  1.00  0.00     0.259 C 
ATOM     83  O   UNL A   1      35.756  23.332  22.751  1.00  0.00    -0.269 OA
BRANCH  82  84
ATOM     84  C   UNL A   1      34.244  21.985  23.880  1.00  0.00     0.111 A 
ATOM     85  C   UNL A   1      34.979  21.107  24.670  1.00  0.00     0.140 A 
ATOM     86  C   UNL A   1      32.952  21.624  23.494  1.00  0.00     0.140 A 
ATOM     87  F   UNL A   1      36.196  21.441  25.126  1.00  0.00    -0.206 F 
ATOM     88  C   UNL A   1      34.475  19.851  24.999  1.00  0.00     0.056 A 
ATOM     89  C   UNL A   1      32.415  20.386  23.846  1.00  0.00     0.056 A 
ATOM     90  F   UNL A   1      32.214  22.450  22.737  1.00  0.00    -0.206 F 
ATOM     91  C   UNL A   1      33.194  19.494  24.579  1.00  0.00     0.023 A 
ATOM     92  Br  UNL A   1      32.528  17.777  24.999  1.00  0.00    -0.051 Br
ENDBRANCH  82  84
ENDBRANCH  81  82
ENDBRANCH  74  77
ENDBRANCH  72  73
ENDBRANCH  71  72
ENDBRANCH   1  71
TORSDOF 15
ENDMDL
