MODEL 1
REMARK VINA RESULT:     -13.0      0.000      0.000
REMARK SMILES Cc1ccnc(C(=O)c2[nH]c3ccc(OC(F)(F)F)cc3c2CC(=O)NCCCNC(=O)c2ccc(-c3c4nc(c(-c5cc(S(=O)(=O)[O-])ccc5F)c5ccc([nH]5)c(-c5cc(S(=O)(=O)[O-])ccc5F)c5nc(c(-c6cc(S(=O)(=O)[O-])ccc6F)c6ccc3[nH]6)C=C5)C=C4)cc2)c1
REMARK SMILES IDX 28 1 27 2 26 3 24 4 25 5 23 7 22 8 9 9 10 10 11 11 21 13
REMARK SMILES IDX 12 14 20 15 13 16 14 17 7 18 8 19 6 20 1 21 2 22 3 23 96 24
REMARK SMILES IDX 4 25 5 26 15 27 16 28 17 29 18 30 19 31 29 32 30 33 31 34
REMARK SMILES IDX 32 36 33 37 34 38 95 39 35 40 94 41 36 42 37 43 38 44 88 45
REMARK SMILES IDX 39 46 93 47 87 48 89 49 40 50 92 51 86 52 85 53 41 55 73 56
REMARK SMILES IDX 53 57 72 58 54 59 57 60 71 61 90 62 55 63 56 64 70 66 91 67
REMARK SMILES IDX 58 68 42 69 43 70 51 71 44 72 50 73 52 74 49 75 45 76 46 77
REMARK SMILES IDX 47 78 48 79 74 80 75 81 83 82 76 83 82 84 84 85 81 86 77 87
REMARK SMILES IDX 78 88 79 89 80 90 59 91 60 92 68 93 61 94 67 95 69 96 66 97
REMARK SMILES IDX 62 98 63 99 64 100 65 101
REMARK H PARENT 26 6 10 12 30 35 89 54 57 65
REMARK Flexibility Score: inf
ROOT
ATOM      1  C   UNL A   1      31.511  31.799  26.656  1.00  0.00     0.042 C 
ENDROOT
BRANCH   1   2
ATOM      2  C   UNL A   1      31.683  30.514  25.850  1.00  0.00     0.117 C 
BRANCH   2   3
ATOM      3  N   UNL A   1      32.415  29.475  26.548  1.00  0.00    -0.356 N 
ATOM      4  C   UNL A   1      32.852  28.262  26.097  1.00  0.00     0.224 C 
ATOM      5  O   UNL A   1      33.636  27.625  26.807  1.00  0.00    -0.275 OA
ATOM      6  H   UNL A   1      32.630  29.673  27.490  1.00  0.00     0.163 HD
BRANCH   4   7
ATOM      7  C   UNL A   1      32.488  27.766  24.709  1.00  0.00     0.138 C 
BRANCH   7   8
ATOM      8  C   UNL A   1      31.095  27.218  24.569  1.00  0.00    -0.002 A 
ATOM      9  C   UNL A   1      30.626  25.974  24.979  1.00  0.00     0.093 A 
ATOM     10  N   UNL A   1      29.275  25.934  24.715  1.00  0.00    -0.352 N 
ATOM     11  C   UNL A   1      28.881  27.063  24.041  1.00  0.00     0.046 A 
ATOM     12  H   UNL A   1      28.675  25.198  24.972  1.00  0.00     0.167 HD
ATOM     13  C   UNL A   1      29.999  27.881  23.921  1.00  0.00     0.008 A 
ATOM     14  C   UNL A   1      27.622  27.426  23.552  1.00  0.00     0.030 A 
ATOM     15  C   UNL A   1      29.848  29.120  23.262  1.00  0.00     0.057 A 
ATOM     16  C   UNL A   1      27.501  28.665  22.909  1.00  0.00     0.049 A 
ATOM     17  C   UNL A   1      28.599  29.510  22.758  1.00  0.00     0.130 A 
BRANCH   9  18
ATOM     18  C   UNL A   1      31.329  24.893  25.651  1.00  0.00     0.227 C 
ATOM     19  O   UNL A   1      31.345  24.815  26.875  1.00  0.00    -0.285 OA
BRANCH  18  20
ATOM     20  C   UNL A   1      32.015  23.848  24.801  1.00  0.00     0.113 A 
ATOM     21  C   UNL A   1      35.358  22.109  24.340  1.00  0.00     0.044 C 
ATOM     22  C   UNL A   1      33.929  22.528  24.166  1.00  0.00    -0.047 A 
ATOM     23  C   UNL A   1      33.146  21.956  23.163  1.00  0.00     0.023 A 
ATOM     24  C   UNL A   1      33.345  23.479  25.010  1.00  0.00     0.036 A 
ATOM     25  C   UNL A   1      31.830  22.367  23.033  1.00  0.00     0.112 A 
ATOM     26  N   UNL A   1      31.254  23.298  23.819  1.00  0.00    -0.253 NA
ENDBRANCH  18  20
ENDBRANCH   9  18
BRANCH  17  27
ATOM     27  O   UNL A   1      28.604  30.734  22.152  1.00  0.00    -0.406 OA
BRANCH  27  28
ATOM     28  C   UNL A   1      28.288  31.867  22.944  1.00  0.00     0.573 C 
ATOM     29  F   UNL A   1      29.241  32.089  23.874  1.00  0.00    -0.132 F 
ATOM     30  F   UNL A   1      28.128  32.968  22.181  1.00  0.00    -0.132 F 
ATOM     31  F   UNL A   1      27.124  31.628  23.589  1.00  0.00    -0.132 F 
ENDBRANCH  27  28
ENDBRANCH  17  27
ENDBRANCH   7   8
ENDBRANCH   4   7
ENDBRANCH   2   3
ENDBRANCH   1   2
BRANCH   1  32
ATOM     32  C   UNL A   1      32.812  32.452  27.117  1.00  0.00     0.118 C 
BRANCH  32  33
ATOM     33  N   UNL A   1      32.608  33.794  27.640  1.00  0.00    -0.352 N 
ATOM     34  C   UNL A   1      33.235  34.463  28.662  1.00  0.00     0.251 C 
ATOM     35  H   UNL A   1      31.903  34.309  27.185  1.00  0.00     0.163 HD
ATOM     36  O   UNL A   1      32.759  35.529  29.048  1.00  0.00    -0.269 OA
BRANCH  34  37
ATOM     37  C   UNL A   1      34.456  33.927  29.313  1.00  0.00     0.039 A 
ATOM     38  C   UNL A   1      34.304  32.995  30.348  1.00  0.00     0.014 A 
ATOM     39  C   UNL A   1      35.734  34.386  28.983  1.00  0.00     0.014 A 
ATOM     40  C   UNL A   1      35.425  32.487  31.011  1.00  0.00     0.010 A 
ATOM     41  C   UNL A   1      36.857  33.851  29.619  1.00  0.00     0.010 A 
ATOM     42  C   UNL A   1      36.712  32.898  30.640  1.00  0.00    -0.014 A 
BRANCH  42  43
ATOM     43  C   UNL A   1      37.919  32.362  31.318  1.00  0.00     0.031 A 
ATOM     44  C   UNL A   1      38.731  31.277  30.669  1.00  0.00     0.074 A 
ATOM     45  C   UNL A   1      38.248  32.799  32.548  1.00  0.00     0.049 A 
ATOM     46  N   UNL A   1      39.716  30.572  31.163  1.00  0.00    -0.248 NA
ATOM     47  C   UNL A   1      38.369  30.928  29.287  1.00  0.00     0.031 C 
ATOM     48  C   UNL A   1      37.532  33.832  33.302  1.00  0.00     0.029 A 
ATOM     49  N   UNL A   1      39.256  32.407  33.391  1.00  0.00    -0.354 N 
ATOM     50  C   UNL A   1      40.068  29.665  30.171  1.00  0.00     0.074 A 
ATOM     51  C   UNL A   1      39.191  29.916  29.044  1.00  0.00     0.031 C 
ATOM     52  C   UNL A   1      38.118  33.981  34.502  1.00  0.00     0.029 A 
ATOM     53  C   UNL A   1      39.229  33.040  34.611  1.00  0.00     0.049 A 
ATOM     54  H   UNL A   1      39.935  31.739  33.146  1.00  0.00     0.167 HD
ATOM     55  C   UNL A   1      41.028  28.708  30.195  1.00  0.00     0.034 A 
ATOM     56  C   UNL A   1      39.992  32.860  35.704  1.00  0.00     0.034 A 
ATOM     57  C   UNL A   1      41.924  28.478  31.299  1.00  0.00     0.049 A 
ATOM     58  C   UNL A   1      41.076  31.822  35.696  1.00  0.00     0.074 A 
ATOM     59  C   UNL A   1      42.963  27.568  31.397  1.00  0.00     0.029 A 
ATOM     60  N   UNL A   1      41.888  29.168  32.501  1.00  0.00    -0.354 N 
ATOM     61  N   UNL A   1      41.383  30.961  34.757  1.00  0.00    -0.248 NA
ATOM     62  C   UNL A   1      41.910  31.731  36.902  1.00  0.00     0.031 C 
ATOM     63  C   UNL A   1      43.538  27.691  32.670  1.00  0.00     0.029 A 
ATOM     64  C   UNL A   1      42.876  28.698  33.352  1.00  0.00     0.049 A 
ATOM     65  H   UNL A   1      41.253  29.889  32.720  1.00  0.00     0.167 HD
ATOM     66  C   UNL A   1      42.445  30.220  35.260  1.00  0.00     0.074 A 
ATOM     67  C   UNL A   1      42.729  30.736  36.585  1.00  0.00     0.031 C 
ATOM     68  C   UNL A   1      43.127  29.204  34.677  1.00  0.00     0.034 A 
BRANCH  55  69
ATOM     69  C   UNL A   1      41.111  27.805  28.997  1.00  0.00     0.023 A 
ATOM     70  C   UNL A   1      42.089  27.983  28.005  1.00  0.00     0.031 A 
ATOM     71  C   UNL A   1      40.164  26.780  28.827  1.00  0.00     0.131 A 
ATOM     72  C   UNL A   1      42.066  27.179  26.856  1.00  0.00     0.055 A 
ATOM     73  C   UNL A   1      40.176  25.952  27.704  1.00  0.00     0.041 A 
ATOM     74  F   UNL A   1      39.198  26.586  29.738  1.00  0.00    -0.206 F 
ATOM     75  C   UNL A   1      41.125  26.156  26.705  1.00  0.00     0.022 A 
BRANCH  72  76
ATOM     76  S   UNL A   1      43.222  27.555  25.509  1.00  0.00     0.124 S 
ATOM     77  O   UNL A   1      42.345  28.201  24.537  1.00  0.00    -0.237 OA
ATOM     78  O   UNL A   1      44.199  28.418  26.164  1.00  0.00    -0.237 OA
ATOM     79  O   UNL A   1      43.721  26.240  25.110  1.00  0.00    -0.744 OA
ENDBRANCH  72  76
ENDBRANCH  55  69
BRANCH  56  80
ATOM     80  C   UNL A   1      39.710  33.639  36.933  1.00  0.00     0.023 A 
ATOM     81  C   UNL A   1      38.937  33.101  37.971  1.00  0.00     0.031 A 
ATOM     82  C   UNL A   1      40.218  34.940  37.074  1.00  0.00     0.131 A 
ATOM     83  C   UNL A   1      38.680  33.877  39.112  1.00  0.00     0.055 A 
ATOM     84  C   UNL A   1      39.968  35.703  38.214  1.00  0.00     0.041 A 
ATOM     85  F   UNL A   1      40.974  35.481  36.105  1.00  0.00    -0.206 F 
ATOM     86  C   UNL A   1      39.192  35.173  39.240  1.00  0.00     0.022 A 
BRANCH  83  87
ATOM     87  S   UNL A   1      37.666  33.165  40.437  1.00  0.00     0.124 S 
ATOM     88  O   UNL A   1      37.575  34.278  41.376  1.00  0.00    -0.237 OA
ATOM     89  O   UNL A   1      36.438  32.822  39.728  1.00  0.00    -0.237 OA
ATOM     90  O   UNL A   1      38.456  32.024  40.895  1.00  0.00    -0.744 OA
ENDBRANCH  83  87
ENDBRANCH  56  80
BRANCH  68  91
ATOM     91  C   UNL A   1      44.249  28.606  35.472  1.00  0.00     0.023 A 
ATOM     92  C   UNL A   1      44.018  27.563  36.383  1.00  0.00     0.031 A 
ATOM     93  C   UNL A   1      45.556  29.103  35.335  1.00  0.00     0.131 A 
ATOM     94  C   UNL A   1      45.082  27.061  37.147  1.00  0.00     0.055 A 
ATOM     95  C   UNL A   1      46.614  28.588  36.082  1.00  0.00     0.041 A 
ATOM     96  F   UNL A   1      45.817  30.106  34.480  1.00  0.00    -0.206 F 
ATOM     97  C   UNL A   1      46.379  27.565  36.999  1.00  0.00     0.022 A 
BRANCH  94  98
ATOM     98  S   UNL A   1      44.747  25.763  38.369  1.00  0.00     0.124 S 
ATOM     99  O   UNL A   1      46.077  25.208  38.597  1.00  0.00    -0.237 OA
ATOM    100  O   UNL A   1      44.172  26.518  39.478  1.00  0.00    -0.237 OA
ATOM    101  O   UNL A   1      43.815  24.874  37.679  1.00  0.00    -0.744 OA
ENDBRANCH  94  98
ENDBRANCH  68  91
ENDBRANCH  42  43
ENDBRANCH  34  37
ENDBRANCH  32  33
ENDBRANCH   1  32
TORSDOF 18
ENDMDL
MODEL 2
REMARK VINA RESULT:     -12.9      3.625      5.398
REMARK SMILES Cc1ccnc(C(=O)c2[nH]c3ccc(OC(F)(F)F)cc3c2CC(=O)NCCCNC(=O)c2ccc(-c3c4nc(c(-c5cc(S(=O)(=O)[O-])ccc5F)c5ccc([nH]5)c(-c5cc(S(=O)(=O)[O-])ccc5F)c5nc(c(-c6cc(S(=O)(=O)[O-])ccc6F)c6ccc3[nH]6)C=C5)C=C4)cc2)c1
REMARK SMILES IDX 28 1 27 2 26 3 24 4 25 5 23 7 22 8 9 9 10 10 11 11 21 13
REMARK SMILES IDX 12 14 20 15 13 16 14 17 7 18 8 19 6 20 1 21 2 22 3 23 96 24
REMARK SMILES IDX 4 25 5 26 15 27 16 28 17 29 18 30 19 31 29 32 30 33 31 34
REMARK SMILES IDX 32 36 33 37 34 38 95 39 35 40 94 41 36 42 37 43 38 44 88 45
REMARK SMILES IDX 39 46 93 47 87 48 89 49 40 50 92 51 86 52 85 53 41 55 73 56
REMARK SMILES IDX 53 57 72 58 54 59 57 60 71 61 90 62 55 63 56 64 70 66 91 67
REMARK SMILES IDX 58 68 42 69 43 70 51 71 44 72 50 73 52 74 49 75 45 76 46 77
REMARK SMILES IDX 47 78 48 79 74 80 75 81 83 82 76 83 82 84 84 85 81 86 77 87
REMARK SMILES IDX 78 88 79 89 80 90 59 91 60 92 68 93 61 94 67 95 69 96 66 97
REMARK SMILES IDX 62 98 63 99 64 100 65 101
REMARK H PARENT 26 6 10 12 30 35 89 54 57 65
REMARK Flexibility Score: inf
ROOT
ATOM      1  C   UNL A   1      32.858  27.824  26.025  1.00  0.00     0.042 C 
ENDROOT
BRANCH   1   2
ATOM      2  C   UNL A   1      33.428  26.461  25.640  1.00  0.00     0.117 C 
BRANCH   2   3
ATOM      3  N   UNL A   1      32.769  25.343  26.288  1.00  0.00    -0.356 N 
ATOM      4  C   UNL A   1      32.970  24.001  26.130  1.00  0.00     0.224 C 
ATOM      5  O   UNL A   1      32.438  23.234  26.937  1.00  0.00    -0.275 OA
ATOM      6  H   UNL A   1      32.072  25.588  26.940  1.00  0.00     0.163 HD
BRANCH   4   7
ATOM      7  C   UNL A   1      33.921  23.472  25.070  1.00  0.00     0.138 C 
BRANCH   7   8
ATOM      8  C   UNL A   1      33.263  22.844  23.874  1.00  0.00    -0.002 A 
ATOM      9  C   UNL A   1      32.802  23.480  22.725  1.00  0.00     0.093 A 
ATOM     10  N   UNL A   1      32.343  22.505  21.869  1.00  0.00    -0.352 N 
ATOM     11  C   UNL A   1      32.383  21.273  22.472  1.00  0.00     0.046 A 
ATOM     12  H   UNL A   1      32.028  22.668  20.951  1.00  0.00     0.167 HD
ATOM     13  C   UNL A   1      32.941  21.451  23.734  1.00  0.00     0.008 A 
ATOM     14  C   UNL A   1      31.989  20.020  21.990  1.00  0.00     0.030 A 
ATOM     15  C   UNL A   1      33.096  20.317  24.558  1.00  0.00     0.057 A 
ATOM     16  C   UNL A   1      32.162  18.911  22.828  1.00  0.00     0.049 A 
ATOM     17  C   UNL A   1      32.707  19.049  24.103  1.00  0.00     0.130 A 
BRANCH   9  18
ATOM     18  C   UNL A   1      32.840  24.889  22.367  1.00  0.00     0.227 C 
ATOM     19  O   UNL A   1      33.785  25.357  21.742  1.00  0.00    -0.285 OA
BRANCH  18  20
ATOM     20  C   UNL A   1      31.666  25.757  22.758  1.00  0.00     0.113 A 
ATOM     21  C   UNL A   1      30.256  29.249  22.280  1.00  0.00     0.044 C 
ATOM     22  C   UNL A   1      30.437  27.831  22.729  1.00  0.00    -0.047 A 
ATOM     23  C   UNL A   1      29.497  27.234  23.570  1.00  0.00     0.023 A 
ATOM     24  C   UNL A   1      31.531  27.071  22.303  1.00  0.00     0.036 A 
ATOM     25  C   UNL A   1      29.697  25.921  23.963  1.00  0.00     0.112 A 
ATOM     26  N   UNL A   1      30.755  25.179  23.584  1.00  0.00    -0.253 NA
ENDBRANCH  18  20
ENDBRANCH   9  18
BRANCH  17  27
ATOM     27  O   UNL A   1      32.923  18.047  25.006  1.00  0.00    -0.406 OA
BRANCH  27  28
ATOM     28  C   UNL A   1      33.847  17.028  24.660  1.00  0.00     0.573 C 
ATOM     29  F   UNL A   1      34.344  16.429  25.763  1.00  0.00    -0.132 F 
ATOM     30  F   UNL A   1      33.281  16.107  23.854  1.00  0.00    -0.132 F 
ATOM     31  F   UNL A   1      34.878  17.595  23.994  1.00  0.00    -0.132 F 
ENDBRANCH  27  28
ENDBRANCH  17  27
ENDBRANCH   7   8
ENDBRANCH   4   7
ENDBRANCH   2   3
ENDBRANCH   1   2
BRANCH   1  32
ATOM     32  C   UNL A   1      33.579  29.022  25.413  1.00  0.00     0.118 C 
BRANCH  32  33
ATOM     33  N   UNL A   1      33.014  30.293  25.841  1.00  0.00    -0.352 N 
ATOM     34  C   UNL A   1      33.360  31.123  26.878  1.00  0.00     0.251 C 
ATOM     35  H   UNL A   1      32.257  30.609  25.297  1.00  0.00     0.163 HD
ATOM     36  O   UNL A   1      32.610  32.056  27.160  1.00  0.00    -0.269 OA
BRANCH  34  37
ATOM     37  C   UNL A   1      34.600  30.915  27.665  1.00  0.00     0.039 A 
ATOM     38  C   UNL A   1      34.756  29.705  28.353  1.00  0.00     0.014 A 
ATOM     39  C   UNL A   1      35.566  31.917  27.805  1.00  0.00     0.014 A 
ATOM     40  C   UNL A   1      35.895  29.479  29.133  1.00  0.00     0.010 A 
ATOM     41  C   UNL A   1      36.721  31.676  28.553  1.00  0.00     0.010 A 
ATOM     42  C   UNL A   1      36.895  30.456  29.225  1.00  0.00    -0.014 A 
BRANCH  42  43
ATOM     43  C   UNL A   1      38.120  30.234  30.034  1.00  0.00     0.031 A 
ATOM     44  C   UNL A   1      39.209  29.334  29.522  1.00  0.00     0.074 A 
ATOM     45  C   UNL A   1      38.224  30.782  31.258  1.00  0.00     0.049 A 
ATOM     46  N   UNL A   1      40.274  28.890  30.139  1.00  0.00    -0.248 NA
ATOM     47  C   UNL A   1      39.068  28.858  28.138  1.00  0.00     0.031 C 
ATOM     48  C   UNL A   1      37.230  31.656  31.886  1.00  0.00     0.029 A 
ATOM     49  N   UNL A   1      39.209  30.662  32.205  1.00  0.00    -0.354 N 
ATOM     50  C   UNL A   1      40.911  28.047  29.237  1.00  0.00     0.074 A 
ATOM     51  C   UNL A   1      40.112  28.048  28.026  1.00  0.00     0.031 C 
ATOM     52  C   UNL A   1      37.651  31.981  33.120  1.00  0.00     0.029 A 
ATOM     53  C   UNL A   1      38.927  31.320  33.378  1.00  0.00     0.049 A 
ATOM     54  H   UNL A   1      40.039  30.154  32.059  1.00  0.00     0.167 HD
ATOM     55  C   UNL A   1      42.052  27.333  29.399  1.00  0.00     0.034 A 
ATOM     56  C   UNL A   1      39.602  31.361  34.541  1.00  0.00     0.034 A 
ATOM     57  C   UNL A   1      42.866  27.355  30.587  1.00  0.00     0.049 A 
ATOM     58  C   UNL A   1      40.884  30.595  34.686  1.00  0.00     0.074 A 
ATOM     59  C   UNL A   1      44.067  26.708  30.827  1.00  0.00     0.029 A 
ATOM     60  N   UNL A   1      42.564  28.067  31.738  1.00  0.00    -0.354 N 
ATOM     61  N   UNL A   1      41.462  29.789  33.831  1.00  0.00    -0.248 NA
ATOM     62  C   UNL A   1      41.598  30.743  35.962  1.00  0.00     0.031 C 
ATOM     63  C   UNL A   1      44.476  27.008  32.135  1.00  0.00     0.029 A 
ATOM     64  C   UNL A   1      43.546  27.866  32.696  1.00  0.00     0.049 A 
ATOM     65  H   UNL A   1      41.768  28.634  31.858  1.00  0.00     0.167 HD
ATOM     66  C   UNL A   1      42.608  29.326  34.465  1.00  0.00     0.074 A 
ATOM     67  C   UNL A   1      42.643  29.946  35.775  1.00  0.00     0.031 C 
ATOM     68  C   UNL A   1      43.551  28.468  34.004  1.00  0.00     0.034 A 
BRANCH  55  69
ATOM     69  C   UNL A   1      42.447  26.424  28.270  1.00  0.00     0.023 A 
ATOM     70  C   UNL A   1      41.935  25.121  28.157  1.00  0.00     0.031 A 
ATOM     71  C   UNL A   1      43.388  26.858  27.320  1.00  0.00     0.131 A 
ATOM     72  C   UNL A   1      42.409  24.275  27.145  1.00  0.00     0.055 A 
ATOM     73  C   UNL A   1      43.820  26.027  26.286  1.00  0.00     0.041 A 
ATOM     74  F   UNL A   1      43.921  28.087  27.400  1.00  0.00    -0.206 F 
ATOM     75  C   UNL A   1      43.338  24.723  26.200  1.00  0.00     0.022 A 
BRANCH  72  76
ATOM     76  S   UNL A   1      41.872  22.542  27.137  1.00  0.00     0.124 S 
ATOM     77  O   UNL A   1      40.423  22.680  27.254  1.00  0.00    -0.237 OA
ATOM     78  O   UNL A   1      42.369  22.065  25.851  1.00  0.00    -0.237 OA
ATOM     79  O   UNL A   1      42.534  21.974  28.310  1.00  0.00    -0.744 OA
ENDBRANCH  72  76
ENDBRANCH  55  69
BRANCH  56  80
ATOM     80  C   UNL A   1      39.038  32.105  35.692  1.00  0.00     0.023 A 
ATOM     81  C   UNL A   1      38.326  31.446  36.703  1.00  0.00     0.031 A 
ATOM     82  C   UNL A   1      39.213  33.495  35.785  1.00  0.00     0.131 A 
ATOM     83  C   UNL A   1      37.795  32.188  37.769  1.00  0.00     0.055 A 
ATOM     84  C   UNL A   1      38.691  34.227  36.852  1.00  0.00     0.041 A 
ATOM     85  F   UNL A   1      39.903  34.156  34.843  1.00  0.00    -0.206 F 
ATOM     86  C   UNL A   1      37.975  33.573  37.850  1.00  0.00     0.022 A 
BRANCH  83  87
ATOM     87  S   UNL A   1      36.864  31.316  39.058  1.00  0.00     0.124 S 
ATOM     88  O   UNL A   1      36.741  29.979  38.487  1.00  0.00    -0.237 OA
ATOM     89  O   UNL A   1      37.750  31.443  40.210  1.00  0.00    -0.237 OA
ATOM     90  O   UNL A   1      35.617  32.073  39.150  1.00  0.00    -0.744 OA
ENDBRANCH  83  87
ENDBRANCH  56  80
BRANCH  68  91
ATOM     91  C   UNL A   1      44.696  28.171  34.926  1.00  0.00     0.023 A 
ATOM     92  C   UNL A   1      44.555  27.267  35.991  1.00  0.00     0.031 A 
ATOM     93  C   UNL A   1      45.930  28.819  34.751  1.00  0.00     0.131 A 
ATOM     94  C   UNL A   1      45.631  27.051  36.863  1.00  0.00     0.055 A 
ATOM     95  C   UNL A   1      47.003  28.585  35.610  1.00  0.00     0.041 A 
ATOM     96  F   UNL A   1      46.103  29.696  33.749  1.00  0.00    -0.206 F 
ATOM     97  C   UNL A   1      46.856  27.701  36.676  1.00  0.00     0.022 A 
BRANCH  94  98
ATOM     98  S   UNL A   1      45.404  25.934  38.274  1.00  0.00     0.124 S 
ATOM     99  O   UNL A   1      44.342  26.600  39.023  1.00  0.00    -0.237 OA
ATOM    100  O   UNL A   1      45.037  24.679  37.625  1.00  0.00    -0.237 OA
ATOM    101  O   UNL A   1      46.712  25.932  38.925  1.00  0.00    -0.744 OA
ENDBRANCH  94  98
ENDBRANCH  68  91
ENDBRANCH  42  43
ENDBRANCH  34  37
ENDBRANCH  32  33
ENDBRANCH   1  32
TORSDOF 18
ENDMDL
MODEL 3
REMARK VINA RESULT:     -12.8      5.962     11.978
REMARK SMILES Cc1ccnc(C(=O)c2[nH]c3ccc(OC(F)(F)F)cc3c2CC(=O)NCCCNC(=O)c2ccc(-c3c4nc(c(-c5cc(S(=O)(=O)[O-])ccc5F)c5ccc([nH]5)c(-c5cc(S(=O)(=O)[O-])ccc5F)c5nc(c(-c6cc(S(=O)(=O)[O-])ccc6F)c6ccc3[nH]6)C=C5)C=C4)cc2)c1
REMARK SMILES IDX 28 1 27 2 26 3 24 4 25 5 23 7 22 8 9 9 10 10 11 11 21 13
REMARK SMILES IDX 12 14 20 15 13 16 14 17 7 18 8 19 6 20 1 21 2 22 3 23 96 24
REMARK SMILES IDX 4 25 5 26 15 27 16 28 17 29 18 30 19 31 29 32 30 33 31 34
REMARK SMILES IDX 32 36 33 37 34 38 95 39 35 40 94 41 36 42 37 43 38 44 88 45
REMARK SMILES IDX 39 46 93 47 87 48 89 49 40 50 92 51 86 52 85 53 41 55 73 56
REMARK SMILES IDX 53 57 72 58 54 59 57 60 71 61 90 62 55 63 56 64 70 66 91 67
REMARK SMILES IDX 58 68 42 69 43 70 51 71 44 72 50 73 52 74 49 75 45 76 46 77
REMARK SMILES IDX 47 78 48 79 74 80 75 81 83 82 76 83 82 84 84 85 81 86 77 87
REMARK SMILES IDX 78 88 79 89 80 90 59 91 60 92 68 93 61 94 67 95 69 96 66 97
REMARK SMILES IDX 62 98 63 99 64 100 65 101
REMARK H PARENT 26 6 10 12 30 35 89 54 57 65
REMARK Flexibility Score: inf
ROOT
ATOM      1  C   UNL A   1      37.974  19.670  24.950  1.00  0.00     0.042 C 
ENDROOT
BRANCH   1   2
ATOM      2  C   UNL A   1      36.684  20.486  24.998  1.00  0.00     0.117 C 
BRANCH   2   3
ATOM      3  N   UNL A   1      36.881  21.909  24.802  1.00  0.00    -0.356 N 
ATOM      4  C   UNL A   1      36.006  22.943  24.977  1.00  0.00     0.224 C 
ATOM      5  O   UNL A   1      36.451  24.093  24.948  1.00  0.00    -0.275 OA
ATOM      6  H   UNL A   1      37.781  22.170  24.496  1.00  0.00     0.163 HD
BRANCH   4   7
ATOM      7  C   UNL A   1      34.549  22.685  25.322  1.00  0.00     0.138 C 
BRANCH   7   8
ATOM      8  C   UNL A   1      33.682  22.262  24.170  1.00  0.00    -0.002 A 
ATOM      9  C   UNL A   1      33.108  23.072  23.195  1.00  0.00     0.093 A 
ATOM     10  N   UNL A   1      32.460  22.248  22.303  1.00  0.00    -0.352 N 
ATOM     11  C   UNL A   1      32.496  20.945  22.732  1.00  0.00     0.046 A 
ATOM     12  H   UNL A   1      32.029  22.551  21.471  1.00  0.00     0.167 HD
ATOM     13  C   UNL A   1      33.242  20.920  23.906  1.00  0.00     0.008 A 
ATOM     14  C   UNL A   1      31.947  19.793  22.161  1.00  0.00     0.030 A 
ATOM     15  C   UNL A   1      33.432  19.678  24.547  1.00  0.00     0.057 A 
ATOM     16  C   UNL A   1      32.158  18.572  22.817  1.00  0.00     0.049 A 
ATOM     17  C   UNL A   1      32.890  18.506  24.000  1.00  0.00     0.130 A 
BRANCH   9  18
ATOM     18  C   UNL A   1      33.196  24.512  23.017  1.00  0.00     0.227 C 
ATOM     19  O   UNL A   1      34.197  25.028  22.530  1.00  0.00    -0.285 OA
BRANCH  18  20
ATOM     20  C   UNL A   1      32.009  25.356  23.418  1.00  0.00     0.113 A 
ATOM     21  C   UNL A   1      30.955  28.970  23.912  1.00  0.00     0.044 C 
ATOM     22  C   UNL A   1      30.939  27.472  23.854  1.00  0.00    -0.047 A 
ATOM     23  C   UNL A   1      29.784  26.768  24.193  1.00  0.00     0.023 A 
ATOM     24  C   UNL A   1      32.065  26.752  23.442  1.00  0.00     0.036 A 
ATOM     25  C   UNL A   1      29.806  25.385  24.126  1.00  0.00     0.112 A 
ATOM     26  N   UNL A   1      30.886  24.670  23.756  1.00  0.00    -0.253 NA
ENDBRANCH  18  20
ENDBRANCH   9  18
BRANCH  17  27
ATOM     27  O   UNL A   1      33.160  17.381  24.726  1.00  0.00    -0.406 OA
BRANCH  27  28
ATOM     28  C   UNL A   1      34.311  16.629  24.381  1.00  0.00     0.573 C 
ATOM     29  F   UNL A   1      34.247  16.204  23.101  1.00  0.00    -0.132 F 
ATOM     30  F   UNL A   1      35.438  17.345  24.569  1.00  0.00    -0.132 F 
ATOM     31  F   UNL A   1      34.365  15.538  25.179  1.00  0.00    -0.132 F 
ENDBRANCH  27  28
ENDBRANCH  17  27
ENDBRANCH   7   8
ENDBRANCH   4   7
ENDBRANCH   2   3
ENDBRANCH   1   2
BRANCH   1  32
ATOM     32  C   UNL A   1      39.083  20.157  25.880  1.00  0.00     0.118 C 
BRANCH  32  33
ATOM     33  N   UNL A   1      40.194  19.222  25.962  1.00  0.00    -0.352 N 
ATOM     34  C   UNL A   1      41.537  19.441  26.143  1.00  0.00     0.251 C 
ATOM     35  H   UNL A   1      39.940  18.275  25.873  1.00  0.00     0.163 HD
ATOM     36  O   UNL A   1      42.312  18.499  25.988  1.00  0.00    -0.269 OA
BRANCH  34  37
ATOM     37  C   UNL A   1      42.070  20.777  26.507  1.00  0.00     0.039 A 
ATOM     38  C   UNL A   1      42.337  21.689  25.478  1.00  0.00     0.014 A 
ATOM     39  C   UNL A   1      42.389  21.113  27.826  1.00  0.00     0.014 A 
ATOM     40  C   UNL A   1      42.869  22.948  25.772  1.00  0.00     0.010 A 
ATOM     41  C   UNL A   1      42.885  22.385  28.123  1.00  0.00     0.010 A 
ATOM     42  C   UNL A   1      43.131  23.312  27.099  1.00  0.00    -0.014 A 
BRANCH  42  43
ATOM     43  C   UNL A   1      43.682  24.649  27.438  1.00  0.00     0.031 A 
ATOM     44  C   UNL A   1      42.777  25.727  27.966  1.00  0.00     0.074 A 
ATOM     45  C   UNL A   1      44.980  24.918  27.207  1.00  0.00     0.049 A 
ATOM     46  N   UNL A   1      43.030  26.994  28.169  1.00  0.00    -0.248 NA
ATOM     47  C   UNL A   1      41.400  25.325  28.287  1.00  0.00     0.031 C 
ATOM     48  C   UNL A   1      45.963  23.971  26.676  1.00  0.00     0.029 A 
ATOM     49  N   UNL A   1      45.689  26.082  27.366  1.00  0.00    -0.354 N 
ATOM     50  C   UNL A   1      41.836  27.555  28.602  1.00  0.00     0.074 A 
ATOM     51  C   UNL A   1      40.858  26.483  28.636  1.00  0.00     0.031 C 
ATOM     52  C   UNL A   1      47.144  24.597  26.541  1.00  0.00     0.029 A 
ATOM     53  C   UNL A   1      46.995  25.990  26.950  1.00  0.00     0.049 A 
ATOM     54  H   UNL A   1      45.300  26.903  27.744  1.00  0.00     0.167 HD
ATOM     55  C   UNL A   1      41.571  28.842  28.936  1.00  0.00     0.034 A 
ATOM     56  C   UNL A   1      47.955  26.930  26.875  1.00  0.00     0.034 A 
ATOM     57  C   UNL A   1      42.547  29.902  28.936  1.00  0.00     0.049 A 
ATOM     58  C   UNL A   1      47.653  28.340  27.287  1.00  0.00     0.074 A 
ATOM     59  C   UNL A   1      42.388  31.226  29.309  1.00  0.00     0.029 A 
ATOM     60  N   UNL A   1      43.869  29.757  28.544  1.00  0.00    -0.354 N 
ATOM     61  N   UNL A   1      46.514  28.857  27.676  1.00  0.00    -0.248 NA
ATOM     62  C   UNL A   1      48.770  29.294  27.241  1.00  0.00     0.031 C 
ATOM     63  C   UNL A   1      43.609  31.888  29.116  1.00  0.00     0.029 A 
ATOM     64  C   UNL A   1      44.535  30.968  28.654  1.00  0.00     0.049 A 
ATOM     65  H   UNL A   1      44.278  28.916  28.234  1.00  0.00     0.167 HD
ATOM     66  C   UNL A   1      46.774  30.200  27.918  1.00  0.00     0.074 A 
ATOM     67  C   UNL A   1      48.179  30.415  27.634  1.00  0.00     0.031 C 
ATOM     68  C   UNL A   1      45.926  31.170  28.341  1.00  0.00     0.034 A 
BRANCH  55  69
ATOM     69  C   UNL A   1      40.146  29.173  29.277  1.00  0.00     0.023 A 
ATOM     70  C   UNL A   1      39.699  29.227  30.607  1.00  0.00     0.031 A 
ATOM     71  C   UNL A   1      39.212  29.389  28.248  1.00  0.00     0.131 A 
ATOM     72  C   UNL A   1      38.339  29.440  30.874  1.00  0.00     0.055 A 
ATOM     73  C   UNL A   1      37.869  29.648  28.522  1.00  0.00     0.041 A 
ATOM     74  F   UNL A   1      39.589  29.324  26.961  1.00  0.00    -0.206 F 
ATOM     75  C   UNL A   1      37.423  29.665  29.841  1.00  0.00     0.022 A 
BRANCH  72  76
ATOM     76  S   UNL A   1      37.759  29.319  32.589  1.00  0.00     0.124 S 
ATOM     77  O   UNL A   1      36.442  29.942  32.501  1.00  0.00    -0.237 OA
ATOM     78  O   UNL A   1      37.773  27.880  32.825  1.00  0.00    -0.237 OA
ATOM     79  O   UNL A   1      38.753  30.083  33.341  1.00  0.00    -0.744 OA
ENDBRANCH  72  76
ENDBRANCH  55  69
BRANCH  56  80
ATOM     80  C   UNL A   1      49.284  26.579  26.319  1.00  0.00     0.023 A 
ATOM     81  C   UNL A   1      49.675  27.014  25.045  1.00  0.00     0.031 A 
ATOM     82  C   UNL A   1      50.177  25.798  27.070  1.00  0.00     0.131 A 
ATOM     83  C   UNL A   1      50.935  26.649  24.549  1.00  0.00     0.055 A 
ATOM     84  C   UNL A   1      51.433  25.446  26.575  1.00  0.00     0.041 A 
ATOM     85  F   UNL A   1      49.841  25.377  28.299  1.00  0.00    -0.206 F 
ATOM     86  C   UNL A   1      51.817  25.869  25.306  1.00  0.00     0.022 A 
BRANCH  83  87
ATOM     87  S   UNL A   1      51.414  27.211  22.892  1.00  0.00     0.124 S 
ATOM     88  O   UNL A   1      50.281  26.770  22.086  1.00  0.00    -0.237 OA
ATOM     89  O   UNL A   1      51.542  28.652  23.086  1.00  0.00    -0.237 OA
ATOM     90  O   UNL A   1      52.670  26.507  22.643  1.00  0.00    -0.744 OA
ENDBRANCH  83  87
ENDBRANCH  56  80
BRANCH  68  91
ATOM     91  C   UNL A   1      46.512  32.538  28.530  1.00  0.00     0.023 A 
ATOM     92  C   UNL A   1      46.724  33.394  27.438  1.00  0.00     0.031 A 
ATOM     93  C   UNL A   1      46.885  32.976  29.811  1.00  0.00     0.131 A 
ATOM     94  C   UNL A   1      47.321  34.646  27.644  1.00  0.00     0.055 A 
ATOM     95  C   UNL A   1      47.460  34.230  30.014  1.00  0.00     0.041 A 
ATOM     96  F   UNL A   1      46.707  32.183  30.881  1.00  0.00    -0.206 F 
ATOM     97  C   UNL A   1      47.686  35.071  28.927  1.00  0.00     0.022 A 
BRANCH  94  98
ATOM     98  S   UNL A   1      47.651  35.706  26.210  1.00  0.00     0.124 S 
ATOM     99  O   UNL A   1      48.963  36.257  26.533  1.00  0.00    -0.237 OA
ATOM    100  O   UNL A   1      47.612  34.757  25.102  1.00  0.00    -0.237 OA
ATOM    101  O   UNL A   1      46.552  36.670  26.235  1.00  0.00    -0.744 OA
ENDBRANCH  94  98
ENDBRANCH  68  91
ENDBRANCH  42  43
ENDBRANCH  34  37
ENDBRANCH  32  33
ENDBRANCH   1  32
TORSDOF 18
ENDMDL
