MODEL 1
REMARK VINA RESULT:     -12.9      0.000      0.000
REMARK SMILES Cc1cc(Cl)cc2c1O[C@H](C(F)(F)F)C(C(=O)NCCCNC(=O)c1ccc(-c3c4nc(c(-c5cc(S(=O)(=O)[O-])ccc5F)c5ccc([nH]5)c(-c5cc(S(=O)(=O)[O-])ccc5F)c5nc(c(-c6cc(S(=O)(=O)[O-])ccc6F)c6ccc3[nH]6)C=C5)C=C4)cc1)=C2
REMARK SMILES IDX 21 1 20 2 19 3 18 4 16 5 17 6 15 8 1 9 2 10 3 11 8 12 4 13
REMARK SMILES IDX 7 14 9 15 5 16 6 17 88 18 10 19 11 20 12 21 13 22 14 23
REMARK SMILES IDX 22 24 23 25 24 27 25 28 26 29 87 30 27 31 86 32 28 33 29 34
REMARK SMILES IDX 30 35 80 36 31 37 85 38 79 39 81 40 32 41 84 42 78 43 77 44
REMARK SMILES IDX 33 46 65 47 45 48 64 49 46 50 49 51 63 52 82 53 47 54 48 55
REMARK SMILES IDX 62 57 83 58 50 59 34 60 35 61 43 62 36 63 42 64 44 65 41 66
REMARK SMILES IDX 37 67 38 68 39 69 40 70 66 71 67 72 75 73 68 74 74 75 76 76
REMARK SMILES IDX 73 77 69 78 70 79 71 80 72 81 51 82 52 83 60 84 53 85 59 86
REMARK SMILES IDX 61 87 58 88 54 89 55 90 56 91 57 92
REMARK H PARENT 18 7 22 26 81 45 49 56
REMARK Flexibility Score: inf
ROOT
ATOM      1  C   UNL A   1      33.282  29.028  25.088  1.00  0.00     0.118 C 
ENDROOT
BRANCH   1   2
ATOM      2  C   UNL A   1      33.191  28.940  23.569  1.00  0.00     0.042 C 
BRANCH   2   3
ATOM      3  C   UNL A   1      32.054  28.038  23.117  1.00  0.00     0.118 C 
BRANCH   3   4
ATOM      4  N   UNL A   1      32.457  27.151  22.034  1.00  0.00    -0.352 N 
ATOM      5  C   UNL A   1      32.939  25.893  21.911  1.00  0.00     0.251 C 
ATOM      6  O   UNL A   1      33.135  25.512  20.753  1.00  0.00    -0.270 OA
ATOM      7  H   UNL A   1      32.351  27.583  21.156  1.00  0.00     0.163 HD
BRANCH   5   8
ATOM      8  C   UNL A   1      33.228  24.972  23.048  1.00  0.00     0.067 C 
ATOM      9  C   UNL A   1      33.369  22.471  27.508  1.00  0.00     0.048 C 
ATOM     10  C   UNL A   1      34.231  22.481  26.277  1.00  0.00    -0.007 A 
ATOM     11  C   UNL A   1      35.329  21.622  26.162  1.00  0.00     0.027 A 
ATOM     12  C   UNL A   1      33.945  23.354  25.219  1.00  0.00     0.131 A 
ATOM     13  C   UNL A   1      36.117  21.646  25.010  1.00  0.00     0.042 A 
ATOM     14  C   UNL A   1      34.730  23.378  24.062  1.00  0.00     0.019 A 
ATOM     15  O   UNL A   1      32.895  24.210  25.394  1.00  0.00    -0.475 OA
ATOM     16  Cl  UNL A   1      37.468  20.586  24.885  1.00  0.00    -0.084 Cl
ATOM     17  C   UNL A   1      35.826  22.517  23.960  1.00  0.00     0.032 A 
ATOM     18  C   UNL A   1      34.404  24.319  22.996  1.00  0.00     0.025 C 
ATOM     19  C   UNL A   1      32.282  24.729  24.187  1.00  0.00     0.314 C 
BRANCH  19  20
ATOM     20  C   UNL A   1      31.097  23.826  23.794  1.00  0.00     0.429 C 
ATOM     21  F   UNL A   1      30.092  24.566  23.262  1.00  0.00    -0.167 F 
ATOM     22  F   UNL A   1      31.429  22.901  22.862  1.00  0.00    -0.167 F 
ATOM     23  F   UNL A   1      30.586  23.149  24.848  1.00  0.00    -0.167 F 
ENDBRANCH  19  20
ENDBRANCH   5   8
ENDBRANCH   3   4
ENDBRANCH   2   3
ENDBRANCH   1   2
BRANCH   1  24
ATOM     24  N   UNL A   1      32.713  30.276  25.590  1.00  0.00    -0.352 N 
ATOM     25  C   UNL A   1      33.008  30.988  26.724  1.00  0.00     0.251 C 
ATOM     26  H   UNL A   1      32.007  30.666  25.025  1.00  0.00     0.163 HD
ATOM     27  O   UNL A   1      32.214  31.838  27.126  1.00  0.00    -0.269 OA
BRANCH  25  28
ATOM     28  C   UNL A   1      34.266  30.733  27.450  1.00  0.00     0.039 A 
ATOM     29  C   UNL A   1      35.172  31.777  27.647  1.00  0.00     0.014 A 
ATOM     30  C   UNL A   1      34.560  29.449  27.916  1.00  0.00     0.014 A 
ATOM     31  C   UNL A   1      36.344  31.543  28.368  1.00  0.00     0.010 A 
ATOM     32  C   UNL A   1      35.673  29.242  28.717  1.00  0.00     0.010 A 
ATOM     33  C   UNL A   1      36.585  30.282  28.938  1.00  0.00    -0.014 A 
BRANCH  33  34
ATOM     34  C   UNL A   1      37.804  30.012  29.737  1.00  0.00     0.031 A 
ATOM     35  C   UNL A   1      38.894  29.149  29.161  1.00  0.00     0.074 A 
ATOM     36  C   UNL A   1      37.902  30.498  30.990  1.00  0.00     0.049 A 
ATOM     37  N   UNL A   1      39.993  28.724  29.725  1.00  0.00    -0.248 NA
ATOM     38  C   UNL A   1      38.710  28.676  27.777  1.00  0.00     0.031 C 
ATOM     39  C   UNL A   1      36.889  31.319  31.660  1.00  0.00     0.029 A 
ATOM     40  N   UNL A   1      38.897  30.375  31.925  1.00  0.00    -0.354 N 
ATOM     41  C   UNL A   1      40.623  27.928  28.774  1.00  0.00     0.074 A 
ATOM     42  C   UNL A   1      39.753  27.877  27.620  1.00  0.00     0.031 C 
ATOM     43  C   UNL A   1      37.334  31.658  32.880  1.00  0.00     0.029 A 
ATOM     44  C   UNL A   1      38.638  31.041  33.101  1.00  0.00     0.049 A 
ATOM     45  H   UNL A   1      39.721  29.859  31.769  1.00  0.00     0.167 HD
ATOM     46  C   UNL A   1      41.830  27.322  28.847  1.00  0.00     0.034 A 
ATOM     47  C   UNL A   1      39.367  31.135  34.230  1.00  0.00     0.034 A 
ATOM     48  C   UNL A   1      42.699  27.412  29.991  1.00  0.00     0.049 A 
ATOM     49  C   UNL A   1      40.696  30.431  34.295  1.00  0.00     0.074 A 
ATOM     50  C   UNL A   1      43.966  26.882  30.150  1.00  0.00     0.029 A 
ATOM     51  N   UNL A   1      42.393  28.079  31.169  1.00  0.00    -0.354 N 
ATOM     52  N   UNL A   1      41.285  29.700  33.378  1.00  0.00    -0.248 NA
ATOM     53  C   UNL A   1      41.458  30.564  35.543  1.00  0.00     0.031 C 
ATOM     54  C   UNL A   1      44.401  27.175  31.444  1.00  0.00     0.029 A 
ATOM     55  C   UNL A   1      43.435  27.948  32.071  1.00  0.00     0.049 A 
ATOM     56  H   UNL A   1      41.558  28.573  31.338  1.00  0.00     0.167 HD
ATOM     57  C   UNL A   1      42.496  29.299  33.932  1.00  0.00     0.074 A 
ATOM     58  C   UNL A   1      42.559  29.880  35.258  1.00  0.00     0.031 C 
ATOM     59  C   UNL A   1      43.470  28.524  33.392  1.00  0.00     0.034 A 
BRANCH  46  60
ATOM     60  C   UNL A   1      42.281  26.510  27.663  1.00  0.00     0.023 A 
ATOM     61  C   UNL A   1      41.930  25.158  27.523  1.00  0.00     0.031 A 
ATOM     62  C   UNL A   1      43.049  27.104  26.646  1.00  0.00     0.131 A 
ATOM     63  C   UNL A   1      42.379  24.430  26.412  1.00  0.00     0.055 A 
ATOM     64  C   UNL A   1      43.440  26.391  25.510  1.00  0.00     0.041 A 
ATOM     65  F   UNL A   1      43.431  28.388  26.739  1.00  0.00    -0.206 F 
ATOM     66  C   UNL A   1      43.110  25.045  25.391  1.00  0.00     0.022 A 
BRANCH  63  67
ATOM     67  S   UNL A   1      42.057  22.647  26.352  1.00  0.00     0.124 S 
ATOM     68  O   UNL A   1      40.597  22.611  26.398  1.00  0.00    -0.237 OA
ATOM     69  O   UNL A   1      42.666  22.257  25.085  1.00  0.00    -0.237 OA
ATOM     70  O   UNL A   1      42.726  22.138  27.548  1.00  0.00    -0.744 OA
ENDBRANCH  63  67
ENDBRANCH  46  60
BRANCH  47  71
ATOM     71  C   UNL A   1      38.854  31.923  35.386  1.00  0.00     0.023 A 
ATOM     72  C   UNL A   1      38.255  31.287  36.484  1.00  0.00     0.031 A 
ATOM     73  C   UNL A   1      38.961  33.326  35.410  1.00  0.00     0.131 A 
ATOM     74  C   UNL A   1      37.763  32.055  37.552  1.00  0.00     0.055 A 
ATOM     75  C   UNL A   1      38.505  34.081  36.491  1.00  0.00     0.041 A 
ATOM     76  F   UNL A   1      39.534  33.981  34.388  1.00  0.00    -0.206 F 
ATOM     77  C   UNL A   1      37.896  33.445  37.569  1.00  0.00     0.022 A 
BRANCH  74  78
ATOM     78  S   UNL A   1      36.912  31.209  38.911  1.00  0.00     0.124 S 
ATOM     79  O   UNL A   1      35.675  31.974  39.009  1.00  0.00    -0.237 OA
ATOM     80  O   UNL A   1      36.789  29.849  38.395  1.00  0.00    -0.237 OA
ATOM     81  O   UNL A   1      37.833  31.362  40.036  1.00  0.00    -0.744 OA
ENDBRANCH  74  78
ENDBRANCH  47  71
BRANCH  59  82
ATOM     82  C   UNL A   1      44.697  28.272  34.225  1.00  0.00     0.023 A 
ATOM     83  C   UNL A   1      44.797  27.144  35.055  1.00  0.00     0.031 A 
ATOM     84  C   UNL A   1      45.800  29.139  34.141  1.00  0.00     0.131 A 
ATOM     85  C   UNL A   1      45.968  26.925  35.792  1.00  0.00     0.055 A 
ATOM     86  C   UNL A   1      46.982  28.889  34.838  1.00  0.00     0.041 A 
ATOM     87  F   UNL A   1      45.754  30.229  33.357  1.00  0.00    -0.206 F 
ATOM     88  C   UNL A   1      47.069  27.779  35.674  1.00  0.00     0.022 A 
BRANCH  85  89
ATOM     89  S   UNL A   1      46.026  25.521  36.938  1.00  0.00     0.124 S 
ATOM     90  O   UNL A   1      44.614  25.169  37.054  1.00  0.00    -0.237 OA
ATOM     91  O   UNL A   1      46.864  24.564  36.224  1.00  0.00    -0.237 OA
ATOM     92  O   UNL A   1      46.623  26.088  38.145  1.00  0.00    -0.744 OA
ENDBRANCH  85  89
ENDBRANCH  59  82
ENDBRANCH  33  34
ENDBRANCH  25  28
ENDBRANCH   1  24
TORSDOF 14
ENDMDL
MODEL 2
REMARK VINA RESULT:     -12.7      5.225     10.098
REMARK SMILES Cc1cc(Cl)cc2c1O[C@H](C(F)(F)F)C(C(=O)NCCCNC(=O)c1ccc(-c3c4nc(c(-c5cc(S(=O)(=O)[O-])ccc5F)c5ccc([nH]5)c(-c5cc(S(=O)(=O)[O-])ccc5F)c5nc(c(-c6cc(S(=O)(=O)[O-])ccc6F)c6ccc3[nH]6)C=C5)C=C4)cc1)=C2
REMARK SMILES IDX 21 1 20 2 19 3 18 4 16 5 17 6 15 8 1 9 2 10 3 11 8 12 4 13
REMARK SMILES IDX 7 14 9 15 5 16 6 17 88 18 10 19 11 20 12 21 13 22 14 23
REMARK SMILES IDX 22 24 23 25 24 27 25 28 26 29 87 30 27 31 86 32 28 33 29 34
REMARK SMILES IDX 30 35 80 36 31 37 85 38 79 39 81 40 32 41 84 42 78 43 77 44
REMARK SMILES IDX 33 46 65 47 45 48 64 49 46 50 49 51 63 52 82 53 47 54 48 55
REMARK SMILES IDX 62 57 83 58 50 59 34 60 35 61 43 62 36 63 42 64 44 65 41 66
REMARK SMILES IDX 37 67 38 68 39 69 40 70 66 71 67 72 75 73 68 74 74 75 76 76
REMARK SMILES IDX 73 77 69 78 70 79 71 80 72 81 51 82 52 83 60 84 53 85 59 86
REMARK SMILES IDX 61 87 58 88 54 89 55 90 56 91 57 92
REMARK H PARENT 18 7 22 26 81 45 49 56
REMARK Flexibility Score: inf
ROOT
ATOM      1  C   UNL A   1      35.802  22.301  25.794  1.00  0.00     0.118 C 
ENDROOT
BRANCH   1   2
ATOM      2  C   UNL A   1      34.620  21.980  26.700  1.00  0.00     0.042 C 
BRANCH   2   3
ATOM      3  C   UNL A   1      33.367  21.645  25.907  1.00  0.00     0.118 C 
BRANCH   3   4
ATOM      4  N   UNL A   1      32.163  22.163  26.543  1.00  0.00    -0.352 N 
ATOM      5  C   UNL A   1      31.476  23.328  26.563  1.00  0.00     0.251 C 
ATOM      6  O   UNL A   1      30.452  23.327  27.252  1.00  0.00    -0.270 OA
ATOM      7  H   UNL A   1      31.734  21.483  27.109  1.00  0.00     0.163 HD
BRANCH   5   8
ATOM      8  C   UNL A   1      31.865  24.564  25.824  1.00  0.00     0.067 C 
ATOM      9  C   UNL A   1      33.785  28.017  22.575  1.00  0.00     0.048 C 
ATOM     10  C   UNL A   1      33.092  28.093  23.906  1.00  0.00    -0.007 A 
ATOM     11  C   UNL A   1      32.788  29.328  24.489  1.00  0.00     0.027 A 
ATOM     12  C   UNL A   1      32.735  26.922  24.586  1.00  0.00     0.131 A 
ATOM     13  C   UNL A   1      32.144  29.378  25.725  1.00  0.00     0.042 A 
ATOM     14  C   UNL A   1      32.085  26.968  25.825  1.00  0.00     0.019 A 
ATOM     15  O   UNL A   1      33.096  25.739  24.007  1.00  0.00    -0.475 OA
ATOM     16  Cl  UNL A   1      31.780  30.905  26.432  1.00  0.00    -0.084 Cl
ATOM     17  C   UNL A   1      31.790  28.207  26.397  1.00  0.00     0.032 A 
ATOM     18  C   UNL A   1      31.753  25.721  26.504  1.00  0.00     0.025 C 
ATOM     19  C   UNL A   1      32.327  24.572  24.396  1.00  0.00     0.314 C 
BRANCH  19  20
ATOM     20  C   UNL A   1      31.172  24.371  23.396  1.00  0.00     0.429 C 
ATOM     21  F   UNL A   1      30.992  23.052  23.139  1.00  0.00    -0.167 F 
ATOM     22  F   UNL A   1      29.989  24.839  23.860  1.00  0.00    -0.167 F 
ATOM     23  F   UNL A   1      31.395  24.987  22.212  1.00  0.00    -0.167 F 
ENDBRANCH  19  20
ENDBRANCH   5   8
ENDBRANCH   3   4
ENDBRANCH   2   3
ENDBRANCH   1   2
BRANCH   1  24
ATOM     24  N   UNL A   1      36.753  21.193  25.737  1.00  0.00    -0.352 N 
ATOM     25  C   UNL A   1      38.124  21.205  25.738  1.00  0.00     0.251 C 
ATOM     26  H   UNL A   1      36.345  20.298  25.693  1.00  0.00     0.163 HD
ATOM     27  O   UNL A   1      38.737  20.201  25.375  1.00  0.00    -0.269 OA
BRANCH  25  28
ATOM     28  C   UNL A   1      38.853  22.414  26.168  1.00  0.00     0.039 A 
ATOM     29  C   UNL A   1      40.025  22.282  26.915  1.00  0.00     0.014 A 
ATOM     30  C   UNL A   1      38.358  23.681  25.852  1.00  0.00     0.014 A 
ATOM     31  C   UNL A   1      40.733  23.425  27.288  1.00  0.00     0.010 A 
ATOM     32  C   UNL A   1      39.114  24.809  26.135  1.00  0.00     0.010 A 
ATOM     33  C   UNL A   1      40.301  24.694  26.870  1.00  0.00    -0.014 A 
BRANCH  33  34
ATOM     34  C   UNL A   1      41.051  25.924  27.223  1.00  0.00     0.031 A 
ATOM     35  C   UNL A   1      40.400  26.967  28.091  1.00  0.00     0.074 A 
ATOM     36  C   UNL A   1      42.286  26.119  26.721  1.00  0.00     0.049 A 
ATOM     37  N   UNL A   1      40.848  28.144  28.441  1.00  0.00    -0.248 NA
ATOM     38  C   UNL A   1      39.056  26.660  28.609  1.00  0.00     0.031 C 
ATOM     39  C   UNL A   1      42.998  25.187  25.841  1.00  0.00     0.029 A 
ATOM     40  N   UNL A   1      43.162  27.163  26.875  1.00  0.00    -0.354 N 
ATOM     41  C   UNL A   1      39.841  28.719  29.207  1.00  0.00     0.074 A 
ATOM     42  C   UNL A   1      38.733  27.790  29.218  1.00  0.00     0.031 C 
ATOM     43  C   UNL A   1      44.215  25.684  25.569  1.00  0.00     0.029 A 
ATOM     44  C   UNL A   1      44.354  26.987  26.210  1.00  0.00     0.049 A 
ATOM     45  H   UNL A   1      42.957  27.962  27.411  1.00  0.00     0.167 HD
ATOM     46  C   UNL A   1      39.853  29.900  29.866  1.00  0.00     0.034 A 
ATOM     47  C   UNL A   1      45.432  27.792  26.122  1.00  0.00     0.034 A 
ATOM     48  C   UNL A   1      40.978  30.798  29.873  1.00  0.00     0.049 A 
ATOM     49  C   UNL A   1      45.410  29.112  26.846  1.00  0.00     0.074 A 
ATOM     50  C   UNL A   1      41.117  31.995  30.551  1.00  0.00     0.029 A 
ATOM     51  N   UNL A   1      42.160  30.594  29.173  1.00  0.00    -0.354 N 
ATOM     52  N   UNL A   1      44.456  29.631  27.582  1.00  0.00    -0.248 NA
ATOM     53  C   UNL A   1      46.607  29.955  26.726  1.00  0.00     0.031 C 
ATOM     54  C   UNL A   1      42.356  32.545  30.213  1.00  0.00     0.029 A 
ATOM     55  C   UNL A   1      43.020  31.659  29.379  1.00  0.00     0.049 A 
ATOM     56  H   UNL A   1      42.356  29.809  28.613  1.00  0.00     0.167 HD
ATOM     57  C   UNL A   1      44.944  30.854  28.029  1.00  0.00     0.074 A 
ATOM     58  C   UNL A   1      46.282  30.990  27.489  1.00  0.00     0.031 C 
ATOM     59  C   UNL A   1      44.343  31.779  28.819  1.00  0.00     0.034 A 
BRANCH  46  60
ATOM     60  C   UNL A   1      38.616  30.291  30.631  1.00  0.00     0.023 A 
ATOM     61  C   UNL A   1      37.597  31.053  30.039  1.00  0.00     0.031 A 
ATOM     62  C   UNL A   1      38.442  29.870  31.961  1.00  0.00     0.131 A 
ATOM     63  C   UNL A   1      36.465  31.408  30.786  1.00  0.00     0.055 A 
ATOM     64  C   UNL A   1      37.284  30.173  32.681  1.00  0.00     0.041 A 
ATOM     65  F   UNL A   1      39.395  29.157  32.583  1.00  0.00    -0.206 F 
ATOM     66  C   UNL A   1      36.290  30.951  32.095  1.00  0.00     0.022 A 
BRANCH  63  67
ATOM     67  S   UNL A   1      35.255  32.539  30.049  1.00  0.00     0.124 S 
ATOM     68  O   UNL A   1      34.750  31.741  28.934  1.00  0.00    -0.237 OA
ATOM     69  O   UNL A   1      34.321  32.764  31.147  1.00  0.00    -0.237 OA
ATOM     70  O   UNL A   1      36.058  33.698  29.666  1.00  0.00    -0.744 OA
ENDBRANCH  63  67
ENDBRANCH  46  60
BRANCH  47  71
ATOM     71  C   UNL A   1      46.615  27.370  25.321  1.00  0.00     0.023 A 
ATOM     72  C   UNL A   1      46.796  27.828  24.007  1.00  0.00     0.031 A 
ATOM     73  C   UNL A   1      47.584  26.506  25.861  1.00  0.00     0.131 A 
ATOM     74  C   UNL A   1      47.910  27.400  23.266  1.00  0.00     0.055 A 
ATOM     75  C   UNL A   1      48.710  26.115  25.135  1.00  0.00     0.041 A 
ATOM     76  F   UNL A   1      47.461  26.049  27.118  1.00  0.00    -0.206 F 
ATOM     77  C   UNL A   1      48.874  26.558  23.826  1.00  0.00     0.022 A 
BRANCH  74  78
ATOM     78  S   UNL A   1      48.065  27.935  21.541  1.00  0.00     0.124 S 
ATOM     79  O   UNL A   1      49.211  28.833  21.610  1.00  0.00    -0.237 OA
ATOM     80  O   UNL A   1      48.280  26.669  20.847  1.00  0.00    -0.237 OA
ATOM     81  O   UNL A   1      46.781  28.578  21.268  1.00  0.00    -0.744 OA
ENDBRANCH  74  78
ENDBRANCH  47  71
BRANCH  59  82
ATOM     82  C   UNL A   1      45.131  33.014  29.163  1.00  0.00     0.023 A 
ATOM     83  C   UNL A   1      45.010  34.191  28.406  1.00  0.00     0.031 A 
ATOM     84  C   UNL A   1      45.964  33.030  30.295  1.00  0.00     0.131 A 
ATOM     85  C   UNL A   1      45.735  35.332  28.776  1.00  0.00     0.055 A 
ATOM     86  C   UNL A   1      46.644  34.183  30.687  1.00  0.00     0.041 A 
ATOM     87  F   UNL A   1      46.108  31.930  31.052  1.00  0.00    -0.206 F 
ATOM     88  C   UNL A   1      46.536  35.342  29.922  1.00  0.00     0.022 A 
BRANCH  85  89
ATOM     89  S   UNL A   1      45.645  36.801  27.718  1.00  0.00     0.124 S 
ATOM     90  O   UNL A   1      44.203  36.996  27.597  1.00  0.00    -0.237 OA
ATOM     91  O   UNL A   1      46.359  37.801  28.504  1.00  0.00    -0.237 OA
ATOM     92  O   UNL A   1      46.318  36.382  26.491  1.00  0.00    -0.744 OA
ENDBRANCH  85  89
ENDBRANCH  59  82
ENDBRANCH  33  34
ENDBRANCH  25  28
ENDBRANCH   1  24
TORSDOF 14
ENDMDL
MODEL 3
REMARK VINA RESULT:     -12.7      2.825      3.716
REMARK SMILES Cc1cc(Cl)cc2c1O[C@H](C(F)(F)F)C(C(=O)NCCCNC(=O)c1ccc(-c3c4nc(c(-c5cc(S(=O)(=O)[O-])ccc5F)c5ccc([nH]5)c(-c5cc(S(=O)(=O)[O-])ccc5F)c5nc(c(-c6cc(S(=O)(=O)[O-])ccc6F)c6ccc3[nH]6)C=C5)C=C4)cc1)=C2
REMARK SMILES IDX 21 1 20 2 19 3 18 4 16 5 17 6 15 8 1 9 2 10 3 11 8 12 4 13
REMARK SMILES IDX 7 14 9 15 5 16 6 17 88 18 10 19 11 20 12 21 13 22 14 23
REMARK SMILES IDX 22 24 23 25 24 27 25 28 26 29 87 30 27 31 86 32 28 33 29 34
REMARK SMILES IDX 30 35 80 36 31 37 85 38 79 39 81 40 32 41 84 42 78 43 77 44
REMARK SMILES IDX 33 46 65 47 45 48 64 49 46 50 49 51 63 52 82 53 47 54 48 55
REMARK SMILES IDX 62 57 83 58 50 59 34 60 35 61 43 62 36 63 42 64 44 65 41 66
REMARK SMILES IDX 37 67 38 68 39 69 40 70 66 71 67 72 75 73 68 74 74 75 76 76
REMARK SMILES IDX 73 77 69 78 70 79 71 80 72 81 51 82 52 83 60 84 53 85 59 86
REMARK SMILES IDX 61 87 58 88 54 89 55 90 56 91 57 92
REMARK H PARENT 18 7 22 26 81 45 49 56
REMARK Flexibility Score: inf
ROOT
ATOM      1  C   UNL A   1      32.605  32.818  27.107  1.00  0.00     0.118 C 
ENDROOT
BRANCH   1   2
ATOM      2  C   UNL A   1      31.296  32.351  26.482  1.00  0.00     0.042 C 
BRANCH   2   3
ATOM      3  C   UNL A   1      31.243  30.838  26.334  1.00  0.00     0.118 C 
BRANCH   3   4
ATOM      4  N   UNL A   1      31.120  30.430  24.941  1.00  0.00    -0.352 N 
ATOM      5  C   UNL A   1      31.288  29.296  24.222  1.00  0.00     0.251 C 
ATOM      6  O   UNL A   1      31.046  29.394  23.015  1.00  0.00    -0.270 OA
ATOM      7  H   UNL A   1      30.838  31.179  24.370  1.00  0.00     0.163 HD
BRANCH   5   8
ATOM      8  C   UNL A   1      31.725  27.985  24.782  1.00  0.00     0.067 C 
ATOM      9  C   UNL A   1      34.290  23.799  26.220  1.00  0.00     0.048 C 
ATOM     10  C   UNL A   1      32.841  24.194  26.204  1.00  0.00    -0.007 A 
ATOM     11  C   UNL A   1      31.857  23.342  26.719  1.00  0.00     0.027 A 
ATOM     12  C   UNL A   1      32.448  25.429  25.673  1.00  0.00     0.131 A 
ATOM     13  C   UNL A   1      30.516  23.726  26.696  1.00  0.00     0.042 A 
ATOM     14  C   UNL A   1      31.105  25.820  25.652  1.00  0.00     0.019 A 
ATOM     15  O   UNL A   1      33.433  26.209  25.135  1.00  0.00    -0.475 OA
ATOM     16  Cl  UNL A   1      29.318  22.664  27.330  1.00  0.00    -0.084 Cl
ATOM     17  C   UNL A   1      30.133  24.959  26.166  1.00  0.00     0.032 A 
ATOM     18  C   UNL A   1      30.744  27.108  25.070  1.00  0.00     0.025 C 
ATOM     19  C   UNL A   1      33.157  27.630  25.059  1.00  0.00     0.314 C 
BRANCH  19  20
ATOM     20  C   UNL A   1      33.708  28.321  26.321  1.00  0.00     0.429 C 
ATOM     21  F   UNL A   1      34.053  29.604  26.047  1.00  0.00    -0.167 F 
ATOM     22  F   UNL A   1      32.804  28.372  27.328  1.00  0.00    -0.167 F 
ATOM     23  F   UNL A   1      34.805  27.704  26.816  1.00  0.00    -0.167 F 
ENDBRANCH  19  20
ENDBRANCH   5   8
ENDBRANCH   3   4
ENDBRANCH   2   3
ENDBRANCH   1   2
BRANCH   1  24
ATOM     24  N   UNL A   1      32.501  34.184  27.614  1.00  0.00    -0.352 N 
ATOM     25  C   UNL A   1      33.096  34.770  28.702  1.00  0.00     0.251 C 
ATOM     26  H   UNL A   1      31.912  34.777  27.093  1.00  0.00     0.163 HD
ATOM     27  O   UNL A   1      32.647  35.829  29.139  1.00  0.00    -0.269 OA
BRANCH  25  28
ATOM     28  C   UNL A   1      34.263  34.131  29.340  1.00  0.00     0.039 A 
ATOM     29  C   UNL A   1      35.550  34.460  28.909  1.00  0.00     0.014 A 
ATOM     30  C   UNL A   1      34.080  33.184  30.351  1.00  0.00     0.014 A 
ATOM     31  C   UNL A   1      36.653  33.883  29.540  1.00  0.00     0.010 A 
ATOM     32  C   UNL A   1      35.176  32.690  31.043  1.00  0.00     0.010 A 
ATOM     33  C   UNL A   1      36.474  33.021  30.633  1.00  0.00    -0.014 A 
BRANCH  33  34
ATOM     34  C   UNL A   1      37.628  32.420  31.344  1.00  0.00     0.031 A 
ATOM     35  C   UNL A   1      38.374  31.276  30.713  1.00  0.00     0.074 A 
ATOM     36  C   UNL A   1      37.964  32.869  32.569  1.00  0.00     0.049 A 
ATOM     37  N   UNL A   1      39.349  30.557  31.205  1.00  0.00    -0.248 NA
ATOM     38  C   UNL A   1      37.948  30.863  29.365  1.00  0.00     0.031 C 
ATOM     39  C   UNL A   1      37.287  33.952  33.289  1.00  0.00     0.029 A 
ATOM     40  N   UNL A   1      38.958  32.474  33.428  1.00  0.00    -0.354 N 
ATOM     41  C   UNL A   1      39.644  29.607  30.234  1.00  0.00     0.074 A 
ATOM     42  C   UNL A   1      38.703  29.797  29.153  1.00  0.00     0.031 C 
ATOM     43  C   UNL A   1      37.911  34.159  34.459  1.00  0.00     0.029 A 
ATOM     44  C   UNL A   1      38.998  33.196  34.598  1.00  0.00     0.049 A 
ATOM     45  H   UNL A   1      39.583  31.741  33.226  1.00  0.00     0.167 HD
ATOM     46  C   UNL A   1      40.630  28.680  30.233  1.00  0.00     0.034 A 
ATOM     47  C   UNL A   1      39.815  33.087  35.664  1.00  0.00     0.034 A 
ATOM     48  C   UNL A   1      41.580  28.527  31.303  1.00  0.00     0.049 A 
ATOM     49  C   UNL A   1      40.889  32.032  35.649  1.00  0.00     0.074 A 
ATOM     50  C   UNL A   1      42.652  27.657  31.380  1.00  0.00     0.029 A 
ATOM     51  N   UNL A   1      41.577  29.264  32.479  1.00  0.00    -0.354 N 
ATOM     52  N   UNL A   1      41.165  31.154  34.713  1.00  0.00    -0.248 NA
ATOM     53  C   UNL A   1      41.758  31.951  36.830  1.00  0.00     0.031 C 
ATOM     54  C   UNL A   1      43.260  27.824  32.627  1.00  0.00     0.029 A 
ATOM     55  C   UNL A   1      42.610  28.848  33.301  1.00  0.00     0.049 A 
ATOM     56  H   UNL A   1      40.935  29.978  32.696  1.00  0.00     0.167 HD
ATOM     57  C   UNL A   1      42.253  30.428  35.185  1.00  0.00     0.074 A 
ATOM     58  C   UNL A   1      42.590  30.978  36.483  1.00  0.00     0.031 C 
ATOM     59  C   UNL A   1      42.918  29.401  34.597  1.00  0.00     0.034 A 
BRANCH  46  60
ATOM     60  C   UNL A   1      40.730  27.762  29.044  1.00  0.00     0.023 A 
ATOM     61  C   UNL A   1      41.652  27.998  28.011  1.00  0.00     0.031 A 
ATOM     62  C   UNL A   1      39.914  26.621  28.957  1.00  0.00     0.131 A 
ATOM     63  C   UNL A   1      41.709  27.128  26.913  1.00  0.00     0.055 A 
ATOM     64  C   UNL A   1      40.019  25.723  27.893  1.00  0.00     0.041 A 
ATOM     65  F   UNL A   1      39.002  26.360  29.906  1.00  0.00    -0.206 F 
ATOM     66  C   UNL A   1      40.916  25.978  26.860  1.00  0.00     0.022 A 
BRANCH  63  67
ATOM     67  S   UNL A   1      42.781  27.558  25.517  1.00  0.00     0.124 S 
ATOM     68  O   UNL A   1      42.695  26.350  24.699  1.00  0.00    -0.237 OA
ATOM     69  O   UNL A   1      42.132  28.745  24.971  1.00  0.00    -0.237 OA
ATOM     70  O   UNL A   1      44.082  27.790  26.141  1.00  0.00    -0.744 OA
ENDBRANCH  63  67
ENDBRANCH  46  60
BRANCH  47  71
ATOM     71  C   UNL A   1      39.647  33.999  36.830  1.00  0.00     0.023 A 
ATOM     72  C   UNL A   1      39.079  33.541  38.029  1.00  0.00     0.031 A 
ATOM     73  C   UNL A   1      40.057  35.343  36.763  1.00  0.00     0.131 A 
ATOM     74  C   UNL A   1      38.914  34.427  39.106  1.00  0.00     0.055 A 
ATOM     75  C   UNL A   1      39.927  36.209  37.849  1.00  0.00     0.041 A 
ATOM     76  F   UNL A   1      40.615  35.827  35.641  1.00  0.00    -0.206 F 
ATOM     77  C   UNL A   1      39.346  35.753  39.029  1.00  0.00     0.022 A 
BRANCH  74  78
ATOM     78  S   UNL A   1      38.092  33.827  40.607  1.00  0.00     0.124 S 
ATOM     79  O   UNL A   1      37.910  35.063  41.359  1.00  0.00    -0.237 OA
ATOM     80  O   UNL A   1      36.879  33.218  40.068  1.00  0.00    -0.237 OA
ATOM     81  O   UNL A   1      39.058  32.887  41.171  1.00  0.00    -0.744 OA
ENDBRANCH  74  78
ENDBRANCH  47  71
BRANCH  59  82
ATOM     82  C   UNL A   1      44.087  28.815  35.340  1.00  0.00     0.023 A 
ATOM     83  C   UNL A   1      43.913  27.782  36.276  1.00  0.00     0.031 A 
ATOM     84  C   UNL A   1      45.393  29.254  35.064  1.00  0.00     0.131 A 
ATOM     85  C   UNL A   1      45.029  27.238  36.925  1.00  0.00     0.055 A 
ATOM     86  C   UNL A   1      46.504  28.675  35.677  1.00  0.00     0.041 A 
ATOM     87  F   UNL A   1      45.610  30.236  34.174  1.00  0.00    -0.206 F 
ATOM     88  C   UNL A   1      46.325  27.664  36.618  1.00  0.00     0.022 A 
BRANCH  85  89
ATOM     89  S   UNL A   1      44.765  25.984  38.207  1.00  0.00     0.124 S 
ATOM     90  O   UNL A   1      46.043  26.001  38.912  1.00  0.00    -0.237 OA
ATOM     91  O   UNL A   1      43.625  26.520  38.943  1.00  0.00    -0.237 OA
ATOM     92  O   UNL A   1      44.493  24.767  37.446  1.00  0.00    -0.744 OA
ENDBRANCH  85  89
ENDBRANCH  59  82
ENDBRANCH  33  34
ENDBRANCH  25  28
ENDBRANCH   1  24
TORSDOF 14
ENDMDL
