MODEL 1
REMARK VINA RESULT:     -13.5      0.000      0.000
REMARK SMILES Cn1c(=O)[nH]c(=O)c2c1nc(N1CCOCC1)n2CC(=O)NCCCNC(=O)c1ccc(-c2c3nc(c(-c4cc(S(=O)(=O)[O-])ccc4F)c4ccc([nH]4)c(-c4cc(S(=O)(=O)[O-])ccc4F)c4nc(c(-c5cc(S(=O)(=O)[O-])ccc5F)c5ccc2[nH]5)C=C4)C=C3)cc1
REMARK SMILES IDX 24 1 23 2 22 3 20 4 21 5 19 7 18 8 1 9 2 10 3 11 9 12 4 13
REMARK SMILES IDX 5 14 8 15 10 16 6 17 11 19 7 20 12 21 13 22 17 23 14 24
REMARK SMILES IDX 16 25 15 26 25 27 26 28 27 29 28 31 29 32 30 33 91 34 31 35
REMARK SMILES IDX 90 36 32 37 33 38 34 39 84 40 35 41 89 42 83 43 85 44 36 45
REMARK SMILES IDX 88 46 82 47 81 48 37 50 69 51 49 52 68 53 50 54 53 55 67 56
REMARK SMILES IDX 86 57 51 58 52 59 66 61 87 62 54 63 38 64 39 65 47 66 40 67
REMARK SMILES IDX 46 68 48 69 45 70 41 71 42 72 43 73 44 74 70 75 71 76 79 77
REMARK SMILES IDX 72 78 78 79 80 80 77 81 73 82 74 83 75 84 76 85 55 86 56 87
REMARK SMILES IDX 64 88 57 89 63 90 65 91 62 92 58 93 59 94 60 95 61 96
REMARK H PARENT 22 6 5 18 26 30 85 49 53 60
REMARK Flexibility Score: inf
ROOT
ATOM      1  C   UNL A   1      33.354  28.354  27.218  1.00  0.00     0.042 C 
ENDROOT
BRANCH   1   2
ATOM      2  C   UNL A   1      33.135  27.273  26.157  1.00  0.00     0.117 C 
BRANCH   2   3
ATOM      3  N   UNL A   1      32.172  26.259  26.541  1.00  0.00    -0.354 N 
ATOM      4  C   UNL A   1      32.279  24.899  26.517  1.00  0.00     0.240 C 
ATOM      5  O   UNL A   1      31.406  24.256  27.108  1.00  0.00    -0.273 OA
ATOM      6  H   UNL A   1      31.311  26.604  26.870  1.00  0.00     0.163 HD
BRANCH   4   7
ATOM      7  C   UNL A   1      33.441  24.189  25.855  1.00  0.00     0.226 C 
BRANCH   7   8
ATOM      8  N   UNL A   1      33.070  23.052  25.031  1.00  0.00    -0.295 N 
ATOM      9  C   UNL A   1      32.192  18.931  23.127  1.00  0.00     0.157 C 
ATOM     10  N   UNL A   1      32.591  19.668  24.307  1.00  0.00    -0.279 N 
ATOM     11  C   UNL A   1      32.926  18.976  25.467  1.00  0.00     0.329 A 
ATOM     12  C   UNL A   1      32.632  21.048  24.320  1.00  0.00     0.170 A 
ATOM     13  O   UNL A   1      32.916  17.748  25.565  1.00  0.00    -0.248 OA
ATOM     14  N   UNL A   1      33.277  19.725  26.569  1.00  0.00    -0.272 N 
ATOM     15  C   UNL A   1      33.017  21.741  25.431  1.00  0.00     0.154 A 
ATOM     16  N   UNL A   1      32.313  21.882  23.293  1.00  0.00    -0.194 NA
ATOM     17  C   UNL A   1      33.326  21.098  26.666  1.00  0.00     0.279 A 
ATOM     18  H   UNL A   1      33.523  19.221  27.379  1.00  0.00     0.175 HD
ATOM     19  C   UNL A   1      32.578  23.096  23.735  1.00  0.00     0.208 A 
ATOM     20  O   UNL A   1      33.618  21.656  27.706  1.00  0.00    -0.267 OA
BRANCH  19  21
ATOM     21  N   UNL A   1      32.275  24.273  23.148  1.00  0.00    -0.338 N 
ATOM     22  C   UNL A   1      33.031  24.796  22.000  1.00  0.00     0.148 C 
ATOM     23  C   UNL A   1      30.881  24.731  23.129  1.00  0.00     0.148 C 
ATOM     24  C   UNL A   1      33.002  26.334  22.080  1.00  0.00     0.181 C 
ATOM     25  C   UNL A   1      30.895  26.270  23.171  1.00  0.00     0.181 C 
ATOM     26  O   UNL A   1      31.646  26.827  22.078  1.00  0.00    -0.378 OA
ENDBRANCH  19  21
ENDBRANCH   7   8
ENDBRANCH   4   7
ENDBRANCH   2   3
ENDBRANCH   1   2
BRANCH   1  27
ATOM     27  C   UNL A   1      34.799  28.822  27.296  1.00  0.00     0.118 C 
BRANCH  27  28
ATOM     28  N   UNL A   1      34.988  29.866  28.297  1.00  0.00    -0.352 N 
ATOM     29  C   UNL A   1      36.081  30.097  29.105  1.00  0.00     0.251 C 
ATOM     30  H   UNL A   1      34.234  30.490  28.410  1.00  0.00     0.163 HD
ATOM     31  O   UNL A   1      35.960  30.817  30.090  1.00  0.00    -0.269 OA
BRANCH  29  32
ATOM     32  C   UNL A   1      37.366  29.445  28.794  1.00  0.00     0.039 A 
ATOM     33  C   UNL A   1      38.042  29.760  27.613  1.00  0.00     0.014 A 
ATOM     34  C   UNL A   1      37.911  28.532  29.697  1.00  0.00     0.014 A 
ATOM     35  C   UNL A   1      39.308  29.225  27.393  1.00  0.00     0.010 A 
ATOM     36  C   UNL A   1      39.207  28.095  29.537  1.00  0.00     0.010 A 
ATOM     37  C   UNL A   1      39.903  28.416  28.374  1.00  0.00    -0.014 A 
BRANCH  37  38
ATOM     38  C   UNL A   1      41.305  28.020  28.243  1.00  0.00     0.031 A 
ATOM     39  C   UNL A   1      41.530  26.724  27.541  1.00  0.00     0.074 A 
ATOM     40  C   UNL A   1      42.347  28.832  28.511  1.00  0.00     0.049 A 
ATOM     41  N   UNL A   1      42.004  25.628  28.031  1.00  0.00    -0.248 NA
ATOM     42  C   UNL A   1      41.064  26.598  26.151  1.00  0.00     0.031 C 
ATOM     43  C   UNL A   1      42.317  30.241  28.912  1.00  0.00     0.029 A 
ATOM     44  N   UNL A   1      43.680  28.588  28.362  1.00  0.00    -0.354 N 
ATOM     45  C   UNL A   1      42.108  24.739  26.965  1.00  0.00     0.074 A 
ATOM     46  C   UNL A   1      41.352  25.321  25.889  1.00  0.00     0.031 C 
ATOM     47  C   UNL A   1      43.546  30.782  28.752  1.00  0.00     0.029 A 
ATOM     48  C   UNL A   1      44.478  29.726  28.404  1.00  0.00     0.049 A 
ATOM     49  H   UNL A   1      44.045  27.684  28.234  1.00  0.00     0.167 HD
ATOM     50  C   UNL A   1      42.996  23.704  26.987  1.00  0.00     0.034 A 
ATOM     51  C   UNL A   1      45.812  29.799  28.156  1.00  0.00     0.034 A 
ATOM     52  C   UNL A   1      43.473  23.454  28.327  1.00  0.00     0.049 A 
ATOM     53  C   UNL A   1      46.355  28.441  28.410  1.00  0.00     0.074 A 
ATOM     54  C   UNL A   1      42.867  23.143  29.530  1.00  0.00     0.029 A 
ATOM     55  N   UNL A   1      44.735  23.897  28.654  1.00  0.00    -0.354 N 
ATOM     56  N   UNL A   1      46.326  27.860  29.579  1.00  0.00    -0.248 NA
ATOM     57  C   UNL A   1      46.528  27.547  27.276  1.00  0.00     0.031 C 
ATOM     58  C   UNL A   1      43.588  23.897  30.504  1.00  0.00     0.029 A 
ATOM     59  C   UNL A   1      44.629  24.559  29.851  1.00  0.00     0.049 A 
ATOM     60  H   UNL A   1      45.557  23.763  28.129  1.00  0.00     0.167 HD
ATOM     61  C   UNL A   1      46.052  26.528  29.309  1.00  0.00     0.074 A 
ATOM     62  C   UNL A   1      46.294  26.376  27.876  1.00  0.00     0.031 C 
ATOM     63  C   UNL A   1      45.393  25.738  30.208  1.00  0.00     0.034 A 
BRANCH  50  64
ATOM     64  C   UNL A   1      43.703  23.137  25.775  1.00  0.00     0.023 A 
ATOM     65  C   UNL A   1      43.561  21.759  25.519  1.00  0.00     0.031 A 
ATOM     66  C   UNL A   1      44.716  23.795  25.041  1.00  0.00     0.131 A 
ATOM     67  C   UNL A   1      44.444  21.086  24.654  1.00  0.00     0.055 A 
ATOM     68  C   UNL A   1      45.546  23.136  24.129  1.00  0.00     0.041 A 
ATOM     69  F   UNL A   1      45.028  25.082  25.233  1.00  0.00    -0.206 F 
ATOM     70  C   UNL A   1      45.434  21.768  23.953  1.00  0.00     0.022 A 
BRANCH  67  71
ATOM     71  S   UNL A   1      44.382  19.276  24.590  1.00  0.00     0.124 S 
ATOM     72  O   UNL A   1      43.019  19.013  25.039  1.00  0.00    -0.237 OA
ATOM     73  O   UNL A   1      44.657  19.014  23.181  1.00  0.00    -0.237 OA
ATOM     74  O   UNL A   1      45.435  18.867  25.516  1.00  0.00    -0.744 OA
ENDBRANCH  67  71
ENDBRANCH  50  64
BRANCH  51  75
ATOM     75  C   UNL A   1      46.563  30.884  27.466  1.00  0.00     0.023 A 
ATOM     76  C   UNL A   1      45.906  31.979  26.863  1.00  0.00     0.031 A 
ATOM     77  C   UNL A   1      47.966  30.994  27.608  1.00  0.00     0.131 A 
ATOM     78  C   UNL A   1      46.640  33.114  26.446  1.00  0.00     0.055 A 
ATOM     79  C   UNL A   1      48.687  32.115  27.184  1.00  0.00     0.041 A 
ATOM     80  F   UNL A   1      48.680  30.053  28.245  1.00  0.00    -0.206 F 
ATOM     81  C   UNL A   1      48.023  33.187  26.613  1.00  0.00     0.022 A 
BRANCH  78  82
ATOM     82  S   UNL A   1      45.777  34.581  25.797  1.00  0.00     0.124 S 
ATOM     83  O   UNL A   1      44.723  34.776  26.786  1.00  0.00    -0.237 OA
ATOM     84  O   UNL A   1      46.833  35.585  25.768  1.00  0.00    -0.237 OA
ATOM     85  O   UNL A   1      45.313  34.143  24.479  1.00  0.00    -0.744 OA
ENDBRANCH  78  82
ENDBRANCH  51  75
BRANCH  63  86
ATOM     86  C   UNL A   1      45.251  26.211  31.637  1.00  0.00     0.023 A 
ATOM     87  C   UNL A   1      44.098  26.825  32.176  1.00  0.00     0.031 A 
ATOM     88  C   UNL A   1      46.272  25.832  32.527  1.00  0.00     0.131 A 
ATOM     89  C   UNL A   1      44.000  27.029  33.568  1.00  0.00     0.055 A 
ATOM     90  C   UNL A   1      46.162  26.016  33.904  1.00  0.00     0.041 A 
ATOM     91  F   UNL A   1      47.374  25.212  32.071  1.00  0.00    -0.206 F 
ATOM     92  C   UNL A   1      45.023  26.614  34.429  1.00  0.00     0.022 A 
BRANCH  89  93
ATOM     93  S   UNL A   1      42.508  27.785  34.295  1.00  0.00     0.124 S 
ATOM     94  O   UNL A   1      42.061  26.780  35.252  1.00  0.00    -0.237 OA
ATOM     95  O   UNL A   1      43.015  29.031  34.862  1.00  0.00    -0.237 OA
ATOM     96  O   UNL A   1      41.620  27.964  33.144  1.00  0.00    -0.744 OA
ENDBRANCH  89  93
ENDBRANCH  63  86
ENDBRANCH  37  38
ENDBRANCH  29  32
ENDBRANCH  27  28
ENDBRANCH   1  27
TORSDOF 15
ENDMDL
MODEL 2
REMARK VINA RESULT:     -13.4      1.630      3.692
REMARK SMILES Cn1c(=O)[nH]c(=O)c2c1nc(N1CCOCC1)n2CC(=O)NCCCNC(=O)c1ccc(-c2c3nc(c(-c4cc(S(=O)(=O)[O-])ccc4F)c4ccc([nH]4)c(-c4cc(S(=O)(=O)[O-])ccc4F)c4nc(c(-c5cc(S(=O)(=O)[O-])ccc5F)c5ccc2[nH]5)C=C4)C=C3)cc1
REMARK SMILES IDX 24 1 23 2 22 3 20 4 21 5 19 7 18 8 1 9 2 10 3 11 9 12 4 13
REMARK SMILES IDX 5 14 8 15 10 16 6 17 11 19 7 20 12 21 13 22 17 23 14 24
REMARK SMILES IDX 16 25 15 26 25 27 26 28 27 29 28 31 29 32 30 33 91 34 31 35
REMARK SMILES IDX 90 36 32 37 33 38 34 39 84 40 35 41 89 42 83 43 85 44 36 45
REMARK SMILES IDX 88 46 82 47 81 48 37 50 69 51 49 52 68 53 50 54 53 55 67 56
REMARK SMILES IDX 86 57 51 58 52 59 66 61 87 62 54 63 38 64 39 65 47 66 40 67
REMARK SMILES IDX 46 68 48 69 45 70 41 71 42 72 43 73 44 74 70 75 71 76 79 77
REMARK SMILES IDX 72 78 78 79 80 80 77 81 73 82 74 83 75 84 76 85 55 86 56 87
REMARK SMILES IDX 64 88 57 89 63 90 65 91 62 92 58 93 59 94 60 95 61 96
REMARK H PARENT 22 6 5 18 26 30 85 49 53 60
REMARK Flexibility Score: inf
ROOT
ATOM      1  C   UNL A   1      34.042  29.944  26.877  1.00  0.00     0.042 C 
ENDROOT
BRANCH   1   2
ATOM      2  C   UNL A   1      33.394  28.927  25.933  1.00  0.00     0.117 C 
BRANCH   2   3
ATOM      3  N   UNL A   1      33.616  27.546  26.317  1.00  0.00    -0.354 N 
ATOM      4  C   UNL A   1      33.627  26.418  25.550  1.00  0.00     0.240 C 
ATOM      5  O   UNL A   1      34.063  25.388  26.073  1.00  0.00    -0.273 OA
ATOM      6  H   UNL A   1      33.783  27.402  27.276  1.00  0.00     0.163 HD
BRANCH   4   7
ATOM      7  C   UNL A   1      33.188  26.419  24.101  1.00  0.00     0.226 C 
BRANCH   7   8
ATOM      8  N   UNL A   1      31.798  26.782  23.887  1.00  0.00    -0.295 N 
ATOM      9  C   UNL A   1      27.727  28.714  22.849  1.00  0.00     0.157 C 
ATOM     10  N   UNL A   1      29.170  28.776  22.739  1.00  0.00    -0.279 N 
ATOM     11  C   UNL A   1      29.761  29.852  22.086  1.00  0.00     0.329 A 
ATOM     12  C   UNL A   1      29.979  27.782  23.253  1.00  0.00     0.170 A 
ATOM     13  O   UNL A   1      29.133  30.787  21.586  1.00  0.00    -0.248 OA
ATOM     14  N   UNL A   1      31.136  29.853  21.989  1.00  0.00    -0.272 N 
ATOM     15  C   UNL A   1      31.338  27.847  23.156  1.00  0.00     0.154 A 
ATOM     16  N   UNL A   1      29.574  26.653  23.894  1.00  0.00    -0.194 NA
ATOM     17  C   UNL A   1      32.008  28.895  22.457  1.00  0.00     0.279 A 
ATOM     18  H   UNL A   1      31.541  30.627  21.534  1.00  0.00     0.175 HD
ATOM     19  C   UNL A   1      30.684  26.049  24.272  1.00  0.00     0.208 A 
ATOM     20  O   UNL A   1      33.208  28.983  22.283  1.00  0.00    -0.267 OA
BRANCH  19  21
ATOM     21  N   UNL A   1      30.815  24.813  24.797  1.00  0.00    -0.338 N 
ATOM     22  C   UNL A   1      30.290  24.465  26.125  1.00  0.00     0.148 C 
ATOM     23  C   UNL A   1      30.837  23.649  23.903  1.00  0.00     0.148 C 
ATOM     24  C   UNL A   1      31.208  23.383  26.725  1.00  0.00     0.181 C 
ATOM     25  C   UNL A   1      31.732  22.579  24.554  1.00  0.00     0.181 C 
ATOM     26  O   UNL A   1      31.270  22.223  25.869  1.00  0.00    -0.378 OA
ENDBRANCH  19  21
ENDBRANCH   7   8
ENDBRANCH   4   7
ENDBRANCH   2   3
ENDBRANCH   1   2
BRANCH   1  27
ATOM     27  C   UNL A   1      35.193  29.358  27.678  1.00  0.00     0.118 C 
BRANCH  27  28
ATOM     28  N   UNL A   1      35.373  30.029  28.960  1.00  0.00    -0.352 N 
ATOM     29  C   UNL A   1      36.409  29.903  29.861  1.00  0.00     0.251 C 
ATOM     30  H   UNL A   1      34.659  30.657  29.217  1.00  0.00     0.163 HD
ATOM     31  O   UNL A   1      36.259  30.300  31.011  1.00  0.00    -0.269 OA
BRANCH  29  32
ATOM     32  C   UNL A   1      37.666  29.259  29.439  1.00  0.00     0.039 A 
ATOM     33  C   UNL A   1      38.340  29.719  28.305  1.00  0.00     0.014 A 
ATOM     34  C   UNL A   1      38.186  28.206  30.191  1.00  0.00     0.014 A 
ATOM     35  C   UNL A   1      39.583  29.177  27.990  1.00  0.00     0.010 A 
ATOM     36  C   UNL A   1      39.464  27.752  29.948  1.00  0.00     0.010 A 
ATOM     37  C   UNL A   1      40.159  28.215  28.833  1.00  0.00    -0.014 A 
BRANCH  37  38
ATOM     38  C   UNL A   1      41.543  27.792  28.624  1.00  0.00     0.031 A 
ATOM     39  C   UNL A   1      41.707  26.522  27.862  1.00  0.00     0.074 A 
ATOM     40  C   UNL A   1      42.616  28.570  28.875  1.00  0.00     0.049 A 
ATOM     41  N   UNL A   1      42.175  25.396  28.287  1.00  0.00    -0.248 NA
ATOM     42  C   UNL A   1      41.176  26.462  26.491  1.00  0.00     0.031 C 
ATOM     43  C   UNL A   1      42.637  29.963  29.333  1.00  0.00     0.029 A 
ATOM     44  N   UNL A   1      43.934  28.303  28.657  1.00  0.00    -0.354 N 
ATOM     45  C   UNL A   1      42.211  24.548  27.184  1.00  0.00     0.074 A 
ATOM     46  C   UNL A   1      41.422  25.190  26.167  1.00  0.00     0.031 C 
ATOM     47  C   UNL A   1      43.870  30.482  29.138  1.00  0.00     0.029 A 
ATOM     48  C   UNL A   1      44.761  29.420  28.708  1.00  0.00     0.049 A 
ATOM     49  H   UNL A   1      44.272  27.397  28.478  1.00  0.00     0.167 HD
ATOM     50  C   UNL A   1      43.074  23.494  27.125  1.00  0.00     0.034 A 
ATOM     51  C   UNL A   1      46.083  29.474  28.403  1.00  0.00     0.034 A 
ATOM     52  C   UNL A   1      43.604  23.180  28.431  1.00  0.00     0.049 A 
ATOM     53  C   UNL A   1      46.605  28.095  28.578  1.00  0.00     0.074 A 
ATOM     54  C   UNL A   1      43.045  22.835  29.648  1.00  0.00     0.029 A 
ATOM     55  N   UNL A   1      44.889  23.582  28.718  1.00  0.00    -0.354 N 
ATOM     56  N   UNL A   1      46.614  27.469  29.725  1.00  0.00    -0.248 NA
ATOM     57  C   UNL A   1      46.706  27.244  27.404  1.00  0.00     0.031 C 
ATOM     58  C   UNL A   1      43.825  23.533  30.617  1.00  0.00     0.029 A 
ATOM     59  C   UNL A   1      44.852  24.198  29.944  1.00  0.00     0.049 A 
ATOM     60  H   UNL A   1      45.683  23.451  28.152  1.00  0.00     0.167 HD
ATOM     61  C   UNL A   1      46.296  26.155  29.415  1.00  0.00     0.074 A 
ATOM     62  C   UNL A   1      46.471  26.055  27.968  1.00  0.00     0.031 C 
ATOM     63  C   UNL A   1      45.659  25.345  30.311  1.00  0.00     0.034 A 
BRANCH  50  64
ATOM     64  C   UNL A   1      43.713  22.961  25.861  1.00  0.00     0.023 A 
ATOM     65  C   UNL A   1      43.665  21.570  25.639  1.00  0.00     0.031 A 
ATOM     66  C   UNL A   1      44.596  23.684  25.027  1.00  0.00     0.131 A 
ATOM     67  C   UNL A   1      44.518  20.954  24.706  1.00  0.00     0.055 A 
ATOM     68  C   UNL A   1      45.393  23.075  24.052  1.00  0.00     0.041 A 
ATOM     69  F   UNL A   1      44.816  24.996  25.171  1.00  0.00    -0.206 F 
ATOM     70  C   UNL A   1      45.380  21.699  23.907  1.00  0.00     0.022 A 
BRANCH  67  71
ATOM     71  S   UNL A   1      44.603  19.144  24.674  1.00  0.00     0.124 S 
ATOM     72  O   UNL A   1      45.707  18.886  25.593  1.00  0.00    -0.237 OA
ATOM     73  O   UNL A   1      43.273  18.771  25.144  1.00  0.00    -0.237 OA
ATOM     74  O   UNL A   1      44.874  18.841  23.272  1.00  0.00    -0.744 OA
ENDBRANCH  67  71
ENDBRANCH  50  64
BRANCH  51  75
ATOM     75  C   UNL A   1      46.829  30.569  27.723  1.00  0.00     0.023 A 
ATOM     76  C   UNL A   1      46.166  31.594  27.013  1.00  0.00     0.031 A 
ATOM     77  C   UNL A   1      48.206  30.769  27.973  1.00  0.00     0.131 A 
ATOM     78  C   UNL A   1      46.868  32.750  26.601  1.00  0.00     0.055 A 
ATOM     79  C   UNL A   1      48.898  31.909  27.553  1.00  0.00     0.041 A 
ATOM     80  F   UNL A   1      48.915  29.902  28.713  1.00  0.00    -0.206 F 
ATOM     81  C   UNL A   1      48.227  32.913  26.876  1.00  0.00     0.022 A 
BRANCH  78  82
ATOM     82  S   UNL A   1      45.983  34.132  25.810  1.00  0.00     0.124 S 
ATOM     83  O   UNL A   1      47.043  34.769  25.037  1.00  0.00    -0.237 OA
ATOM     84  O   UNL A   1      44.944  33.451  25.048  1.00  0.00    -0.237 OA
ATOM     85  O   UNL A   1      45.494  34.913  26.948  1.00  0.00    -0.744 OA
ENDBRANCH  78  82
ENDBRANCH  51  75
BRANCH  63  86
ATOM     86  C   UNL A   1      45.592  25.762  31.763  1.00  0.00     0.023 A 
ATOM     87  C   UNL A   1      44.409  26.123  32.447  1.00  0.00     0.031 A 
ATOM     88  C   UNL A   1      46.765  25.590  32.520  1.00  0.00     0.131 A 
ATOM     89  C   UNL A   1      44.435  26.287  33.848  1.00  0.00     0.055 A 
ATOM     90  C   UNL A   1      46.780  25.732  33.906  1.00  0.00     0.041 A 
ATOM     91  F   UNL A   1      47.908  25.213  31.924  1.00  0.00    -0.206 F 
ATOM     92  C   UNL A   1      45.613  26.080  34.576  1.00  0.00     0.022 A 
BRANCH  89  93
ATOM     93  S   UNL A   1      42.916  26.716  34.762  1.00  0.00     0.124 S 
ATOM     94  O   UNL A   1      42.200  27.577  33.827  1.00  0.00    -0.237 OA
ATOM     95  O   UNL A   1      42.312  25.412  35.024  1.00  0.00    -0.237 OA
ATOM     96  O   UNL A   1      43.415  27.399  35.956  1.00  0.00    -0.744 OA
ENDBRANCH  89  93
ENDBRANCH  63  86
ENDBRANCH  37  38
ENDBRANCH  29  32
ENDBRANCH  27  28
ENDBRANCH   1  27
TORSDOF 15
ENDMDL
MODEL 3
REMARK VINA RESULT:     -13.2      2.622      6.981
REMARK SMILES Cn1c(=O)[nH]c(=O)c2c1nc(N1CCOCC1)n2CC(=O)NCCCNC(=O)c1ccc(-c2c3nc(c(-c4cc(S(=O)(=O)[O-])ccc4F)c4ccc([nH]4)c(-c4cc(S(=O)(=O)[O-])ccc4F)c4nc(c(-c5cc(S(=O)(=O)[O-])ccc5F)c5ccc2[nH]5)C=C4)C=C3)cc1
REMARK SMILES IDX 24 1 23 2 22 3 20 4 21 5 19 7 18 8 1 9 2 10 3 11 9 12 4 13
REMARK SMILES IDX 5 14 8 15 10 16 6 17 11 19 7 20 12 21 13 22 17 23 14 24
REMARK SMILES IDX 16 25 15 26 25 27 26 28 27 29 28 31 29 32 30 33 91 34 31 35
REMARK SMILES IDX 90 36 32 37 33 38 34 39 84 40 35 41 89 42 83 43 85 44 36 45
REMARK SMILES IDX 88 46 82 47 81 48 37 50 69 51 49 52 68 53 50 54 53 55 67 56
REMARK SMILES IDX 86 57 51 58 52 59 66 61 87 62 54 63 38 64 39 65 47 66 40 67
REMARK SMILES IDX 46 68 48 69 45 70 41 71 42 72 43 73 44 74 70 75 71 76 79 77
REMARK SMILES IDX 72 78 78 79 80 80 77 81 73 82 74 83 75 84 76 85 55 86 56 87
REMARK SMILES IDX 64 88 57 89 63 90 65 91 62 92 58 93 59 94 60 95 61 96
REMARK H PARENT 22 6 5 18 26 30 85 49 53 60
REMARK Flexibility Score: inf
ROOT
ATOM      1  C   UNL A   1      32.553  30.209  27.177  1.00  0.00     0.042 C 
ENDROOT
BRANCH   1   2
ATOM      2  C   UNL A   1      32.760  28.702  27.358  1.00  0.00     0.117 C 
BRANCH   2   3
ATOM      3  N   UNL A   1      31.616  27.902  26.968  1.00  0.00    -0.354 N 
ATOM      4  C   UNL A   1      31.564  26.621  26.502  1.00  0.00     0.240 C 
ATOM      5  O   UNL A   1      30.453  26.084  26.454  1.00  0.00    -0.273 OA
ATOM      6  H   UNL A   1      30.744  28.351  27.052  1.00  0.00     0.163 HD
BRANCH   4   7
ATOM      7  C   UNL A   1      32.808  25.849  26.114  1.00  0.00     0.226 C 
BRANCH   7   8
ATOM      8  N   UNL A   1      32.608  24.861  25.067  1.00  0.00    -0.295 N 
ATOM      9  C   UNL A   1      32.043  21.106  22.429  1.00  0.00     0.157 C 
ATOM     10  N   UNL A   1      32.148  21.652  23.766  1.00  0.00    -0.279 N 
ATOM     11  C   UNL A   1      32.114  20.795  24.860  1.00  0.00     0.329 A 
ATOM     12  C   UNL A   1      32.265  23.011  23.987  1.00  0.00     0.170 A 
ATOM     13  O   UNL A   1      32.006  19.570  24.776  1.00  0.00    -0.248 OA
ATOM     14  N   UNL A   1      32.196  21.366  26.112  1.00  0.00    -0.272 N 
ATOM     15  C   UNL A   1      32.373  23.522  25.247  1.00  0.00     0.154 A 
ATOM     16  N   UNL A   1      32.287  23.990  23.043  1.00  0.00    -0.194 NA
ATOM     17  C   UNL A   1      32.295  22.706  26.414  1.00  0.00     0.279 A 
ATOM     18  H   UNL A   1      32.182  20.746  26.877  1.00  0.00     0.175 HD
ATOM     19  C   UNL A   1      32.492  25.110  23.708  1.00  0.00     0.208 A 
ATOM     20  O   UNL A   1      32.325  23.102  27.564  1.00  0.00    -0.267 OA
BRANCH  19  21
ATOM     21  N   UNL A   1      32.429  26.373  23.237  1.00  0.00    -0.338 N 
ATOM     22  C   UNL A   1      33.532  26.986  22.482  1.00  0.00     0.148 C 
ATOM     23  C   UNL A   1      31.130  26.932  22.843  1.00  0.00     0.148 C 
ATOM     24  C   UNL A   1      33.521  28.498  22.777  1.00  0.00     0.181 C 
ATOM     25  C   UNL A   1      31.171  28.446  23.116  1.00  0.00     0.181 C 
ATOM     26  O   UNL A   1      32.253  29.087  22.416  1.00  0.00    -0.378 OA
ENDBRANCH  19  21
ENDBRANCH   7   8
ENDBRANCH   4   7
ENDBRANCH   2   3
ENDBRANCH   1   2
BRANCH   1  27
ATOM     27  C   UNL A   1      33.847  31.000  27.284  1.00  0.00     0.118 C 
BRANCH  27  28
ATOM     28  N   UNL A   1      33.859  31.886  28.442  1.00  0.00    -0.352 N 
ATOM     29  C   UNL A   1      34.759  31.930  29.485  1.00  0.00     0.251 C 
ATOM     30  H   UNL A   1      33.125  32.542  28.484  1.00  0.00     0.163 HD
ATOM     31  O   UNL A   1      34.459  32.520  30.516  1.00  0.00    -0.269 OA
BRANCH  29  32
ATOM     32  C   UNL A   1      36.053  31.234  29.358  1.00  0.00     0.039 A 
ATOM     33  C   UNL A   1      37.240  31.970  29.303  1.00  0.00     0.014 A 
ATOM     34  C   UNL A   1      36.084  29.840  29.318  1.00  0.00     0.014 A 
ATOM     35  C   UNL A   1      38.457  31.294  29.302  1.00  0.00     0.010 A 
ATOM     36  C   UNL A   1      37.285  29.175  29.435  1.00  0.00     0.010 A 
ATOM     37  C   UNL A   1      38.476  29.894  29.401  1.00  0.00    -0.014 A 
BRANCH  37  38
ATOM     38  C   UNL A   1      39.744  29.194  29.607  1.00  0.00     0.031 A 
ATOM     39  C   UNL A   1      40.112  28.961  31.032  1.00  0.00     0.074 A 
ATOM     40  C   UNL A   1      40.438  28.587  28.623  1.00  0.00     0.049 A 
ATOM     41  N   UNL A   1      41.102  29.468  31.689  1.00  0.00    -0.248 NA
ATOM     42  C   UNL A   1      39.201  28.157  31.862  1.00  0.00     0.031 C 
ATOM     43  C   UNL A   1      40.072  28.443  27.211  1.00  0.00     0.029 A 
ATOM     44  N   UNL A   1      41.586  27.857  28.713  1.00  0.00    -0.354 N 
ATOM     45  C   UNL A   1      41.076  28.876  32.949  1.00  0.00     0.074 A 
ATOM     46  C   UNL A   1      39.794  28.231  33.055  1.00  0.00     0.031 C 
ATOM     47  C   UNL A   1      40.846  27.495  26.639  1.00  0.00     0.029 A 
ATOM     48  C   UNL A   1      41.868  27.091  27.587  1.00  0.00     0.049 A 
ATOM     49  H   UNL A   1      42.165  27.870  29.509  1.00  0.00     0.167 HD
ATOM     50  C   UNL A   1      42.201  28.778  33.712  1.00  0.00     0.034 A 
ATOM     51  C   UNL A   1      42.862  26.176  27.448  1.00  0.00     0.034 A 
ATOM     52  C   UNL A   1      43.236  29.664  33.232  1.00  0.00     0.049 A 
ATOM     53  C   UNL A   1      43.908  26.549  28.434  1.00  0.00     0.074 A 
ATOM     54  C   UNL A   1      43.326  31.028  33.025  1.00  0.00     0.029 A 
ATOM     55  N   UNL A   1      44.271  29.114  32.511  1.00  0.00    -0.354 N 
ATOM     56  N   UNL A   1      44.566  27.676  28.394  1.00  0.00    -0.248 NA
ATOM     57  C   UNL A   1      43.914  25.870  29.719  1.00  0.00     0.031 C 
ATOM     58  C   UNL A   1      44.057  31.163  31.807  1.00  0.00     0.029 A 
ATOM     59  C   UNL A   1      44.431  29.885  31.387  1.00  0.00     0.049 A 
ATOM     60  H   UNL A   1      44.797  28.318  32.755  1.00  0.00     0.167 HD
ATOM     61  C   UNL A   1      44.703  28.056  29.721  1.00  0.00     0.074 A 
ATOM     62  C   UNL A   1      44.379  26.857  30.492  1.00  0.00     0.031 C 
ATOM     63  C   UNL A   1      44.796  29.369  30.082  1.00  0.00     0.034 A 
BRANCH  50  64
ATOM     64  C   UNL A   1      42.507  27.650  34.673  1.00  0.00     0.023 A 
ATOM     65  C   UNL A   1      43.240  26.551  34.180  1.00  0.00     0.031 A 
ATOM     66  C   UNL A   1      41.888  27.459  35.929  1.00  0.00     0.131 A 
ATOM     67  C   UNL A   1      43.263  25.326  34.870  1.00  0.00     0.055 A 
ATOM     68  C   UNL A   1      41.972  26.260  36.645  1.00  0.00     0.041 A 
ATOM     69  F   UNL A   1      41.091  28.375  36.489  1.00  0.00    -0.206 F 
ATOM     70  C   UNL A   1      42.637  25.174  36.103  1.00  0.00     0.022 A 
BRANCH  67  71
ATOM     71  S   UNL A   1      43.985  23.882  34.046  1.00  0.00     0.124 S 
ATOM     72  O   UNL A   1      45.157  23.626  34.877  1.00  0.00    -0.237 OA
ATOM     73  O   UNL A   1      42.903  22.908  34.141  1.00  0.00    -0.237 OA
ATOM     74  O   UNL A   1      44.269  24.367  32.698  1.00  0.00    -0.744 OA
ENDBRANCH  67  71
ENDBRANCH  50  64
BRANCH  51  75
ATOM     75  C   UNL A   1      42.825  24.878  26.718  1.00  0.00     0.023 A 
ATOM     76  C   UNL A   1      43.868  24.478  25.855  1.00  0.00     0.031 A 
ATOM     77  C   UNL A   1      41.873  23.888  27.054  1.00  0.00     0.131 A 
ATOM     78  C   UNL A   1      43.936  23.148  25.380  1.00  0.00     0.055 A 
ATOM     79  C   UNL A   1      41.939  22.577  26.573  1.00  0.00     0.041 A 
ATOM     80  F   UNL A   1      40.890  24.133  27.934  1.00  0.00    -0.206 F 
ATOM     81  C   UNL A   1      42.980  22.197  25.743  1.00  0.00     0.022 A 
BRANCH  78  82
ATOM     82  S   UNL A   1      45.356  22.597  24.382  1.00  0.00     0.124 S 
ATOM     83  O   UNL A   1      44.705  21.839  23.320  1.00  0.00    -0.237 OA
ATOM     84  O   UNL A   1      45.979  23.856  23.992  1.00  0.00    -0.237 OA
ATOM     85  O   UNL A   1      46.138  21.794  25.324  1.00  0.00    -0.744 OA
ENDBRANCH  78  82
ENDBRANCH  51  75
BRANCH  63  86
ATOM     86  C   UNL A   1      45.088  30.405  29.020  1.00  0.00     0.023 A 
ATOM     87  C   UNL A   1      46.380  30.837  28.644  1.00  0.00     0.031 A 
ATOM     88  C   UNL A   1      44.000  30.815  28.228  1.00  0.00     0.131 A 
ATOM     89  C   UNL A   1      46.541  31.646  27.499  1.00  0.00     0.055 A 
ATOM     90  C   UNL A   1      44.167  31.597  27.087  1.00  0.00     0.041 A 
ATOM     91  F   UNL A   1      42.755  30.404  28.521  1.00  0.00    -0.206 F 
ATOM     92  C   UNL A   1      45.439  32.013  26.717  1.00  0.00     0.022 A 
BRANCH  89  93
ATOM     93  S   UNL A   1      48.200  32.188  26.970  1.00  0.00     0.124 S 
ATOM     94  O   UNL A   1      48.761  32.769  28.185  1.00  0.00    -0.237 OA
ATOM     95  O   UNL A   1      48.818  30.949  26.507  1.00  0.00    -0.237 OA
ATOM     96  O   UNL A   1      47.922  33.156  25.907  1.00  0.00    -0.744 OA
ENDBRANCH  89  93
ENDBRANCH  63  86
ENDBRANCH  37  38
ENDBRANCH  29  32
ENDBRANCH  27  28
ENDBRANCH   1  27
TORSDOF 15
ENDMDL
