MODEL 1
REMARK VINA RESULT:     -11.1      0.000      0.000
REMARK SMILES CCCNC(=O)[C@H](C)Oc1c(F)cc(C(=O)NCCCNC(=O)c2ccc(-c3c4nc(c(-c5cc(S(=O)(=O)[O-])ccc5F)c5ccc([nH]5)c(-c5cc(S(=O)(=O)[O-])ccc5F)c5nc(c(-c6cc(S(=O)(=O)[O-])ccc6F)c6ccc3[nH]6)C=C5)C=C4)cc2)cc1F
REMARK SMILES IDX 18 1 17 2 15 3 16 4 14 6 10 7 11 8 88 9 12 10 13 11 87 12
REMARK SMILES IDX 89 13 9 14 7 15 8 16 5 17 4 18 6 20 3 21 2 22 1 23 19 24
REMARK SMILES IDX 20 25 21 26 22 27 23 29 24 30 25 31 86 32 26 33 85 34 27 35
REMARK SMILES IDX 28 36 29 37 79 38 30 39 84 40 78 41 80 42 31 43 83 44 77 45
REMARK SMILES IDX 76 46 32 48 64 49 44 50 63 51 45 52 48 53 62 54 81 55 46 56
REMARK SMILES IDX 47 57 61 59 82 60 49 61 33 62 34 63 42 64 35 65 41 66 43 67
REMARK SMILES IDX 40 68 36 69 37 70 38 71 39 72 65 73 66 74 74 75 67 76 73 77
REMARK SMILES IDX 75 78 72 79 68 80 69 81 70 82 71 83 50 84 51 85 59 86 52 87
REMARK SMILES IDX 58 88 60 89 57 90 53 91 54 92 55 93 56 94
REMARK H PARENT 17 5 4 19 21 28 80 47 48 58
REMARK Flexibility Score: inf
ROOT
ATOM      1  C   UNL A   1      31.696  30.686  26.641  1.00  0.00     0.118 C 
ENDROOT
BRANCH   1   2
ATOM      2  N   UNL A   1      32.882  30.237  27.350  1.00  0.00    -0.352 N 
ATOM      3  C   UNL A   1      33.873  29.343  27.030  1.00  0.00     0.251 C 
ATOM      4  O   UNL A   1      34.828  29.256  27.804  1.00  0.00    -0.269 OA
ATOM      5  H   UNL A   1      32.997  30.656  28.232  1.00  0.00     0.163 HD
BRANCH   3   6
ATOM      6  C   UNL A   1      33.870  28.499  25.803  1.00  0.00     0.045 A 
ATOM      7  C   UNL A   1      33.840  26.756  23.560  1.00  0.00     0.191 A 
ATOM      8  C   UNL A   1      33.655  28.125  23.418  1.00  0.00     0.168 A 
ATOM      9  C   UNL A   1      33.983  26.261  24.856  1.00  0.00     0.168 A 
ATOM     10  F   UNL A   1      33.406  28.679  22.228  1.00  0.00    -0.203 F 
ATOM     11  C   UNL A   1      33.653  28.983  24.517  1.00  0.00     0.057 A 
ATOM     12  C   UNL A   1      34.015  27.113  25.964  1.00  0.00     0.057 A 
ATOM     13  F   UNL A   1      34.085  24.939  25.065  1.00  0.00    -0.203 F 
BRANCH   7  14
ATOM     14  O   UNL A   1      33.763  25.851  22.538  1.00  0.00    -0.475 OA
BRANCH  14  15
ATOM     15  C   UNL A   1      32.457  25.550  22.006  1.00  0.00     0.259 C 
ATOM     16  C   UNL A   1      32.491  25.577  20.485  1.00  0.00     0.064 C 
BRANCH  15  17
ATOM     17  C   UNL A   1      31.669  24.449  22.774  1.00  0.00     0.260 C 
ATOM     18  N   UNL A   1      30.609  24.671  23.593  1.00  0.00    -0.353 N 
ATOM     19  H   UNL A   1      30.412  23.909  24.184  1.00  0.00     0.163 HD
ATOM     20  O   UNL A   1      32.053  23.270  22.741  1.00  0.00    -0.271 OA
BRANCH  18  21
ATOM     21  C   UNL A   1      29.705  25.789  23.785  1.00  0.00     0.115 C 
BRANCH  21  22
ATOM     22  C   UNL A   1      30.339  26.849  24.688  1.00  0.00     0.018 C 
ATOM     23  C   UNL A   1      30.521  26.350  26.118  1.00  0.00     0.006 C 
ENDBRANCH  21  22
ENDBRANCH  18  21
ENDBRANCH  15  17
ENDBRANCH  14  15
ENDBRANCH   7  14
ENDBRANCH   3   6
ENDBRANCH   1   2
BRANCH   1  24
ATOM     24  C   UNL A   1      31.533  32.207  26.709  1.00  0.00     0.042 C 
BRANCH  24  25
ATOM     25  C   UNL A   1      32.836  32.951  26.985  1.00  0.00     0.118 C 
BRANCH  25  26
ATOM     26  N   UNL A   1      32.600  34.218  27.661  1.00  0.00    -0.352 N 
ATOM     27  C   UNL A   1      33.107  34.704  28.840  1.00  0.00     0.251 C 
ATOM     28  H   UNL A   1      31.977  34.823  27.198  1.00  0.00     0.163 HD
ATOM     29  O   UNL A   1      32.581  35.693  29.344  1.00  0.00    -0.269 OA
BRANCH  27  30
ATOM     30  C   UNL A   1      34.257  34.052  29.508  1.00  0.00     0.039 A 
ATOM     31  C   UNL A   1      35.544  34.297  29.016  1.00  0.00     0.014 A 
ATOM     32  C   UNL A   1      34.079  33.160  30.569  1.00  0.00     0.014 A 
ATOM     33  C   UNL A   1      36.650  33.689  29.617  1.00  0.00     0.010 A 
ATOM     34  C   UNL A   1      35.187  32.610  31.213  1.00  0.00     0.010 A 
ATOM     35  C   UNL A   1      36.483  32.863  30.740  1.00  0.00    -0.014 A 
BRANCH  35  36
ATOM     36  C   UNL A   1      37.652  32.258  31.429  1.00  0.00     0.031 A 
ATOM     37  C   UNL A   1      38.415  31.131  30.786  1.00  0.00     0.074 A 
ATOM     38  C   UNL A   1      37.981  32.680  32.666  1.00  0.00     0.049 A 
ATOM     39  N   UNL A   1      39.406  30.422  31.262  1.00  0.00    -0.248 NA
ATOM     40  C   UNL A   1      37.980  30.729  29.440  1.00  0.00     0.031 C 
ATOM     41  C   UNL A   1      37.287  33.733  33.410  1.00  0.00     0.029 A 
ATOM     42  N   UNL A   1      38.970  32.266  33.524  1.00  0.00    -0.354 N 
ATOM     43  C   UNL A   1      39.702  29.477  30.285  1.00  0.00     0.074 A 
ATOM     44  C   UNL A   1      38.746  29.672  29.215  1.00  0.00     0.031 C 
ATOM     45  C   UNL A   1      37.879  33.892  34.604  1.00  0.00     0.029 A 
ATOM     46  C   UNL A   1      38.964  32.926  34.731  1.00  0.00     0.049 A 
ATOM     47  H   UNL A   1      39.622  31.565  33.296  1.00  0.00     0.167 HD
ATOM     48  C   UNL A   1      40.690  28.548  30.276  1.00  0.00     0.034 A 
ATOM     49  C   UNL A   1      39.733  32.759  35.825  1.00  0.00     0.034 A 
ATOM     50  C   UNL A   1      41.641  28.380  31.350  1.00  0.00     0.049 A 
ATOM     51  C   UNL A   1      40.820  31.716  35.796  1.00  0.00     0.074 A 
ATOM     52  C   UNL A   1      42.727  27.524  31.415  1.00  0.00     0.029 A 
ATOM     53  N   UNL A   1      41.613  29.074  32.554  1.00  0.00    -0.354 N 
ATOM     54  N   UNL A   1      41.130  30.873  34.839  1.00  0.00    -0.248 NA
ATOM     55  C   UNL A   1      41.668  31.613  36.990  1.00  0.00     0.031 C 
ATOM     56  C   UNL A   1      43.309  27.648  32.682  1.00  0.00     0.029 A 
ATOM     57  C   UNL A   1      42.637  28.639  33.381  1.00  0.00     0.049 A 
ATOM     58  H   UNL A   1      40.959  29.773  32.786  1.00  0.00     0.167 HD
ATOM     59  C   UNL A   1      42.224  30.152  35.307  1.00  0.00     0.074 A 
ATOM     60  C   UNL A   1      42.529  30.675  36.624  1.00  0.00     0.031 C 
ATOM     61  C   UNL A   1      42.916  29.153  34.703  1.00  0.00     0.034 A 
BRANCH  48  62
ATOM     62  C   UNL A   1      40.765  27.623  29.080  1.00  0.00     0.023 A 
ATOM     63  C   UNL A   1      41.716  27.804  28.062  1.00  0.00     0.031 A 
ATOM     64  C   UNL A   1      39.848  26.566  28.940  1.00  0.00     0.131 A 
ATOM     65  C   UNL A   1      41.674  27.001  26.911  1.00  0.00     0.055 A 
ATOM     66  C   UNL A   1      39.867  25.714  27.832  1.00  0.00     0.041 A 
ATOM     67  F   UNL A   1      38.903  26.352  29.869  1.00  0.00    -0.206 F 
ATOM     68  C   UNL A   1      40.772  25.941  26.800  1.00  0.00     0.022 A 
BRANCH  65  69
ATOM     69  S   UNL A   1      42.709  27.465  25.494  1.00  0.00     0.124 S 
ATOM     70  O   UNL A   1      42.001  28.636  24.983  1.00  0.00    -0.237 OA
ATOM     71  O   UNL A   1      44.001  27.721  26.118  1.00  0.00    -0.237 OA
ATOM     72  O   UNL A   1      42.655  26.288  24.630  1.00  0.00    -0.744 OA
ENDBRANCH  65  69
ENDBRANCH  48  62
BRANCH  49  73
ATOM     73  C   UNL A   1      39.493  33.586  37.042  1.00  0.00     0.023 A 
ATOM     74  C   UNL A   1      38.771  33.080  38.133  1.00  0.00     0.031 A 
ATOM     75  C   UNL A   1      39.974  34.905  37.122  1.00  0.00     0.131 A 
ATOM     76  C   UNL A   1      38.519  33.900  39.244  1.00  0.00     0.055 A 
ATOM     77  C   UNL A   1      39.763  35.700  38.249  1.00  0.00     0.041 A 
ATOM     78  F   UNL A   1      40.679  35.434  36.109  1.00  0.00    -0.206 F 
ATOM     79  C   UNL A   1      39.021  35.201  39.316  1.00  0.00     0.022 A 
BRANCH  76  80
ATOM     80  S   UNL A   1      37.469  33.258  40.578  1.00  0.00     0.124 S 
ATOM     81  O   UNL A   1      38.344  32.268  41.195  1.00  0.00    -0.237 OA
ATOM     82  O   UNL A   1      37.206  34.460  41.361  1.00  0.00    -0.237 OA
ATOM     83  O   UNL A   1      36.314  32.714  39.869  1.00  0.00    -0.744 OA
ENDBRANCH  76  80
ENDBRANCH  49  73
BRANCH  61  84
ATOM     84  C   UNL A   1      44.093  28.585  35.458  1.00  0.00     0.023 A 
ATOM     85  C   UNL A   1      43.939  27.548  36.396  1.00  0.00     0.031 A 
ATOM     86  C   UNL A   1      45.385  29.099  35.245  1.00  0.00     0.131 A 
ATOM     87  C   UNL A   1      45.049  27.097  37.128  1.00  0.00     0.055 A 
ATOM     88  C   UNL A   1      46.494  28.604  35.932  1.00  0.00     0.041 A 
ATOM     89  F   UNL A   1      45.590  30.091  34.365  1.00  0.00    -0.206 F 
ATOM     90  C   UNL A   1      46.328  27.607  36.889  1.00  0.00     0.022 A 
BRANCH  87  91
ATOM     91  S   UNL A   1      44.783  25.901  38.465  1.00  0.00     0.124 S 
ATOM     92  O   UNL A   1      44.250  24.751  37.741  1.00  0.00    -0.237 OA
ATOM     93  O   UNL A   1      46.125  25.743  39.015  1.00  0.00    -0.237 OA
ATOM     94  O   UNL A   1      43.830  26.576  39.343  1.00  0.00    -0.744 OA
ENDBRANCH  87  91
ENDBRANCH  61  84
ENDBRANCH  35  36
ENDBRANCH  27  30
ENDBRANCH  25  26
ENDBRANCH  24  25
ENDBRANCH   1  24
TORSDOF 18
ENDMDL
MODEL 2
REMARK VINA RESULT:     -11.0      5.924     11.663
REMARK SMILES CCCNC(=O)[C@H](C)Oc1c(F)cc(C(=O)NCCCNC(=O)c2ccc(-c3c4nc(c(-c5cc(S(=O)(=O)[O-])ccc5F)c5ccc([nH]5)c(-c5cc(S(=O)(=O)[O-])ccc5F)c5nc(c(-c6cc(S(=O)(=O)[O-])ccc6F)c6ccc3[nH]6)C=C5)C=C4)cc2)cc1F
REMARK SMILES IDX 18 1 17 2 15 3 16 4 14 6 10 7 11 8 88 9 12 10 13 11 87 12
REMARK SMILES IDX 89 13 9 14 7 15 8 16 5 17 4 18 6 20 3 21 2 22 1 23 19 24
REMARK SMILES IDX 20 25 21 26 22 27 23 29 24 30 25 31 86 32 26 33 85 34 27 35
REMARK SMILES IDX 28 36 29 37 79 38 30 39 84 40 78 41 80 42 31 43 83 44 77 45
REMARK SMILES IDX 76 46 32 48 64 49 44 50 63 51 45 52 48 53 62 54 81 55 46 56
REMARK SMILES IDX 47 57 61 59 82 60 49 61 33 62 34 63 42 64 35 65 41 66 43 67
REMARK SMILES IDX 40 68 36 69 37 70 38 71 39 72 65 73 66 74 74 75 67 76 73 77
REMARK SMILES IDX 75 78 72 79 68 80 69 81 70 82 71 83 50 84 51 85 59 86 52 87
REMARK SMILES IDX 58 88 60 89 57 90 53 91 54 92 55 93 56 94
REMARK H PARENT 17 5 4 19 21 28 80 47 48 58
REMARK Flexibility Score: inf
ROOT
ATOM      1  C   UNL A   1      37.436  21.130  24.579  1.00  0.00     0.118 C 
ENDROOT
BRANCH   1   2
ATOM      2  N   UNL A   1      38.018  22.354  25.102  1.00  0.00    -0.352 N 
ATOM      3  C   UNL A   1      37.474  23.451  25.722  1.00  0.00     0.251 C 
ATOM      4  O   UNL A   1      38.253  24.297  26.162  1.00  0.00    -0.269 OA
ATOM      5  H   UNL A   1      38.994  22.406  24.991  1.00  0.00     0.163 HD
BRANCH   3   6
ATOM      6  C   UNL A   1      36.011  23.662  25.909  1.00  0.00     0.045 A 
ATOM      7  C   UNL A   1      33.231  23.971  26.403  1.00  0.00     0.191 A 
ATOM      8  C   UNL A   1      33.912  24.814  25.534  1.00  0.00     0.168 A 
ATOM      9  C   UNL A   1      33.978  23.001  27.071  1.00  0.00     0.168 A 
ATOM     10  F   UNL A   1      33.302  25.838  24.930  1.00  0.00    -0.203 F 
ATOM     11  C   UNL A   1      35.279  24.677  25.300  1.00  0.00     0.057 A 
ATOM     12  C   UNL A   1      35.343  22.831  26.822  1.00  0.00     0.057 A 
ATOM     13  F   UNL A   1      33.393  22.209  27.982  1.00  0.00    -0.203 F 
BRANCH   7  14
ATOM     14  O   UNL A   1      31.913  24.107  26.746  1.00  0.00    -0.475 OA
BRANCH  14  15
ATOM     15  C   UNL A   1      30.948  23.316  26.024  1.00  0.00     0.259 C 
ATOM     16  C   UNL A   1      29.769  22.976  26.924  1.00  0.00     0.064 C 
BRANCH  15  17
ATOM     17  C   UNL A   1      30.733  23.731  24.539  1.00  0.00     0.260 C 
ATOM     18  N   UNL A   1      30.075  24.843  24.123  1.00  0.00    -0.353 N 
ATOM     19  H   UNL A   1      29.813  24.805  23.175  1.00  0.00     0.163 HD
ATOM     20  O   UNL A   1      31.090  22.975  23.623  1.00  0.00    -0.271 OA
BRANCH  18  21
ATOM     21  C   UNL A   1      29.676  26.076  24.775  1.00  0.00     0.115 C 
BRANCH  21  22
ATOM     22  C   UNL A   1      30.420  27.271  24.177  1.00  0.00     0.018 C 
ATOM     23  C   UNL A   1      29.588  28.000  23.128  1.00  0.00     0.006 C 
ENDBRANCH  21  22
ENDBRANCH  18  21
ENDBRANCH  15  17
ENDBRANCH  14  15
ENDBRANCH   7  14
ENDBRANCH   3   6
ENDBRANCH   1   2
BRANCH   1  24
ATOM     24  C   UNL A   1      38.278  19.902  24.934  1.00  0.00     0.042 C 
BRANCH  24  25
ATOM     25  C   UNL A   1      39.248  20.136  26.088  1.00  0.00     0.118 C 
BRANCH  25  26
ATOM     26  N   UNL A   1      40.366  19.206  26.050  1.00  0.00    -0.352 N 
ATOM     27  C   UNL A   1      41.719  19.443  26.049  1.00  0.00     0.251 C 
ATOM     28  H   UNL A   1      40.112  18.256  26.019  1.00  0.00     0.163 HD
ATOM     29  O   UNL A   1      42.477  18.520  25.762  1.00  0.00    -0.269 OA
BRANCH  27  30
ATOM     30  C   UNL A   1      42.264  20.782  26.373  1.00  0.00     0.039 A 
ATOM     31  C   UNL A   1      42.570  21.652  25.321  1.00  0.00     0.014 A 
ATOM     32  C   UNL A   1      42.532  21.164  27.690  1.00  0.00     0.014 A 
ATOM     33  C   UNL A   1      43.095  22.918  25.593  1.00  0.00     0.010 A 
ATOM     34  C   UNL A   1      42.990  22.452  27.964  1.00  0.00     0.010 A 
ATOM     35  C   UNL A   1      43.282  23.341  26.918  1.00  0.00    -0.014 A 
BRANCH  35  36
ATOM     36  C   UNL A   1      43.782  24.706  27.227  1.00  0.00     0.031 A 
ATOM     37  C   UNL A   1      42.845  25.757  27.758  1.00  0.00     0.074 A 
ATOM     38  C   UNL A   1      45.067  25.015  26.961  1.00  0.00     0.049 A 
ATOM     39  N   UNL A   1      43.073  27.020  28.009  1.00  0.00    -0.248 NA
ATOM     40  C   UNL A   1      41.459  25.334  28.008  1.00  0.00     0.031 C 
ATOM     41  C   UNL A   1      46.057  24.092  26.402  1.00  0.00     0.029 A 
ATOM     42  N   UNL A   1      45.758  26.192  27.109  1.00  0.00    -0.354 N 
ATOM     43  C   UNL A   1      41.856  27.550  28.428  1.00  0.00     0.074 A 
ATOM     44  C   UNL A   1      40.885  26.480  28.342  1.00  0.00     0.031 C 
ATOM     45  C   UNL A   1      47.229  24.733  26.268  1.00  0.00     0.029 A 
ATOM     46  C   UNL A   1      47.065  26.120  26.688  1.00  0.00     0.049 A 
ATOM     47  H   UNL A   1      45.355  27.009  27.483  1.00  0.00     0.167 HD
ATOM     48  C   UNL A   1      41.582  28.807  28.860  1.00  0.00     0.034 A 
ATOM     49  C   UNL A   1      48.019  27.069  26.627  1.00  0.00     0.034 A 
ATOM     50  C   UNL A   1      42.571  29.856  28.949  1.00  0.00     0.049 A 
ATOM     51  C   UNL A   1      47.692  28.460  27.106  1.00  0.00     0.074 A 
ATOM     52  C   UNL A   1      42.424  31.141  29.442  1.00  0.00     0.029 A 
ATOM     53  N   UNL A   1      43.890  29.745  28.524  1.00  0.00    -0.354 N 
ATOM     54  N   UNL A   1      46.554  28.930  27.560  1.00  0.00    -0.248 NA
ATOM     55  C   UNL A   1      48.782  29.443  27.074  1.00  0.00     0.031 C 
ATOM     56  C   UNL A   1      43.628  31.827  29.248  1.00  0.00     0.029 A 
ATOM     57  C   UNL A   1      44.555  30.948  28.708  1.00  0.00     0.049 A 
ATOM     58  H   UNL A   1      44.293  28.930  28.147  1.00  0.00     0.167 HD
ATOM     59  C   UNL A   1      46.797  30.260  27.889  1.00  0.00     0.074 A 
ATOM     60  C   UNL A   1      48.195  30.508  27.598  1.00  0.00     0.031 C 
ATOM     61  C   UNL A   1      45.944  31.190  28.391  1.00  0.00     0.034 A 
BRANCH  48  62
ATOM     62  C   UNL A   1      40.150  29.118  29.234  1.00  0.00     0.023 A 
ATOM     63  C   UNL A   1      39.740  29.226  30.574  1.00  0.00     0.031 A 
ATOM     64  C   UNL A   1      39.172  29.274  28.236  1.00  0.00     0.131 A 
ATOM     65  C   UNL A   1      38.380  29.392  30.882  1.00  0.00     0.055 A 
ATOM     66  C   UNL A   1      37.833  29.527  28.547  1.00  0.00     0.041 A 
ATOM     67  F   UNL A   1      39.495  29.163  26.938  1.00  0.00    -0.206 F 
ATOM     68  C   UNL A   1      37.427  29.569  29.878  1.00  0.00     0.022 A 
BRANCH  65  69
ATOM     69  S   UNL A   1      37.857  29.214  32.610  1.00  0.00     0.124 S 
ATOM     70  O   UNL A   1      37.718  27.764  32.728  1.00  0.00    -0.237 OA
ATOM     71  O   UNL A   1      38.968  29.811  33.340  1.00  0.00    -0.237 OA
ATOM     72  O   UNL A   1      36.601  29.958  32.667  1.00  0.00    -0.744 OA
ENDBRANCH  65  69
ENDBRANCH  48  62
BRANCH  49  73
ATOM     73  C   UNL A   1      49.367  26.742  26.080  1.00  0.00     0.023 A 
ATOM     74  C   UNL A   1      49.760  27.179  24.807  1.00  0.00     0.031 A 
ATOM     75  C   UNL A   1      50.278  25.971  26.825  1.00  0.00     0.131 A 
ATOM     76  C   UNL A   1      51.017  26.812  24.299  1.00  0.00     0.055 A 
ATOM     77  C   UNL A   1      51.545  25.650  26.336  1.00  0.00     0.041 A 
ATOM     78  F   UNL A   1      49.955  25.536  28.053  1.00  0.00    -0.206 F 
ATOM     79  C   UNL A   1      51.917  26.063  25.060  1.00  0.00     0.022 A 
BRANCH  76  80
ATOM     80  S   UNL A   1      51.438  27.281  22.598  1.00  0.00     0.124 S 
ATOM     81  O   UNL A   1      52.650  26.504  22.366  1.00  0.00    -0.237 OA
ATOM     82  O   UNL A   1      50.252  26.854  21.864  1.00  0.00    -0.237 OA
ATOM     83  O   UNL A   1      51.629  28.727  22.681  1.00  0.00    -0.744 OA
ENDBRANCH  76  80
ENDBRANCH  49  73
BRANCH  61  84
ATOM     84  C   UNL A   1      46.518  32.554  28.684  1.00  0.00     0.023 A 
ATOM     85  C   UNL A   1      46.497  33.586  27.727  1.00  0.00     0.031 A 
ATOM     86  C   UNL A   1      47.107  32.821  29.933  1.00  0.00     0.131 A 
ATOM     87  C   UNL A   1      47.105  34.818  28.015  1.00  0.00     0.055 A 
ATOM     88  C   UNL A   1      47.655  34.069  30.234  1.00  0.00     0.041 A 
ATOM     89  F   UNL A   1      47.158  31.873  30.881  1.00  0.00    -0.206 F 
ATOM     90  C   UNL A   1      47.669  35.071  29.268  1.00  0.00     0.022 A 
BRANCH  87  91
ATOM     91  S   UNL A   1      47.235  36.054  26.695  1.00  0.00     0.124 S 
ATOM     92  O   UNL A   1      48.387  36.840  27.127  1.00  0.00    -0.237 OA
ATOM     93  O   UNL A   1      47.435  35.227  25.510  1.00  0.00    -0.237 OA
ATOM     94  O   UNL A   1      45.952  36.752  26.752  1.00  0.00    -0.744 OA
ENDBRANCH  87  91
ENDBRANCH  61  84
ENDBRANCH  35  36
ENDBRANCH  27  30
ENDBRANCH  25  26
ENDBRANCH  24  25
ENDBRANCH   1  24
TORSDOF 18
ENDMDL
MODEL 3
REMARK VINA RESULT:     -11.0      1.447      2.125
REMARK SMILES CCCNC(=O)[C@H](C)Oc1c(F)cc(C(=O)NCCCNC(=O)c2ccc(-c3c4nc(c(-c5cc(S(=O)(=O)[O-])ccc5F)c5ccc([nH]5)c(-c5cc(S(=O)(=O)[O-])ccc5F)c5nc(c(-c6cc(S(=O)(=O)[O-])ccc6F)c6ccc3[nH]6)C=C5)C=C4)cc2)cc1F
REMARK SMILES IDX 18 1 17 2 15 3 16 4 14 6 10 7 11 8 88 9 12 10 13 11 87 12
REMARK SMILES IDX 89 13 9 14 7 15 8 16 5 17 4 18 6 20 3 21 2 22 1 23 19 24
REMARK SMILES IDX 20 25 21 26 22 27 23 29 24 30 25 31 86 32 26 33 85 34 27 35
REMARK SMILES IDX 28 36 29 37 79 38 30 39 84 40 78 41 80 42 31 43 83 44 77 45
REMARK SMILES IDX 76 46 32 48 64 49 44 50 63 51 45 52 48 53 62 54 81 55 46 56
REMARK SMILES IDX 47 57 61 59 82 60 49 61 33 62 34 63 42 64 35 65 41 66 43 67
REMARK SMILES IDX 40 68 36 69 37 70 38 71 39 72 65 73 66 74 74 75 67 76 73 77
REMARK SMILES IDX 75 78 72 79 68 80 69 81 70 82 71 83 50 84 51 85 59 86 52 87
REMARK SMILES IDX 58 88 60 89 57 90 53 91 54 92 55 93 56 94
REMARK H PARENT 17 5 4 19 21 28 80 47 48 58
REMARK Flexibility Score: inf
ROOT
ATOM      1  C   UNL A   1      31.600  30.720  26.727  1.00  0.00     0.118 C 
ENDROOT
BRANCH   1   2
ATOM      2  N   UNL A   1      32.844  30.240  27.303  1.00  0.00    -0.352 N 
ATOM      3  C   UNL A   1      33.499  29.036  27.228  1.00  0.00     0.251 C 
ATOM      4  O   UNL A   1      34.615  28.966  27.745  1.00  0.00    -0.269 OA
ATOM      5  H   UNL A   1      33.307  30.908  27.857  1.00  0.00     0.163 HD
BRANCH   3   6
ATOM      6  C   UNL A   1      32.952  27.831  26.545  1.00  0.00     0.045 A 
ATOM      7  C   UNL A   1      31.757  25.580  25.291  1.00  0.00     0.191 A 
ATOM      8  C   UNL A   1      33.043  25.992  24.969  1.00  0.00     0.168 A 
ATOM      9  C   UNL A   1      31.050  26.350  26.214  1.00  0.00     0.168 A 
ATOM     10  F   UNL A   1      33.758  25.380  24.020  1.00  0.00    -0.203 F 
ATOM     11  C   UNL A   1      33.629  27.105  25.569  1.00  0.00     0.057 A 
ATOM     12  C   UNL A   1      31.636  27.450  26.848  1.00  0.00     0.057 A 
ATOM     13  F   UNL A   1      29.776  26.050  26.506  1.00  0.00    -0.203 F 
BRANCH   7  14
ATOM     14  O   UNL A   1      31.092  24.555  24.676  1.00  0.00    -0.475 OA
BRANCH  14  15
ATOM     15  C   UNL A   1      31.289  23.223  25.192  1.00  0.00     0.259 C 
ATOM     16  C   UNL A   1      32.093  22.391  24.204  1.00  0.00     0.064 C 
BRANCH  15  17
ATOM     17  C   UNL A   1      31.563  23.142  26.722  1.00  0.00     0.260 C 
ATOM     18  N   UNL A   1      32.774  22.911  27.291  1.00  0.00    -0.353 N 
ATOM     19  H   UNL A   1      32.711  22.635  28.233  1.00  0.00     0.163 HD
ATOM     20  O   UNL A   1      30.621  23.195  27.528  1.00  0.00    -0.271 OA
BRANCH  18  21
ATOM     21  C   UNL A   1      34.140  22.981  26.808  1.00  0.00     0.115 C 
BRANCH  21  22
ATOM     22  C   UNL A   1      34.734  21.579  26.657  1.00  0.00     0.018 C 
ATOM     23  C   UNL A   1      35.683  21.483  25.467  1.00  0.00     0.006 C 
ENDBRANCH  21  22
ENDBRANCH  18  21
ENDBRANCH  15  17
ENDBRANCH  14  15
ENDBRANCH   7  14
ENDBRANCH   3   6
ENDBRANCH   1   2
BRANCH   1  24
ATOM     24  C   UNL A   1      31.500  32.247  26.782  1.00  0.00     0.042 C 
BRANCH  24  25
ATOM     25  C   UNL A   1      32.810  32.935  27.154  1.00  0.00     0.118 C 
BRANCH  25  26
ATOM     26  N   UNL A   1      32.586  34.272  27.682  1.00  0.00    -0.352 N 
ATOM     27  C   UNL A   1      33.127  34.897  28.778  1.00  0.00     0.251 C 
ATOM     28  H   UNL A   1      31.942  34.815  27.172  1.00  0.00     0.163 HD
ATOM     29  O   UNL A   1      32.609  35.936  29.179  1.00  0.00    -0.269 OA
BRANCH  27  30
ATOM     30  C   UNL A   1      34.305  34.333  29.479  1.00  0.00     0.039 A 
ATOM     31  C   UNL A   1      34.106  33.676  30.698  1.00  0.00     0.014 A 
ATOM     32  C   UNL A   1      35.601  34.495  28.982  1.00  0.00     0.014 A 
ATOM     33  C   UNL A   1      35.196  33.142  31.390  1.00  0.00     0.010 A 
ATOM     34  C   UNL A   1      36.679  33.901  29.637  1.00  0.00     0.010 A 
ATOM     35  C   UNL A   1      36.489  33.223  30.850  1.00  0.00    -0.014 A 
BRANCH  35  36
ATOM     36  C   UNL A   1      37.652  32.607  31.542  1.00  0.00     0.031 A 
ATOM     37  C   UNL A   1      38.397  31.465  30.906  1.00  0.00     0.074 A 
ATOM     38  C   UNL A   1      37.989  33.034  32.775  1.00  0.00     0.049 A 
ATOM     39  N   UNL A   1      39.380  30.747  31.385  1.00  0.00    -0.248 NA
ATOM     40  C   UNL A   1      37.954  31.059  29.564  1.00  0.00     0.031 C 
ATOM     41  C   UNL A   1      37.311  34.102  33.511  1.00  0.00     0.029 A 
ATOM     42  N   UNL A   1      38.974  32.614  33.633  1.00  0.00    -0.354 N 
ATOM     43  C   UNL A   1      39.661  29.791  30.414  1.00  0.00     0.074 A 
ATOM     44  C   UNL A   1      38.705  29.990  29.345  1.00  0.00     0.031 C 
ATOM     45  C   UNL A   1      37.908  34.263  34.703  1.00  0.00     0.029 A 
ATOM     46  C   UNL A   1      38.980  33.283  34.835  1.00  0.00     0.049 A 
ATOM     47  H   UNL A   1      39.616  31.902  33.409  1.00  0.00     0.167 HD
ATOM     48  C   UNL A   1      40.636  28.847  30.410  1.00  0.00     0.034 A 
ATOM     49  C   UNL A   1      39.749  33.114  35.928  1.00  0.00     0.034 A 
ATOM     50  C   UNL A   1      41.588  28.676  31.483  1.00  0.00     0.049 A 
ATOM     51  C   UNL A   1      40.822  32.057  35.905  1.00  0.00     0.074 A 
ATOM     52  C   UNL A   1      42.662  27.806  31.552  1.00  0.00     0.029 A 
ATOM     53  N   UNL A   1      41.571  29.379  32.682  1.00  0.00    -0.354 N 
ATOM     54  N   UNL A   1      41.118  31.202  34.954  1.00  0.00    -0.248 NA
ATOM     55  C   UNL A   1      41.671  31.951  37.098  1.00  0.00     0.031 C 
ATOM     56  C   UNL A   1      43.249  27.931  32.817  1.00  0.00     0.029 A 
ATOM     57  C   UNL A   1      42.592  28.936  33.511  1.00  0.00     0.049 A 
ATOM     58  H   UNL A   1      40.928  30.088  32.910  1.00  0.00     0.167 HD
ATOM     59  C   UNL A   1      42.203  30.469  35.426  1.00  0.00     0.074 A 
ATOM     60  C   UNL A   1      42.518  30.998  36.738  1.00  0.00     0.031 C 
ATOM     61  C   UNL A   1      42.881  29.457  34.828  1.00  0.00     0.034 A 
BRANCH  48  62
ATOM     62  C   UNL A   1      40.696  27.913  29.222  1.00  0.00     0.023 A 
ATOM     63  C   UNL A   1      41.622  28.096  28.180  1.00  0.00     0.031 A 
ATOM     64  C   UNL A   1      39.790  26.843  29.112  1.00  0.00     0.131 A 
ATOM     65  C   UNL A   1      41.564  27.282  27.038  1.00  0.00     0.055 A 
ATOM     66  C   UNL A   1      39.794  25.981  28.012  1.00  0.00     0.041 A 
ATOM     67  F   UNL A   1      38.868  26.626  30.064  1.00  0.00    -0.206 F 
ATOM     68  C   UNL A   1      40.673  26.210  26.957  1.00  0.00     0.022 A 
BRANCH  65  69
ATOM     69  S   UNL A   1      42.561  27.746  25.594  1.00  0.00     0.124 S 
ATOM     70  O   UNL A   1      43.879  27.937  26.195  1.00  0.00    -0.237 OA
ATOM     71  O   UNL A   1      42.416  26.585  24.725  1.00  0.00    -0.237 OA
ATOM     72  O   UNL A   1      41.921  28.969  25.115  1.00  0.00    -0.744 OA
ENDBRANCH  65  69
ENDBRANCH  48  62
BRANCH  49  73
ATOM     73  C   UNL A   1      39.523  33.953  37.139  1.00  0.00     0.023 A 
ATOM     74  C   UNL A   1      38.859  33.441  38.264  1.00  0.00     0.031 A 
ATOM     75  C   UNL A   1      39.958  35.290  37.181  1.00  0.00     0.131 A 
ATOM     76  C   UNL A   1      38.618  34.272  39.371  1.00  0.00     0.055 A 
ATOM     77  C   UNL A   1      39.759  36.097  38.301  1.00  0.00     0.041 A 
ATOM     78  F   UNL A   1      40.607  35.825  36.134  1.00  0.00    -0.206 F 
ATOM     79  C   UNL A   1      39.075  35.591  39.402  1.00  0.00     0.022 A 
BRANCH  76  80
ATOM     80  S   UNL A   1      37.640  33.617  40.752  1.00  0.00     0.124 S 
ATOM     81  O   UNL A   1      37.347  34.829  41.509  1.00  0.00    -0.237 OA
ATOM     82  O   UNL A   1      36.512  33.003  40.060  1.00  0.00    -0.237 OA
ATOM     83  O   UNL A   1      38.554  32.681  41.401  1.00  0.00    -0.744 OA
ENDBRANCH  76  80
ENDBRANCH  49  73
BRANCH  61  84
ATOM     84  C   UNL A   1      44.052  28.879  35.584  1.00  0.00     0.023 A 
ATOM     85  C   UNL A   1      43.901  27.786  36.457  1.00  0.00     0.031 A 
ATOM     86  C   UNL A   1      45.333  29.439  35.440  1.00  0.00     0.131 A 
ATOM     87  C   UNL A   1      45.002  27.324  37.195  1.00  0.00     0.055 A 
ATOM     88  C   UNL A   1      46.437  28.936  36.131  1.00  0.00     0.041 A 
ATOM     89  F   UNL A   1      45.534  30.485  34.625  1.00  0.00    -0.206 F 
ATOM     90  C   UNL A   1      46.272  27.881  37.024  1.00  0.00     0.022 A 
BRANCH  87  91
ATOM     91  S   UNL A   1      44.733  26.046  38.454  1.00  0.00     0.124 S 
ATOM     92  O   UNL A   1      43.849  25.117  37.757  1.00  0.00    -0.237 OA
ATOM     93  O   UNL A   1      46.087  25.569  38.709  1.00  0.00    -0.237 OA
ATOM     94  O   UNL A   1      44.116  26.778  39.558  1.00  0.00    -0.744 OA
ENDBRANCH  87  91
ENDBRANCH  61  84
ENDBRANCH  35  36
ENDBRANCH  27  30
ENDBRANCH  25  26
ENDBRANCH  24  25
ENDBRANCH   1  24
TORSDOF 18
ENDMDL
