MODEL 1
REMARK VINA RESULT:     -12.7      0.000      0.000
REMARK SMILES C[C@@H]1[C@H](C(=O)NCCCNC(=O)c2ccc(-c3c4nc(c(-c5cc(S(=O)(=O)[O-])ccc5F)c5ccc([nH]5)c(-c5cc(S(=O)(=O)[O-])ccc5F)c5nc(c(-c6cc(S(=O)(=O)[O-])ccc6F)c6ccc3[nH]6)C=C5)C=C4)cc2)CCN1S(=O)(=O)c1cc(F)cc(F)c1
REMARK SMILES IDX 8 1 7 2 6 3 4 4 5 5 3 7 1 8 2 9 78 10 76 11 77 12 79 13
REMARK SMILES IDX 80 14 81 15 82 16 83 17 89 18 84 19 87 20 85 21 86 22 88 23
REMARK SMILES IDX 9 24 10 25 11 26 12 28 13 29 14 30 75 31 15 32 74 33 16 34
REMARK SMILES IDX 17 35 18 36 68 37 19 38 73 39 67 40 69 41 20 42 72 43 66 44
REMARK SMILES IDX 65 45 21 47 53 48 33 49 52 50 34 51 37 52 51 53 70 54 35 55
REMARK SMILES IDX 36 56 50 58 71 59 38 60 22 61 23 62 31 63 24 64 30 65 32 66
REMARK SMILES IDX 29 67 25 68 26 69 27 70 28 71 54 72 55 73 63 74 56 75 62 76
REMARK SMILES IDX 64 77 61 78 57 79 58 80 59 81 60 82 39 83 40 84 48 85 41 86
REMARK SMILES IDX 47 87 49 88 46 89 42 90 43 91 44 92 45 93
REMARK H PARENT 6 6 10 27 69 46 37 57
REMARK Flexibility Score: inf
ROOT
ATOM      1  C   UNL A   1      31.366  31.903  26.648  1.00  0.00     0.042 C 
ENDROOT
BRANCH   1   2
ATOM      2  C   UNL A   1      31.506  30.631  25.804  1.00  0.00     0.117 C 
BRANCH   2   3
ATOM      3  N   UNL A   1      30.697  30.631  24.590  1.00  0.00    -0.356 N 
ATOM      4  C   UNL A   1      30.231  29.685  23.740  1.00  0.00     0.224 C 
ATOM      5  O   UNL A   1      29.513  30.109  22.823  1.00  0.00    -0.275 OA
ATOM      6  H   UNL A   1      30.423  31.539  24.324  1.00  0.00     0.163 HD
BRANCH   4   7
ATOM      7  C   UNL A   1      30.534  28.192  23.780  1.00  0.00     0.098 C 
ATOM      8  C   UNL A   1      32.719  28.538  22.497  1.00  0.00     0.026 C 
ATOM      9  C   UNL A   1      31.539  27.633  22.758  1.00  0.00     0.082 C 
ATOM     10  N   UNL A   1      31.890  26.256  23.274  1.00  0.00    -0.194 NA
ATOM     11  C   UNL A   1      30.924  27.541  25.086  1.00  0.00     0.032 C 
ATOM     12  C   UNL A   1      31.262  26.126  24.640  1.00  0.00     0.104 C 
BRANCH  10  13
ATOM     13  S   UNL A   1      33.450  25.573  23.239  1.00  0.00     0.243 S 
ATOM     14  O   UNL A   1      33.974  25.787  21.903  1.00  0.00    -0.207 OA
ATOM     15  O   UNL A   1      34.150  26.107  24.388  1.00  0.00    -0.207 OA
BRANCH  13  16
ATOM     16  C   UNL A   1      33.384  23.822  23.494  1.00  0.00     0.088 A 
ATOM     17  C   UNL A   1      32.552  23.105  22.622  1.00  0.00     0.061 A 
ATOM     18  C   UNL A   1      34.042  23.157  24.525  1.00  0.00     0.061 A 
ATOM     19  C   UNL A   1      32.341  21.748  22.832  1.00  0.00     0.127 A 
ATOM     20  C   UNL A   1      33.770  21.807  24.742  1.00  0.00     0.127 A 
ATOM     21  F   UNL A   1      31.551  21.068  21.991  1.00  0.00    -0.207 F 
ATOM     22  C   UNL A   1      32.920  21.093  23.909  1.00  0.00     0.078 A 
ATOM     23  F   UNL A   1      34.327  21.193  25.794  1.00  0.00    -0.207 F 
ENDBRANCH  13  16
ENDBRANCH  10  13
ENDBRANCH   4   7
ENDBRANCH   2   3
ENDBRANCH   1   2
BRANCH   1  24
ATOM     24  C   UNL A   1      32.663  32.428  27.248  1.00  0.00     0.118 C 
BRANCH  24  25
ATOM     25  N   UNL A   1      32.585  33.851  27.514  1.00  0.00    -0.352 N 
ATOM     26  C   UNL A   1      33.145  34.605  28.518  1.00  0.00     0.251 C 
ATOM     27  H   UNL A   1      32.042  34.361  26.870  1.00  0.00     0.163 HD
ATOM     28  O   UNL A   1      32.682  35.726  28.722  1.00  0.00    -0.269 OA
BRANCH  26  29
ATOM     29  C   UNL A   1      34.270  34.111  29.361  1.00  0.00     0.039 A 
ATOM     30  C   UNL A   1      35.579  34.430  28.974  1.00  0.00     0.014 A 
ATOM     31  C   UNL A   1      34.079  33.247  30.442  1.00  0.00     0.014 A 
ATOM     32  C   UNL A   1      36.677  33.905  29.670  1.00  0.00     0.010 A 
ATOM     33  C   UNL A   1      35.172  32.788  31.187  1.00  0.00     0.010 A 
ATOM     34  C   UNL A   1      36.486  33.085  30.792  1.00  0.00    -0.014 A 
BRANCH  34  35
ATOM     35  C   UNL A   1      37.639  32.472  31.512  1.00  0.00     0.031 A 
ATOM     36  C   UNL A   1      38.404  31.334  30.880  1.00  0.00     0.074 A 
ATOM     37  C   UNL A   1      37.984  32.901  32.742  1.00  0.00     0.049 A 
ATOM     38  N   UNL A   1      39.375  30.605  31.373  1.00  0.00    -0.248 NA
ATOM     39  C   UNL A   1      38.000  30.946  29.520  1.00  0.00     0.031 C 
ATOM     40  C   UNL A   1      37.319  33.976  33.480  1.00  0.00     0.029 A 
ATOM     41  N   UNL A   1      38.976  32.480  33.595  1.00  0.00    -0.354 N 
ATOM     42  C   UNL A   1      39.679  29.660  30.398  1.00  0.00     0.074 A 
ATOM     43  C   UNL A   1      38.751  29.876  29.308  1.00  0.00     0.031 C 
ATOM     44  C   UNL A   1      37.933  34.141  34.664  1.00  0.00     0.029 A 
ATOM     45  C   UNL A   1      39.007  33.161  34.789  1.00  0.00     0.049 A 
ATOM     46  H   UNL A   1      39.607  31.756  33.371  1.00  0.00     0.167 HD
ATOM     47  C   UNL A   1      40.653  28.714  30.396  1.00  0.00     0.034 A 
ATOM     48  C   UNL A   1      39.802  33.008  35.868  1.00  0.00     0.034 A 
ATOM     49  C   UNL A   1      41.595  28.526  31.472  1.00  0.00     0.049 A 
ATOM     50  C   UNL A   1      40.876  31.949  35.849  1.00  0.00     0.074 A 
ATOM     51  C   UNL A   1      42.652  27.632  31.550  1.00  0.00     0.029 A 
ATOM     52  N   UNL A   1      41.599  29.245  32.660  1.00  0.00    -0.354 N 
ATOM     53  N   UNL A   1      41.162  31.080  34.907  1.00  0.00    -0.248 NA
ATOM     54  C   UNL A   1      41.737  31.858  37.035  1.00  0.00     0.031 C 
ATOM     55  C   UNL A   1      43.258  27.776  32.804  1.00  0.00     0.029 A 
ATOM     56  C   UNL A   1      42.622  28.801  33.484  1.00  0.00     0.049 A 
ATOM     57  H   UNL A   1      40.966  29.965  32.886  1.00  0.00     0.167 HD
ATOM     58  C   UNL A   1      42.255  30.359  35.379  1.00  0.00     0.074 A 
ATOM     59  C   UNL A   1      42.583  30.902  36.681  1.00  0.00     0.031 C 
ATOM     60  C   UNL A   1      42.932  29.343  34.785  1.00  0.00     0.034 A 
BRANCH  47  61
ATOM     61  C   UNL A   1      40.724  27.794  29.200  1.00  0.00     0.023 A 
ATOM     62  C   UNL A   1      41.666  27.987  28.173  1.00  0.00     0.031 A 
ATOM     63  C   UNL A   1      39.815  26.729  29.064  1.00  0.00     0.131 A 
ATOM     64  C   UNL A   1      41.622  27.187  27.022  1.00  0.00     0.055 A 
ATOM     65  C   UNL A   1      39.831  25.882  27.955  1.00  0.00     0.041 A 
ATOM     66  F   UNL A   1      38.882  26.504  30.003  1.00  0.00    -0.206 F 
ATOM     67  C   UNL A   1      40.729  26.119  26.916  1.00  0.00     0.022 A 
BRANCH  64  68
ATOM     68  S   UNL A   1      42.651  27.655  25.604  1.00  0.00     0.124 S 
ATOM     69  O   UNL A   1      43.942  27.896  26.245  1.00  0.00    -0.237 OA
ATOM     70  O   UNL A   1      42.571  26.474  24.752  1.00  0.00    -0.237 OA
ATOM     71  O   UNL A   1      41.991  28.849  25.080  1.00  0.00    -0.744 OA
ENDBRANCH  64  68
ENDBRANCH  47  61
BRANCH  48  72
ATOM     72  C   UNL A   1      39.615  33.871  37.068  1.00  0.00     0.023 A 
ATOM     73  C   UNL A   1      38.986  33.376  38.222  1.00  0.00     0.031 A 
ATOM     74  C   UNL A   1      40.028  35.215  37.063  1.00  0.00     0.131 A 
ATOM     75  C   UNL A   1      38.751  34.230  39.310  1.00  0.00     0.055 A 
ATOM     76  C   UNL A   1      39.832  36.049  38.166  1.00  0.00     0.041 A 
ATOM     77  F   UNL A   1      40.639  35.733  35.987  1.00  0.00    -0.206 F 
ATOM     78  C   UNL A   1      39.180  35.560  39.294  1.00  0.00     0.022 A 
BRANCH  75  79
ATOM     79  S   UNL A   1      37.809  33.596  40.725  1.00  0.00     0.124 S 
ATOM     80  O   UNL A   1      37.277  34.824  41.303  1.00  0.00    -0.237 OA
ATOM     81  O   UNL A   1      36.841  32.720  40.075  1.00  0.00    -0.237 OA
ATOM     82  O   UNL A   1      38.822  32.915  41.530  1.00  0.00    -0.744 OA
ENDBRANCH  75  79
ENDBRANCH  48  72
BRANCH  60  83
ATOM     83  C   UNL A   1      44.122  28.788  35.528  1.00  0.00     0.023 A 
ATOM     84  C   UNL A   1      43.990  27.748  36.464  1.00  0.00     0.031 A 
ATOM     85  C   UNL A   1      45.403  29.323  35.306  1.00  0.00     0.131 A 
ATOM     86  C   UNL A   1      45.113  27.306  37.180  1.00  0.00     0.055 A 
ATOM     87  C   UNL A   1      46.525  28.846  35.984  1.00  0.00     0.041 A 
ATOM     88  F   UNL A   1      45.584  30.319  34.423  1.00  0.00    -0.206 F 
ATOM     89  C   UNL A   1      46.382  27.841  36.936  1.00  0.00     0.022 A 
BRANCH  86  90
ATOM     90  S   UNL A   1      44.883  26.077  38.493  1.00  0.00     0.124 S 
ATOM     91  O   UNL A   1      44.121  25.039  37.808  1.00  0.00    -0.237 OA
ATOM     92  O   UNL A   1      46.258  25.733  38.843  1.00  0.00    -0.237 OA
ATOM     93  O   UNL A   1      44.149  26.808  39.524  1.00  0.00    -0.744 OA
ENDBRANCH  86  90
ENDBRANCH  60  83
ENDBRANCH  34  35
ENDBRANCH  26  29
ENDBRANCH  24  25
ENDBRANCH   1  24
TORSDOF 15
ENDMDL
MODEL 2
REMARK VINA RESULT:     -12.6      5.902      9.014
REMARK SMILES C[C@@H]1[C@H](C(=O)NCCCNC(=O)c2ccc(-c3c4nc(c(-c5cc(S(=O)(=O)[O-])ccc5F)c5ccc([nH]5)c(-c5cc(S(=O)(=O)[O-])ccc5F)c5nc(c(-c6cc(S(=O)(=O)[O-])ccc6F)c6ccc3[nH]6)C=C5)C=C4)cc2)CCN1S(=O)(=O)c1cc(F)cc(F)c1
REMARK SMILES IDX 8 1 7 2 6 3 4 4 5 5 3 7 1 8 2 9 78 10 76 11 77 12 79 13
REMARK SMILES IDX 80 14 81 15 82 16 83 17 89 18 84 19 87 20 85 21 86 22 88 23
REMARK SMILES IDX 9 24 10 25 11 26 12 28 13 29 14 30 75 31 15 32 74 33 16 34
REMARK SMILES IDX 17 35 18 36 68 37 19 38 73 39 67 40 69 41 20 42 72 43 66 44
REMARK SMILES IDX 65 45 21 47 53 48 33 49 52 50 34 51 37 52 51 53 70 54 35 55
REMARK SMILES IDX 36 56 50 58 71 59 38 60 22 61 23 62 31 63 24 64 30 65 32 66
REMARK SMILES IDX 29 67 25 68 26 69 27 70 28 71 54 72 55 73 63 74 56 75 62 76
REMARK SMILES IDX 64 77 61 78 57 79 58 80 59 81 60 82 39 83 40 84 48 85 41 86
REMARK SMILES IDX 47 87 49 88 46 89 42 90 43 91 44 92 45 93
REMARK H PARENT 6 6 10 27 69 46 37 57
REMARK Flexibility Score: inf
ROOT
ATOM      1  C   UNL A   1      36.269  21.191  24.746  1.00  0.00     0.042 C 
ENDROOT
BRANCH   1   2
ATOM      2  C   UNL A   1      35.195  21.315  25.833  1.00  0.00     0.117 C 
BRANCH   2   3
ATOM      3  N   UNL A   1      34.073  20.397  25.666  1.00  0.00    -0.356 N 
ATOM      4  C   UNL A   1      32.837  20.473  25.117  1.00  0.00     0.224 C 
ATOM      5  O   UNL A   1      32.187  19.418  25.136  1.00  0.00    -0.275 OA
ATOM      6  H   UNL A   1      34.260  19.506  26.042  1.00  0.00     0.163 HD
BRANCH   4   7
ATOM      7  C   UNL A   1      32.172  21.713  24.533  1.00  0.00     0.098 C 
ATOM      8  C   UNL A   1      31.928  22.754  26.855  1.00  0.00     0.026 C 
ATOM      9  C   UNL A   1      31.336  22.595  25.476  1.00  0.00     0.082 C 
ATOM     10  N   UNL A   1      31.128  23.885  24.716  1.00  0.00    -0.194 NA
ATOM     11  C   UNL A   1      32.990  22.694  23.727  1.00  0.00     0.032 C 
ATOM     12  C   UNL A   1      31.984  23.807  23.476  1.00  0.00     0.104 C 
BRANCH  10  13
ATOM     13  S   UNL A   1      31.176  25.440  25.408  1.00  0.00     0.243 S 
ATOM     14  O   UNL A   1      30.220  25.446  26.499  1.00  0.00    -0.207 OA
ATOM     15  O   UNL A   1      32.573  25.724  25.665  1.00  0.00    -0.207 OA
BRANCH  13  16
ATOM     16  C   UNL A   1      30.647  26.670  24.249  1.00  0.00     0.088 A 
ATOM     17  C   UNL A   1      31.656  27.483  23.712  1.00  0.00     0.061 A 
ATOM     18  C   UNL A   1      29.317  26.903  23.909  1.00  0.00     0.061 A 
ATOM     19  C   UNL A   1      31.314  28.555  22.897  1.00  0.00     0.127 A 
ATOM     20  C   UNL A   1      29.002  28.016  23.132  1.00  0.00     0.127 A 
ATOM     21  F   UNL A   1      32.283  29.323  22.383  1.00  0.00    -0.207 F 
ATOM     22  C   UNL A   1      29.988  28.852  22.624  1.00  0.00     0.078 A 
ATOM     23  F   UNL A   1      27.714  28.296  22.889  1.00  0.00    -0.207 F 
ENDBRANCH  13  16
ENDBRANCH  10  13
ENDBRANCH   4   7
ENDBRANCH   2   3
ENDBRANCH   1   2
BRANCH   1  24
ATOM     24  C   UNL A   1      37.591  21.878  25.061  1.00  0.00     0.118 C 
BRANCH  24  25
ATOM     25  N   UNL A   1      38.499  20.983  25.753  1.00  0.00    -0.352 N 
ATOM     26  C   UNL A   1      39.666  21.245  26.432  1.00  0.00     0.251 C 
ATOM     27  H   UNL A   1      38.237  20.035  25.734  1.00  0.00     0.163 HD
ATOM     28  O   UNL A   1      40.424  20.302  26.656  1.00  0.00    -0.269 OA
BRANCH  26  29
ATOM     29  C   UNL A   1      40.041  22.612  26.887  1.00  0.00     0.039 A 
ATOM     30  C   UNL A   1      39.502  23.711  26.203  1.00  0.00     0.014 A 
ATOM     31  C   UNL A   1      40.995  22.841  27.881  1.00  0.00     0.014 A 
ATOM     32  C   UNL A   1      39.901  25.016  26.523  1.00  0.00     0.010 A 
ATOM     33  C   UNL A   1      41.334  24.146  28.255  1.00  0.00     0.010 A 
ATOM     34  C   UNL A   1      40.816  25.250  27.561  1.00  0.00    -0.014 A 
BRANCH  34  35
ATOM     35  C   UNL A   1      41.296  26.626  27.879  1.00  0.00     0.031 A 
ATOM     36  C   UNL A   1      42.703  27.037  27.516  1.00  0.00     0.074 A 
ATOM     37  C   UNL A   1      40.494  27.499  28.521  1.00  0.00     0.049 A 
ATOM     38  N   UNL A   1      43.342  28.149  27.783  1.00  0.00    -0.248 NA
ATOM     39  C   UNL A   1      43.506  26.049  26.779  1.00  0.00     0.031 C 
ATOM     40  C   UNL A   1      39.121  27.228  28.948  1.00  0.00     0.029 A 
ATOM     41  N   UNL A   1      40.721  28.789  28.934  1.00  0.00    -0.354 N 
ATOM     42  C   UNL A   1      44.627  27.984  27.272  1.00  0.00     0.074 A 
ATOM     43  C   UNL A   1      44.688  26.644  26.728  1.00  0.00     0.031 C 
ATOM     44  C   UNL A   1      38.623  28.324  29.546  1.00  0.00     0.029 A 
ATOM     45  C   UNL A   1      39.650  29.360  29.582  1.00  0.00     0.049 A 
ATOM     46  H   UNL A   1      41.572  29.262  28.782  1.00  0.00     0.167 HD
ATOM     47  C   UNL A   1      45.654  28.871  27.237  1.00  0.00     0.034 A 
ATOM     48  C   UNL A   1      39.513  30.576  30.149  1.00  0.00     0.034 A 
ATOM     49  C   UNL A   1      45.575  30.217  27.752  1.00  0.00     0.049 A 
ATOM     50  C   UNL A   1      40.666  31.546  30.103  1.00  0.00     0.074 A 
ATOM     51  C   UNL A   1      46.539  31.212  27.721  1.00  0.00     0.029 A 
ATOM     52  N   UNL A   1      44.468  30.759  28.391  1.00  0.00    -0.354 N 
ATOM     53  N   UNL A   1      41.866  31.380  29.595  1.00  0.00    -0.248 NA
ATOM     54  C   UNL A   1      40.443  32.870  30.700  1.00  0.00     0.031 C 
ATOM     55  C   UNL A   1      46.033  32.336  28.387  1.00  0.00     0.029 A 
ATOM     56  C   UNL A   1      44.732  32.065  28.777  1.00  0.00     0.049 A 
ATOM     57  H   UNL A   1      43.619  30.286  28.547  1.00  0.00     0.167 HD
ATOM     58  C   UNL A   1      42.529  32.589  29.788  1.00  0.00     0.074 A 
ATOM     59  C   UNL A   1      41.593  33.477  30.447  1.00  0.00     0.031 C 
ATOM     60  C   UNL A   1      43.795  32.936  29.444  1.00  0.00     0.034 A 
BRANCH  47  61
ATOM     61  C   UNL A   1      46.960  28.396  26.643  1.00  0.00     0.023 A 
ATOM     62  C   UNL A   1      47.162  28.339  25.252  1.00  0.00     0.031 A 
ATOM     63  C   UNL A   1      48.006  27.961  27.477  1.00  0.00     0.131 A 
ATOM     64  C   UNL A   1      48.341  27.780  24.739  1.00  0.00     0.055 A 
ATOM     65  C   UNL A   1      49.211  27.484  26.959  1.00  0.00     0.041 A 
ATOM     66  F   UNL A   1      47.867  27.977  28.812  1.00  0.00    -0.206 F 
ATOM     67  C   UNL A   1      49.378  27.375  25.581  1.00  0.00     0.022 A 
BRANCH  64  68
ATOM     68  S   UNL A   1      48.438  27.453  22.957  1.00  0.00     0.124 S 
ATOM     69  O   UNL A   1      49.752  28.000  22.629  1.00  0.00    -0.237 OA
ATOM     70  O   UNL A   1      48.315  26.000  22.895  1.00  0.00    -0.237 OA
ATOM     71  O   UNL A   1      47.306  28.198  22.409  1.00  0.00    -0.744 OA
ENDBRANCH  64  68
ENDBRANCH  47  61
BRANCH  48  72
ATOM     72  C   UNL A   1      38.237  30.952  30.821  1.00  0.00     0.023 A 
ATOM     73  C   UNL A   1      37.243  31.667  30.134  1.00  0.00     0.031 A 
ATOM     74  C   UNL A   1      38.012  30.636  32.172  1.00  0.00     0.131 A 
ATOM     75  C   UNL A   1      36.084  32.078  30.811  1.00  0.00     0.055 A 
ATOM     76  C   UNL A   1      36.837  31.008  32.829  1.00  0.00     0.041 A 
ATOM     77  F   UNL A   1      38.929  29.949  32.871  1.00  0.00    -0.206 F 
ATOM     78  C   UNL A   1      35.870  31.743  32.151  1.00  0.00     0.022 A 
BRANCH  75  79
ATOM     79  S   UNL A   1      34.888  33.120  29.932  1.00  0.00     0.124 S 
ATOM     80  O   UNL A   1      35.758  34.114  29.314  1.00  0.00    -0.237 OA
ATOM     81  O   UNL A   1      34.261  32.164  29.027  1.00  0.00    -0.237 OA
ATOM     82  O   UNL A   1      34.026  33.624  31.000  1.00  0.00    -0.744 OA
ENDBRANCH  75  79
ENDBRANCH  48  72
BRANCH  60  83
ATOM     83  C   UNL A   1      44.219  34.353  29.739  1.00  0.00     0.023 A 
ATOM     84  C   UNL A   1      43.929  35.410  28.860  1.00  0.00     0.031 A 
ATOM     85  C   UNL A   1      44.938  34.644  30.912  1.00  0.00     0.131 A 
ATOM     86  C   UNL A   1      44.398  36.702  29.141  1.00  0.00     0.055 A 
ATOM     87  C   UNL A   1      45.360  35.940  31.211  1.00  0.00     0.041 A 
ATOM     88  F   UNL A   1      45.242  33.671  31.786  1.00  0.00    -0.206 F 
ATOM     89  C   UNL A   1      45.101  36.975  30.318  1.00  0.00     0.022 A 
BRANCH  86  90
ATOM     90  S   UNL A   1      44.148  38.010  27.909  1.00  0.00     0.124 S 
ATOM     91  O   UNL A   1      42.774  37.767  27.484  1.00  0.00    -0.237 OA
ATOM     92  O   UNL A   1      44.369  39.222  28.692  1.00  0.00    -0.237 OA
ATOM     93  O   UNL A   1      45.169  37.732  26.900  1.00  0.00    -0.744 OA
ENDBRANCH  86  90
ENDBRANCH  60  83
ENDBRANCH  34  35
ENDBRANCH  26  29
ENDBRANCH  24  25
ENDBRANCH   1  24
TORSDOF 15
ENDMDL
MODEL 3
REMARK VINA RESULT:     -12.4      5.820     10.860
REMARK SMILES C[C@@H]1[C@H](C(=O)NCCCNC(=O)c2ccc(-c3c4nc(c(-c5cc(S(=O)(=O)[O-])ccc5F)c5ccc([nH]5)c(-c5cc(S(=O)(=O)[O-])ccc5F)c5nc(c(-c6cc(S(=O)(=O)[O-])ccc6F)c6ccc3[nH]6)C=C5)C=C4)cc2)CCN1S(=O)(=O)c1cc(F)cc(F)c1
REMARK SMILES IDX 8 1 7 2 6 3 4 4 5 5 3 7 1 8 2 9 78 10 76 11 77 12 79 13
REMARK SMILES IDX 80 14 81 15 82 16 83 17 89 18 84 19 87 20 85 21 86 22 88 23
REMARK SMILES IDX 9 24 10 25 11 26 12 28 13 29 14 30 75 31 15 32 74 33 16 34
REMARK SMILES IDX 17 35 18 36 68 37 19 38 73 39 67 40 69 41 20 42 72 43 66 44
REMARK SMILES IDX 65 45 21 47 53 48 33 49 52 50 34 51 37 52 51 53 70 54 35 55
REMARK SMILES IDX 36 56 50 58 71 59 38 60 22 61 23 62 31 63 24 64 30 65 32 66
REMARK SMILES IDX 29 67 25 68 26 69 27 70 28 71 54 72 55 73 63 74 56 75 62 76
REMARK SMILES IDX 64 77 61 78 57 79 58 80 59 81 60 82 39 83 40 84 48 85 41 86
REMARK SMILES IDX 47 87 49 88 46 89 42 90 43 91 44 92 45 93
REMARK H PARENT 6 6 10 27 69 46 37 57
REMARK Flexibility Score: inf
ROOT
ATOM      1  C   UNL A   1      34.547  21.456  26.511  1.00  0.00     0.042 C 
ENDROOT
BRANCH   1   2
ATOM      2  C   UNL A   1      34.031  22.134  27.785  1.00  0.00     0.117 C 
BRANCH   2   3
ATOM      3  N   UNL A   1      32.660  22.625  27.684  1.00  0.00    -0.356 N 
ATOM      4  C   UNL A   1      32.043  23.636  27.026  1.00  0.00     0.224 C 
ATOM      5  O   UNL A   1      30.813  23.683  27.171  1.00  0.00    -0.275 OA
ATOM      6  H   UNL A   1      32.032  22.091  28.222  1.00  0.00     0.163 HD
BRANCH   4   7
ATOM      7  C   UNL A   1      32.707  24.716  26.182  1.00  0.00     0.098 C 
ATOM      8  C   UNL A   1      31.760  23.707  24.032  1.00  0.00     0.026 C 
ATOM      9  C   UNL A   1      32.910  24.436  24.683  1.00  0.00     0.082 C 
ATOM     10  N   UNL A   1      33.238  25.783  24.079  1.00  0.00    -0.194 NA
ATOM     11  C   UNL A   1      32.187  26.133  26.233  1.00  0.00     0.032 C 
ATOM     12  C   UNL A   1      33.028  26.813  25.162  1.00  0.00     0.104 C 
BRANCH  10  13
ATOM     13  S   UNL A   1      32.666  26.339  22.574  1.00  0.00     0.243 S 
ATOM     14  O   UNL A   1      33.709  27.175  22.010  1.00  0.00    -0.207 OA
ATOM     15  O   UNL A   1      32.210  25.166  21.859  1.00  0.00    -0.207 OA
BRANCH  13  16
ATOM     16  C   UNL A   1      31.234  27.361  22.774  1.00  0.00     0.088 A 
ATOM     17  C   UNL A   1      30.107  26.737  23.329  1.00  0.00     0.061 A 
ATOM     18  C   UNL A   1      31.156  28.688  22.361  1.00  0.00     0.061 A 
ATOM     19  C   UNL A   1      28.903  27.427  23.401  1.00  0.00     0.127 A 
ATOM     20  C   UNL A   1      29.924  29.337  22.398  1.00  0.00     0.127 A 
ATOM     21  F   UNL A   1      27.834  26.827  23.938  1.00  0.00    -0.207 F 
ATOM     22  C   UNL A   1      28.790  28.719  22.910  1.00  0.00     0.078 A 
ATOM     23  F   UNL A   1      29.829  30.580  21.907  1.00  0.00    -0.207 F 
ENDBRANCH  13  16
ENDBRANCH  10  13
ENDBRANCH   4   7
ENDBRANCH   2   3
ENDBRANCH   1   2
BRANCH   1  24
ATOM     24  C   UNL A   1      35.836  22.037  25.945  1.00  0.00     0.118 C 
BRANCH  24  25
ATOM     25  N   UNL A   1      36.858  21.018  25.805  1.00  0.00    -0.352 N 
ATOM     26  C   UNL A   1      38.229  21.122  25.803  1.00  0.00     0.251 C 
ATOM     27  H   UNL A   1      36.514  20.102  25.695  1.00  0.00     0.163 HD
ATOM     28  O   UNL A   1      38.876  20.178  25.352  1.00  0.00    -0.269 OA
BRANCH  26  29
ATOM     29  C   UNL A   1      38.943  22.327  26.311  1.00  0.00     0.039 A 
ATOM     30  C   UNL A   1      38.522  23.586  25.864  1.00  0.00     0.014 A 
ATOM     31  C   UNL A   1      40.085  22.244  27.112  1.00  0.00     0.014 A 
ATOM     32  C   UNL A   1      39.223  24.744  26.229  1.00  0.00     0.010 A 
ATOM     33  C   UNL A   1      40.738  23.405  27.542  1.00  0.00     0.010 A 
ATOM     34  C   UNL A   1      40.335  24.668  27.081  1.00  0.00    -0.014 A 
BRANCH  34  35
ATOM     35  C   UNL A   1      41.127  25.881  27.435  1.00  0.00     0.031 A 
ATOM     36  C   UNL A   1      40.517  26.954  28.305  1.00  0.00     0.074 A 
ATOM     37  C   UNL A   1      42.376  26.046  26.955  1.00  0.00     0.049 A 
ATOM     38  N   UNL A   1      41.001  28.121  28.653  1.00  0.00    -0.248 NA
ATOM     39  C   UNL A   1      39.168  26.687  28.827  1.00  0.00     0.031 C 
ATOM     40  C   UNL A   1      43.080  25.101  26.087  1.00  0.00     0.029 A 
ATOM     41  N   UNL A   1      43.273  27.073  27.121  1.00  0.00    -0.354 N 
ATOM     42  C   UNL A   1      40.008  28.736  29.410  1.00  0.00     0.074 A 
ATOM     43  C   UNL A   1      38.877  27.833  29.423  1.00  0.00     0.031 C 
ATOM     44  C   UNL A   1      44.304  25.582  25.814  1.00  0.00     0.029 A 
ATOM     45  C   UNL A   1      44.460  26.887  26.451  1.00  0.00     0.049 A 
ATOM     46  H   UNL A   1      43.084  27.870  27.669  1.00  0.00     0.167 HD
ATOM     47  C   UNL A   1      40.041  29.931  30.055  1.00  0.00     0.034 A 
ATOM     48  C   UNL A   1      45.546  27.680  26.350  1.00  0.00     0.034 A 
ATOM     49  C   UNL A   1      41.184  30.811  30.065  1.00  0.00     0.049 A 
ATOM     50  C   UNL A   1      45.561  29.005  27.070  1.00  0.00     0.074 A 
ATOM     51  C   UNL A   1      41.341  32.018  30.727  1.00  0.00     0.029 A 
ATOM     52  N   UNL A   1      42.371  30.579  29.381  1.00  0.00    -0.354 N 
ATOM     53  N   UNL A   1      44.622  29.559  27.801  1.00  0.00    -0.248 NA
ATOM     54  C   UNL A   1      46.788  29.805  26.958  1.00  0.00     0.031 C 
ATOM     55  C   UNL A   1      42.599  32.539  30.401  1.00  0.00     0.029 A 
ATOM     56  C   UNL A   1      43.253  31.629  29.588  1.00  0.00     0.049 A 
ATOM     57  H   UNL A   1      42.558  29.786  28.830  1.00  0.00     0.167 HD
ATOM     58  C   UNL A   1      45.157  30.760  28.257  1.00  0.00     0.074 A 
ATOM     59  C   UNL A   1      46.503  30.844  27.729  1.00  0.00     0.031 C 
ATOM     60  C   UNL A   1      44.589  31.706  29.047  1.00  0.00     0.034 A 
BRANCH  47  61
ATOM     61  C   UNL A   1      38.786  30.362  30.779  1.00  0.00     0.023 A 
ATOM     62  C   UNL A   1      37.731  31.007  30.110  1.00  0.00     0.031 A 
ATOM     63  C   UNL A   1      38.658  30.158  32.165  1.00  0.00     0.131 A 
ATOM     64  C   UNL A   1      36.637  31.498  30.837  1.00  0.00     0.055 A 
ATOM     65  C   UNL A   1      37.527  30.575  32.870  1.00  0.00     0.041 A 
ATOM     66  F   UNL A   1      39.639  29.563  32.862  1.00  0.00    -0.206 F 
ATOM     67  C   UNL A   1      36.514  31.265  32.208  1.00  0.00     0.022 A 
BRANCH  64  68
ATOM     68  S   UNL A   1      35.449  32.575  29.989  1.00  0.00     0.124 S 
ATOM     69  O   UNL A   1      35.164  31.804  28.782  1.00  0.00    -0.237 OA
ATOM     70  O   UNL A   1      34.363  32.673  30.958  1.00  0.00    -0.237 OA
ATOM     71  O   UNL A   1      36.201  33.809  29.769  1.00  0.00    -0.744 OA
ENDBRANCH  64  68
ENDBRANCH  47  61
BRANCH  48  72
ATOM     72  C   UNL A   1      46.714  27.254  25.528  1.00  0.00     0.023 A 
ATOM     73  C   UNL A   1      46.915  27.769  24.238  1.00  0.00     0.031 A 
ATOM     74  C   UNL A   1      47.624  26.297  26.009  1.00  0.00     0.131 A 
ATOM     75  C   UNL A   1      47.977  27.294  23.454  1.00  0.00     0.055 A 
ATOM     76  C   UNL A   1      48.707  25.860  25.242  1.00  0.00     0.041 A 
ATOM     77  F   UNL A   1      47.480  25.779  27.238  1.00  0.00    -0.206 F 
ATOM     78  C   UNL A   1      48.881  26.351  23.952  1.00  0.00     0.022 A 
BRANCH  75  79
ATOM     79  S   UNL A   1      48.121  27.875  21.742  1.00  0.00     0.124 S 
ATOM     80  O   UNL A   1      49.243  28.802  21.835  1.00  0.00    -0.237 OA
ATOM     81  O   UNL A   1      48.374  26.632  21.021  1.00  0.00    -0.237 OA
ATOM     82  O   UNL A   1      46.822  28.492  21.481  1.00  0.00    -0.744 OA
ENDBRANCH  75  79
ENDBRANCH  48  72
BRANCH  60  83
ATOM     83  C   UNL A   1      45.446  32.890  29.420  1.00  0.00     0.023 A 
ATOM     84  C   UNL A   1      45.465  34.063  28.646  1.00  0.00     0.031 A 
ATOM     85  C   UNL A   1      46.267  32.834  30.560  1.00  0.00     0.131 A 
ATOM     86  C   UNL A   1      46.326  35.115  28.993  1.00  0.00     0.055 A 
ATOM     87  C   UNL A   1      47.084  33.902  30.929  1.00  0.00     0.041 A 
ATOM     88  F   UNL A   1      46.287  31.736  31.334  1.00  0.00    -0.206 F 
ATOM     89  C   UNL A   1      47.126  35.047  30.138  1.00  0.00     0.022 A 
BRANCH  86  90
ATOM     90  S   UNL A   1      46.446  36.546  27.886  1.00  0.00     0.124 S 
ATOM     91  O   UNL A   1      45.158  36.511  27.202  1.00  0.00    -0.237 OA
ATOM     92  O   UNL A   1      46.642  37.649  28.821  1.00  0.00    -0.237 OA
ATOM     93  O   UNL A   1      47.603  36.236  27.047  1.00  0.00    -0.744 OA
ENDBRANCH  86  90
ENDBRANCH  60  83
ENDBRANCH  34  35
ENDBRANCH  26  29
ENDBRANCH  24  25
ENDBRANCH   1  24
TORSDOF 15
ENDMDL
