MODEL 1
REMARK VINA RESULT:      -9.3      0.000      0.000
REMARK SMILES O=C(Cn1nc(-c2ccc(Br)cc2)ccc1=O)N[C@H](C(=O)NCCCNC(=O)c1ccc(-c2c3nc(c(-c4cc(S(=O)(=O)[O-])ccc4F)c4ccc([nH]4)c(-c4cc(S(=O)(=O)[O-])ccc4F)c4nc(c(-c5cc(S(=O)(=O)[O-])ccc5F)c5ccc2[nH]5)C=C4)C=C3)cc1)c1ccccc1
REMARK SMILES IDX 23 1 22 2 20 3 21 4 19 6 18 7 1 8 2 9 3 11 4 12 5 13 16 14
REMARK SMILES IDX 6 15 15 16 17 17 14 18 7 19 8 20 13 21 9 22 12 23 10 24
REMARK SMILES IDX 11 25 92 26 93 27 97 28 94 29 96 30 95 31 24 32 25 33 26 34
REMARK SMILES IDX 27 35 28 37 29 38 30 39 91 40 31 41 90 42 32 43 33 44 34 45
REMARK SMILES IDX 84 46 35 47 89 48 83 49 85 50 36 51 88 52 82 53 81 54 37 56
REMARK SMILES IDX 69 57 49 58 68 59 50 60 53 61 67 62 86 63 51 64 52 65 66 67
REMARK SMILES IDX 87 68 54 69 38 70 39 71 47 72 40 73 46 74 48 75 45 76 41 77
REMARK SMILES IDX 42 78 43 79 44 80 70 81 71 82 79 83 72 84 78 85 80 86 77 87
REMARK SMILES IDX 73 88 74 89 75 90 76 91 55 92 56 93 64 94 57 95 63 96 65 97
REMARK SMILES IDX 62 98 58 99 59 100 60 101 61 102
REMARK H PARENT 22 5 18 10 26 36 85 55 53 66
REMARK Flexibility Score: inf
ROOT
ATOM      1  C   UNL A   1      48.291  25.998  24.596  1.00  0.00     0.117 C 
ENDROOT
BRANCH   1   2
ATOM      2  N   UNL A   1      47.288  27.022  24.377  1.00  0.00    -0.354 N 
ATOM      3  C   UNL A   1      46.118  27.273  25.050  1.00  0.00     0.247 C 
ATOM      4  O   UNL A   1      45.469  28.231  24.621  1.00  0.00    -0.272 OA
ATOM      5  H   UNL A   1      47.474  27.634  23.627  1.00  0.00     0.163 HD
BRANCH   3   6
ATOM      6  C   UNL A   1      45.584  26.247  26.104  1.00  0.00     0.202 C 
BRANCH   6   7
ATOM      7  N   UNL A   1      44.608  26.853  27.010  1.00  0.00    -0.339 N 
ATOM      8  O   UNL A   1      44.960  25.467  28.811  1.00  0.00    -0.273 OA
ATOM      9  C   UNL A   1      44.337  26.378  28.279  1.00  0.00     0.242 C 
ATOM     10  H   UNL A   1      44.115  27.645  26.697  1.00  0.00     0.164 HD
BRANCH   9  11
ATOM     11  C   UNL A   1      43.135  27.067  28.930  1.00  0.00     0.248 C 
BRANCH  11  12
ATOM     12  N   UNL A   1      41.930  26.325  28.609  1.00  0.00    -0.220 N 
ATOM     13  N   UNL A   1      42.089  24.969  28.419  1.00  0.00    -0.169 NA
ATOM     14  C   UNL A   1      40.743  27.010  28.396  1.00  0.00     0.267 A 
ATOM     15  C   UNL A   1      41.082  24.315  27.935  1.00  0.00     0.091 A 
ATOM     16  C   UNL A   1      39.609  26.196  27.913  1.00  0.00     0.075 A 
ATOM     17  O   UNL A   1      40.573  28.211  28.578  1.00  0.00    -0.268 OA
ATOM     18  C   UNL A   1      39.752  24.893  27.665  1.00  0.00     0.036 A 
BRANCH  15  19
ATOM     19  C   UNL A   1      41.282  22.897  27.574  1.00  0.00     0.002 A 
ATOM     20  C   UNL A   1      42.372  22.201  28.107  1.00  0.00     0.011 A 
ATOM     21  C   UNL A   1      40.482  22.317  26.584  1.00  0.00     0.011 A 
ATOM     22  C   UNL A   1      42.654  20.911  27.657  1.00  0.00     0.016 A 
ATOM     23  C   UNL A   1      40.775  21.032  26.125  1.00  0.00     0.016 A 
ATOM     24  C   UNL A   1      41.859  20.336  26.663  1.00  0.00     0.018 A 
ATOM     25  Br  UNL A   1      42.270  18.609  26.015  1.00  0.00    -0.051 Br
ENDBRANCH  15  19
ENDBRANCH  11  12
ENDBRANCH   9  11
ENDBRANCH   6   7
BRANCH   6  26
ATOM     26  C   UNL A   1      45.195  24.851  25.611  1.00  0.00    -0.016 A 
ATOM     27  C   UNL A   1      43.950  24.615  25.001  1.00  0.00     0.006 A 
ATOM     28  C   UNL A   1      45.997  23.726  25.877  1.00  0.00     0.006 A 
ATOM     29  C   UNL A   1      43.546  23.326  24.636  1.00  0.00     0.000 A 
ATOM     30  C   UNL A   1      45.603  22.439  25.499  1.00  0.00     0.000 A 
ATOM     31  C   UNL A   1      44.377  22.238  24.878  1.00  0.00     0.000 A 
ENDBRANCH   6  26
ENDBRANCH   3   6
ENDBRANCH   1   2
BRANCH   1  32
ATOM     32  C   UNL A   1      49.577  26.240  23.834  1.00  0.00     0.042 C 
BRANCH  32  33
ATOM     33  C   UNL A   1      50.633  27.006  24.611  1.00  0.00     0.118 C 
BRANCH  33  34
ATOM     34  N   UNL A   1      51.632  26.158  25.251  1.00  0.00    -0.352 N 
ATOM     35  C   UNL A   1      51.744  25.767  26.569  1.00  0.00     0.251 C 
ATOM     36  H   UNL A   1      52.331  25.811  24.652  1.00  0.00     0.163 HD
ATOM     37  O   UNL A   1      52.729  25.130  26.937  1.00  0.00    -0.269 OA
BRANCH  35  38
ATOM     38  C   UNL A   1      50.707  26.170  27.545  1.00  0.00     0.039 A 
ATOM     39  C   UNL A   1      49.514  25.457  27.634  1.00  0.00     0.014 A 
ATOM     40  C   UNL A   1      50.894  27.314  28.323  1.00  0.00     0.014 A 
ATOM     41  C   UNL A   1      48.426  26.032  28.273  1.00  0.00     0.010 A 
ATOM     42  C   UNL A   1      49.834  27.812  29.091  1.00  0.00     0.010 A 
ATOM     43  C   UNL A   1      48.566  27.218  29.015  1.00  0.00    -0.014 A 
BRANCH  43  44
ATOM     44  C   UNL A   1      47.369  27.786  29.696  1.00  0.00     0.031 A 
ATOM     45  C   UNL A   1      46.670  29.011  29.166  1.00  0.00     0.074 A 
ATOM     46  C   UNL A   1      46.861  27.132  30.760  1.00  0.00     0.049 A 
ATOM     47  N   UNL A   1      45.580  29.588  29.608  1.00  0.00    -0.248 NA
ATOM     48  C   UNL A   1      47.264  29.685  28.001  1.00  0.00     0.031 C 
ATOM     49  C   UNL A   1      47.459  25.941  31.366  1.00  0.00     0.029 A 
ATOM     50  N   UNL A   1      45.718  27.336  31.493  1.00  0.00    -0.354 N 
ATOM     51  C   UNL A   1      45.379  30.703  28.803  1.00  0.00     0.074 A 
ATOM     52  C   UNL A   1      46.471  30.739  27.857  1.00  0.00     0.031 C 
ATOM     53  C   UNL A   1      46.636  25.466  32.308  1.00  0.00     0.029 A 
ATOM     54  C   UNL A   1      45.499  26.370  32.449  1.00  0.00     0.049 A 
ATOM     55  H   UNL A   1      45.114  28.099  31.348  1.00  0.00     0.167 HD
ATOM     56  C   UNL A   1      44.368  31.605  28.843  1.00  0.00     0.034 A 
ATOM     57  C   UNL A   1      44.507  26.226  33.350  1.00  0.00     0.034 A 
ATOM     58  C   UNL A   1      43.263  31.534  29.765  1.00  0.00     0.049 A 
ATOM     59  C   UNL A   1      43.394  27.237  33.368  1.00  0.00     0.074 A 
ATOM     60  C   UNL A   1      42.171  32.380  29.855  1.00  0.00     0.029 A 
ATOM     61  N   UNL A   1      43.097  30.566  30.744  1.00  0.00    -0.354 N 
ATOM     62  N   UNL A   1      43.206  28.265  32.574  1.00  0.00    -0.248 NA
ATOM     63  C   UNL A   1      42.363  27.080  34.401  1.00  0.00     0.031 C 
ATOM     64  C   UNL A   1      41.376  31.957  30.920  1.00  0.00     0.029 A 
ATOM     65  C   UNL A   1      41.935  30.809  31.459  1.00  0.00     0.049 A 
ATOM     66  H   UNL A   1      43.715  29.816  30.909  1.00  0.00     0.167 HD
ATOM     67  C   UNL A   1      42.039  28.879  33.014  1.00  0.00     0.074 A 
ATOM     68  C   UNL A   1      41.540  28.081  34.115  1.00  0.00     0.031 C 
ATOM     69  C   UNL A   1      41.445  30.009  32.556  1.00  0.00     0.034 A 
BRANCH  56  70
ATOM     70  C   UNL A   1      44.378  32.754  27.863  1.00  0.00     0.023 A 
ATOM     71  C   UNL A   1      44.746  34.043  28.295  1.00  0.00     0.031 A 
ATOM     72  C   UNL A   1      43.896  32.605  26.551  1.00  0.00     0.131 A 
ATOM     73  C   UNL A   1      44.593  35.137  27.434  1.00  0.00     0.055 A 
ATOM     74  C   UNL A   1      43.779  33.694  25.685  1.00  0.00     0.041 A 
ATOM     75  F   UNL A   1      43.533  31.398  26.090  1.00  0.00    -0.206 F 
ATOM     76  C   UNL A   1      44.117  34.969  26.130  1.00  0.00     0.022 A 
BRANCH  73  77
ATOM     77  S   UNL A   1      44.948  36.827  27.989  1.00  0.00     0.124 S 
ATOM     78  O   UNL A   1      44.111  37.619  27.089  1.00  0.00    -0.237 OA
ATOM     79  O   UNL A   1      44.505  36.790  29.380  1.00  0.00    -0.237 OA
ATOM     80  O   UNL A   1      46.384  36.970  27.786  1.00  0.00    -0.744 OA
ENDBRANCH  73  77
ENDBRANCH  56  70
BRANCH  57  81
ATOM     81  C   UNL A   1      44.534  25.053  34.272  1.00  0.00     0.023 A 
ATOM     82  C   UNL A   1      45.076  25.167  35.567  1.00  0.00     0.031 A 
ATOM     83  C   UNL A   1      44.151  23.777  33.829  1.00  0.00     0.131 A 
ATOM     84  C   UNL A   1      45.307  24.018  36.331  1.00  0.00     0.055 A 
ATOM     85  C   UNL A   1      44.307  22.643  34.628  1.00  0.00     0.041 A 
ATOM     86  F   UNL A   1      43.639  23.614  32.598  1.00  0.00    -0.206 F 
ATOM     87  C   UNL A   1      44.911  22.757  35.877  1.00  0.00     0.022 A 
BRANCH  84  88
ATOM     88  S   UNL A   1      46.286  24.105  37.857  1.00  0.00     0.124 S 
ATOM     89  O   UNL A   1      46.823  25.459  37.796  1.00  0.00    -0.237 OA
ATOM     90  O   UNL A   1      45.269  23.872  38.879  1.00  0.00    -0.237 OA
ATOM     91  O   UNL A   1      47.260  23.028  37.701  1.00  0.00    -0.744 OA
ENDBRANCH  84  88
ENDBRANCH  57  81
BRANCH  69  92
ATOM     92  C   UNL A   1      40.193  30.488  33.248  1.00  0.00     0.023 A 
ATOM     93  C   UNL A   1      40.281  31.202  34.458  1.00  0.00     0.031 A 
ATOM     94  C   UNL A   1      38.920  30.115  32.783  1.00  0.00     0.131 A 
ATOM     95  C   UNL A   1      39.116  31.488  35.182  1.00  0.00     0.055 A 
ATOM     96  C   UNL A   1      37.760  30.440  33.487  1.00  0.00     0.041 A 
ATOM     97  F   UNL A   1      38.787  29.425  31.639  1.00  0.00    -0.206 F 
ATOM     98  C   UNL A   1      37.857  31.117  34.700  1.00  0.00     0.022 A 
BRANCH  95  99
ATOM     99  S   UNL A   1      39.200  32.272  36.816  1.00  0.00     0.124 S 
ATOM    100  O   UNL A   1      38.141  31.572  37.539  1.00  0.00    -0.237 OA
ATOM    101  O   UNL A   1      40.561  31.955  37.241  1.00  0.00    -0.237 OA
ATOM    102  O   UNL A   1      38.940  33.682  36.545  1.00  0.00    -0.744 OA
ENDBRANCH  95  99
ENDBRANCH  69  92
ENDBRANCH  43  44
ENDBRANCH  35  38
ENDBRANCH  33  34
ENDBRANCH  32  33
ENDBRANCH   1  32
TORSDOF 18
ENDMDL
MODEL 2
REMARK VINA RESULT:      -9.3      5.365     11.354
REMARK SMILES O=C(Cn1nc(-c2ccc(Br)cc2)ccc1=O)N[C@H](C(=O)NCCCNC(=O)c1ccc(-c2c3nc(c(-c4cc(S(=O)(=O)[O-])ccc4F)c4ccc([nH]4)c(-c4cc(S(=O)(=O)[O-])ccc4F)c4nc(c(-c5cc(S(=O)(=O)[O-])ccc5F)c5ccc2[nH]5)C=C4)C=C3)cc1)c1ccccc1
REMARK SMILES IDX 23 1 22 2 20 3 21 4 19 6 18 7 1 8 2 9 3 11 4 12 5 13 16 14
REMARK SMILES IDX 6 15 15 16 17 17 14 18 7 19 8 20 13 21 9 22 12 23 10 24
REMARK SMILES IDX 11 25 92 26 93 27 97 28 94 29 96 30 95 31 24 32 25 33 26 34
REMARK SMILES IDX 27 35 28 37 29 38 30 39 91 40 31 41 90 42 32 43 33 44 34 45
REMARK SMILES IDX 84 46 35 47 89 48 83 49 85 50 36 51 88 52 82 53 81 54 37 56
REMARK SMILES IDX 69 57 49 58 68 59 50 60 53 61 67 62 86 63 51 64 52 65 66 67
REMARK SMILES IDX 87 68 54 69 38 70 39 71 47 72 40 73 46 74 48 75 45 76 41 77
REMARK SMILES IDX 42 78 43 79 44 80 70 81 71 82 79 83 72 84 78 85 80 86 77 87
REMARK SMILES IDX 73 88 74 89 75 90 76 91 55 92 56 93 64 94 57 95 63 96 65 97
REMARK SMILES IDX 62 98 58 99 59 100 60 101 61 102
REMARK H PARENT 22 5 18 10 26 36 85 55 53 66
REMARK Flexibility Score: inf
ROOT
ATOM      1  C   UNL A   1      38.336  31.907  35.480  1.00  0.00     0.117 C 
ENDROOT
BRANCH   1   2
ATOM      2  N   UNL A   1      38.854  33.258  35.387  1.00  0.00    -0.354 N 
ATOM      3  C   UNL A   1      38.498  34.287  34.551  1.00  0.00     0.247 C 
ATOM      4  O   UNL A   1      39.131  35.333  34.718  1.00  0.00    -0.272 OA
ATOM      5  H   UNL A   1      39.576  33.471  36.023  1.00  0.00     0.163 HD
BRANCH   3   6
ATOM      6  C   UNL A   1      37.536  34.020  33.345  1.00  0.00     0.202 C 
BRANCH   6   7
ATOM      7  N   UNL A   1      36.412  34.957  33.326  1.00  0.00    -0.339 N 
ATOM      8  O   UNL A   1      35.149  33.952  34.963  1.00  0.00    -0.273 OA
ATOM      9  C   UNL A   1      35.279  34.817  34.104  1.00  0.00     0.242 C 
ATOM     10  H   UNL A   1      36.467  35.733  32.722  1.00  0.00     0.164 HD
BRANCH   9  11
ATOM     11  C   UNL A   1      34.178  35.816  33.741  1.00  0.00     0.248 C 
BRANCH  11  12
ATOM     12  N   UNL A   1      33.839  35.660  32.338  1.00  0.00    -0.220 N 
ATOM     13  N   UNL A   1      34.273  34.498  31.738  1.00  0.00    -0.169 NA
ATOM     14  C   UNL A   1      33.227  36.706  31.665  1.00  0.00     0.267 A 
ATOM     15  C   UNL A   1      34.167  34.419  30.450  1.00  0.00     0.091 A 
ATOM     16  C   UNL A   1      33.070  36.527  30.207  1.00  0.00     0.075 A 
ATOM     17  O   UNL A   1      32.816  37.741  32.180  1.00  0.00    -0.268 OA
ATOM     18  C   UNL A   1      33.532  35.437  29.592  1.00  0.00     0.036 A 
BRANCH  15  19
ATOM     19  C   UNL A   1      34.769  33.253  29.773  1.00  0.00     0.002 A 
ATOM     20  C   UNL A   1      35.165  32.148  30.533  1.00  0.00     0.011 A 
ATOM     21  C   UNL A   1      35.086  33.332  28.412  1.00  0.00     0.011 A 
ATOM     22  C   UNL A   1      35.868  31.108  29.923  1.00  0.00     0.016 A 
ATOM     23  C   UNL A   1      35.803  32.298  27.810  1.00  0.00     0.016 A 
ATOM     24  C   UNL A   1      36.190  31.192  28.568  1.00  0.00     0.018 A 
ATOM     25  Br  UNL A   1      37.189  29.809  27.753  1.00  0.00    -0.051 Br
ENDBRANCH  15  19
ENDBRANCH  11  12
ENDBRANCH   9  11
ENDBRANCH   6   7
BRANCH   6  26
ATOM     26  C   UNL A   1      38.163  33.770  31.972  1.00  0.00    -0.016 A 
ATOM     27  C   UNL A   1      38.000  34.686  30.918  1.00  0.00     0.006 A 
ATOM     28  C   UNL A   1      38.800  32.553  31.664  1.00  0.00     0.006 A 
ATOM     29  C   UNL A   1      38.485  34.420  29.633  1.00  0.00     0.000 A 
ATOM     30  C   UNL A   1      39.300  32.291  30.385  1.00  0.00     0.000 A 
ATOM     31  C   UNL A   1      39.143  33.224  29.368  1.00  0.00     0.000 A 
ENDBRANCH   6  26
ENDBRANCH   3   6
ENDBRANCH   1   2
BRANCH   1  32
ATOM     32  C   UNL A   1      39.417  30.849  35.565  1.00  0.00     0.042 C 
BRANCH  32  33
ATOM     33  C   UNL A   1      40.072  30.512  34.238  1.00  0.00     0.118 C 
BRANCH  33  34
ATOM     34  N   UNL A   1      39.431  29.415  33.520  1.00  0.00    -0.352 N 
ATOM     35  C   UNL A   1      39.782  28.816  32.328  1.00  0.00     0.251 C 
ATOM     36  H   UNL A   1      38.629  29.046  33.953  1.00  0.00     0.163 HD
ATOM     37  O   UNL A   1      39.044  27.969  31.829  1.00  0.00    -0.269 OA
BRANCH  35  38
ATOM     38  C   UNL A   1      41.014  29.242  31.627  1.00  0.00     0.039 A 
ATOM     39  C   UNL A   1      42.097  29.734  32.350  1.00  0.00     0.014 A 
ATOM     40  C   UNL A   1      41.059  29.222  30.231  1.00  0.00     0.014 A 
ATOM     41  C   UNL A   1      43.085  30.449  31.690  1.00  0.00     0.010 A 
ATOM     42  C   UNL A   1      42.137  29.815  29.564  1.00  0.00     0.010 A 
ATOM     43  C   UNL A   1      43.125  30.502  30.286  1.00  0.00    -0.014 A 
BRANCH  43  44
ATOM     44  C   UNL A   1      44.216  31.271  29.626  1.00  0.00     0.031 A 
ATOM     45  C   UNL A   1      44.054  32.730  29.283  1.00  0.00     0.074 A 
ATOM     46  C   UNL A   1      45.398  30.659  29.410  1.00  0.00     0.049 A 
ATOM     47  N   UNL A   1      44.933  33.552  28.767  1.00  0.00    -0.248 NA
ATOM     48  C   UNL A   1      42.745  33.350  29.540  1.00  0.00     0.031 C 
ATOM     49  C   UNL A   1      45.666  29.248  29.694  1.00  0.00     0.029 A 
ATOM     50  N   UNL A   1      46.601  31.138  28.953  1.00  0.00    -0.354 N 
ATOM     51  C   UNL A   1      44.278  34.768  28.607  1.00  0.00     0.074 A 
ATOM     52  C   UNL A   1      42.920  34.574  29.059  1.00  0.00     0.031 C 
ATOM     53  C   UNL A   1      46.967  28.999  29.498  1.00  0.00     0.029 A 
ATOM     54  C   UNL A   1      47.610  30.201  28.978  1.00  0.00     0.049 A 
ATOM     55  H   UNL A   1      46.729  32.061  28.639  1.00  0.00     0.167 HD
ATOM     56  C   UNL A   1      44.771  35.940  28.138  1.00  0.00     0.034 A 
ATOM     57  C   UNL A   1      48.905  30.287  28.615  1.00  0.00     0.034 A 
ATOM     58  C   UNL A   1      46.140  36.131  27.729  1.00  0.00     0.049 A 
ATOM     59  C   UNL A   1      49.428  31.601  28.105  1.00  0.00     0.074 A 
ATOM     60  C   UNL A   1      46.742  37.293  27.278  1.00  0.00     0.029 A 
ATOM     61  N   UNL A   1      47.121  35.150  27.729  1.00  0.00    -0.354 N 
ATOM     62  N   UNL A   1      48.798  32.748  27.994  1.00  0.00    -0.248 NA
ATOM     63  C   UNL A   1      50.827  31.640  27.663  1.00  0.00     0.031 C 
ATOM     64  C   UNL A   1      48.067  37.002  26.955  1.00  0.00     0.029 A 
ATOM     65  C   UNL A   1      48.315  35.674  27.262  1.00  0.00     0.049 A 
ATOM     66  H   UNL A   1      46.988  34.217  28.019  1.00  0.00     0.167 HD
ATOM     67  C   UNL A   1      49.724  33.642  27.467  1.00  0.00     0.074 A 
ATOM     68  C   UNL A   1      50.968  32.915  27.324  1.00  0.00     0.031 C 
ATOM     69  C   UNL A   1      49.551  34.942  27.121  1.00  0.00     0.034 A 
BRANCH  56  70
ATOM     70  C   UNL A   1      43.849  37.131  28.042  1.00  0.00     0.023 A 
ATOM     71  C   UNL A   1      43.920  38.154  29.008  1.00  0.00     0.031 A 
ATOM     72  C   UNL A   1      42.819  37.189  27.088  1.00  0.00     0.131 A 
ATOM     73  C   UNL A   1      42.957  39.172  29.018  1.00  0.00     0.055 A 
ATOM     74  C   UNL A   1      41.882  38.225  27.081  1.00  0.00     0.041 A 
ATOM     75  F   UNL A   1      42.708  36.239  26.146  1.00  0.00    -0.206 F 
ATOM     76  C   UNL A   1      41.942  39.215  28.057  1.00  0.00     0.022 A 
BRANCH  73  77
ATOM     77  S   UNL A   1      42.946  40.443  30.312  1.00  0.00     0.124 S 
ATOM     78  O   UNL A   1      41.562  40.910  30.260  1.00  0.00    -0.237 OA
ATOM     79  O   UNL A   1      43.298  39.671  31.501  1.00  0.00    -0.237 OA
ATOM     80  O   UNL A   1      43.944  41.408  29.867  1.00  0.00    -0.744 OA
ENDBRANCH  73  77
ENDBRANCH  56  70
BRANCH  57  81
ATOM     81  C   UNL A   1      49.777  29.085  28.762  1.00  0.00     0.023 A 
ATOM     82  C   UNL A   1      49.810  28.093  27.763  1.00  0.00     0.031 A 
ATOM     83  C   UNL A   1      50.477  28.842  29.955  1.00  0.00     0.131 A 
ATOM     84  C   UNL A   1      50.444  26.871  28.013  1.00  0.00     0.055 A 
ATOM     85  C   UNL A   1      51.180  27.654  30.166  1.00  0.00     0.041 A 
ATOM     86  F   UNL A   1      50.468  29.753  30.941  1.00  0.00    -0.206 F 
ATOM     87  C   UNL A   1      51.144  26.651  29.203  1.00  0.00     0.022 A 
BRANCH  84  88
ATOM     88  S   UNL A   1      50.232  25.470  26.879  1.00  0.00     0.124 S 
ATOM     89  O   UNL A   1      49.954  24.373  27.800  1.00  0.00    -0.237 OA
ATOM     90  O   UNL A   1      49.102  25.913  26.064  1.00  0.00    -0.237 OA
ATOM     91  O   UNL A   1      51.509  25.401  26.176  1.00  0.00    -0.744 OA
ENDBRANCH  84  88
ENDBRANCH  57  81
BRANCH  69  92
ATOM     92  C   UNL A   1      50.722  35.683  26.524  1.00  0.00     0.023 A 
ATOM     93  C   UNL A   1      51.571  36.446  27.347  1.00  0.00     0.031 A 
ATOM     94  C   UNL A   1      50.908  35.745  25.132  1.00  0.00     0.131 A 
ATOM     95  C   UNL A   1      52.545  37.269  26.766  1.00  0.00     0.055 A 
ATOM     96  C   UNL A   1      51.907  36.534  24.562  1.00  0.00     0.041 A 
ATOM     97  F   UNL A   1      50.116  35.042  24.307  1.00  0.00    -0.206 F 
ATOM     98  C   UNL A   1      52.722  37.312  25.379  1.00  0.00     0.022 A 
BRANCH  95  99
ATOM     99  S   UNL A   1      53.558  38.380  27.783  1.00  0.00     0.124 S 
ATOM    100  O   UNL A   1      54.851  37.700  27.774  1.00  0.00    -0.237 OA
ATOM    101  O   UNL A   1      53.504  39.627  27.025  1.00  0.00    -0.237 OA
ATOM    102  O   UNL A   1      52.874  38.399  29.073  1.00  0.00    -0.744 OA
ENDBRANCH  95  99
ENDBRANCH  69  92
ENDBRANCH  43  44
ENDBRANCH  35  38
ENDBRANCH  33  34
ENDBRANCH  32  33
ENDBRANCH   1  32
TORSDOF 18
ENDMDL
MODEL 3
REMARK VINA RESULT:      -9.3      2.680      8.167
REMARK SMILES O=C(Cn1nc(-c2ccc(Br)cc2)ccc1=O)N[C@H](C(=O)NCCCNC(=O)c1ccc(-c2c3nc(c(-c4cc(S(=O)(=O)[O-])ccc4F)c4ccc([nH]4)c(-c4cc(S(=O)(=O)[O-])ccc4F)c4nc(c(-c5cc(S(=O)(=O)[O-])ccc5F)c5ccc2[nH]5)C=C4)C=C3)cc1)c1ccccc1
REMARK SMILES IDX 23 1 22 2 20 3 21 4 19 6 18 7 1 8 2 9 3 11 4 12 5 13 16 14
REMARK SMILES IDX 6 15 15 16 17 17 14 18 7 19 8 20 13 21 9 22 12 23 10 24
REMARK SMILES IDX 11 25 92 26 93 27 97 28 94 29 96 30 95 31 24 32 25 33 26 34
REMARK SMILES IDX 27 35 28 37 29 38 30 39 91 40 31 41 90 42 32 43 33 44 34 45
REMARK SMILES IDX 84 46 35 47 89 48 83 49 85 50 36 51 88 52 82 53 81 54 37 56
REMARK SMILES IDX 69 57 49 58 68 59 50 60 53 61 67 62 86 63 51 64 52 65 66 67
REMARK SMILES IDX 87 68 54 69 38 70 39 71 47 72 40 73 46 74 48 75 45 76 41 77
REMARK SMILES IDX 42 78 43 79 44 80 70 81 71 82 79 83 72 84 78 85 80 86 77 87
REMARK SMILES IDX 73 88 74 89 75 90 76 91 55 92 56 93 64 94 57 95 63 96 65 97
REMARK SMILES IDX 62 98 58 99 59 100 60 101 61 102
REMARK H PARENT 22 5 18 10 26 36 85 55 53 66
REMARK Flexibility Score: inf
ROOT
ATOM      1  C   UNL A   1      50.604  27.135  27.148  1.00  0.00     0.117 C 
ENDROOT
BRANCH   1   2
ATOM      2  N   UNL A   1      49.798  26.433  28.128  1.00  0.00    -0.354 N 
ATOM      3  C   UNL A   1      48.542  25.891  28.016  1.00  0.00     0.247 C 
ATOM      4  O   UNL A   1      48.119  25.348  29.040  1.00  0.00    -0.272 OA
ATOM      5  H   UNL A   1      50.217  26.330  29.014  1.00  0.00     0.163 HD
BRANCH   3   6
ATOM      6  C   UNL A   1      47.672  26.182  26.748  1.00  0.00     0.202 C 
BRANCH   6   7
ATOM      7  N   UNL A   1      47.343  24.958  26.018  1.00  0.00    -0.339 N 
ATOM      8  O   UNL A   1      47.518  25.814  23.890  1.00  0.00    -0.273 OA
ATOM      9  C   UNL A   1      47.241  24.886  24.641  1.00  0.00     0.242 C 
ATOM     10  H   UNL A   1      47.186  24.137  26.538  1.00  0.00     0.164 HD
BRANCH   9  11
ATOM     11  C   UNL A   1      46.688  23.545  24.153  1.00  0.00     0.248 C 
BRANCH  11  12
ATOM     12  N   UNL A   1      45.472  23.238  24.884  1.00  0.00    -0.220 N 
ATOM     13  N   UNL A   1      44.533  24.246  24.943  1.00  0.00    -0.169 NA
ATOM     14  C   UNL A   1      45.371  22.035  25.566  1.00  0.00     0.267 A 
ATOM     15  C   UNL A   1      43.535  24.081  25.750  1.00  0.00     0.091 A 
ATOM     16  C   UNL A   1      44.172  21.877  26.415  1.00  0.00     0.075 A 
ATOM     17  O   UNL A   1      46.183  21.117  25.514  1.00  0.00    -0.268 OA
ATOM     18  C   UNL A   1      43.278  22.860  26.536  1.00  0.00     0.036 A 
BRANCH  15  19
ATOM     19  C   UNL A   1      42.606  25.212  25.947  1.00  0.00     0.002 A 
ATOM     20  C   UNL A   1      42.708  26.335  25.120  1.00  0.00     0.011 A 
ATOM     21  C   UNL A   1      41.750  25.218  27.055  1.00  0.00     0.011 A 
ATOM     22  C   UNL A   1      41.937  27.466  25.394  1.00  0.00     0.016 A 
ATOM     23  C   UNL A   1      40.993  26.357  27.334  1.00  0.00     0.016 A 
ATOM     24  C   UNL A   1      41.090  27.473  26.503  1.00  0.00     0.018 A 
ATOM     25  Br  UNL A   1      40.085  29.023  26.906  1.00  0.00    -0.051 Br
ENDBRANCH  15  19
ENDBRANCH  11  12
ENDBRANCH   9  11
ENDBRANCH   6   7
BRANCH   6  26
ATOM     26  C   UNL A   1      46.500  27.156  26.893  1.00  0.00    -0.016 A 
ATOM     27  C   UNL A   1      46.533  28.430  26.298  1.00  0.00     0.006 A 
ATOM     28  C   UNL A   1      45.413  26.879  27.743  1.00  0.00     0.006 A 
ATOM     29  C   UNL A   1      45.511  29.362  26.506  1.00  0.00     0.000 A 
ATOM     30  C   UNL A   1      44.383  27.803  27.940  1.00  0.00     0.000 A 
ATOM     31  C   UNL A   1      44.431  29.046  27.322  1.00  0.00     0.000 A 
ENDBRANCH   6  26
ENDBRANCH   3   6
ENDBRANCH   1   2
BRANCH   1  32
ATOM     32  C   UNL A   1      52.065  27.244  27.533  1.00  0.00     0.042 C 
BRANCH  32  33
ATOM     33  C   UNL A   1      52.338  28.164  28.709  1.00  0.00     0.118 C 
BRANCH  33  34
ATOM     34  N   UNL A   1      53.101  29.358  28.364  1.00  0.00    -0.352 N 
ATOM     35  C   UNL A   1      52.671  30.654  28.163  1.00  0.00     0.251 C 
ATOM     36  H   UNL A   1      54.070  29.220  28.261  1.00  0.00     0.163 HD
ATOM     37  O   UNL A   1      53.462  31.507  27.769  1.00  0.00    -0.269 OA
BRANCH  35  38
ATOM     38  C   UNL A   1      51.244  30.992  28.364  1.00  0.00     0.039 A 
ATOM     39  C   UNL A   1      50.813  31.520  29.578  1.00  0.00     0.014 A 
ATOM     40  C   UNL A   1      50.316  30.709  27.359  1.00  0.00     0.014 A 
ATOM     41  C   UNL A   1      49.462  31.500  29.885  1.00  0.00     0.010 A 
ATOM     42  C   UNL A   1      48.947  30.835  27.624  1.00  0.00     0.010 A 
ATOM     43  C   UNL A   1      48.504  31.160  28.914  1.00  0.00    -0.014 A 
BRANCH  43  44
ATOM     44  C   UNL A   1      47.063  31.169  29.291  1.00  0.00     0.031 A 
ATOM     45  C   UNL A   1      46.451  30.048  30.092  1.00  0.00     0.074 A 
ATOM     46  C   UNL A   1      46.320  32.249  28.974  1.00  0.00     0.049 A 
ATOM     47  N   UNL A   1      45.230  29.942  30.552  1.00  0.00    -0.248 NA
ATOM     48  C   UNL A   1      47.306  28.894  30.413  1.00  0.00     0.031 C 
ATOM     49  C   UNL A   1      46.804  33.390  28.194  1.00  0.00     0.029 A 
ATOM     50  N   UNL A   1      45.031  32.594  29.298  1.00  0.00    -0.354 N 
ATOM     51  C   UNL A   1      45.160  28.705  31.183  1.00  0.00     0.074 A 
ATOM     52  C   UNL A   1      46.455  28.083  31.028  1.00  0.00     0.031 C 
ATOM     53  C   UNL A   1      45.864  34.344  28.181  1.00  0.00     0.029 A 
ATOM     54  C   UNL A   1      44.672  33.849  28.862  1.00  0.00     0.049 A 
ATOM     55  H   UNL A   1      44.422  32.000  29.793  1.00  0.00     0.167 HD
ATOM     56  C   UNL A   1      44.115  28.148  31.841  1.00  0.00     0.034 A 
ATOM     57  C   UNL A   1      43.515  34.530  28.982  1.00  0.00     0.034 A 
ATOM     58  C   UNL A   1      42.841  28.797  32.024  1.00  0.00     0.049 A 
ATOM     59  C   UNL A   1      42.374  33.892  29.723  1.00  0.00     0.074 A 
ATOM     60  C   UNL A   1      41.735  28.328  32.711  1.00  0.00     0.029 A 
ATOM     61  N   UNL A   1      42.502  30.050  31.534  1.00  0.00    -0.354 N 
ATOM     62  N   UNL A   1      42.341  32.734  30.342  1.00  0.00    -0.248 NA
ATOM     63  C   UNL A   1      41.111  34.638  29.781  1.00  0.00     0.031 C 
ATOM     64  C   UNL A   1      40.713  29.269  32.590  1.00  0.00     0.029 A 
ATOM     65  C   UNL A   1      41.197  30.357  31.881  1.00  0.00     0.049 A 
ATOM     66  H   UNL A   1      43.102  30.635  31.015  1.00  0.00     0.167 HD
ATOM     67  C   UNL A   1      41.056  32.613  30.858  1.00  0.00     0.074 A 
ATOM     68  C   UNL A   1      40.356  33.834  30.519  1.00  0.00     0.031 C 
ATOM     69  C   UNL A   1      40.505  31.577  31.538  1.00  0.00     0.034 A 
BRANCH  56  70
ATOM     70  C   UNL A   1      44.280  26.770  32.436  1.00  0.00     0.023 A 
ATOM     71  C   UNL A   1      44.695  26.627  33.774  1.00  0.00     0.031 A 
ATOM     72  C   UNL A   1      44.161  25.611  31.649  1.00  0.00     0.131 A 
ATOM     73  C   UNL A   1      45.011  25.357  34.274  1.00  0.00     0.055 A 
ATOM     74  C   UNL A   1      44.443  24.344  32.163  1.00  0.00     0.041 A 
ATOM     75  F   UNL A   1      43.767  25.693  30.369  1.00  0.00    -0.206 F 
ATOM     76  C   UNL A   1      44.882  24.214  33.478  1.00  0.00     0.022 A 
BRANCH  73  77
ATOM     77  S   UNL A   1      45.658  25.143  35.955  1.00  0.00     0.124 S 
ATOM     78  O   UNL A   1      44.565  25.675  36.766  1.00  0.00    -0.237 OA
ATOM     79  O   UNL A   1      45.841  23.696  36.029  1.00  0.00    -0.237 OA
ATOM     80  O   UNL A   1      46.881  25.936  35.965  1.00  0.00    -0.744 OA
ENDBRANCH  73  77
ENDBRANCH  56  70
BRANCH  57  81
ATOM     81  C   UNL A   1      43.421  35.902  28.402  1.00  0.00     0.023 A 
ATOM     82  C   UNL A   1      43.768  37.032  29.167  1.00  0.00     0.031 A 
ATOM     83  C   UNL A   1      42.857  36.113  27.133  1.00  0.00     0.131 A 
ATOM     84  C   UNL A   1      43.458  38.314  28.699  1.00  0.00     0.055 A 
ATOM     85  C   UNL A   1      42.626  37.397  26.635  1.00  0.00     0.041 A 
ATOM     86  F   UNL A   1      42.500  35.068  26.370  1.00  0.00    -0.206 F 
ATOM     87  C   UNL A   1      42.904  38.505  27.430  1.00  0.00     0.022 A 
BRANCH  84  88
ATOM     88  S   UNL A   1      43.601  39.756  29.791  1.00  0.00     0.124 S 
ATOM     89  O   UNL A   1      44.649  40.530  29.137  1.00  0.00    -0.237 OA
ATOM     90  O   UNL A   1      42.256  40.323  29.717  1.00  0.00    -0.237 OA
ATOM     91  O   UNL A   1      43.953  39.175  31.083  1.00  0.00    -0.744 OA
ENDBRANCH  84  88
ENDBRANCH  57  81
BRANCH  69  92
ATOM     92  C   UNL A   1      39.059  31.685  31.954  1.00  0.00     0.023 A 
ATOM     93  C   UNL A   1      38.696  32.480  33.056  1.00  0.00     0.031 A 
ATOM     94  C   UNL A   1      38.069  30.892  31.347  1.00  0.00     0.131 A 
ATOM     95  C   UNL A   1      37.383  32.436  33.543  1.00  0.00     0.055 A 
ATOM     96  C   UNL A   1      36.753  30.885  31.810  1.00  0.00     0.041 A 
ATOM     97  F   UNL A   1      38.370  30.110  30.299  1.00  0.00    -0.206 F 
ATOM     98  C   UNL A   1      36.409  31.648  32.921  1.00  0.00     0.022 A 
BRANCH  95  99
ATOM     99  S   UNL A   1      36.914  33.330  35.051  1.00  0.00     0.124 S 
ATOM    100  O   UNL A   1      35.472  33.485  34.871  1.00  0.00    -0.237 OA
ATOM    101  O   UNL A   1      37.314  32.396  36.100  1.00  0.00    -0.237 OA
ATOM    102  O   UNL A   1      37.686  34.566  34.983  1.00  0.00    -0.744 OA
ENDBRANCH  95  99
ENDBRANCH  69  92
ENDBRANCH  43  44
ENDBRANCH  35  38
ENDBRANCH  33  34
ENDBRANCH  32  33
ENDBRANCH   1  32
TORSDOF 18
ENDMDL
