MODEL 1
REMARK VINA RESULT:     -11.4      0.000      0.000
REMARK SMILES CCC(CC)Nc1cc(C)c(N)c(C(=O)NCCCNC(=O)c2ccc(-c3c4nc(c(-c5cc(S(=O)(=O)[O-])ccc5F)c5ccc([nH]5)c(-c5cc(S(=O)(=O)[O-])ccc5F)c5nc(c(-c6cc(S(=O)(=O)[O-])ccc6F)c6ccc3[nH]6)C=C5)C=C4)cc2)c1
REMARK SMILES IDX 18 1 17 2 16 3 14 4 15 5 13 7 7 8 8 9 86 10 9 11 10 12 11 13
REMARK SMILES IDX 6 14 3 16 2 17 1 18 4 19 5 20 12 21 19 24 20 25 21 26 22 28
REMARK SMILES IDX 23 29 24 30 85 31 25 32 84 33 26 34 27 35 28 36 78 37 29 38
REMARK SMILES IDX 83 39 77 40 79 41 30 42 82 43 76 44 75 45 31 47 63 48 43 49
REMARK SMILES IDX 62 50 44 51 47 52 61 53 80 54 45 55 46 56 60 58 81 59 48 60
REMARK SMILES IDX 32 61 33 62 41 63 34 64 40 65 42 66 39 67 35 68 36 69 37 70
REMARK SMILES IDX 38 71 64 72 65 73 73 74 66 75 72 76 74 77 71 78 67 79 68 80
REMARK SMILES IDX 69 81 70 82 49 83 50 84 58 85 51 86 57 87 59 88 56 89 52 90
REMARK SMILES IDX 53 91 54 92 55 93
REMARK H PARENT 16 6 6 15 12 22 12 23 20 27 79 46 47 57
REMARK Flexibility Score: inf
ROOT
ATOM      1  C   UNL A   1      38.133  20.135  24.997  1.00  0.00     0.042 C 
ENDROOT
BRANCH   1   2
ATOM      2  C   UNL A   1      37.163  21.298  24.777  1.00  0.00     0.118 C 
BRANCH   2   3
ATOM      3  N   UNL A   1      36.252  21.436  25.900  1.00  0.00    -0.352 N 
ATOM      4  C   UNL A   1      34.884  21.410  26.034  1.00  0.00     0.253 C 
ATOM      5  O   UNL A   1      34.460  21.578  27.183  1.00  0.00    -0.269 OA
ATOM      6  H   UNL A   1      36.717  21.583  26.755  1.00  0.00     0.163 HD
BRANCH   4   7
ATOM      7  C   UNL A   1      33.915  21.165  24.911  1.00  0.00     0.065 A 
ATOM      8  C   UNL A   1      32.445  22.023  23.143  1.00  0.00     0.035 A 
ATOM      9  C   UNL A   1      32.129  20.718  22.785  1.00  0.00     0.031 A 
ATOM     10  C   UNL A   1      33.273  22.216  24.251  1.00  0.00     0.041 A 
ATOM     11  C   UNL A   1      32.696  19.619  23.463  1.00  0.00    -0.025 A 
ATOM     12  C   UNL A   1      32.337  18.227  23.015  1.00  0.00     0.046 C 
ATOM     13  C   UNL A   1      33.593  19.836  24.535  1.00  0.00     0.047 A 
BRANCH   8  14
ATOM     14  N   UNL A   1      31.970  23.141  22.491  1.00  0.00    -0.382 N 
ATOM     15  H   UNL A   1      31.614  23.017  21.582  1.00  0.00     0.160 HD
BRANCH  14  16
ATOM     16  C   UNL A   1      31.953  24.492  23.036  1.00  0.00     0.078 C 
BRANCH  16  17
ATOM     17  C   UNL A   1      32.299  25.441  21.870  1.00  0.00     0.021 C 
ATOM     18  C   UNL A   1      33.435  26.404  22.167  1.00  0.00     0.006 C 
ENDBRANCH  16  17
BRANCH  16  19
ATOM     19  C   UNL A   1      30.588  24.761  23.695  1.00  0.00     0.021 C 
ATOM     20  C   UNL A   1      30.614  24.899  25.214  1.00  0.00     0.006 C 
ENDBRANCH  16  19
ENDBRANCH  14  16
ENDBRANCH   8  14
BRANCH  13  21
ATOM     21  N   UNL A   1      34.259  18.738  25.100  1.00  0.00    -0.398 N 
ATOM     22  H   UNL A   1      35.153  18.855  25.495  1.00  0.00     0.156 HD
ATOM     23  H   UNL A   1      33.832  17.851  25.102  1.00  0.00     0.156 HD
ENDBRANCH  13  21
ENDBRANCH   4   7
ENDBRANCH   2   3
ENDBRANCH   1   2
BRANCH   1  24
ATOM     24  C   UNL A   1      39.242  20.465  25.996  1.00  0.00     0.118 C 
BRANCH  24  25
ATOM     25  N   UNL A   1      40.264  19.426  26.024  1.00  0.00    -0.352 N 
ATOM     26  C   UNL A   1      41.632  19.537  26.056  1.00  0.00     0.251 C 
ATOM     27  H   UNL A   1      39.922  18.504  26.018  1.00  0.00     0.163 HD
ATOM     28  O   UNL A   1      42.319  18.554  25.792  1.00  0.00    -0.269 OA
BRANCH  26  29
ATOM     29  C   UNL A   1      42.272  20.825  26.396  1.00  0.00     0.039 A 
ATOM     30  C   UNL A   1      42.702  21.663  25.362  1.00  0.00     0.014 A 
ATOM     31  C   UNL A   1      42.483  21.192  27.728  1.00  0.00     0.014 A 
ATOM     32  C   UNL A   1      43.279  22.899  25.665  1.00  0.00     0.010 A 
ATOM     33  C   UNL A   1      42.996  22.450  28.028  1.00  0.00     0.010 A 
ATOM     34  C   UNL A   1      43.394  23.319  27.001  1.00  0.00    -0.014 A 
BRANCH  34  35
ATOM     35  C   UNL A   1      43.909  24.669  27.347  1.00  0.00     0.031 A 
ATOM     36  C   UNL A   1      42.973  25.723  27.870  1.00  0.00     0.074 A 
ATOM     37  C   UNL A   1      45.200  24.968  27.101  1.00  0.00     0.049 A 
ATOM     38  N   UNL A   1      43.200  26.989  28.105  1.00  0.00    -0.248 NA
ATOM     39  C   UNL A   1      41.590  25.299  28.133  1.00  0.00     0.031 C 
ATOM     40  C   UNL A   1      46.192  24.036  26.560  1.00  0.00     0.029 A 
ATOM     41  N   UNL A   1      45.896  26.142  27.251  1.00  0.00    -0.354 N 
ATOM     42  C   UNL A   1      41.986  27.519  28.532  1.00  0.00     0.074 A 
ATOM     43  C   UNL A   1      41.017  26.446  28.464  1.00  0.00     0.031 C 
ATOM     44  C   UNL A   1      47.367  24.671  26.429  1.00  0.00     0.029 A 
ATOM     45  C   UNL A   1      47.202  26.066  26.823  1.00  0.00     0.049 A 
ATOM     46  H   UNL A   1      45.498  26.959  27.628  1.00  0.00     0.167 HD
ATOM     47  C   UNL A   1      41.714  28.778  28.957  1.00  0.00     0.034 A 
ATOM     48  C   UNL A   1      48.151  27.019  26.729  1.00  0.00     0.034 A 
ATOM     49  C   UNL A   1      42.700  29.832  29.017  1.00  0.00     0.049 A 
ATOM     50  C   UNL A   1      47.816  28.422  27.165  1.00  0.00     0.074 A 
ATOM     51  C   UNL A   1      42.552  31.125  29.487  1.00  0.00     0.029 A 
ATOM     52  N   UNL A   1      44.013  29.720  28.577  1.00  0.00    -0.354 N 
ATOM     53  N   UNL A   1      46.678  28.896  27.620  1.00  0.00    -0.248 NA
ATOM     54  C   UNL A   1      48.891  29.418  27.080  1.00  0.00     0.031 C 
ATOM     55  C   UNL A   1      43.748  31.815  29.261  1.00  0.00     0.029 A 
ATOM     56  C   UNL A   1      44.672  30.930  28.726  1.00  0.00     0.049 A 
ATOM     57  H   UNL A   1      44.417  28.899  28.212  1.00  0.00     0.167 HD
ATOM     58  C   UNL A   1      46.910  30.240  27.897  1.00  0.00     0.074 A 
ATOM     59  C   UNL A   1      48.299  30.496  27.573  1.00  0.00     0.031 C 
ATOM     60  C   UNL A   1      46.054  31.176  28.380  1.00  0.00     0.034 A 
BRANCH  47  61
ATOM     61  C   UNL A   1      40.289  29.084  29.357  1.00  0.00     0.023 A 
ATOM     62  C   UNL A   1      39.873  29.041  30.700  1.00  0.00     0.031 A 
ATOM     63  C   UNL A   1      39.322  29.388  28.383  1.00  0.00     0.131 A 
ATOM     64  C   UNL A   1      38.518  29.207  31.022  1.00  0.00     0.055 A 
ATOM     65  C   UNL A   1      37.990  29.642  28.718  1.00  0.00     0.041 A 
ATOM     66  F   UNL A   1      39.650  29.426  27.082  1.00  0.00    -0.206 F 
ATOM     67  C   UNL A   1      37.577  29.534  30.043  1.00  0.00     0.022 A 
BRANCH  64  68
ATOM     68  S   UNL A   1      37.978  28.829  32.712  1.00  0.00     0.124 S 
ATOM     69  O   UNL A   1      36.616  29.359  32.711  1.00  0.00    -0.237 OA
ATOM     70  O   UNL A   1      38.099  27.377  32.764  1.00  0.00    -0.237 OA
ATOM     71  O   UNL A   1      38.924  29.566  33.547  1.00  0.00    -0.744 OA
ENDBRANCH  64  68
ENDBRANCH  47  61
BRANCH  48  72
ATOM     72  C   UNL A   1      49.493  26.688  26.171  1.00  0.00     0.023 A 
ATOM     73  C   UNL A   1      49.877  27.123  24.893  1.00  0.00     0.031 A 
ATOM     74  C   UNL A   1      50.406  25.907  26.904  1.00  0.00     0.131 A 
ATOM     75  C   UNL A   1      51.122  26.743  24.369  1.00  0.00     0.055 A 
ATOM     76  C   UNL A   1      51.665  25.576  26.400  1.00  0.00     0.041 A 
ATOM     77  F   UNL A   1      50.092  25.468  28.133  1.00  0.00    -0.206 F 
ATOM     78  C   UNL A   1      52.025  25.985  25.120  1.00  0.00     0.022 A 
BRANCH  75  79
ATOM     79  S   UNL A   1      51.517  27.189  22.657  1.00  0.00     0.124 S 
ATOM     80  O   UNL A   1      52.703  26.378  22.405  1.00  0.00    -0.237 OA
ATOM     81  O   UNL A   1      50.304  26.790  21.953  1.00  0.00    -0.237 OA
ATOM     82  O   UNL A   1      51.750  28.631  22.727  1.00  0.00    -0.744 OA
ENDBRANCH  75  79
ENDBRANCH  48  72
BRANCH  60  83
ATOM     83  C   UNL A   1      46.611  32.559  28.620  1.00  0.00     0.023 A 
ATOM     84  C   UNL A   1      46.572  33.554  27.627  1.00  0.00     0.031 A 
ATOM     85  C   UNL A   1      47.182  32.885  29.863  1.00  0.00     0.131 A 
ATOM     86  C   UNL A   1      47.135  34.814  27.881  1.00  0.00     0.055 A 
ATOM     87  C   UNL A   1      47.686  34.158  30.129  1.00  0.00     0.041 A 
ATOM     88  F   UNL A   1      47.249  31.970  30.844  1.00  0.00    -0.206 F 
ATOM     89  C   UNL A   1      47.674  35.128  29.131  1.00  0.00     0.022 A 
BRANCH  86  90
ATOM     90  S   UNL A   1      47.222  36.019  26.528  1.00  0.00     0.124 S 
ATOM     91  O   UNL A   1      48.581  36.531  26.666  1.00  0.00    -0.237 OA
ATOM     92  O   UNL A   1      46.970  35.191  25.354  1.00  0.00    -0.237 OA
ATOM     93  O   UNL A   1      46.164  36.974  26.851  1.00  0.00    -0.744 OA
ENDBRANCH  86  90
ENDBRANCH  60  83
ENDBRANCH  34  35
ENDBRANCH  26  29
ENDBRANCH  24  25
ENDBRANCH   1  24
TORSDOF 18
ENDMDL
MODEL 2
REMARK VINA RESULT:     -11.2      6.187     10.989
REMARK SMILES CCC(CC)Nc1cc(C)c(N)c(C(=O)NCCCNC(=O)c2ccc(-c3c4nc(c(-c5cc(S(=O)(=O)[O-])ccc5F)c5ccc([nH]5)c(-c5cc(S(=O)(=O)[O-])ccc5F)c5nc(c(-c6cc(S(=O)(=O)[O-])ccc6F)c6ccc3[nH]6)C=C5)C=C4)cc2)c1
REMARK SMILES IDX 18 1 17 2 16 3 14 4 15 5 13 7 7 8 8 9 86 10 9 11 10 12 11 13
REMARK SMILES IDX 6 14 3 16 2 17 1 18 4 19 5 20 12 21 19 24 20 25 21 26 22 28
REMARK SMILES IDX 23 29 24 30 85 31 25 32 84 33 26 34 27 35 28 36 78 37 29 38
REMARK SMILES IDX 83 39 77 40 79 41 30 42 82 43 76 44 75 45 31 47 63 48 43 49
REMARK SMILES IDX 62 50 44 51 47 52 61 53 80 54 45 55 46 56 60 58 81 59 48 60
REMARK SMILES IDX 32 61 33 62 41 63 34 64 40 65 42 66 39 67 35 68 36 69 37 70
REMARK SMILES IDX 38 71 64 72 65 73 73 74 66 75 72 76 74 77 71 78 67 79 68 80
REMARK SMILES IDX 69 81 70 82 49 83 50 84 58 85 51 86 57 87 59 88 56 89 52 90
REMARK SMILES IDX 53 91 54 92 55 93
REMARK H PARENT 16 6 6 15 12 22 12 23 20 27 79 46 47 57
REMARK Flexibility Score: inf
ROOT
ATOM      1  C   UNL A   1      31.868  29.174  27.163  1.00  0.00     0.042 C 
ENDROOT
BRANCH   1   2
ATOM      2  C   UNL A   1      32.413  27.756  27.353  1.00  0.00     0.118 C 
BRANCH   2   3
ATOM      3  N   UNL A   1      31.369  26.766  27.158  1.00  0.00    -0.352 N 
ATOM      4  C   UNL A   1      30.639  26.341  26.073  1.00  0.00     0.253 C 
ATOM      5  O   UNL A   1      29.808  25.456  26.306  1.00  0.00    -0.269 OA
ATOM      6  H   UNL A   1      31.129  26.294  27.988  1.00  0.00     0.163 HD
BRANCH   4   7
ATOM      7  C   UNL A   1      30.813  26.850  24.669  1.00  0.00     0.065 A 
ATOM      8  C   UNL A   1      30.573  28.644  23.011  1.00  0.00     0.035 A 
ATOM      9  C   UNL A   1      31.165  27.826  22.055  1.00  0.00     0.031 A 
ATOM     10  C   UNL A   1      30.341  28.106  24.278  1.00  0.00     0.041 A 
ATOM     11  C   UNL A   1      31.598  26.524  22.378  1.00  0.00    -0.025 A 
ATOM     12  C   UNL A   1      32.256  25.692  21.309  1.00  0.00     0.046 C 
ATOM     13  C   UNL A   1      31.422  26.024  23.690  1.00  0.00     0.047 A 
BRANCH   8  14
ATOM     14  N   UNL A   1      30.175  29.942  22.778  1.00  0.00    -0.382 N 
ATOM     15  H   UNL A   1      30.817  30.537  22.328  1.00  0.00     0.160 HD
BRANCH  14  16
ATOM     16  C   UNL A   1      28.885  30.508  23.147  1.00  0.00     0.078 C 
BRANCH  16  17
ATOM     17  C   UNL A   1      28.969  32.021  22.859  1.00  0.00     0.021 C 
ATOM     18  C   UNL A   1      28.165  32.471  21.652  1.00  0.00     0.006 C 
ENDBRANCH  16  17
BRANCH  16  19
ATOM     19  C   UNL A   1      27.767  29.773  22.384  1.00  0.00     0.021 C 
ATOM     20  C   UNL A   1      26.974  28.762  23.205  1.00  0.00     0.006 C 
ENDBRANCH  16  19
ENDBRANCH  14  16
ENDBRANCH   8  14
BRANCH  13  21
ATOM     21  N   UNL A   1      31.989  24.788  24.032  1.00  0.00    -0.398 N 
ATOM     22  H   UNL A   1      32.478  24.688  24.880  1.00  0.00     0.156 HD
ATOM     23  H   UNL A   1      31.897  24.019  23.423  1.00  0.00     0.156 HD
ENDBRANCH  13  21
ENDBRANCH   4   7
ENDBRANCH   2   3
ENDBRANCH   1   2
BRANCH   1  24
ATOM     24  C   UNL A   1      32.764  30.044  26.282  1.00  0.00     0.118 C 
BRANCH  24  25
ATOM     25  N   UNL A   1      32.576  31.462  26.561  1.00  0.00    -0.352 N 
ATOM     26  C   UNL A   1      33.256  32.290  27.419  1.00  0.00     0.251 C 
ATOM     27  H   UNL A   1      31.848  31.892  26.057  1.00  0.00     0.163 HD
ATOM     28  O   UNL A   1      32.767  33.376  27.718  1.00  0.00    -0.269 OA
BRANCH  26  29
ATOM     29  C   UNL A   1      34.557  31.877  27.985  1.00  0.00     0.039 A 
ATOM     30  C   UNL A   1      35.610  32.796  28.006  1.00  0.00     0.014 A 
ATOM     31  C   UNL A   1      34.752  30.577  28.461  1.00  0.00     0.014 A 
ATOM     32  C   UNL A   1      36.837  32.433  28.567  1.00  0.00     0.010 A 
ATOM     33  C   UNL A   1      35.951  30.238  29.080  1.00  0.00     0.010 A 
ATOM     34  C   UNL A   1      37.004  31.163  29.145  1.00  0.00    -0.014 A 
BRANCH  34  35
ATOM     35  C   UNL A   1      38.263  30.786  29.838  1.00  0.00     0.031 A 
ATOM     36  C   UNL A   1      39.209  29.804  29.207  1.00  0.00     0.074 A 
ATOM     37  C   UNL A   1      38.503  31.260  31.077  1.00  0.00     0.049 A 
ATOM     38  N   UNL A   1      40.286  29.253  29.704  1.00  0.00    -0.248 NA
ATOM     39  C   UNL A   1      38.880  29.362  27.843  1.00  0.00     0.031 C 
ATOM     40  C   UNL A   1      37.637  32.191  31.805  1.00  0.00     0.029 A 
ATOM     41  N   UNL A   1      39.531  31.010  31.952  1.00  0.00    -0.354 N 
ATOM     42  C   UNL A   1      40.757  28.388  28.722  1.00  0.00     0.074 A 
ATOM     43  C   UNL A   1      39.813  28.448  27.626  1.00  0.00     0.031 C 
ATOM     44  C   UNL A   1      38.172  32.437  33.012  1.00  0.00     0.029 A 
ATOM     45  C   UNL A   1      39.386  31.643  33.167  1.00  0.00     0.049 A 
ATOM     46  H   UNL A   1      40.297  30.433  31.733  1.00  0.00     0.167 HD
ATOM     47  C   UNL A   1      41.883  27.630  28.730  1.00  0.00     0.034 A 
ATOM     48  C   UNL A   1      40.130  31.568  34.289  1.00  0.00     0.034 A 
ATOM     49  C   UNL A   1      42.810  27.588  29.835  1.00  0.00     0.049 A 
ATOM     50  C   UNL A   1      41.352  30.686  34.292  1.00  0.00     0.074 A 
ATOM     51  C   UNL A   1      44.010  26.906  29.928  1.00  0.00     0.029 A 
ATOM     52  N   UNL A   1      42.633  28.243  31.048  1.00  0.00    -0.354 N 
ATOM     53  N   UNL A   1      41.818  29.917  33.335  1.00  0.00    -0.248 NA
ATOM     54  C   UNL A   1      42.152  30.665  35.523  1.00  0.00     0.031 C 
ATOM     55  C   UNL A   1      44.519  27.084  31.220  1.00  0.00     0.029 A 
ATOM     56  C   UNL A   1      43.679  27.946  31.908  1.00  0.00     0.049 A 
ATOM     57  H   UNL A   1      41.874  28.831  31.265  1.00  0.00     0.167 HD
ATOM     58  C   UNL A   1      42.977  29.339  33.842  1.00  0.00     0.074 A 
ATOM     59  C   UNL A   1      43.148  29.862  35.182  1.00  0.00     0.031 C 
ATOM     60  C   UNL A   1      43.827  28.460  33.251  1.00  0.00     0.034 A 
BRANCH  47  61
ATOM     61  C   UNL A   1      42.147  26.767  27.518  1.00  0.00     0.023 A 
ATOM     62  C   UNL A   1      41.814  25.400  27.497  1.00  0.00     0.031 A 
ATOM     63  C   UNL A   1      42.772  27.304  26.379  1.00  0.00     0.131 A 
ATOM     64  C   UNL A   1      42.188  24.603  26.405  1.00  0.00     0.055 A 
ATOM     65  C   UNL A   1      43.059  26.524  25.256  1.00  0.00     0.041 A 
ATOM     66  F   UNL A   1      43.131  28.597  26.342  1.00  0.00    -0.206 F 
ATOM     67  C   UNL A   1      42.784  25.160  25.272  1.00  0.00     0.022 A 
BRANCH  64  68
ATOM     68  S   UNL A   1      42.029  22.802  26.556  1.00  0.00     0.124 S 
ATOM     69  O   UNL A   1      42.228  22.373  25.173  1.00  0.00    -0.237 OA
ATOM     70  O   UNL A   1      43.100  22.468  27.488  1.00  0.00    -0.237 OA
ATOM     71  O   UNL A   1      40.673  22.618  27.068  1.00  0.00    -0.744 OA
ENDBRANCH  64  68
ENDBRANCH  47  61
BRANCH  48  72
ATOM     72  C   UNL A   1      39.723  32.322  35.509  1.00  0.00     0.023 A 
ATOM     73  C   UNL A   1      38.877  31.748  36.470  1.00  0.00     0.031 A 
ATOM     74  C   UNL A   1      40.158  33.644  35.719  1.00  0.00     0.131 A 
ATOM     75  C   UNL A   1      38.461  32.503  37.577  1.00  0.00     0.055 A 
ATOM     76  C   UNL A   1      39.785  34.373  36.849  1.00  0.00     0.041 A 
ATOM     77  F   UNL A   1      40.973  34.240  34.834  1.00  0.00    -0.206 F 
ATOM     78  C   UNL A   1      38.921  33.807  37.781  1.00  0.00     0.022 A 
BRANCH  75  79
ATOM     79  S   UNL A   1      37.244  31.784  38.713  1.00  0.00     0.124 S 
ATOM     80  O   UNL A   1      36.135  32.722  38.592  1.00  0.00    -0.237 OA
ATOM     81  O   UNL A   1      37.034  30.462  38.133  1.00  0.00    -0.237 OA
ATOM     82  O   UNL A   1      37.934  31.795  40.001  1.00  0.00    -0.744 OA
ENDBRANCH  75  79
ENDBRANCH  48  72
BRANCH  60  83
ATOM     83  C   UNL A   1      45.040  28.038  34.045  1.00  0.00     0.023 A 
ATOM     84  C   UNL A   1      45.026  26.894  34.863  1.00  0.00     0.031 A 
ATOM     85  C   UNL A   1      46.227  28.787  33.973  1.00  0.00     0.131 A 
ATOM     86  C   UNL A   1      46.165  26.559  35.612  1.00  0.00     0.055 A 
ATOM     87  C   UNL A   1      47.375  28.414  34.674  1.00  0.00     0.041 A 
ATOM     88  F   UNL A   1      46.294  29.891  33.211  1.00  0.00    -0.206 F 
ATOM     89  C   UNL A   1      47.344  27.300  35.508  1.00  0.00     0.022 A 
BRANCH  86  90
ATOM     90  S   UNL A   1      46.061  25.180  36.785  1.00  0.00     0.124 S 
ATOM     91  O   UNL A   1      47.422  24.654  36.755  1.00  0.00    -0.237 OA
ATOM     92  O   UNL A   1      45.662  25.847  38.019  1.00  0.00    -0.237 OA
ATOM     93  O   UNL A   1      45.046  24.306  36.198  1.00  0.00    -0.744 OA
ENDBRANCH  86  90
ENDBRANCH  60  83
ENDBRANCH  34  35
ENDBRANCH  26  29
ENDBRANCH  24  25
ENDBRANCH   1  24
TORSDOF 18
ENDMDL
MODEL 3
REMARK VINA RESULT:     -11.0      5.968     11.882
REMARK SMILES CCC(CC)Nc1cc(C)c(N)c(C(=O)NCCCNC(=O)c2ccc(-c3c4nc(c(-c5cc(S(=O)(=O)[O-])ccc5F)c5ccc([nH]5)c(-c5cc(S(=O)(=O)[O-])ccc5F)c5nc(c(-c6cc(S(=O)(=O)[O-])ccc6F)c6ccc3[nH]6)C=C5)C=C4)cc2)c1
REMARK SMILES IDX 18 1 17 2 16 3 14 4 15 5 13 7 7 8 8 9 86 10 9 11 10 12 11 13
REMARK SMILES IDX 6 14 3 16 2 17 1 18 4 19 5 20 12 21 19 24 20 25 21 26 22 28
REMARK SMILES IDX 23 29 24 30 85 31 25 32 84 33 26 34 27 35 28 36 78 37 29 38
REMARK SMILES IDX 83 39 77 40 79 41 30 42 82 43 76 44 75 45 31 47 63 48 43 49
REMARK SMILES IDX 62 50 44 51 47 52 61 53 80 54 45 55 46 56 60 58 81 59 48 60
REMARK SMILES IDX 32 61 33 62 41 63 34 64 40 65 42 66 39 67 35 68 36 69 37 70
REMARK SMILES IDX 38 71 64 72 65 73 73 74 66 75 72 76 74 77 71 78 67 79 68 80
REMARK SMILES IDX 69 81 70 82 49 83 50 84 58 85 51 86 57 87 59 88 56 89 52 90
REMARK SMILES IDX 53 91 54 92 55 93
REMARK H PARENT 16 6 6 15 12 22 12 23 20 27 79 46 47 57
REMARK Flexibility Score: inf
ROOT
ATOM      1  C   UNL A   1      31.552  31.806  26.820  1.00  0.00     0.042 C 
ENDROOT
BRANCH   1   2
ATOM      2  C   UNL A   1      31.816  30.307  26.983  1.00  0.00     0.118 C 
BRANCH   2   3
ATOM      3  N   UNL A   1      33.218  30.053  27.267  1.00  0.00    -0.352 N 
ATOM      4  C   UNL A   1      34.121  29.100  26.861  1.00  0.00     0.253 C 
ATOM      5  O   UNL A   1      35.257  29.208  27.336  1.00  0.00    -0.269 OA
ATOM      6  H   UNL A   1      33.607  30.708  27.889  1.00  0.00     0.163 HD
BRANCH   4   7
ATOM      7  C   UNL A   1      33.825  27.997  25.883  1.00  0.00     0.065 A 
ATOM      8  C   UNL A   1      33.405  25.625  25.413  1.00  0.00     0.035 A 
ATOM      9  C   UNL A   1      33.235  25.931  24.068  1.00  0.00     0.031 A 
ATOM     10  C   UNL A   1      33.773  26.657  26.278  1.00  0.00     0.041 A 
ATOM     11  C   UNL A   1      33.344  27.257  23.604  1.00  0.00    -0.025 A 
ATOM     12  C   UNL A   1      33.124  27.533  22.140  1.00  0.00     0.046 C 
ATOM     13  C   UNL A   1      33.643  28.302  24.509  1.00  0.00     0.047 A 
BRANCH   8  14
ATOM     14  N   UNL A   1      33.261  24.361  25.943  1.00  0.00    -0.382 N 
ATOM     15  H   UNL A   1      32.388  24.132  26.334  1.00  0.00     0.160 HD
BRANCH  14  16
ATOM     16  C   UNL A   1      34.296  23.336  25.975  1.00  0.00     0.078 C 
BRANCH  16  17
ATOM     17  C   UNL A   1      33.679  22.067  25.353  1.00  0.00     0.021 C 
ATOM     18  C   UNL A   1      32.162  22.021  25.409  1.00  0.00     0.006 C 
ENDBRANCH  16  17
BRANCH  16  19
ATOM     19  C   UNL A   1      35.553  23.856  25.252  1.00  0.00     0.021 C 
ATOM     20  C   UNL A   1      36.864  23.665  26.007  1.00  0.00     0.006 C 
ENDBRANCH  16  19
ENDBRANCH  14  16
ENDBRANCH   8  14
BRANCH  13  21
ATOM     21  N   UNL A   1      33.602  29.630  24.058  1.00  0.00    -0.398 N 
ATOM     22  H   UNL A   1      32.738  30.091  23.965  1.00  0.00     0.156 HD
ATOM     23  H   UNL A   1      34.439  30.100  23.837  1.00  0.00     0.156 HD
ENDBRANCH  13  21
ENDBRANCH   4   7
ENDBRANCH   2   3
ENDBRANCH   1   2
BRANCH   1  24
ATOM     24  C   UNL A   1      32.826  32.646  26.891  1.00  0.00     0.118 C 
BRANCH  24  25
ATOM     25  N   UNL A   1      32.594  33.915  27.570  1.00  0.00    -0.352 N 
ATOM     26  C   UNL A   1      33.146  34.412  28.725  1.00  0.00     0.251 C 
ATOM     27  H   UNL A   1      31.941  34.507  27.133  1.00  0.00     0.163 HD
ATOM     28  O   UNL A   1      32.615  35.370  29.279  1.00  0.00    -0.269 OA
BRANCH  26  29
ATOM     29  C   UNL A   1      34.359  33.795  29.301  1.00  0.00     0.039 A 
ATOM     30  C   UNL A   1      35.612  34.298  28.941  1.00  0.00     0.014 A 
ATOM     31  C   UNL A   1      34.265  32.700  30.165  1.00  0.00     0.014 A 
ATOM     32  C   UNL A   1      36.768  33.748  29.501  1.00  0.00     0.010 A 
ATOM     33  C   UNL A   1      35.412  32.197  30.773  1.00  0.00     0.010 A 
ATOM     34  C   UNL A   1      36.674  32.719  30.453  1.00  0.00    -0.014 A 
BRANCH  34  35
ATOM     35  C   UNL A   1      37.878  32.186  31.140  1.00  0.00     0.031 A 
ATOM     36  C   UNL A   1      38.642  31.037  30.544  1.00  0.00     0.074 A 
ATOM     37  C   UNL A   1      38.225  32.679  32.346  1.00  0.00     0.049 A 
ATOM     38  N   UNL A   1      39.634  30.350  31.049  1.00  0.00    -0.248 NA
ATOM     39  C   UNL A   1      38.210  30.583  29.214  1.00  0.00     0.031 C 
ATOM     40  C   UNL A   1      37.534  33.768  33.040  1.00  0.00     0.029 A 
ATOM     41  N   UNL A   1      39.226  32.316  33.213  1.00  0.00    -0.354 N 
ATOM     42  C   UNL A   1      39.938  29.373  30.105  1.00  0.00     0.074 A 
ATOM     43  C   UNL A   1      38.983  29.524  29.027  1.00  0.00     0.031 C 
ATOM     44  C   UNL A   1      38.136  33.989  34.221  1.00  0.00     0.029 A 
ATOM     45  C   UNL A   1      39.216  33.023  34.393  1.00  0.00     0.049 A 
ATOM     46  H   UNL A   1      39.886  31.615  33.009  1.00  0.00     0.167 HD
ATOM     47  C   UNL A   1      40.932  28.450  30.131  1.00  0.00     0.034 A 
ATOM     48  C   UNL A   1      39.971  32.891  35.502  1.00  0.00     0.034 A 
ATOM     49  C   UNL A   1      41.873  28.320  31.219  1.00  0.00     0.049 A 
ATOM     50  C   UNL A   1      41.041  31.830  35.529  1.00  0.00     0.074 A 
ATOM     51  C   UNL A   1      42.955  27.464  31.324  1.00  0.00     0.029 A 
ATOM     52  N   UNL A   1      41.835  29.055  32.397  1.00  0.00    -0.354 N 
ATOM     53  N   UNL A   1      41.354  30.950  34.605  1.00  0.00    -0.248 NA
ATOM     54  C   UNL A   1      41.863  31.747  36.742  1.00  0.00     0.031 C 
ATOM     55  C   UNL A   1      43.522  27.626  32.593  1.00  0.00     0.029 A 
ATOM     56  C   UNL A   1      42.846  28.643  33.251  1.00  0.00     0.049 A 
ATOM     57  H   UNL A   1      41.182  29.765  32.597  1.00  0.00     0.167 HD
ATOM     58  C   UNL A   1      42.425  30.225  35.119  1.00  0.00     0.074 A 
ATOM     59  C   UNL A   1      42.713  30.781  36.425  1.00  0.00     0.031 C 
ATOM     60  C   UNL A   1      43.110  29.195  34.560  1.00  0.00     0.034 A 
BRANCH  47  61
ATOM     61  C   UNL A   1      41.024  27.496  28.963  1.00  0.00     0.023 A 
ATOM     62  C   UNL A   1      42.012  27.635  27.971  1.00  0.00     0.031 A 
ATOM     63  C   UNL A   1      40.094  26.452  28.817  1.00  0.00     0.131 A 
ATOM     64  C   UNL A   1      41.990  26.809  26.838  1.00  0.00     0.055 A 
ATOM     65  C   UNL A   1      40.133  25.574  27.731  1.00  0.00     0.041 A 
ATOM     66  F   UNL A   1      39.116  26.276  29.720  1.00  0.00    -0.206 F 
ATOM     67  C   UNL A   1      41.074  25.761  26.723  1.00  0.00     0.022 A 
BRANCH  64  68
ATOM     68  S   UNL A   1      43.073  27.227  25.443  1.00  0.00     0.124 S 
ATOM     69  O   UNL A   1      43.209  25.932  24.779  1.00  0.00    -0.237 OA
ATOM     70  O   UNL A   1      42.294  28.232  24.729  1.00  0.00    -0.237 OA
ATOM     71  O   UNL A   1      44.288  27.719  26.088  1.00  0.00    -0.744 OA
ENDBRANCH  64  68
ENDBRANCH  47  61
BRANCH  48  72
ATOM     72  C   UNL A   1      39.721  33.759  36.688  1.00  0.00     0.023 A 
ATOM     73  C   UNL A   1      39.106  33.254  37.843  1.00  0.00     0.031 A 
ATOM     74  C   UNL A   1      40.075  35.122  36.671  1.00  0.00     0.131 A 
ATOM     75  C   UNL A   1      38.826  34.111  38.919  1.00  0.00     0.055 A 
ATOM     76  C   UNL A   1      39.844  35.958  37.765  1.00  0.00     0.041 A 
ATOM     77  F   UNL A   1      40.670  35.656  35.593  1.00  0.00    -0.206 F 
ATOM     78  C   UNL A   1      39.205  35.456  38.894  1.00  0.00     0.022 A 
BRANCH  75  79
ATOM     79  S   UNL A   1      37.890  33.459  40.328  1.00  0.00     0.124 S 
ATOM     80  O   UNL A   1      38.798  32.441  40.843  1.00  0.00    -0.237 OA
ATOM     81  O   UNL A   1      37.722  34.648  41.155  1.00  0.00    -0.237 OA
ATOM     82  O   UNL A   1      36.664  32.951  39.715  1.00  0.00    -0.744 OA
ENDBRANCH  75  79
ENDBRANCH  48  72
BRANCH  60  83
ATOM     83  C   UNL A   1      44.265  28.628  35.350  1.00  0.00     0.023 A 
ATOM     84  C   UNL A   1      44.082  27.604  36.296  1.00  0.00     0.031 A 
ATOM     85  C   UNL A   1      45.568  29.117  35.148  1.00  0.00     0.131 A 
ATOM     86  C   UNL A   1      45.178  27.132  37.034  1.00  0.00     0.055 A 
ATOM     87  C   UNL A   1      46.663  28.603  35.843  1.00  0.00     0.041 A 
ATOM     88  F   UNL A   1      45.798  30.099  34.261  1.00  0.00    -0.206 F 
ATOM     89  C   UNL A   1      46.469  27.612  36.801  1.00  0.00     0.022 A 
BRANCH  86  90
ATOM     90  S   UNL A   1      44.883  25.933  38.363  1.00  0.00     0.124 S 
ATOM     91  O   UNL A   1      43.795  26.564  39.104  1.00  0.00    -0.237 OA
ATOM     92  O   UNL A   1      44.535  24.725  37.624  1.00  0.00    -0.237 OA
ATOM     93  O   UNL A   1      46.163  25.881  39.068  1.00  0.00    -0.744 OA
ENDBRANCH  86  90
ENDBRANCH  60  83
ENDBRANCH  34  35
ENDBRANCH  26  29
ENDBRANCH  24  25
ENDBRANCH   1  24
TORSDOF 18
ENDMDL
