MODEL 1
REMARK VINA RESULT:     -11.9      0.000      0.000
REMARK SMILES O=C(NCCCNC(=O)c1cc(Br)ccc1NC(=O)c1ccc(Br)s1)c1ccc(-c2c3nc(c(-c4cc(S(=O)(=O)[O-])ccc4F)c4ccc([nH]4)c(-c4cc(S(=O)(=O)[O-])ccc4F)c4nc(c(-c5cc(S(=O)(=O)[O-])ccc5F)c5ccc2[nH]5)C=C4)C=C3)cc1
REMARK SMILES IDX 4 1 3 2 1 3 2 4 26 6 27 7 88 8 28 9 87 10 29 11 30 12 31 13
REMARK SMILES IDX 81 14 32 15 86 16 80 17 82 18 33 19 85 20 79 21 78 22 34 24
REMARK SMILES IDX 66 25 46 26 65 27 47 28 50 29 64 30 83 31 48 32 49 33 63 35
REMARK SMILES IDX 84 36 51 37 35 38 36 39 44 40 37 41 43 42 45 43 42 44 38 45
REMARK SMILES IDX 39 46 40 47 41 48 67 49 68 50 76 51 69 52 75 53 77 54 74 55
REMARK SMILES IDX 70 56 71 57 72 58 73 59 52 60 53 61 61 62 54 63 60 64 62 65
REMARK SMILES IDX 59 66 55 67 56 68 57 69 58 70 5 71 6 72 7 73 8 74 9 76 10 77
REMARK SMILES IDX 11 78 16 79 12 80 15 81 13 82 14 83 17 84 18 85 19 87 20 88
REMARK SMILES IDX 21 89 25 90 22 91 23 92 24 93
REMARK H PARENT 3 5 82 23 50 34 7 75 17 86
REMARK Flexibility Score: inf
ROOT
ATOM      1  C   UNL A   1      33.129  29.180  25.230  1.00  0.00     0.118 C 
ENDROOT
BRANCH   1   2
ATOM      2  N   UNL A   1      32.623  30.459  25.710  1.00  0.00    -0.352 N 
ATOM      3  O   UNL A   1      32.298  32.173  27.122  1.00  0.00    -0.269 OA
ATOM      4  C   UNL A   1      32.996  31.215  26.795  1.00  0.00     0.251 C 
ATOM      5  H   UNL A   1      31.896  30.843  25.169  1.00  0.00     0.163 HD
BRANCH   4   6
ATOM      6  C   UNL A   1      34.210  30.882  27.573  1.00  0.00     0.039 A 
ATOM      7  C   UNL A   1      34.443  29.580  28.023  1.00  0.00     0.014 A 
ATOM      8  C   UNL A   1      35.159  31.881  27.815  1.00  0.00     0.014 A 
ATOM      9  C   UNL A   1      35.538  29.311  28.837  1.00  0.00     0.010 A 
ATOM     10  C   UNL A   1      36.308  31.585  28.554  1.00  0.00     0.010 A 
ATOM     11  C   UNL A   1      36.493  30.304  29.096  1.00  0.00    -0.014 A 
BRANCH  11  12
ATOM     12  C   UNL A   1      37.707  29.965  29.883  1.00  0.00     0.031 A 
ATOM     13  C   UNL A   1      38.762  29.052  29.325  1.00  0.00     0.074 A 
ATOM     14  C   UNL A   1      37.850  30.493  31.115  1.00  0.00     0.049 A 
ATOM     15  N   UNL A   1      39.867  28.628  29.884  1.00  0.00    -0.248 NA
ATOM     16  C   UNL A   1      38.538  28.537  27.967  1.00  0.00     0.031 C 
ATOM     17  C   UNL A   1      36.881  31.379  31.765  1.00  0.00     0.029 A 
ATOM     18  N   UNL A   1      38.856  30.366  32.038  1.00  0.00    -0.354 N 
ATOM     19  C   UNL A   1      40.464  27.781  28.956  1.00  0.00     0.074 A 
ATOM     20  C   UNL A   1      39.574  27.725  27.814  1.00  0.00     0.031 C 
ATOM     21  C   UNL A   1      37.348  31.731  32.971  1.00  0.00     0.029 A 
ATOM     22  C   UNL A   1      38.612  31.046  33.208  1.00  0.00     0.049 A 
ATOM     23  H   UNL A   1      39.672  29.839  31.879  1.00  0.00     0.167 HD
ATOM     24  C   UNL A   1      41.647  27.121  29.049  1.00  0.00     0.034 A 
ATOM     25  C   UNL A   1      39.308  31.088  34.361  1.00  0.00     0.034 A 
ATOM     26  C   UNL A   1      42.517  27.192  30.200  1.00  0.00     0.049 A 
ATOM     27  C   UNL A   1      40.596  30.321  34.457  1.00  0.00     0.074 A 
ATOM     28  C   UNL A   1      43.760  26.611  30.380  1.00  0.00     0.029 A 
ATOM     29  N   UNL A   1      42.227  27.874  31.377  1.00  0.00    -0.354 N 
ATOM     30  N   UNL A   1      41.166  29.554  33.557  1.00  0.00    -0.248 NA
ATOM     31  C   UNL A   1      41.336  30.427  35.719  1.00  0.00     0.031 C 
ATOM     32  C   UNL A   1      44.188  26.879  31.687  1.00  0.00     0.029 A 
ATOM     33  C   UNL A   1      43.248  27.693  32.299  1.00  0.00     0.049 A 
ATOM     34  H   UNL A   1      41.414  28.407  31.534  1.00  0.00     0.167 HD
ATOM     35  C   UNL A   1      42.342  29.094  34.140  1.00  0.00     0.074 A 
ATOM     36  C   UNL A   1      42.405  29.684  35.464  1.00  0.00     0.031 C 
ATOM     37  C   UNL A   1      43.284  28.265  33.626  1.00  0.00     0.034 A 
BRANCH  24  38
ATOM     38  C   UNL A   1      42.035  26.227  27.893  1.00  0.00     0.023 A 
ATOM     39  C   UNL A   1      41.587  24.897  27.797  1.00  0.00     0.031 A 
ATOM     40  C   UNL A   1      42.901  26.699  26.890  1.00  0.00     0.131 A 
ATOM     41  C   UNL A   1      42.072  24.063  26.778  1.00  0.00     0.055 A 
ATOM     42  C   UNL A   1      43.314  25.890  25.829  1.00  0.00     0.041 A 
ATOM     43  F   UNL A   1      43.378  27.953  26.933  1.00  0.00    -0.206 F 
ATOM     44  C   UNL A   1      42.915  24.557  25.779  1.00  0.00     0.022 A 
BRANCH  41  45
ATOM     45  S   UNL A   1      41.721  22.285  26.871  1.00  0.00     0.124 S 
ATOM     46  O   UNL A   1      42.018  21.851  25.508  1.00  0.00    -0.237 OA
ATOM     47  O   UNL A   1      42.649  21.836  27.902  1.00  0.00    -0.237 OA
ATOM     48  O   UNL A   1      40.307  22.233  27.237  1.00  0.00    -0.744 OA
ENDBRANCH  41  45
ENDBRANCH  24  38
BRANCH  25  49
ATOM     49  C   UNL A   1      38.761  31.843  35.521  1.00  0.00     0.023 A 
ATOM     50  C   UNL A   1      38.163  31.187  36.606  1.00  0.00     0.031 A 
ATOM     51  C   UNL A   1      38.853  33.247  35.562  1.00  0.00     0.131 A 
ATOM     52  C   UNL A   1      37.659  31.938  37.681  1.00  0.00     0.055 A 
ATOM     53  C   UNL A   1      38.392  33.984  36.652  1.00  0.00     0.041 A 
ATOM     54  F   UNL A   1      39.427  33.919  34.552  1.00  0.00    -0.206 F 
ATOM     55  C   UNL A   1      37.783  33.329  37.718  1.00  0.00     0.022 A 
BRANCH  52  56
ATOM     56  S   UNL A   1      36.797  31.071  39.019  1.00  0.00     0.124 S 
ATOM     57  O   UNL A   1      37.736  31.220  40.125  1.00  0.00    -0.237 OA
ATOM     58  O   UNL A   1      35.556  31.832  39.124  1.00  0.00    -0.237 OA
ATOM     59  O   UNL A   1      36.648  29.711  38.505  1.00  0.00    -0.744 OA
ENDBRANCH  52  56
ENDBRANCH  25  49
BRANCH  37  60
ATOM     60  C   UNL A   1      44.480  27.973  34.498  1.00  0.00     0.023 A 
ATOM     61  C   UNL A   1      44.510  26.868  35.364  1.00  0.00     0.031 A 
ATOM     62  C   UNL A   1      45.601  28.822  34.464  1.00  0.00     0.131 A 
ATOM     63  C   UNL A   1      45.621  26.664  36.197  1.00  0.00     0.055 A 
ATOM     64  C   UNL A   1      46.725  28.585  35.256  1.00  0.00     0.041 A 
ATOM     65  F   UNL A   1      45.621  29.895  33.657  1.00  0.00    -0.206 F 
ATOM     66  C   UNL A   1      46.736  27.507  36.136  1.00  0.00     0.022 A 
BRANCH  63  67
ATOM     67  S   UNL A   1      45.566  25.323  37.416  1.00  0.00     0.124 S 
ATOM     68  O   UNL A   1      45.916  26.020  38.649  1.00  0.00    -0.237 OA
ATOM     69  O   UNL A   1      44.185  24.862  37.314  1.00  0.00    -0.237 OA
ATOM     70  O   UNL A   1      46.570  24.377  36.932  1.00  0.00    -0.744 OA
ENDBRANCH  63  67
ENDBRANCH  37  60
ENDBRANCH  11  12
ENDBRANCH   4   6
ENDBRANCH   1   2
BRANCH   1  71
ATOM     71  C   UNL A   1      33.784  29.283  23.860  1.00  0.00     0.042 C 
BRANCH  71  72
ATOM     72  C   UNL A   1      32.857  28.959  22.698  1.00  0.00     0.118 C 
BRANCH  72  73
ATOM     73  N   UNL A   1      33.271  27.775  21.950  1.00  0.00    -0.352 N 
ATOM     74  C   UNL A   1      33.086  26.445  22.242  1.00  0.00     0.253 C 
ATOM     75  H   UNL A   1      33.755  27.957  21.112  1.00  0.00     0.163 HD
ATOM     76  O   UNL A   1      33.655  25.579  21.584  1.00  0.00    -0.269 OA
BRANCH  74  77
ATOM     77  C   UNL A   1      32.237  26.057  23.390  1.00  0.00     0.064 A 
ATOM     78  C   UNL A   1      30.848  26.223  23.273  1.00  0.00     0.031 A 
ATOM     79  C   UNL A   1      32.808  25.545  24.572  1.00  0.00     0.054 A 
ATOM     80  C   UNL A   1      30.040  26.047  24.387  1.00  0.00     0.018 A 
ATOM     81  C   UNL A   1      31.982  25.465  25.697  1.00  0.00     0.028 A 
ATOM     82  Br  UNL A   1      28.179  26.331  24.252  1.00  0.00    -0.051 Br
ATOM     83  C   UNL A   1      30.606  25.710  25.609  1.00  0.00     0.018 A 
BRANCH  79  84
ATOM     84  N   UNL A   1      34.169  25.160  24.584  1.00  0.00    -0.321 N 
ATOM     85  C   UNL A   1      34.794  23.925  24.559  1.00  0.00     0.265 C 
ATOM     86  H   UNL A   1      34.795  25.919  24.617  1.00  0.00     0.170 HD
ATOM     87  O   UNL A   1      36.009  23.895  24.759  1.00  0.00    -0.268 OA
BRANCH  85  88
ATOM     88  C   UNL A   1      34.039  22.736  24.213  1.00  0.00     0.093 A 
ATOM     89  C   UNL A   1      33.103  22.549  23.208  1.00  0.00     0.027 A 
ATOM     90  S   UNL A   1      34.296  21.293  25.105  1.00  0.00    -0.123 S 
ATOM     91  C   UNL A   1      32.510  21.252  23.259  1.00  0.00     0.028 A 
ATOM     92  C   UNL A   1      33.067  20.493  24.257  1.00  0.00     0.071 A 
ATOM     93  Br  UNL A   1      32.527  18.743  24.649  1.00  0.00    -0.039 Br
ENDBRANCH  85  88
ENDBRANCH  79  84
ENDBRANCH  74  77
ENDBRANCH  72  73
ENDBRANCH  71  72
ENDBRANCH   1  71
TORSDOF 15
ENDMDL
MODEL 2
REMARK VINA RESULT:     -11.8      2.640      8.254
REMARK SMILES O=C(NCCCNC(=O)c1cc(Br)ccc1NC(=O)c1ccc(Br)s1)c1ccc(-c2c3nc(c(-c4cc(S(=O)(=O)[O-])ccc4F)c4ccc([nH]4)c(-c4cc(S(=O)(=O)[O-])ccc4F)c4nc(c(-c5cc(S(=O)(=O)[O-])ccc5F)c5ccc2[nH]5)C=C4)C=C3)cc1
REMARK SMILES IDX 4 1 3 2 1 3 2 4 26 6 27 7 88 8 28 9 87 10 29 11 30 12 31 13
REMARK SMILES IDX 81 14 32 15 86 16 80 17 82 18 33 19 85 20 79 21 78 22 34 24
REMARK SMILES IDX 66 25 46 26 65 27 47 28 50 29 64 30 83 31 48 32 49 33 63 35
REMARK SMILES IDX 84 36 51 37 35 38 36 39 44 40 37 41 43 42 45 43 42 44 38 45
REMARK SMILES IDX 39 46 40 47 41 48 67 49 68 50 76 51 69 52 75 53 77 54 74 55
REMARK SMILES IDX 70 56 71 57 72 58 73 59 52 60 53 61 61 62 54 63 60 64 62 65
REMARK SMILES IDX 59 66 55 67 56 68 57 69 58 70 5 71 6 72 7 73 8 74 9 76 10 77
REMARK SMILES IDX 11 78 16 79 12 80 15 81 13 82 14 83 17 84 18 85 19 87 20 88
REMARK SMILES IDX 21 89 25 90 22 91 23 92 24 93
REMARK H PARENT 3 5 82 23 50 34 7 75 17 86
REMARK Flexibility Score: inf
ROOT
ATOM      1  C   UNL A   1      34.120  28.956  25.871  1.00  0.00     0.118 C 
ENDROOT
BRANCH   1   2
ATOM      2  N   UNL A   1      33.812  30.209  26.548  1.00  0.00    -0.352 N 
ATOM      3  O   UNL A   1      33.867  31.778  28.153  1.00  0.00    -0.269 OA
ATOM      4  C   UNL A   1      34.416  30.812  27.626  1.00  0.00     0.251 C 
ATOM      5  H   UNL A   1      33.048  30.704  26.173  1.00  0.00     0.163 HD
BRANCH   4   6
ATOM      6  C   UNL A   1      35.700  30.306  28.159  1.00  0.00     0.039 A 
ATOM      7  C   UNL A   1      35.759  29.638  29.384  1.00  0.00     0.014 A 
ATOM      8  C   UNL A   1      36.862  30.459  27.395  1.00  0.00     0.014 A 
ATOM      9  C   UNL A   1      36.988  29.260  29.913  1.00  0.00     0.010 A 
ATOM     10  C   UNL A   1      38.085  29.992  27.886  1.00  0.00     0.010 A 
ATOM     11  C   UNL A   1      38.163  29.415  29.162  1.00  0.00    -0.014 A 
BRANCH  11  12
ATOM     12  C   UNL A   1      39.451  28.910  29.705  1.00  0.00     0.031 A 
ATOM     13  C   UNL A   1      40.134  29.604  30.850  1.00  0.00     0.074 A 
ATOM     14  C   UNL A   1      40.002  27.811  29.152  1.00  0.00     0.049 A 
ATOM     15  N   UNL A   1      41.273  29.318  31.428  1.00  0.00    -0.248 NA
ATOM     16  C   UNL A   1      39.455  30.781  31.408  1.00  0.00     0.031 C 
ATOM     17  C   UNL A   1      39.435  27.066  28.025  1.00  0.00     0.029 A 
ATOM     18  N   UNL A   1      41.152  27.131  29.456  1.00  0.00    -0.354 N 
ATOM     19  C   UNL A   1      41.460  30.288  32.406  1.00  0.00     0.074 A 
ATOM     20  C   UNL A   1      40.332  31.192  32.314  1.00  0.00     0.031 C 
ATOM     21  C   UNL A   1      40.228  26.023  27.746  1.00  0.00     0.029 A 
ATOM     22  C   UNL A   1      41.390  26.061  28.625  1.00  0.00     0.049 A 
ATOM     23  H   UNL A   1      41.751  27.384  30.195  1.00  0.00     0.167 HD
ATOM     24  C   UNL A   1      42.475  30.406  33.301  1.00  0.00     0.034 A 
ATOM     25  C   UNL A   1      42.442  25.223  28.551  1.00  0.00     0.034 A 
ATOM     26  C   UNL A   1      43.591  29.492  33.373  1.00  0.00     0.049 A 
ATOM     27  C   UNL A   1      43.572  25.392  29.526  1.00  0.00     0.074 A 
ATOM     28  C   UNL A   1      44.644  29.482  34.271  1.00  0.00     0.029 A 
ATOM     29  N   UNL A   1      43.810  28.431  32.500  1.00  0.00    -0.354 N 
ATOM     30  N   UNL A   1      43.717  26.293  30.470  1.00  0.00    -0.248 NA
ATOM     31  C   UNL A   1      44.678  24.433  29.430  1.00  0.00     0.031 C 
ATOM     32  C   UNL A   1      45.533  28.466  33.899  1.00  0.00     0.029 A 
ATOM     33  C   UNL A   1      44.999  27.788  32.815  1.00  0.00     0.049 A 
ATOM     34  H   UNL A   1      43.208  28.173  31.764  1.00  0.00     0.167 HD
ATOM     35  C   UNL A   1      44.926  26.001  31.091  1.00  0.00     0.074 A 
ATOM     36  C   UNL A   1      45.462  24.830  30.422  1.00  0.00     0.031 C 
ATOM     37  C   UNL A   1      45.535  26.639  32.122  1.00  0.00     0.034 A 
BRANCH  24  38
ATOM     38  C   UNL A   1      42.443  31.596  34.233  1.00  0.00     0.023 A 
ATOM     39  C   UNL A   1      41.713  31.580  35.435  1.00  0.00     0.031 A 
ATOM     40  C   UNL A   1      43.120  32.782  33.895  1.00  0.00     0.131 A 
ATOM     41  C   UNL A   1      41.605  32.746  36.208  1.00  0.00     0.055 A 
ATOM     42  C   UNL A   1      43.078  33.914  34.711  1.00  0.00     0.041 A 
ATOM     43  F   UNL A   1      43.819  32.868  32.753  1.00  0.00    -0.206 F 
ATOM     44  C   UNL A   1      42.302  33.907  35.867  1.00  0.00     0.022 A 
BRANCH  41  45
ATOM     45  S   UNL A   1      40.408  32.775  37.572  1.00  0.00     0.124 S 
ATOM     46  O   UNL A   1      39.407  31.816  37.110  1.00  0.00    -0.237 OA
ATOM     47  O   UNL A   1      41.218  32.355  38.709  1.00  0.00    -0.237 OA
ATOM     48  O   UNL A   1      39.957  34.165  37.605  1.00  0.00    -0.744 OA
ENDBRANCH  41  45
ENDBRANCH  24  38
BRANCH  25  49
ATOM     49  C   UNL A   1      42.484  24.190  27.479  1.00  0.00     0.023 A 
ATOM     50  C   UNL A   1      41.903  22.927  27.656  1.00  0.00     0.031 A 
ATOM     51  C   UNL A   1      43.098  24.473  26.245  1.00  0.00     0.131 A 
ATOM     52  C   UNL A   1      41.965  21.982  26.620  1.00  0.00     0.055 A 
ATOM     53  C   UNL A   1      43.117  23.547  25.203  1.00  0.00     0.041 A 
ATOM     54  F   UNL A   1      43.658  25.673  26.024  1.00  0.00    -0.206 F 
ATOM     55  C   UNL A   1      42.555  22.288  25.390  1.00  0.00     0.022 A 
BRANCH  52  56
ATOM     56  S   UNL A   1      41.300  20.321  26.915  1.00  0.00     0.124 S 
ATOM     57  O   UNL A   1      40.871  20.415  28.306  1.00  0.00    -0.237 OA
ATOM     58  O   UNL A   1      40.235  20.240  25.920  1.00  0.00    -0.237 OA
ATOM     59  O   UNL A   1      42.444  19.447  26.671  1.00  0.00    -0.744 OA
ENDBRANCH  52  56
ENDBRANCH  25  49
BRANCH  37  60
ATOM     60  C   UNL A   1      46.840  26.058  32.604  1.00  0.00     0.023 A 
ATOM     61  C   UNL A   1      46.881  25.028  33.558  1.00  0.00     0.031 A 
ATOM     62  C   UNL A   1      48.059  26.553  32.106  1.00  0.00     0.131 A 
ATOM     63  C   UNL A   1      48.119  24.553  34.019  1.00  0.00     0.055 A 
ATOM     64  C   UNL A   1      49.286  26.040  32.530  1.00  0.00     0.041 A 
ATOM     65  F   UNL A   1      48.075  27.540  31.196  1.00  0.00    -0.206 F 
ATOM     66  C   UNL A   1      49.321  25.042  33.499  1.00  0.00     0.022 A 
BRANCH  63  67
ATOM     67  S   UNL A   1      48.143  23.336  35.364  1.00  0.00     0.124 S 
ATOM     68  O   UNL A   1      49.561  23.289  35.704  1.00  0.00    -0.237 OA
ATOM     69  O   UNL A   1      47.267  23.949  36.358  1.00  0.00    -0.237 OA
ATOM     70  O   UNL A   1      47.614  22.124  34.739  1.00  0.00    -0.744 OA
ENDBRANCH  63  67
ENDBRANCH  37  60
ENDBRANCH  11  12
ENDBRANCH   4   6
ENDBRANCH   1   2
BRANCH   1  71
ATOM     71  C   UNL A   1      33.297  27.788  26.394  1.00  0.00     0.042 C 
BRANCH  71  72
ATOM     72  C   UNL A   1      33.662  26.443  25.784  1.00  0.00     0.118 C 
BRANCH  72  73
ATOM     73  N   UNL A   1      32.971  25.322  26.415  1.00  0.00    -0.352 N 
ATOM     74  C   UNL A   1      33.185  23.972  26.278  1.00  0.00     0.253 C 
ATOM     75  H   UNL A   1      32.242  25.571  27.029  1.00  0.00     0.163 HD
ATOM     76  O   UNL A   1      32.393  23.165  26.754  1.00  0.00    -0.269 OA
BRANCH  74  77
ATOM     77  C   UNL A   1      34.352  23.489  25.506  1.00  0.00     0.064 A 
ATOM     78  C   UNL A   1      35.621  23.573  26.101  1.00  0.00     0.031 A 
ATOM     79  C   UNL A   1      34.195  22.968  24.206  1.00  0.00     0.054 A 
ATOM     80  C   UNL A   1      36.752  23.305  25.344  1.00  0.00     0.018 A 
ATOM     81  C   UNL A   1      35.354  22.795  23.444  1.00  0.00     0.028 A 
ATOM     82  Br  UNL A   1      38.463  23.478  26.120  1.00  0.00    -0.051 Br
ATOM     83  C   UNL A   1      36.625  22.957  24.006  1.00  0.00     0.018 A 
BRANCH  79  84
ATOM     84  N   UNL A   1      32.899  22.668  23.723  1.00  0.00    -0.321 N 
ATOM     85  C   UNL A   1      31.879  23.459  23.224  1.00  0.00     0.265 C 
ATOM     86  H   UNL A   1      32.681  21.708  23.746  1.00  0.00     0.170 HD
ATOM     87  O   UNL A   1      30.782  22.928  23.042  1.00  0.00    -0.268 OA
BRANCH  85  88
ATOM     88  C   UNL A   1      32.143  24.834  22.849  1.00  0.00     0.093 A 
ATOM     89  C   UNL A   1      33.209  25.363  22.137  1.00  0.00     0.027 A 
ATOM     90  S   UNL A   1      31.012  26.051  23.278  1.00  0.00    -0.123 S 
ATOM     91  C   UNL A   1      33.151  26.787  22.060  1.00  0.00     0.028 A 
ATOM     92  C   UNL A   1      32.013  27.268  22.658  1.00  0.00     0.071 A 
ATOM     93  Br  UNL A   1      31.602  29.091  22.780  1.00  0.00    -0.039 Br
ENDBRANCH  85  88
ENDBRANCH  79  84
ENDBRANCH  74  77
ENDBRANCH  72  73
ENDBRANCH  71  72
ENDBRANCH   1  71
TORSDOF 15
ENDMDL
MODEL 3
REMARK VINA RESULT:     -11.7      2.556      7.931
REMARK SMILES O=C(NCCCNC(=O)c1cc(Br)ccc1NC(=O)c1ccc(Br)s1)c1ccc(-c2c3nc(c(-c4cc(S(=O)(=O)[O-])ccc4F)c4ccc([nH]4)c(-c4cc(S(=O)(=O)[O-])ccc4F)c4nc(c(-c5cc(S(=O)(=O)[O-])ccc5F)c5ccc2[nH]5)C=C4)C=C3)cc1
REMARK SMILES IDX 4 1 3 2 1 3 2 4 26 6 27 7 88 8 28 9 87 10 29 11 30 12 31 13
REMARK SMILES IDX 81 14 32 15 86 16 80 17 82 18 33 19 85 20 79 21 78 22 34 24
REMARK SMILES IDX 66 25 46 26 65 27 47 28 50 29 64 30 83 31 48 32 49 33 63 35
REMARK SMILES IDX 84 36 51 37 35 38 36 39 44 40 37 41 43 42 45 43 42 44 38 45
REMARK SMILES IDX 39 46 40 47 41 48 67 49 68 50 76 51 69 52 75 53 77 54 74 55
REMARK SMILES IDX 70 56 71 57 72 58 73 59 52 60 53 61 61 62 54 63 60 64 62 65
REMARK SMILES IDX 59 66 55 67 56 68 57 69 58 70 5 71 6 72 7 73 8 74 9 76 10 77
REMARK SMILES IDX 11 78 16 79 12 80 15 81 13 82 14 83 17 84 18 85 19 87 20 88
REMARK SMILES IDX 21 89 25 90 22 91 23 92 24 93
REMARK H PARENT 3 5 82 23 50 34 7 75 17 86
REMARK Flexibility Score: inf
ROOT
ATOM      1  C   UNL A   1      33.941  28.758  25.716  1.00  0.00     0.118 C 
ENDROOT
BRANCH   1   2
ATOM      2  N   UNL A   1      33.649  30.061  26.297  1.00  0.00    -0.352 N 
ATOM      3  O   UNL A   1      33.726  31.747  27.777  1.00  0.00    -0.269 OA
ATOM      4  C   UNL A   1      34.263  30.739  27.323  1.00  0.00     0.251 C 
ATOM      5  H   UNL A   1      32.888  30.533  25.888  1.00  0.00     0.163 HD
BRANCH   4   6
ATOM      6  C   UNL A   1      35.545  30.262  27.888  1.00  0.00     0.039 A 
ATOM      7  C   UNL A   1      36.749  30.451  27.206  1.00  0.00     0.014 A 
ATOM      8  C   UNL A   1      35.549  29.659  29.150  1.00  0.00     0.014 A 
ATOM      9  C   UNL A   1      37.926  29.906  27.708  1.00  0.00     0.010 A 
ATOM     10  C   UNL A   1      36.750  29.196  29.697  1.00  0.00     0.010 A 
ATOM     11  C   UNL A   1      37.944  29.290  28.968  1.00  0.00    -0.014 A 
BRANCH  11  12
ATOM     12  C   UNL A   1      39.233  28.808  29.528  1.00  0.00     0.031 A 
ATOM     13  C   UNL A   1      39.885  29.508  30.686  1.00  0.00     0.074 A 
ATOM     14  C   UNL A   1      39.814  27.722  28.979  1.00  0.00     0.049 A 
ATOM     15  N   UNL A   1      41.021  29.242  31.281  1.00  0.00    -0.248 NA
ATOM     16  C   UNL A   1      39.175  30.670  31.239  1.00  0.00     0.031 C 
ATOM     17  C   UNL A   1      39.279  26.972  27.839  1.00  0.00     0.029 A 
ATOM     18  N   UNL A   1      40.973  27.063  29.297  1.00  0.00    -0.354 N 
ATOM     19  C   UNL A   1      41.173  30.211  32.266  1.00  0.00     0.074 A 
ATOM     20  C   UNL A   1      40.029  31.093  32.160  1.00  0.00     0.031 C 
ATOM     21  C   UNL A   1      40.097  25.945  27.567  1.00  0.00     0.029 A 
ATOM     22  C   UNL A   1      41.244  26.002  28.465  1.00  0.00     0.049 A 
ATOM     23  H   UNL A   1      41.554  27.324  30.046  1.00  0.00     0.167 HD
ATOM     24  C   UNL A   1      42.171  30.345  33.176  1.00  0.00     0.034 A 
ATOM     25  C   UNL A   1      42.313  25.185  28.403  1.00  0.00     0.034 A 
ATOM     26  C   UNL A   1      43.304  29.452  33.262  1.00  0.00     0.049 A 
ATOM     27  C   UNL A   1      43.425  25.371  29.396  1.00  0.00     0.074 A 
ATOM     28  C   UNL A   1      44.343  29.459  34.176  1.00  0.00     0.029 A 
ATOM     29  N   UNL A   1      43.557  28.400  32.388  1.00  0.00    -0.354 N 
ATOM     30  N   UNL A   1      43.537  26.270  30.346  1.00  0.00    -0.248 NA
ATOM     31  C   UNL A   1      44.550  24.434  29.313  1.00  0.00     0.031 C 
ATOM     32  C   UNL A   1      45.257  28.462  33.813  1.00  0.00     0.029 A 
ATOM     33  C   UNL A   1      44.753  27.779  32.717  1.00  0.00     0.049 A 
ATOM     34  H   UNL A   1      42.972  28.133  31.641  1.00  0.00     0.167 HD
ATOM     35  C   UNL A   1      44.742  25.999  30.985  1.00  0.00     0.074 A 
ATOM     36  C   UNL A   1      45.311  24.842  30.319  1.00  0.00     0.031 C 
ATOM     37  C   UNL A   1      45.323  26.644  32.028  1.00  0.00     0.034 A 
BRANCH  24  38
ATOM     38  C   UNL A   1      42.102  31.529  34.114  1.00  0.00     0.023 A 
ATOM     39  C   UNL A   1      41.334  31.501  35.292  1.00  0.00     0.031 A 
ATOM     40  C   UNL A   1      42.781  32.721  33.803  1.00  0.00     0.131 A 
ATOM     41  C   UNL A   1      41.194  32.663  36.068  1.00  0.00     0.055 A 
ATOM     42  C   UNL A   1      42.706  33.849  34.624  1.00  0.00     0.041 A 
ATOM     43  F   UNL A   1      43.515  32.818  32.684  1.00  0.00    -0.206 F 
ATOM     44  C   UNL A   1      41.894  33.830  35.755  1.00  0.00     0.022 A 
BRANCH  41  45
ATOM     45  S   UNL A   1      39.955  32.676  37.393  1.00  0.00     0.124 S 
ATOM     46  O   UNL A   1      39.070  31.587  36.984  1.00  0.00    -0.237 OA
ATOM     47  O   UNL A   1      40.763  32.431  38.581  1.00  0.00    -0.237 OA
ATOM     48  O   UNL A   1      39.367  34.011  37.301  1.00  0.00    -0.744 OA
ENDBRANCH  41  45
ENDBRANCH  24  38
BRANCH  25  49
ATOM     49  C   UNL A   1      42.392  24.159  27.327  1.00  0.00     0.023 A 
ATOM     50  C   UNL A   1      41.635  22.980  27.383  1.00  0.00     0.031 A 
ATOM     51  C   UNL A   1      43.223  24.364  26.210  1.00  0.00     0.131 A 
ATOM     52  C   UNL A   1      41.739  22.038  26.347  1.00  0.00     0.055 A 
ATOM     53  C   UNL A   1      43.288  23.445  25.163  1.00  0.00     0.041 A 
ATOM     54  F   UNL A   1      43.958  25.482  26.107  1.00  0.00    -0.206 F 
ATOM     55  C   UNL A   1      42.548  22.269  25.232  1.00  0.00     0.022 A 
BRANCH  52  56
ATOM     56  S   UNL A   1      40.831  20.476  26.497  1.00  0.00     0.124 S 
ATOM     57  O   UNL A   1      41.579  19.608  25.594  1.00  0.00    -0.237 OA
ATOM     58  O   UNL A   1      40.962  20.184  27.921  1.00  0.00    -0.237 OA
ATOM     59  O   UNL A   1      39.482  20.822  26.057  1.00  0.00    -0.744 OA
ENDBRANCH  52  56
ENDBRANCH  25  49
BRANCH  37  60
ATOM     60  C   UNL A   1      46.632  26.086  32.528  1.00  0.00     0.023 A 
ATOM     61  C   UNL A   1      47.856  26.430  31.930  1.00  0.00     0.031 A 
ATOM     62  C   UNL A   1      46.648  25.192  33.612  1.00  0.00     0.131 A 
ATOM     63  C   UNL A   1      49.045  25.846  32.393  1.00  0.00     0.055 A 
ATOM     64  C   UNL A   1      47.839  24.655  34.102  1.00  0.00     0.041 A 
ATOM     65  F   UNL A   1      45.505  24.828  34.216  1.00  0.00    -0.206 F 
ATOM     66  C   UNL A   1      49.046  24.973  33.486  1.00  0.00     0.022 A 
BRANCH  63  67
ATOM     67  S   UNL A   1      50.589  26.184  31.503  1.00  0.00     0.124 S 
ATOM     68  O   UNL A   1      50.427  25.377  30.298  1.00  0.00    -0.237 OA
ATOM     69  O   UNL A   1      50.533  27.631  31.316  1.00  0.00    -0.237 OA
ATOM     70  O   UNL A   1      51.625  25.721  32.425  1.00  0.00    -0.744 OA
ENDBRANCH  63  67
ENDBRANCH  37  60
ENDBRANCH  11  12
ENDBRANCH   4   6
ENDBRANCH   1   2
BRANCH   1  71
ATOM     71  C   UNL A   1      34.526  28.856  24.315  1.00  0.00     0.042 C 
BRANCH  71  72
ATOM     72  C   UNL A   1      33.486  28.986  23.212  1.00  0.00     0.118 C 
BRANCH  72  73
ATOM     73  N   UNL A   1      33.630  27.974  22.169  1.00  0.00    -0.352 N 
ATOM     74  C   UNL A   1      33.185  26.674  22.143  1.00  0.00     0.253 C 
ATOM     75  H   UNL A   1      34.119  28.266  21.365  1.00  0.00     0.163 HD
ATOM     76  O   UNL A   1      33.547  25.910  21.252  1.00  0.00    -0.269 OA
BRANCH  74  77
ATOM     77  C   UNL A   1      32.305  26.178  23.224  1.00  0.00     0.064 A 
ATOM     78  C   UNL A   1      30.921  26.378  23.098  1.00  0.00     0.031 A 
ATOM     79  C   UNL A   1      32.842  25.531  24.355  1.00  0.00     0.054 A 
ATOM     80  C   UNL A   1      30.087  26.095  24.168  1.00  0.00     0.018 A 
ATOM     81  C   UNL A   1      31.990  25.343  25.447  1.00  0.00     0.028 A 
ATOM     82  Br  UNL A   1      28.233  26.423  24.027  1.00  0.00    -0.051 Br
ATOM     83  C   UNL A   1      30.620  25.618  25.358  1.00  0.00     0.018 A 
BRANCH  79  84
ATOM     84  N   UNL A   1      34.197  25.124  24.352  1.00  0.00    -0.321 N 
ATOM     85  C   UNL A   1      34.801  23.879  24.351  1.00  0.00     0.265 C 
ATOM     86  H   UNL A   1      34.835  25.873  24.352  1.00  0.00     0.170 HD
ATOM     87  O   UNL A   1      36.020  23.835  24.530  1.00  0.00    -0.268 OA
BRANCH  85  88
ATOM     88  C   UNL A   1      34.022  22.693  24.054  1.00  0.00     0.093 A 
ATOM     89  C   UNL A   1      33.031  22.507  23.103  1.00  0.00     0.027 A 
ATOM     90  S   UNL A   1      34.319  21.253  24.938  1.00  0.00    -0.123 S 
ATOM     91  C   UNL A   1      32.434  21.213  23.193  1.00  0.00     0.028 A 
ATOM     92  C   UNL A   1      33.041  20.456  24.164  1.00  0.00     0.071 A 
ATOM     93  Br  UNL A   1      32.513  18.712  24.594  1.00  0.00    -0.039 Br
ENDBRANCH  85  88
ENDBRANCH  79  84
ENDBRANCH  74  77
ENDBRANCH  72  73
ENDBRANCH  71  72
ENDBRANCH   1  71
TORSDOF 15
ENDMDL
