MODEL 1
REMARK VINA RESULT:     -11.7      0.000      0.000
REMARK SMILES Cc1cc(C(=O)N[C@](C)(C(=O)NCCCNC(=O)c2ccc(-c3c4nc(c(-c5cc(S(=O)(=O)[O-])ccc5F)c5ccc([nH]5)c(-c5cc(S(=O)(=O)[O-])ccc5F)c5nc(c(-c6cc(S(=O)(=O)[O-])ccc6F)c6ccc3[nH]6)C=C5)C=C4)cc2)C(F)(F)F)no1
REMARK SMILES IDX 14 1 13 2 12 3 10 4 11 5 8 7 9 8 7 9 5 10 6 11 4 13 1 14
REMARK SMILES IDX 2 15 3 16 87 17 86 18 82 19 83 20 84 21 85 22 15 23 16 24
REMARK SMILES IDX 17 25 18 27 19 28 20 29 81 30 21 31 80 32 22 33 23 34 24 35
REMARK SMILES IDX 74 36 25 37 79 38 73 39 75 40 26 41 78 42 72 43 71 44 27 46
REMARK SMILES IDX 59 47 39 48 58 49 40 50 43 51 57 52 76 53 41 54 42 55 56 57
REMARK SMILES IDX 77 58 44 59 28 60 29 61 37 62 30 63 36 64 38 65 35 66 31 67
REMARK SMILES IDX 32 68 33 69 34 70 60 71 61 72 69 73 62 74 68 75 70 76 67 77
REMARK SMILES IDX 63 78 64 79 65 80 66 81 45 82 46 83 54 84 47 85 53 86 55 87
REMARK SMILES IDX 52 88 48 89 49 90 50 91 51 92
REMARK H PARENT 12 6 7 12 16 26 75 45 43 56
REMARK Flexibility Score: inf
ROOT
ATOM      1  C   UNL A   1      32.389  30.925  27.121  1.00  0.00     0.042 C 
ENDROOT
BRANCH   1   2
ATOM      2  C   UNL A   1      32.481  30.165  25.810  1.00  0.00     0.117 C 
BRANCH   2   3
ATOM      3  N   UNL A   1      31.276  30.316  25.005  1.00  0.00    -0.354 N 
ATOM      4  C   UNL A   1      30.701  29.465  24.106  1.00  0.00     0.254 C 
ATOM      5  O   UNL A   1      29.651  29.847  23.587  1.00  0.00    -0.272 OA
ATOM      6  H   UNL A   1      30.801  31.169  25.128  1.00  0.00     0.163 HD
BRANCH   4   7
ATOM      7  C   UNL A   1      31.401  28.167  23.680  1.00  0.00     0.212 C 
ATOM      8  C   UNL A   1      30.617  27.625  22.455  1.00  0.00     0.056 C 
BRANCH   7   9
ATOM      9  N   UNL A   1      32.842  28.332  23.283  1.00  0.00    -0.329 N 
ATOM     10  C   UNL A   1      33.583  27.606  22.365  1.00  0.00     0.274 C 
ATOM     11  O   UNL A   1      34.351  28.241  21.642  1.00  0.00    -0.267 OA
ATOM     12  H   UNL A   1      33.326  29.057  23.740  1.00  0.00     0.165 HD
BRANCH  10  13
ATOM     13  C   UNL A   1      33.594  26.147  22.438  1.00  0.00     0.171 A 
ATOM     14  C   UNL A   1      34.578  22.716  23.276  1.00  0.00     0.091 C 
ATOM     15  C   UNL A   1      34.057  24.035  22.873  1.00  0.00     0.134 A 
ATOM     16  C   UNL A   1      33.992  25.268  23.476  1.00  0.00     0.082 A 
ATOM     17  O   UNL A   1      33.568  24.129  21.612  1.00  0.00    -0.361 OA
ATOM     18  N   UNL A   1      33.255  25.444  21.341  1.00  0.00    -0.074 NA
ENDBRANCH  10  13
ENDBRANCH   7   9
BRANCH   7  19
ATOM     19  C   UNL A   1      31.261  27.139  24.826  1.00  0.00     0.420 C 
ATOM     20  F   UNL A   1      30.285  27.436  25.709  1.00  0.00    -0.168 F 
ATOM     21  F   UNL A   1      30.941  25.923  24.301  1.00  0.00    -0.168 F 
ATOM     22  F   UNL A   1      32.416  26.968  25.508  1.00  0.00    -0.168 F 
ENDBRANCH   7  19
ENDBRANCH   4   7
ENDBRANCH   2   3
ENDBRANCH   1   2
BRANCH   1  23
ATOM     23  C   UNL A   1      33.430  32.027  27.268  1.00  0.00     0.118 C 
BRANCH  23  24
ATOM     24  N   UNL A   1      32.864  33.350  27.496  1.00  0.00    -0.352 N 
ATOM     25  C   UNL A   1      33.213  34.267  28.466  1.00  0.00     0.251 C 
ATOM     26  H   UNL A   1      32.144  33.622  26.884  1.00  0.00     0.163 HD
ATOM     27  O   UNL A   1      32.578  35.307  28.605  1.00  0.00    -0.269 OA
BRANCH  25  28
ATOM     28  C   UNL A   1      34.341  33.952  29.370  1.00  0.00     0.039 A 
ATOM     29  C   UNL A   1      34.119  33.127  30.472  1.00  0.00     0.014 A 
ATOM     30  C   UNL A   1      35.632  34.393  29.064  1.00  0.00     0.014 A 
ATOM     31  C   UNL A   1      35.208  32.658  31.210  1.00  0.00     0.010 A 
ATOM     32  C   UNL A   1      36.719  33.857  29.748  1.00  0.00     0.010 A 
ATOM     33  C   UNL A   1      36.520  32.972  30.820  1.00  0.00    -0.014 A 
BRANCH  33  34
ATOM     34  C   UNL A   1      37.700  32.381  31.507  1.00  0.00     0.031 A 
ATOM     35  C   UNL A   1      38.444  31.238  30.868  1.00  0.00     0.074 A 
ATOM     36  C   UNL A   1      38.055  32.816  32.734  1.00  0.00     0.049 A 
ATOM     37  N   UNL A   1      39.413  30.506  31.353  1.00  0.00    -0.248 NA
ATOM     38  C   UNL A   1      38.014  30.849  29.515  1.00  0.00     0.031 C 
ATOM     39  C   UNL A   1      37.388  33.888  33.479  1.00  0.00     0.029 A 
ATOM     40  N   UNL A   1      39.056  32.406  33.579  1.00  0.00    -0.354 N 
ATOM     41  C   UNL A   1      39.703  29.565  30.371  1.00  0.00     0.074 A 
ATOM     42  C   UNL A   1      38.760  29.778  29.294  1.00  0.00     0.031 C 
ATOM     43  C   UNL A   1      38.012  34.063  34.655  1.00  0.00     0.029 A 
ATOM     44  C   UNL A   1      39.092  33.090  34.775  1.00  0.00     0.049 A 
ATOM     45  H   UNL A   1      39.691  31.688  33.352  1.00  0.00     0.167 HD
ATOM     46  C   UNL A   1      40.682  28.627  30.356  1.00  0.00     0.034 A 
ATOM     47  C   UNL A   1      39.893  32.938  35.849  1.00  0.00     0.034 A 
ATOM     48  C   UNL A   1      41.630  28.438  31.425  1.00  0.00     0.049 A 
ATOM     49  C   UNL A   1      40.965  31.875  35.813  1.00  0.00     0.074 A 
ATOM     50  C   UNL A   1      42.680  27.539  31.498  1.00  0.00     0.029 A 
ATOM     51  N   UNL A   1      41.649  29.165  32.607  1.00  0.00    -0.354 N 
ATOM     52  N   UNL A   1      41.242  31.014  34.860  1.00  0.00    -0.248 NA
ATOM     53  C   UNL A   1      41.838  31.771  36.989  1.00  0.00     0.031 C 
ATOM     54  C   UNL A   1      43.303  27.689  32.741  1.00  0.00     0.029 A 
ATOM     55  C   UNL A   1      42.681  28.725  33.419  1.00  0.00     0.049 A 
ATOM     56  H   UNL A   1      41.020  29.888  32.835  1.00  0.00     0.167 HD
ATOM     57  C   UNL A   1      42.345  30.294  35.312  1.00  0.00     0.074 A 
ATOM     58  C   UNL A   1      42.690  30.830  36.612  1.00  0.00     0.031 C 
ATOM     59  C   UNL A   1      43.014  29.278  34.709  1.00  0.00     0.034 A 
BRANCH  46  60
ATOM     60  C   UNL A   1      40.767  27.735  29.144  1.00  0.00     0.023 A 
ATOM     61  C   UNL A   1      41.705  27.972  28.125  1.00  0.00     0.031 A 
ATOM     62  C   UNL A   1      39.895  26.642  28.996  1.00  0.00     0.131 A 
ATOM     63  C   UNL A   1      41.707  27.172  26.974  1.00  0.00     0.055 A 
ATOM     64  C   UNL A   1      39.953  25.802  27.882  1.00  0.00     0.041 A 
ATOM     65  F   UNL A   1      38.965  26.379  29.928  1.00  0.00    -0.206 F 
ATOM     66  C   UNL A   1      40.854  26.072  26.856  1.00  0.00     0.022 A 
BRANCH  63  67
ATOM     67  S   UNL A   1      42.759  27.661  25.581  1.00  0.00     0.124 S 
ATOM     68  O   UNL A   1      42.023  28.805  25.046  1.00  0.00    -0.237 OA
ATOM     69  O   UNL A   1      44.027  27.967  26.232  1.00  0.00    -0.237 OA
ATOM     70  O   UNL A   1      42.766  26.477  24.725  1.00  0.00    -0.744 OA
ENDBRANCH  63  67
ENDBRANCH  46  60
BRANCH  47  71
ATOM     71  C   UNL A   1      39.720  33.790  37.062  1.00  0.00     0.023 A 
ATOM     72  C   UNL A   1      39.056  33.300  38.199  1.00  0.00     0.031 A 
ATOM     73  C   UNL A   1      40.142  35.131  37.075  1.00  0.00     0.131 A 
ATOM     74  C   UNL A   1      38.773  34.162  39.271  1.00  0.00     0.055 A 
ATOM     75  C   UNL A   1      39.912  35.968  38.168  1.00  0.00     0.041 A 
ATOM     76  F   UNL A   1      40.787  35.651  36.017  1.00  0.00    -0.206 F 
ATOM     77  C   UNL A   1      39.206  35.489  39.268  1.00  0.00     0.022 A 
BRANCH  74  78
ATOM     78  S   UNL A   1      37.720  33.553  40.618  1.00  0.00     0.124 S 
ATOM     79  O   UNL A   1      36.621  32.939  39.881  1.00  0.00    -0.237 OA
ATOM     80  O   UNL A   1      38.620  32.637  41.311  1.00  0.00    -0.237 OA
ATOM     81  O   UNL A   1      37.377  34.767  41.355  1.00  0.00    -0.744 OA
ENDBRANCH  74  78
ENDBRANCH  47  71
BRANCH  59  82
ATOM     82  C   UNL A   1      44.219  28.731  35.429  1.00  0.00     0.023 A 
ATOM     83  C   UNL A   1      44.106  27.711  36.390  1.00  0.00     0.031 A 
ATOM     84  C   UNL A   1      45.498  29.246  35.154  1.00  0.00     0.131 A 
ATOM     85  C   UNL A   1      45.247  27.275  37.080  1.00  0.00     0.055 A 
ATOM     86  C   UNL A   1      46.637  28.770  35.805  1.00  0.00     0.041 A 
ATOM     87  F   UNL A   1      45.661  30.221  34.245  1.00  0.00    -0.206 F 
ATOM     88  C   UNL A   1      46.513  27.787  36.784  1.00  0.00     0.022 A 
BRANCH  85  89
ATOM     89  S   UNL A   1      45.043  26.081  38.431  1.00  0.00     0.124 S 
ATOM     90  O   UNL A   1      46.298  26.230  39.161  1.00  0.00    -0.237 OA
ATOM     91  O   UNL A   1      43.850  26.578  39.108  1.00  0.00    -0.237 OA
ATOM     92  O   UNL A   1      44.875  24.806  37.738  1.00  0.00    -0.744 OA
ENDBRANCH  85  89
ENDBRANCH  59  82
ENDBRANCH  33  34
ENDBRANCH  25  28
ENDBRANCH  23  24
ENDBRANCH   1  23
TORSDOF 16
ENDMDL
MODEL 2
REMARK VINA RESULT:     -11.5      2.416      8.205
REMARK SMILES Cc1cc(C(=O)N[C@](C)(C(=O)NCCCNC(=O)c2ccc(-c3c4nc(c(-c5cc(S(=O)(=O)[O-])ccc5F)c5ccc([nH]5)c(-c5cc(S(=O)(=O)[O-])ccc5F)c5nc(c(-c6cc(S(=O)(=O)[O-])ccc6F)c6ccc3[nH]6)C=C5)C=C4)cc2)C(F)(F)F)no1
REMARK SMILES IDX 14 1 13 2 12 3 10 4 11 5 8 7 9 8 7 9 5 10 6 11 4 13 1 14
REMARK SMILES IDX 2 15 3 16 87 17 86 18 82 19 83 20 84 21 85 22 15 23 16 24
REMARK SMILES IDX 17 25 18 27 19 28 20 29 81 30 21 31 80 32 22 33 23 34 24 35
REMARK SMILES IDX 74 36 25 37 79 38 73 39 75 40 26 41 78 42 72 43 71 44 27 46
REMARK SMILES IDX 59 47 39 48 58 49 40 50 43 51 57 52 76 53 41 54 42 55 56 57
REMARK SMILES IDX 77 58 44 59 28 60 29 61 37 62 30 63 36 64 38 65 35 66 31 67
REMARK SMILES IDX 32 68 33 69 34 70 60 71 61 72 69 73 62 74 68 75 70 76 67 77
REMARK SMILES IDX 63 78 64 79 65 80 66 81 45 82 46 83 54 84 47 85 53 86 55 87
REMARK SMILES IDX 52 88 48 89 49 90 50 91 51 92
REMARK H PARENT 12 6 7 12 16 26 75 45 43 56
REMARK Flexibility Score: inf
ROOT
ATOM      1  C   UNL A   1      31.702  29.240  25.816  1.00  0.00     0.042 C 
ENDROOT
BRANCH   1   2
ATOM      2  C   UNL A   1      31.542  28.884  24.349  1.00  0.00     0.117 C 
BRANCH   2   3
ATOM      3  N   UNL A   1      30.298  28.172  24.091  1.00  0.00    -0.354 N 
ATOM      4  C   UNL A   1      30.044  26.833  24.017  1.00  0.00     0.254 C 
ATOM      5  O   UNL A   1      28.873  26.509  23.812  1.00  0.00    -0.272 OA
ATOM      6  H   UNL A   1      29.514  28.749  23.946  1.00  0.00     0.163 HD
BRANCH   4   7
ATOM      7  C   UNL A   1      31.184  25.805  24.060  1.00  0.00     0.212 C 
ATOM      8  C   UNL A   1      30.632  24.508  23.410  1.00  0.00     0.056 C 
BRANCH   7   9
ATOM      9  N   UNL A   1      32.426  26.213  23.316  1.00  0.00    -0.329 N 
ATOM     10  C   UNL A   1      33.402  25.414  22.744  1.00  0.00     0.274 C 
ATOM     11  O   UNL A   1      33.837  25.765  21.647  1.00  0.00    -0.267 OA
ATOM     12  H   UNL A   1      32.563  27.183  23.223  1.00  0.00     0.165 HD
BRANCH  10  13
ATOM     13  C   UNL A   1      34.020  24.352  23.533  1.00  0.00     0.171 A 
ATOM     14  C   UNL A   1      36.457  22.467  25.521  1.00  0.00     0.091 C 
ATOM     15  C   UNL A   1      35.378  23.111  24.752  1.00  0.00     0.134 A 
ATOM     16  C   UNL A   1      34.934  24.405  24.616  1.00  0.00     0.082 A 
ATOM     17  O   UNL A   1      34.659  22.305  23.932  1.00  0.00    -0.361 OA
ATOM     18  N   UNL A   1      33.792  23.073  23.183  1.00  0.00    -0.074 NA
ENDBRANCH  10  13
ENDBRANCH   7   9
BRANCH   7  19
ATOM     19  C   UNL A   1      31.506  25.495  25.539  1.00  0.00     0.420 C 
ATOM     20  F   UNL A   1      32.611  26.118  26.000  1.00  0.00    -0.168 F 
ATOM     21  F   UNL A   1      30.476  25.920  26.322  1.00  0.00    -0.168 F 
ATOM     22  F   UNL A   1      31.639  24.169  25.769  1.00  0.00    -0.168 F 
ENDBRANCH   7  19
ENDBRANCH   4   7
ENDBRANCH   2   3
ENDBRANCH   1   2
BRANCH   1  23
ATOM     23  C   UNL A   1      32.997  29.976  26.135  1.00  0.00     0.118 C 
BRANCH  23  24
ATOM     24  N   UNL A   1      32.802  31.304  26.699  1.00  0.00    -0.352 N 
ATOM     25  C   UNL A   1      33.636  31.995  27.552  1.00  0.00     0.251 C 
ATOM     26  H   UNL A   1      31.972  31.765  26.439  1.00  0.00     0.163 HD
ATOM     27  O   UNL A   1      33.294  33.071  28.032  1.00  0.00    -0.269 OA
BRANCH  25  28
ATOM     28  C   UNL A   1      34.936  31.393  27.919  1.00  0.00     0.039 A 
ATOM     29  C   UNL A   1      36.063  32.210  28.007  1.00  0.00     0.014 A 
ATOM     30  C   UNL A   1      35.011  30.042  28.274  1.00  0.00     0.014 A 
ATOM     31  C   UNL A   1      37.244  31.697  28.550  1.00  0.00     0.010 A 
ATOM     32  C   UNL A   1      36.161  29.559  28.892  1.00  0.00     0.010 A 
ATOM     33  C   UNL A   1      37.286  30.385  29.050  1.00  0.00    -0.014 A 
BRANCH  33  34
ATOM     34  C   UNL A   1      38.487  29.857  29.751  1.00  0.00     0.031 A 
ATOM     35  C   UNL A   1      38.849  30.382  31.115  1.00  0.00     0.074 A 
ATOM     36  C   UNL A   1      39.291  28.966  29.134  1.00  0.00     0.049 A 
ATOM     37  N   UNL A   1      39.914  30.147  31.837  1.00  0.00    -0.248 NA
ATOM     38  C   UNL A   1      37.900  31.325  31.729  1.00  0.00     0.031 C 
ATOM     39  C   UNL A   1      39.072  28.411  27.796  1.00  0.00     0.029 A 
ATOM     40  N   UNL A   1      40.462  28.377  29.544  1.00  0.00    -0.354 N 
ATOM     41  C   UNL A   1      39.768  30.918  32.986  1.00  0.00     0.074 A 
ATOM     42  C   UNL A   1      38.546  31.677  32.830  1.00  0.00     0.031 C 
ATOM     43  C   UNL A   1      40.061  27.549  27.507  1.00  0.00     0.029 A 
ATOM     44  C   UNL A   1      41.010  27.522  28.614  1.00  0.00     0.049 A 
ATOM     45  H   UNL A   1      40.872  28.550  30.422  1.00  0.00     0.167 HD
ATOM     46  C   UNL A   1      40.564  30.967  34.082  1.00  0.00     0.034 A 
ATOM     47  C   UNL A   1      42.156  26.809  28.645  1.00  0.00     0.034 A 
ATOM     48  C   UNL A   1      41.769  30.190  34.237  1.00  0.00     0.049 A 
ATOM     49  C   UNL A   1      43.033  26.895  29.871  1.00  0.00     0.074 A 
ATOM     50  C   UNL A   1      42.631  30.141  35.318  1.00  0.00     0.029 A 
ATOM     51  N   UNL A   1      42.277  29.318  33.284  1.00  0.00    -0.354 N 
ATOM     52  N   UNL A   1      42.861  27.608  30.961  1.00  0.00    -0.248 NA
ATOM     53  C   UNL A   1      44.250  26.073  29.876  1.00  0.00     0.031 C 
ATOM     54  C   UNL A   1      43.686  29.278  35.001  1.00  0.00     0.029 A 
ATOM     55  C   UNL A   1      43.448  28.739  33.747  1.00  0.00     0.049 A 
ATOM     56  H   UNL A   1      41.867  29.136  32.407  1.00  0.00     0.167 HD
ATOM     57  C   UNL A   1      43.931  27.289  31.793  1.00  0.00     0.074 A 
ATOM     58  C   UNL A   1      44.732  26.311  31.087  1.00  0.00     0.031 C 
ATOM     59  C   UNL A   1      44.229  27.760  33.031  1.00  0.00     0.034 A 
BRANCH  46  60
ATOM     60  C   UNL A   1      40.155  31.900  35.193  1.00  0.00     0.023 A 
ATOM     61  C   UNL A   1      39.281  31.484  36.212  1.00  0.00     0.031 A 
ATOM     62  C   UNL A   1      40.632  33.222  35.232  1.00  0.00     0.131 A 
ATOM     63  C   UNL A   1      38.856  32.398  37.187  1.00  0.00     0.055 A 
ATOM     64  C   UNL A   1      40.266  34.105  36.250  1.00  0.00     0.041 A 
ATOM     65  F   UNL A   1      41.454  33.680  34.275  1.00  0.00    -0.206 F 
ATOM     66  C   UNL A   1      39.363  33.699  37.229  1.00  0.00     0.022 A 
BRANCH  63  67
ATOM     67  S   UNL A   1      37.542  31.896  38.331  1.00  0.00     0.124 S 
ATOM     68  O   UNL A   1      36.517  32.901  38.057  1.00  0.00    -0.237 OA
ATOM     69  O   UNL A   1      37.239  30.539  37.890  1.00  0.00    -0.237 OA
ATOM     70  O   UNL A   1      38.173  32.000  39.644  1.00  0.00    -0.744 OA
ENDBRANCH  63  67
ENDBRANCH  46  60
BRANCH  47  71
ATOM     71  C   UNL A   1      42.564  25.962  27.487  1.00  0.00     0.023 A 
ATOM     72  C   UNL A   1      42.081  24.650  27.347  1.00  0.00     0.031 A 
ATOM     73  C   UNL A   1      43.505  26.418  26.547  1.00  0.00     0.131 A 
ATOM     74  C   UNL A   1      42.589  23.820  26.336  1.00  0.00     0.055 A 
ATOM     75  C   UNL A   1      43.963  25.608  25.507  1.00  0.00     0.041 A 
ATOM     76  F   UNL A   1      43.997  27.665  26.628  1.00  0.00    -0.206 F 
ATOM     77  C   UNL A   1      43.519  24.293  25.408  1.00  0.00     0.022 A 
BRANCH  74  78
ATOM     78  S   UNL A   1      42.108  22.069  26.328  1.00  0.00     0.124 S 
ATOM     79  O   UNL A   1      42.594  21.623  27.629  1.00  0.00    -0.237 OA
ATOM     80  O   UNL A   1      40.660  22.157  26.178  1.00  0.00    -0.237 OA
ATOM     81  O   UNL A   1      42.823  21.527  25.174  1.00  0.00    -0.744 OA
ENDBRANCH  74  78
ENDBRANCH  47  71
BRANCH  59  82
ATOM     82  C   UNL A   1      45.438  27.175  33.713  1.00  0.00     0.023 A 
ATOM     83  C   UNL A   1      45.351  26.018  34.506  1.00  0.00     0.031 A 
ATOM     84  C   UNL A   1      46.694  27.791  33.572  1.00  0.00     0.131 A 
ATOM     85  C   UNL A   1      46.491  25.544  35.173  1.00  0.00     0.055 A 
ATOM     86  C   UNL A   1      47.835  27.283  34.194  1.00  0.00     0.041 A 
ATOM     87  F   UNL A   1      46.831  28.899  32.824  1.00  0.00    -0.206 F 
ATOM     88  C   UNL A   1      47.734  26.160  35.010  1.00  0.00     0.022 A 
BRANCH  85  89
ATOM     89  S   UNL A   1      46.309  24.152  36.323  1.00  0.00     0.124 S 
ATOM     90  O   UNL A   1      45.072  23.533  35.858  1.00  0.00    -0.237 OA
ATOM     91  O   UNL A   1      47.530  23.390  36.085  1.00  0.00    -0.237 OA
ATOM     92  O   UNL A   1      46.227  24.797  37.631  1.00  0.00    -0.744 OA
ENDBRANCH  85  89
ENDBRANCH  59  82
ENDBRANCH  33  34
ENDBRANCH  25  28
ENDBRANCH  23  24
ENDBRANCH   1  23
TORSDOF 16
ENDMDL
MODEL 3
REMARK VINA RESULT:     -11.5      1.975      8.151
REMARK SMILES Cc1cc(C(=O)N[C@](C)(C(=O)NCCCNC(=O)c2ccc(-c3c4nc(c(-c5cc(S(=O)(=O)[O-])ccc5F)c5ccc([nH]5)c(-c5cc(S(=O)(=O)[O-])ccc5F)c5nc(c(-c6cc(S(=O)(=O)[O-])ccc6F)c6ccc3[nH]6)C=C5)C=C4)cc2)C(F)(F)F)no1
REMARK SMILES IDX 14 1 13 2 12 3 10 4 11 5 8 7 9 8 7 9 5 10 6 11 4 13 1 14
REMARK SMILES IDX 2 15 3 16 87 17 86 18 82 19 83 20 84 21 85 22 15 23 16 24
REMARK SMILES IDX 17 25 18 27 19 28 20 29 81 30 21 31 80 32 22 33 23 34 24 35
REMARK SMILES IDX 74 36 25 37 79 38 73 39 75 40 26 41 78 42 72 43 71 44 27 46
REMARK SMILES IDX 59 47 39 48 58 49 40 50 43 51 57 52 76 53 41 54 42 55 56 57
REMARK SMILES IDX 77 58 44 59 28 60 29 61 37 62 30 63 36 64 38 65 35 66 31 67
REMARK SMILES IDX 32 68 33 69 34 70 60 71 61 72 69 73 62 74 68 75 70 76 67 77
REMARK SMILES IDX 63 78 64 79 65 80 66 81 45 82 46 83 54 84 47 85 53 86 55 87
REMARK SMILES IDX 52 88 48 89 49 90 50 91 51 92
REMARK H PARENT 12 6 7 12 16 26 75 45 43 56
REMARK Flexibility Score: inf
ROOT
ATOM      1  C   UNL A   1      31.812  31.128  26.495  1.00  0.00     0.042 C 
ENDROOT
BRANCH   1   2
ATOM      2  C   UNL A   1      32.220  29.729  26.072  1.00  0.00     0.117 C 
BRANCH   2   3
ATOM      3  N   UNL A   1      32.852  29.717  24.760  1.00  0.00    -0.354 N 
ATOM      4  C   UNL A   1      32.924  28.728  23.821  1.00  0.00     0.254 C 
ATOM      5  O   UNL A   1      33.506  29.011  22.773  1.00  0.00    -0.272 OA
ATOM      6  H   UNL A   1      33.301  30.556  24.510  1.00  0.00     0.163 HD
BRANCH   4   7
ATOM      7  C   UNL A   1      32.416  27.310  24.121  1.00  0.00     0.212 C 
ATOM      8  C   UNL A   1      33.278  26.772  25.293  1.00  0.00     0.056 C 
BRANCH   7   9
ATOM      9  N   UNL A   1      30.969  27.235  24.525  1.00  0.00    -0.329 N 
ATOM     10  C   UNL A   1      29.839  27.543  23.786  1.00  0.00     0.274 C 
ATOM     11  O   UNL A   1      28.875  26.787  23.901  1.00  0.00    -0.267 OA
ATOM     12  H   UNL A   1      30.803  26.923  25.444  1.00  0.00     0.165 HD
BRANCH  10  13
ATOM     13  C   UNL A   1      29.755  28.829  23.098  1.00  0.00     0.171 A 
ATOM     14  C   UNL A   1      28.689  32.213  22.174  1.00  0.00     0.091 C 
ATOM     15  C   UNL A   1      29.230  30.869  22.442  1.00  0.00     0.134 A 
ATOM     16  C   UNL A   1      29.438  30.124  23.578  1.00  0.00     0.082 A 
ATOM     17  O   UNL A   1      29.566  30.128  21.357  1.00  0.00    -0.361 OA
ATOM     18  N   UNL A   1      29.917  28.858  21.763  1.00  0.00    -0.074 NA
ENDBRANCH  10  13
ENDBRANCH   7   9
BRANCH   7  19
ATOM     19  C   UNL A   1      32.688  26.423  22.885  1.00  0.00     0.420 C 
ATOM     20  F   UNL A   1      33.983  26.071  22.740  1.00  0.00    -0.168 F 
ATOM     21  F   UNL A   1      31.989  25.260  23.004  1.00  0.00    -0.168 F 
ATOM     22  F   UNL A   1      32.274  27.002  21.735  1.00  0.00    -0.168 F 
ENDBRANCH   7  19
ENDBRANCH   4   7
ENDBRANCH   2   3
ENDBRANCH   1   2
BRANCH   1  23
ATOM     23  C   UNL A   1      32.911  31.899  27.216  1.00  0.00     0.118 C 
BRANCH  23  24
ATOM     24  N   UNL A   1      32.596  33.301  27.450  1.00  0.00    -0.352 N 
ATOM     25  C   UNL A   1      33.205  34.173  28.328  1.00  0.00     0.251 C 
ATOM     26  H   UNL A   1      31.857  33.672  26.916  1.00  0.00     0.163 HD
ATOM     27  O   UNL A   1      32.765  35.306  28.495  1.00  0.00    -0.269 OA
BRANCH  25  28
ATOM     28  C   UNL A   1      34.372  33.702  29.104  1.00  0.00     0.039 A 
ATOM     29  C   UNL A   1      34.161  32.972  30.274  1.00  0.00     0.014 A 
ATOM     30  C   UNL A   1      35.668  33.897  28.615  1.00  0.00     0.014 A 
ATOM     31  C   UNL A   1      35.244  32.349  30.900  1.00  0.00     0.010 A 
ATOM     32  C   UNL A   1      36.729  33.206  29.191  1.00  0.00     0.010 A 
ATOM     33  C   UNL A   1      36.527  32.412  30.332  1.00  0.00    -0.014 A 
BRANCH  33  34
ATOM     34  C   UNL A   1      37.670  31.651  30.904  1.00  0.00     0.031 A 
ATOM     35  C   UNL A   1      38.155  31.962  32.295  1.00  0.00     0.074 A 
ATOM     36  C   UNL A   1      38.318  30.738  30.150  1.00  0.00     0.049 A 
ATOM     37  N   UNL A   1      39.204  31.505  32.929  1.00  0.00    -0.248 NA
ATOM     38  C   UNL A   1      37.371  32.945  33.060  1.00  0.00     0.031 C 
ATOM     39  C   UNL A   1      37.972  30.376  28.773  1.00  0.00     0.029 A 
ATOM     40  N   UNL A   1      39.411  29.955  30.429  1.00  0.00    -0.354 N 
ATOM     41  C   UNL A   1      39.212  32.150  34.160  1.00  0.00     0.074 A 
ATOM     42  C   UNL A   1      38.102  33.078  34.156  1.00  0.00     0.031 C 
ATOM     43  C   UNL A   1      38.820  29.429  28.339  1.00  0.00     0.029 A 
ATOM     44  C   UNL A   1      39.799  29.147  29.382  1.00  0.00     0.049 A 
ATOM     45  H   UNL A   1      39.875  29.969  31.297  1.00  0.00     0.167 HD
ATOM     46  C   UNL A   1      40.050  31.965  35.211  1.00  0.00     0.034 A 
ATOM     47  C   UNL A   1      40.835  28.290  29.272  1.00  0.00     0.034 A 
ATOM     48  C   UNL A   1      41.140  31.022  35.213  1.00  0.00     0.049 A 
ATOM     49  C   UNL A   1      41.763  28.116  30.451  1.00  0.00     0.074 A 
ATOM     50  C   UNL A   1      42.029  30.733  36.233  1.00  0.00     0.029 A 
ATOM     51  N   UNL A   1      41.485  30.206  34.144  1.00  0.00    -0.354 N 
ATOM     52  N   UNL A   1      41.734  28.714  31.619  1.00  0.00    -0.248 NA
ATOM     53  C   UNL A   1      42.854  27.144  30.299  1.00  0.00     0.031 C 
ATOM     54  C   UNL A   1      42.941  29.780  35.767  1.00  0.00     0.029 A 
ATOM     55  C   UNL A   1      42.582  29.427  34.476  1.00  0.00     0.049 A 
ATOM     56  H   UNL A   1      41.019  30.184  33.277  1.00  0.00     0.167 HD
ATOM     57  C   UNL A   1      42.782  28.161  32.352  1.00  0.00     0.074 A 
ATOM     58  C   UNL A   1      43.411  27.174  31.501  1.00  0.00     0.031 C 
ATOM     59  C   UNL A   1      43.190  28.442  33.616  1.00  0.00     0.034 A 
BRANCH  46  60
ATOM     60  C   UNL A   1      39.818  32.809  36.438  1.00  0.00     0.023 A 
ATOM     61  C   UNL A   1      38.965  32.381  37.469  1.00  0.00     0.031 A 
ATOM     62  C   UNL A   1      40.444  34.060  36.577  1.00  0.00     0.131 A 
ATOM     63  C   UNL A   1      38.707  33.222  38.560  1.00  0.00     0.055 A 
ATOM     64  C   UNL A   1      40.244  34.860  37.704  1.00  0.00     0.041 A 
ATOM     65  F   UNL A   1      41.255  34.529  35.615  1.00  0.00    -0.206 F 
ATOM     66  C   UNL A   1      39.362  34.449  38.698  1.00  0.00     0.022 A 
BRANCH  63  67
ATOM     67  S   UNL A   1      37.416  32.742  39.738  1.00  0.00     0.124 S 
ATOM     68  O   UNL A   1      36.236  32.699  38.877  1.00  0.00    -0.237 OA
ATOM     69  O   UNL A   1      37.895  31.455  40.228  1.00  0.00    -0.237 OA
ATOM     70  O   UNL A   1      37.425  33.826  40.717  1.00  0.00    -0.744 OA
ENDBRANCH  63  67
ENDBRANCH  46  60
BRANCH  47  71
ATOM     71  C   UNL A   1      41.076  27.536  28.008  1.00  0.00     0.023 A 
ATOM     72  C   UNL A   1      40.817  26.157  27.930  1.00  0.00     0.031 A 
ATOM     73  C   UNL A   1      41.644  28.162  26.885  1.00  0.00     0.131 A 
ATOM     74  C   UNL A   1      41.188  25.438  26.783  1.00  0.00     0.055 A 
ATOM     75  C   UNL A   1      41.956  27.453  25.723  1.00  0.00     0.041 A 
ATOM     76  F   UNL A   1      41.908  29.478  26.901  1.00  0.00    -0.206 F 
ATOM     77  C   UNL A   1      41.745  26.079  25.674  1.00  0.00     0.022 A 
BRANCH  74  78
ATOM     78  S   UNL A   1      41.044  23.629  26.809  1.00  0.00     0.124 S 
ATOM     79  O   UNL A   1      41.448  23.319  28.176  1.00  0.00    -0.237 OA
ATOM     80  O   UNL A   1      39.632  23.436  26.497  1.00  0.00    -0.237 OA
ATOM     81  O   UNL A   1      41.976  23.199  25.769  1.00  0.00    -0.744 OA
ENDBRANCH  74  78
ENDBRANCH  47  71
BRANCH  59  82
ATOM     82  C   UNL A   1      44.332  27.626  34.163  1.00  0.00     0.023 A 
ATOM     83  C   UNL A   1      44.114  26.436  34.878  1.00  0.00     0.031 A 
ATOM     84  C   UNL A   1      45.658  28.052  33.971  1.00  0.00     0.131 A 
ATOM     85  C   UNL A   1      45.205  25.741  35.423  1.00  0.00     0.055 A 
ATOM     86  C   UNL A   1      46.742  27.327  34.468  1.00  0.00     0.041 A 
ATOM     87  F   UNL A   1      45.921  29.182  33.294  1.00  0.00    -0.206 F 
ATOM     88  C   UNL A   1      46.517  26.171  35.210  1.00  0.00     0.022 A 
BRANCH  85  89
ATOM     89  S   UNL A   1      44.879  24.305  36.483  1.00  0.00     0.124 S 
ATOM     90  O   UNL A   1      46.229  23.867  36.824  1.00  0.00    -0.237 OA
ATOM     91  O   UNL A   1      44.107  24.891  37.573  1.00  0.00    -0.237 OA
ATOM     92  O   UNL A   1      44.133  23.399  35.613  1.00  0.00    -0.744 OA
ENDBRANCH  85  89
ENDBRANCH  59  82
ENDBRANCH  33  34
ENDBRANCH  25  28
ENDBRANCH  23  24
ENDBRANCH   1  23
TORSDOF 16
ENDMDL
