MODEL 1
REMARK VINA RESULT:     -12.2      0.000      0.000
REMARK SMILES Cc1ccccc1Sc1cncc(C(=O)NCCCNC(=O)c2ccc(-c3c4nc(c(-c5cc(S(=O)(=O)[O-])ccc5F)c5ccc([nH]5)c(-c5cc(S(=O)(=O)[O-])ccc5F)c5nc(c(-c6cc(S(=O)(=O)[O-])ccc6F)c6ccc3[nH]6)C=C5)C=C4)cc2)n1
REMARK SMILES IDX 18 1 17 2 16 3 14 4 15 5 13 7 9 8 10 9 86 10 11 11 12 12
REMARK SMILES IDX 8 13 7 14 1 15 2 16 3 17 4 18 6 19 5 20 19 21 20 22 21 23
REMARK SMILES IDX 22 25 23 26 24 27 85 28 25 29 84 30 26 31 27 32 28 33 78 34
REMARK SMILES IDX 29 35 83 36 77 37 79 38 30 39 82 40 76 41 75 42 31 44 63 45
REMARK SMILES IDX 43 46 62 47 44 48 47 49 61 50 80 51 45 52 46 53 60 55 81 56
REMARK SMILES IDX 48 57 32 58 33 59 41 60 34 61 40 62 42 63 39 64 35 65 36 66
REMARK SMILES IDX 37 67 38 68 64 69 65 70 73 71 66 72 72 73 74 74 71 75 67 76
REMARK SMILES IDX 68 77 69 78 70 79 49 80 50 81 58 82 51 83 57 84 59 85 56 86
REMARK SMILES IDX 52 87 53 88 54 89 55 90
REMARK H PARENT 16 6 20 24 79 43 47 54
REMARK Flexibility Score: inf
ROOT
ATOM      1  C   UNL A   1      35.191  32.786  28.090  1.00  0.00     0.042 C 
ENDROOT
BRANCH   1   2
ATOM      2  C   UNL A   1      35.151  34.125  28.827  1.00  0.00     0.118 C 
BRANCH   2   3
ATOM      3  N   UNL A   1      33.955  34.896  28.493  1.00  0.00    -0.351 N 
ATOM      4  C   UNL A   1      33.216  35.755  29.278  1.00  0.00     0.271 C 
ATOM      5  O   UNL A   1      32.285  36.389  28.781  1.00  0.00    -0.267 OA
ATOM      6  H   UNL A   1      33.630  34.787  27.571  1.00  0.00     0.163 HD
BRANCH   4   7
ATOM      7  C   UNL A   1      33.519  35.962  30.721  1.00  0.00     0.147 A 
ATOM      8  C   UNL A   1      34.649  35.398  32.647  1.00  0.00     0.120 A 
ATOM      9  C   UNL A   1      34.043  36.467  33.301  1.00  0.00     0.146 A 
ATOM     10  N   UNL A   1      34.394  35.135  31.345  1.00  0.00    -0.233 NA
ATOM     11  N   UNL A   1      33.125  37.272  32.710  1.00  0.00    -0.259 NA
ATOM     12  C   UNL A   1      32.879  36.992  31.401  1.00  0.00     0.145 A 
BRANCH   8  13
ATOM     13  S   UNL A   1      35.867  34.388  33.413  1.00  0.00    -0.068 SA
BRANCH  13  14
ATOM     14  C   UNL A   1      36.912  33.653  32.159  1.00  0.00     0.017 A 
ATOM     15  C   UNL A   1      35.953  31.257  31.986  1.00  0.00     0.045 C 
ATOM     16  C   UNL A   1      36.914  32.352  31.616  1.00  0.00    -0.037 A 
ATOM     17  C   UNL A   1      37.887  32.016  30.646  1.00  0.00     0.004 A 
ATOM     18  C   UNL A   1      38.810  32.949  30.177  1.00  0.00     0.000 A 
ATOM     19  C   UNL A   1      37.850  34.581  31.653  1.00  0.00     0.016 A 
ATOM     20  C   UNL A   1      38.783  34.240  30.673  1.00  0.00     0.001 A 
ENDBRANCH  13  14
ENDBRANCH   8  13
ENDBRANCH   4   7
ENDBRANCH   2   3
ENDBRANCH   1   2
BRANCH   1  21
ATOM     21  C   UNL A   1      34.449  31.686  28.841  1.00  0.00     0.118 C 
BRANCH  21  22
ATOM     22  N   UNL A   1      34.207  30.469  28.061  1.00  0.00    -0.352 N 
ATOM     23  C   UNL A   1      35.102  29.510  27.616  1.00  0.00     0.251 C 
ATOM     24  H   UNL A   1      33.266  30.308  27.818  1.00  0.00     0.163 HD
ATOM     25  O   UNL A   1      34.751  28.602  26.908  1.00  0.00    -0.269 OA
BRANCH  23  26
ATOM     26  C   UNL A   1      36.502  29.570  28.109  1.00  0.00     0.039 A 
ATOM     27  C   UNL A   1      37.492  30.042  27.235  1.00  0.00     0.014 A 
ATOM     28  C   UNL A   1      36.860  28.986  29.324  1.00  0.00     0.014 A 
ATOM     29  C   UNL A   1      38.826  29.721  27.472  1.00  0.00     0.010 A 
ATOM     30  C   UNL A   1      38.167  28.579  29.508  1.00  0.00     0.010 A 
ATOM     31  C   UNL A   1      39.138  28.894  28.553  1.00  0.00    -0.014 A 
BRANCH  31  32
ATOM     32  C   UNL A   1      40.411  28.190  28.676  1.00  0.00     0.031 A 
ATOM     33  C   UNL A   1      40.497  26.724  28.472  1.00  0.00     0.074 A 
ATOM     34  C   UNL A   1      41.547  28.884  28.917  1.00  0.00     0.049 A 
ATOM     35  N   UNL A   1      41.373  25.963  29.039  1.00  0.00    -0.248 NA
ATOM     36  C   UNL A   1      39.576  25.985  27.613  1.00  0.00     0.031 C 
ATOM     37  C   UNL A   1      42.915  28.370  28.823  1.00  0.00     0.029 A 
ATOM     38  N   UNL A   1      41.745  30.165  29.416  1.00  0.00    -0.354 N 
ATOM     39  C   UNL A   1      41.350  24.746  28.396  1.00  0.00     0.074 A 
ATOM     40  C   UNL A   1      40.156  24.780  27.584  1.00  0.00     0.031 C 
ATOM     41  C   UNL A   1      43.724  29.166  29.540  1.00  0.00     0.029 A 
ATOM     42  C   UNL A   1      42.878  30.118  30.232  1.00  0.00     0.049 A 
ATOM     43  H   UNL A   1      41.190  30.957  29.230  1.00  0.00     0.167 HD
ATOM     44  C   UNL A   1      42.423  23.907  28.488  1.00  0.00     0.034 A 
ATOM     45  C   UNL A   1      42.890  30.336  31.581  1.00  0.00     0.034 A 
ATOM     46  C   UNL A   1      43.493  24.482  29.304  1.00  0.00     0.049 A 
ATOM     47  C   UNL A   1      43.481  29.179  32.367  1.00  0.00     0.074 A 
ATOM     48  C   UNL A   1      44.689  25.096  28.969  1.00  0.00     0.029 A 
ATOM     49  N   UNL A   1      43.303  24.709  30.663  1.00  0.00    -0.354 N 
ATOM     50  N   UNL A   1      43.620  27.973  31.889  1.00  0.00    -0.248 NA
ATOM     51  C   UNL A   1      43.937  29.275  33.752  1.00  0.00     0.031 C 
ATOM     52  C   UNL A   1      45.207  25.718  30.132  1.00  0.00     0.029 A 
ATOM     53  C   UNL A   1      44.338  25.467  31.177  1.00  0.00     0.049 A 
ATOM     54  H   UNL A   1      42.537  24.375  31.185  1.00  0.00     0.167 HD
ATOM     55  C   UNL A   1      44.157  27.147  32.845  1.00  0.00     0.074 A 
ATOM     56  C   UNL A   1      44.350  28.016  33.991  1.00  0.00     0.031 C 
ATOM     57  C   UNL A   1      44.386  25.819  32.592  1.00  0.00     0.034 A 
BRANCH  44  58
ATOM     58  C   UNL A   1      42.655  22.720  27.573  1.00  0.00     0.023 A 
ATOM     59  C   UNL A   1      43.765  22.728  26.701  1.00  0.00     0.031 A 
ATOM     60  C   UNL A   1      41.828  21.585  27.478  1.00  0.00     0.131 A 
ATOM     61  C   UNL A   1      43.943  21.736  25.719  1.00  0.00     0.055 A 
ATOM     62  C   UNL A   1      41.970  20.623  26.466  1.00  0.00     0.041 A 
ATOM     63  F   UNL A   1      40.882  21.325  28.391  1.00  0.00    -0.206 F 
ATOM     64  C   UNL A   1      43.022  20.706  25.566  1.00  0.00     0.022 A 
BRANCH  61  65
ATOM     65  S   UNL A   1      45.403  21.814  24.646  1.00  0.00     0.124 S 
ATOM     66  O   UNL A   1      44.940  22.663  23.553  1.00  0.00    -0.237 OA
ATOM     67  O   UNL A   1      46.407  22.392  25.533  1.00  0.00    -0.237 OA
ATOM     68  O   UNL A   1      45.634  20.416  24.285  1.00  0.00    -0.744 OA
ENDBRANCH  61  65
ENDBRANCH  44  58
BRANCH  45  69
ATOM     69  C   UNL A   1      41.809  31.232  32.071  1.00  0.00     0.023 A 
ATOM     70  C   UNL A   1      40.706  30.628  32.705  1.00  0.00     0.031 A 
ATOM     71  C   UNL A   1      42.020  32.602  32.277  1.00  0.00     0.131 A 
ATOM     72  C   UNL A   1      39.950  31.347  33.640  1.00  0.00     0.055 A 
ATOM     73  C   UNL A   1      41.227  33.331  33.172  1.00  0.00     0.041 A 
ATOM     74  F   UNL A   1      43.069  33.225  31.722  1.00  0.00    -0.206 F 
ATOM     75  C   UNL A   1      40.212  32.695  33.891  1.00  0.00     0.022 A 
BRANCH  72  76
ATOM     76  S   UNL A   1      38.800  30.421  34.701  1.00  0.00     0.124 S 
ATOM     77  O   UNL A   1      38.393  29.327  33.827  1.00  0.00    -0.237 OA
ATOM     78  O   UNL A   1      39.649  30.056  35.834  1.00  0.00    -0.237 OA
ATOM     79  O   UNL A   1      37.761  31.398  35.017  1.00  0.00    -0.744 OA
ENDBRANCH  72  76
ENDBRANCH  45  69
BRANCH  57  80
ATOM     80  C   UNL A   1      44.781  24.750  33.597  1.00  0.00     0.023 A 
ATOM     81  C   UNL A   1      46.106  24.388  33.873  1.00  0.00     0.031 A 
ATOM     82  C   UNL A   1      43.799  24.088  34.382  1.00  0.00     0.131 A 
ATOM     83  C   UNL A   1      46.413  23.378  34.807  1.00  0.00     0.055 A 
ATOM     84  C   UNL A   1      44.109  23.136  35.358  1.00  0.00     0.041 A 
ATOM     85  F   UNL A   1      42.490  24.345  34.248  1.00  0.00    -0.206 F 
ATOM     86  C   UNL A   1      45.424  22.762  35.567  1.00  0.00     0.022 A 
BRANCH  83  87
ATOM     87  S   UNL A   1      48.140  22.852  34.965  1.00  0.00     0.124 S 
ATOM     88  O   UNL A   1      48.048  21.423  34.678  1.00  0.00    -0.237 OA
ATOM     89  O   UNL A   1      48.808  23.660  33.951  1.00  0.00    -0.237 OA
ATOM     90  O   UNL A   1      48.480  23.186  36.348  1.00  0.00    -0.744 OA
ENDBRANCH  83  87
ENDBRANCH  57  80
ENDBRANCH  31  32
ENDBRANCH  23  26
ENDBRANCH  21  22
ENDBRANCH   1  21
TORSDOF 15
ENDMDL
MODEL 2
REMARK VINA RESULT:     -11.5      3.367      5.768
REMARK SMILES Cc1ccccc1Sc1cncc(C(=O)NCCCNC(=O)c2ccc(-c3c4nc(c(-c5cc(S(=O)(=O)[O-])ccc5F)c5ccc([nH]5)c(-c5cc(S(=O)(=O)[O-])ccc5F)c5nc(c(-c6cc(S(=O)(=O)[O-])ccc6F)c6ccc3[nH]6)C=C5)C=C4)cc2)n1
REMARK SMILES IDX 18 1 17 2 16 3 14 4 15 5 13 7 9 8 10 9 86 10 11 11 12 12
REMARK SMILES IDX 8 13 7 14 1 15 2 16 3 17 4 18 6 19 5 20 19 21 20 22 21 23
REMARK SMILES IDX 22 25 23 26 24 27 85 28 25 29 84 30 26 31 27 32 28 33 78 34
REMARK SMILES IDX 29 35 83 36 77 37 79 38 30 39 82 40 76 41 75 42 31 44 63 45
REMARK SMILES IDX 43 46 62 47 44 48 47 49 61 50 80 51 45 52 46 53 60 55 81 56
REMARK SMILES IDX 48 57 32 58 33 59 41 60 34 61 40 62 42 63 39 64 35 65 36 66
REMARK SMILES IDX 37 67 38 68 64 69 65 70 73 71 66 72 72 73 74 74 71 75 67 76
REMARK SMILES IDX 68 77 69 78 70 79 49 80 50 81 58 82 51 83 57 84 59 85 56 86
REMARK SMILES IDX 52 87 53 88 54 89 55 90
REMARK H PARENT 16 6 20 24 79 43 47 54
REMARK Flexibility Score: inf
ROOT
ATOM      1  C   UNL A   1      32.896  30.962  27.229  1.00  0.00     0.042 C 
ENDROOT
BRANCH   1   2
ATOM      2  C   UNL A   1      32.243  29.959  26.277  1.00  0.00     0.118 C 
BRANCH   2   3
ATOM      3  N   UNL A   1      32.897  29.942  24.971  1.00  0.00    -0.351 N 
ATOM      4  C   UNL A   1      32.880  28.971  23.992  1.00  0.00     0.271 C 
ATOM      5  O   UNL A   1      33.425  29.185  22.909  1.00  0.00    -0.267 OA
ATOM      6  H   UNL A   1      33.429  30.742  24.757  1.00  0.00     0.163 HD
BRANCH   4   7
ATOM      7  C   UNL A   1      32.199  27.662  24.193  1.00  0.00     0.147 A 
ATOM      8  C   UNL A   1      32.173  25.502  24.992  1.00  0.00     0.120 A 
ATOM      9  C   UNL A   1      30.856  25.371  24.562  1.00  0.00     0.146 A 
ATOM     10  N   UNL A   1      32.860  26.653  24.814  1.00  0.00    -0.233 NA
ATOM     11  N   UNL A   1      30.196  26.349  23.892  1.00  0.00    -0.259 NA
ATOM     12  C   UNL A   1      30.902  27.500  23.719  1.00  0.00     0.145 A 
BRANCH   8  13
ATOM     13  S   UNL A   1      33.003  24.242  25.894  1.00  0.00    -0.068 SA
BRANCH  13  14
ATOM     14  C   UNL A   1      34.500  23.773  25.031  1.00  0.00     0.017 A 
ATOM     15  C   UNL A   1      33.595  23.075  22.710  1.00  0.00     0.045 C 
ATOM     16  C   UNL A   1      34.687  23.284  23.722  1.00  0.00    -0.037 A 
ATOM     17  C   UNL A   1      35.994  22.952  23.295  1.00  0.00     0.004 A 
ATOM     18  C   UNL A   1      37.105  23.141  24.115  1.00  0.00     0.000 A 
ATOM     19  C   UNL A   1      35.647  23.967  25.834  1.00  0.00     0.016 A 
ATOM     20  C   UNL A   1      36.933  23.663  25.384  1.00  0.00     0.001 A 
ENDBRANCH  13  14
ENDBRANCH   8  13
ENDBRANCH   4   7
ENDBRANCH   2   3
ENDBRANCH   1   2
BRANCH   1  21
ATOM     21  C   UNL A   1      34.284  30.520  27.678  1.00  0.00     0.118 C 
BRANCH  21  22
ATOM     22  N   UNL A   1      34.925  31.410  28.650  1.00  0.00    -0.352 N 
ATOM     23  C   UNL A   1      36.070  31.218  29.406  1.00  0.00     0.251 C 
ATOM     24  H   UNL A   1      34.475  32.275  28.784  1.00  0.00     0.163 HD
ATOM     25  O   UNL A   1      36.424  32.022  30.228  1.00  0.00    -0.269 OA
BRANCH  23  26
ATOM     26  C   UNL A   1      36.916  30.031  29.114  1.00  0.00     0.039 A 
ATOM     27  C   UNL A   1      37.112  29.091  30.136  1.00  0.00     0.014 A 
ATOM     28  C   UNL A   1      37.659  29.953  27.937  1.00  0.00     0.014 A 
ATOM     29  C   UNL A   1      38.202  28.228  30.073  1.00  0.00     0.010 A 
ATOM     30  C   UNL A   1      38.796  29.169  27.918  1.00  0.00     0.010 A 
ATOM     31  C   UNL A   1      39.100  28.353  29.011  1.00  0.00    -0.014 A 
BRANCH  31  32
ATOM     32  C   UNL A   1      40.447  27.788  29.036  1.00  0.00     0.031 A 
ATOM     33  C   UNL A   1      40.702  26.401  28.578  1.00  0.00     0.074 A 
ATOM     34  C   UNL A   1      41.494  28.554  29.420  1.00  0.00     0.049 A 
ATOM     35  N   UNL A   1      41.661  25.657  29.021  1.00  0.00    -0.248 NA
ATOM     36  C   UNL A   1      39.873  25.726  27.583  1.00  0.00     0.031 C 
ATOM     37  C   UNL A   1      42.912  28.224  29.266  1.00  0.00     0.029 A 
ATOM     38  N   UNL A   1      41.542  29.740  30.140  1.00  0.00    -0.354 N 
ATOM     39  C   UNL A   1      41.780  24.578  28.174  1.00  0.00     0.074 A 
ATOM     40  C   UNL A   1      40.589  24.619  27.355  1.00  0.00     0.031 C 
ATOM     41  C   UNL A   1      43.623  28.967  30.129  1.00  0.00     0.029 A 
ATOM     42  C   UNL A   1      42.672  29.678  30.960  1.00  0.00     0.049 A 
ATOM     43  H   UNL A   1      40.898  30.484  30.086  1.00  0.00     0.167 HD
ATOM     44  C   UNL A   1      42.942  23.865  28.139  1.00  0.00     0.034 A 
ATOM     45  C   UNL A   1      42.657  29.653  32.326  1.00  0.00     0.034 A 
ATOM     46  C   UNL A   1      43.938  24.404  29.067  1.00  0.00     0.049 A 
ATOM     47  C   UNL A   1      43.378  28.450  32.908  1.00  0.00     0.074 A 
ATOM     48  C   UNL A   1      45.055  25.201  28.870  1.00  0.00     0.029 A 
ATOM     49  N   UNL A   1      43.721  24.363  30.439  1.00  0.00    -0.354 N 
ATOM     50  N   UNL A   1      43.656  27.372  32.229  1.00  0.00    -0.248 NA
ATOM     51  C   UNL A   1      43.818  28.350  34.298  1.00  0.00     0.031 C 
ATOM     52  C   UNL A   1      45.496  25.661  30.135  1.00  0.00     0.029 A 
ATOM     53  C   UNL A   1      44.661  25.130  31.101  1.00  0.00     0.049 A 
ATOM     54  H   UNL A   1      42.999  23.856  30.878  1.00  0.00     0.167 HD
ATOM     55  C   UNL A   1      44.285  26.456  33.035  1.00  0.00     0.074 A 
ATOM     56  C   UNL A   1      44.374  27.124  34.320  1.00  0.00     0.031 C 
ATOM     57  C   UNL A   1      44.666  25.229  32.557  1.00  0.00     0.034 A 
BRANCH  44  58
ATOM     58  C   UNL A   1      43.311  22.893  27.034  1.00  0.00     0.023 A 
ATOM     59  C   UNL A   1      42.771  21.588  27.055  1.00  0.00     0.031 A 
ATOM     60  C   UNL A   1      44.192  23.159  25.970  1.00  0.00     0.131 A 
ATOM     61  C   UNL A   1      43.198  20.596  26.154  1.00  0.00     0.055 A 
ATOM     62  C   UNL A   1      44.662  22.159  25.104  1.00  0.00     0.041 A 
ATOM     63  F   UNL A   1      44.595  24.405  25.684  1.00  0.00    -0.206 F 
ATOM     64  C   UNL A   1      44.179  20.863  25.206  1.00  0.00     0.022 A 
BRANCH  61  65
ATOM     65  S   UNL A   1      42.447  18.947  26.242  1.00  0.00     0.124 S 
ATOM     66  O   UNL A   1      42.586  18.617  27.657  1.00  0.00    -0.237 OA
ATOM     67  O   UNL A   1      41.091  19.201  25.768  1.00  0.00    -0.237 OA
ATOM     68  O   UNL A   1      43.274  18.149  25.339  1.00  0.00    -0.744 OA
ENDBRANCH  61  65
ENDBRANCH  44  58
BRANCH  45  69
ATOM     69  C   UNL A   1      41.479  30.318  32.943  1.00  0.00     0.023 A 
ATOM     70  C   UNL A   1      41.484  31.726  32.990  1.00  0.00     0.031 A 
ATOM     71  C   UNL A   1      40.254  29.657  33.104  1.00  0.00     0.131 A 
ATOM     72  C   UNL A   1      40.275  32.434  33.029  1.00  0.00     0.055 A 
ATOM     73  C   UNL A   1      39.052  30.369  33.198  1.00  0.00     0.041 A 
ATOM     74  F   UNL A   1      40.185  28.319  33.040  1.00  0.00    -0.206 F 
ATOM     75  C   UNL A   1      39.054  31.763  33.120  1.00  0.00     0.022 A 
BRANCH  72  76
ATOM     76  S   UNL A   1      40.321  34.221  32.699  1.00  0.00     0.124 S 
ATOM     77  O   UNL A   1      41.754  34.483  32.642  1.00  0.00    -0.237 OA
ATOM     78  O   UNL A   1      39.598  34.321  31.433  1.00  0.00    -0.237 OA
ATOM     79  O   UNL A   1      39.618  34.800  33.842  1.00  0.00    -0.744 OA
ENDBRANCH  72  76
ENDBRANCH  45  69
BRANCH  57  80
ATOM     80  C   UNL A   1      45.182  24.051  33.366  1.00  0.00     0.023 A 
ATOM     81  C   UNL A   1      46.486  23.962  33.873  1.00  0.00     0.031 A 
ATOM     82  C   UNL A   1      44.324  22.976  33.717  1.00  0.00     0.131 A 
ATOM     83  C   UNL A   1      46.913  22.837  34.607  1.00  0.00     0.055 A 
ATOM     84  C   UNL A   1      44.730  21.893  34.504  1.00  0.00     0.041 A 
ATOM     85  F   UNL A   1      43.042  22.931  33.325  1.00  0.00    -0.206 F 
ATOM     86  C   UNL A   1      46.039  21.809  34.943  1.00  0.00     0.022 A 
BRANCH  83  87
ATOM     87  S   UNL A   1      48.663  22.727  35.066  1.00  0.00     0.124 S 
ATOM     88  O   UNL A   1      48.708  23.532  36.283  1.00  0.00    -0.237 OA
ATOM     89  O   UNL A   1      48.849  21.291  35.249  1.00  0.00    -0.237 OA
ATOM     90  O   UNL A   1      49.360  23.301  33.917  1.00  0.00    -0.744 OA
ENDBRANCH  83  87
ENDBRANCH  57  80
ENDBRANCH  31  32
ENDBRANCH  23  26
ENDBRANCH  21  22
ENDBRANCH   1  21
TORSDOF 15
ENDMDL
MODEL 3
REMARK VINA RESULT:     -11.1      4.882     11.689
REMARK SMILES Cc1ccccc1Sc1cncc(C(=O)NCCCNC(=O)c2ccc(-c3c4nc(c(-c5cc(S(=O)(=O)[O-])ccc5F)c5ccc([nH]5)c(-c5cc(S(=O)(=O)[O-])ccc5F)c5nc(c(-c6cc(S(=O)(=O)[O-])ccc6F)c6ccc3[nH]6)C=C5)C=C4)cc2)n1
REMARK SMILES IDX 18 1 17 2 16 3 14 4 15 5 13 7 9 8 10 9 86 10 11 11 12 12
REMARK SMILES IDX 8 13 7 14 1 15 2 16 3 17 4 18 6 19 5 20 19 21 20 22 21 23
REMARK SMILES IDX 22 25 23 26 24 27 85 28 25 29 84 30 26 31 27 32 28 33 78 34
REMARK SMILES IDX 29 35 83 36 77 37 79 38 30 39 82 40 76 41 75 42 31 44 63 45
REMARK SMILES IDX 43 46 62 47 44 48 47 49 61 50 80 51 45 52 46 53 60 55 81 56
REMARK SMILES IDX 48 57 32 58 33 59 41 60 34 61 40 62 42 63 39 64 35 65 36 66
REMARK SMILES IDX 37 67 38 68 64 69 65 70 73 71 66 72 72 73 74 74 71 75 67 76
REMARK SMILES IDX 68 77 69 78 70 79 49 80 50 81 58 82 51 83 57 84 59 85 56 86
REMARK SMILES IDX 52 87 53 88 54 89 55 90
REMARK H PARENT 16 6 20 24 79 43 47 54
REMARK Flexibility Score: inf
ROOT
ATOM      1  C   UNL A   1      38.018  21.703  25.391  1.00  0.00     0.042 C 
ENDROOT
BRANCH   1   2
ATOM      2  C   UNL A   1      36.506  21.737  25.169  1.00  0.00     0.118 C 
BRANCH   2   3
ATOM      3  N   UNL A   1      35.769  21.724  26.430  1.00  0.00    -0.351 N 
ATOM      4  C   UNL A   1      34.418  21.871  26.661  1.00  0.00     0.271 C 
ATOM      5  O   UNL A   1      33.974  21.735  27.801  1.00  0.00    -0.267 OA
ATOM      6  H   UNL A   1      36.319  21.590  27.236  1.00  0.00     0.163 HD
BRANCH   4   7
ATOM      7  C   UNL A   1      33.459  22.171  25.562  1.00  0.00     0.147 A 
ATOM      8  C   UNL A   1      31.866  23.516  24.585  1.00  0.00     0.120 A 
ATOM      9  C   UNL A   1      31.817  22.648  23.498  1.00  0.00     0.146 A 
ATOM     10  N   UNL A   1      32.692  23.287  25.630  1.00  0.00    -0.233 NA
ATOM     11  N   UNL A   1      32.536  21.500  23.435  1.00  0.00    -0.259 NA
ATOM     12  C   UNL A   1      33.360  21.283  24.496  1.00  0.00     0.145 A 
BRANCH   8  13
ATOM     13  S   UNL A   1      30.959  25.021  24.635  1.00  0.00    -0.068 SA
BRANCH  13  14
ATOM     14  C   UNL A   1      31.933  26.282  25.452  1.00  0.00     0.017 A 
ATOM     15  C   UNL A   1      34.042  26.394  23.958  1.00  0.00     0.045 C 
ATOM     16  C   UNL A   1      33.206  26.801  25.139  1.00  0.00    -0.037 A 
ATOM     17  C   UNL A   1      33.772  27.783  25.985  1.00  0.00     0.004 A 
ATOM     18  C   UNL A   1      33.086  28.286  27.089  1.00  0.00     0.000 A 
ATOM     19  C   UNL A   1      31.256  26.821  26.569  1.00  0.00     0.016 A 
ATOM     20  C   UNL A   1      31.818  27.813  27.375  1.00  0.00     0.001 A 
ENDBRANCH  13  14
ENDBRANCH   8  13
ENDBRANCH   4   7
ENDBRANCH   2   3
ENDBRANCH   1   2
BRANCH   1  21
ATOM     21  C   UNL A   1      38.524  22.932  26.136  1.00  0.00     0.118 C 
BRANCH  21  22
ATOM     22  N   UNL A   1      39.958  22.915  26.443  1.00  0.00    -0.352 N 
ATOM     23  C   UNL A   1      40.792  23.949  26.836  1.00  0.00     0.251 C 
ATOM     24  H   UNL A   1      40.393  22.035  26.357  1.00  0.00     0.163 HD
ATOM     25  O   UNL A   1      41.976  23.785  26.971  1.00  0.00    -0.269 OA
BRANCH  23  26
ATOM     26  C   UNL A   1      40.178  25.256  27.183  1.00  0.00     0.039 A 
ATOM     27  C   UNL A   1      40.557  26.384  26.440  1.00  0.00     0.014 A 
ATOM     28  C   UNL A   1      39.408  25.403  28.337  1.00  0.00     0.014 A 
ATOM     29  C   UNL A   1      40.365  27.654  26.976  1.00  0.00     0.010 A 
ATOM     30  C   UNL A   1      39.309  26.653  28.916  1.00  0.00     0.010 A 
ATOM     31  C   UNL A   1      39.841  27.769  28.265  1.00  0.00    -0.014 A 
BRANCH  31  32
ATOM     32  C   UNL A   1      39.951  28.987  29.064  1.00  0.00     0.031 A 
ATOM     33  C   UNL A   1      38.877  30.009  29.051  1.00  0.00     0.074 A 
ATOM     34  C   UNL A   1      41.014  29.165  29.882  1.00  0.00     0.049 A 
ATOM     35  N   UNL A   1      39.074  31.269  29.259  1.00  0.00    -0.248 NA
ATOM     36  C   UNL A   1      37.479  29.691  28.778  1.00  0.00     0.031 C 
ATOM     37  C   UNL A   1      41.151  30.192  30.916  1.00  0.00     0.029 A 
ATOM     38  N   UNL A   1      42.262  28.555  29.902  1.00  0.00    -0.354 N 
ATOM     39  C   UNL A   1      37.847  31.855  29.473  1.00  0.00     0.074 A 
ATOM     40  C   UNL A   1      36.885  30.854  29.071  1.00  0.00     0.031 C 
ATOM     41  C   UNL A   1      42.454  30.347  31.200  1.00  0.00     0.029 A 
ATOM     42  C   UNL A   1      43.193  29.536  30.252  1.00  0.00     0.049 A 
ATOM     43  H   UNL A   1      42.454  27.609  29.705  1.00  0.00     0.167 HD
ATOM     44  C   UNL A   1      37.768  33.054  30.118  1.00  0.00     0.034 A 
ATOM     45  C   UNL A   1      44.196  29.997  29.446  1.00  0.00     0.034 A 
ATOM     46  C   UNL A   1      39.089  33.548  30.509  1.00  0.00     0.049 A 
ATOM     47  C   UNL A   1      44.154  31.502  29.244  1.00  0.00     0.074 A 
ATOM     48  C   UNL A   1      39.758  33.553  31.722  1.00  0.00     0.029 A 
ATOM     49  N   UNL A   1      40.024  33.905  29.543  1.00  0.00    -0.354 N 
ATOM     50  N   UNL A   1      43.103  32.237  29.479  1.00  0.00    -0.248 NA
ATOM     51  C   UNL A   1      45.274  32.293  28.738  1.00  0.00     0.031 C 
ATOM     52  C   UNL A   1      41.112  33.891  31.478  1.00  0.00     0.029 A 
ATOM     53  C   UNL A   1      41.263  34.110  30.121  1.00  0.00     0.049 A 
ATOM     54  H   UNL A   1      39.830  33.999  28.582  1.00  0.00     0.167 HD
ATOM     55  C   UNL A   1      43.367  33.549  29.175  1.00  0.00     0.074 A 
ATOM     56  C   UNL A   1      44.747  33.533  28.727  1.00  0.00     0.031 C 
ATOM     57  C   UNL A   1      42.412  34.521  29.321  1.00  0.00     0.034 A 
BRANCH  44  58
ATOM     58  C   UNL A   1      36.488  33.623  30.702  1.00  0.00     0.023 A 
ATOM     59  C   UNL A   1      35.558  34.250  29.844  1.00  0.00     0.031 A 
ATOM     60  C   UNL A   1      36.136  33.618  32.064  1.00  0.00     0.131 A 
ATOM     61  C   UNL A   1      34.436  34.936  30.342  1.00  0.00     0.055 A 
ATOM     62  C   UNL A   1      35.049  34.347  32.570  1.00  0.00     0.041 A 
ATOM     63  F   UNL A   1      36.792  32.866  32.957  1.00  0.00    -0.206 F 
ATOM     64  C   UNL A   1      34.202  35.028  31.709  1.00  0.00     0.022 A 
BRANCH  61  65
ATOM     65  S   UNL A   1      33.284  35.705  29.171  1.00  0.00     0.124 S 
ATOM     66  O   UNL A   1      32.605  34.547  28.598  1.00  0.00    -0.237 OA
ATOM     67  O   UNL A   1      32.484  36.559  30.041  1.00  0.00    -0.237 OA
ATOM     68  O   UNL A   1      34.165  36.420  28.249  1.00  0.00    -0.744 OA
ENDBRANCH  61  65
ENDBRANCH  44  58
BRANCH  45  69
ATOM     69  C   UNL A   1      44.677  29.017  28.438  1.00  0.00     0.023 A 
ATOM     70  C   UNL A   1      45.523  27.986  28.891  1.00  0.00     0.031 A 
ATOM     71  C   UNL A   1      44.037  28.849  27.203  1.00  0.00     0.131 A 
ATOM     72  C   UNL A   1      45.583  26.768  28.201  1.00  0.00     0.055 A 
ATOM     73  C   UNL A   1      44.142  27.649  26.488  1.00  0.00     0.041 A 
ATOM     74  F   UNL A   1      43.198  29.784  26.734  1.00  0.00    -0.206 F 
ATOM     75  C   UNL A   1      44.885  26.586  27.006  1.00  0.00     0.022 A 
BRANCH  72  76
ATOM     76  S   UNL A   1      46.375  25.356  29.028  1.00  0.00     0.124 S 
ATOM     77  O   UNL A   1      46.627  25.887  30.363  1.00  0.00    -0.237 OA
ATOM     78  O   UNL A   1      45.346  24.323  28.931  1.00  0.00    -0.237 OA
ATOM     79  O   UNL A   1      47.562  25.103  28.215  1.00  0.00    -0.744 OA
ENDBRANCH  72  76
ENDBRANCH  45  69
BRANCH  57  80
ATOM     80  C   UNL A   1      42.490  35.961  28.843  1.00  0.00     0.023 A 
ATOM     81  C   UNL A   1      43.094  36.995  29.572  1.00  0.00     0.031 A 
ATOM     82  C   UNL A   1      41.998  36.333  27.564  1.00  0.00     0.131 A 
ATOM     83  C   UNL A   1      43.125  38.317  29.083  1.00  0.00     0.055 A 
ATOM     84  C   UNL A   1      42.091  37.631  27.051  1.00  0.00     0.041 A 
ATOM     85  F   UNL A   1      41.414  35.449  26.742  1.00  0.00    -0.206 F 
ATOM     86  C   UNL A   1      42.645  38.640  27.819  1.00  0.00     0.022 A 
BRANCH  83  87
ATOM     87  S   UNL A   1      43.763  39.618  30.171  1.00  0.00     0.124 S 
ATOM     88  O   UNL A   1      44.986  40.017  29.480  1.00  0.00    -0.237 OA
ATOM     89  O   UNL A   1      42.680  40.597  30.159  1.00  0.00    -0.237 OA
ATOM     90  O   UNL A   1      43.967  38.935  31.448  1.00  0.00    -0.744 OA
ENDBRANCH  83  87
ENDBRANCH  57  80
ENDBRANCH  31  32
ENDBRANCH  23  26
ENDBRANCH  21  22
ENDBRANCH   1  21
TORSDOF 15
ENDMDL
