MODEL 1
REMARK VINA RESULT:     -12.4      0.000      0.000
REMARK SMILES Cc1ccc(NC(=O)NC[C@@H]2CC[C@@H](C(=O)NCCCNC(=O)c3ccc(-c4c5nc(c(-c6cc(S(=O)(=O)[O-])ccc6F)c6ccc([nH]6)c(-c6cc(S(=O)(=O)[O-])ccc6F)c6nc(c(-c7cc(S(=O)(=O)[O-])ccc7F)c7ccc4[nH]7)C=C6)C=C5)cc3)O2)c(F)c1
REMARK SMILES IDX 19 1 18 2 17 3 15 4 16 5 14 7 11 8 12 9 87 10 13 11 10 12
REMARK SMILES IDX 9 13 6 14 7 15 8 17 5 19 1 20 2 21 3 22 90 23 4 24 88 25
REMARK SMILES IDX 89 26 20 27 21 28 22 29 23 31 24 32 25 33 86 34 26 35 85 36
REMARK SMILES IDX 27 37 28 38 29 39 79 40 30 41 84 42 78 43 80 44 31 45 83 46
REMARK SMILES IDX 77 47 76 48 32 50 64 51 44 52 63 53 45 54 48 55 62 56 81 57
REMARK SMILES IDX 46 58 47 59 61 61 82 62 49 63 33 64 34 65 42 66 35 67 41 68
REMARK SMILES IDX 43 69 40 70 36 71 37 72 38 73 39 74 65 75 66 76 74 77 67 78
REMARK SMILES IDX 73 79 75 80 72 81 68 82 69 83 70 84 71 85 50 86 51 87 59 88
REMARK SMILES IDX 52 89 58 90 60 91 57 92 53 93 54 94 55 95 56 96
REMARK H PARENT 17 6 6 16 9 18 21 30 80 49 48 60
REMARK Flexibility Score: inf
ROOT
ATOM      1  C   UNL A   1      31.167  31.440  25.923  1.00  0.00     0.042 C 
ENDROOT
BRANCH   1   2
ATOM      2  C   UNL A   1      31.387  30.077  25.293  1.00  0.00     0.117 C 
BRANCH   2   3
ATOM      3  N   UNL A   1      30.670  29.951  24.036  1.00  0.00    -0.354 N 
ATOM      4  C   UNL A   1      30.716  28.908  23.153  1.00  0.00     0.249 C 
ATOM      5  O   UNL A   1      30.132  29.013  22.075  1.00  0.00    -0.272 OA
ATOM      6  H   UNL A   1      30.085  30.703  23.791  1.00  0.00     0.163 HD
BRANCH   4   7
ATOM      7  C   UNL A   1      31.546  27.682  23.550  1.00  0.00     0.207 C 
ATOM      8  C   UNL A   1      31.192  25.513  22.744  1.00  0.00     0.138 C 
ATOM      9  C   UNL A   1      32.665  25.846  22.602  1.00  0.00     0.037 C 
ATOM     10  O   UNL A   1      30.707  26.511  23.648  1.00  0.00    -0.363 OA
ATOM     11  C   UNL A   1      32.639  27.351  22.554  1.00  0.00     0.045 C 
BRANCH   8  12
ATOM     12  C   UNL A   1      30.874  24.111  23.298  1.00  0.00     0.149 C 
BRANCH  12  13
ATOM     13  N   UNL A   1      30.269  24.187  24.630  1.00  0.00    -0.335 N 
ATOM     14  N   UNL A   1      32.014  24.343  26.259  1.00  0.00    -0.305 N 
ATOM     15  C   UNL A   1      30.722  24.355  25.880  1.00  0.00     0.319 C 
ATOM     16  H   UNL A   1      32.158  24.790  27.123  1.00  0.00     0.171 HD
ATOM     17  O   UNL A   1      29.887  24.645  26.745  1.00  0.00    -0.249 OA
ATOM     18  H   UNL A   1      29.289  24.092  24.599  1.00  0.00     0.165 HD
BRANCH  14  19
ATOM     19  C   UNL A   1      33.203  23.842  25.708  1.00  0.00     0.078 A 
ATOM     20  C   UNL A   1      36.588  22.764  23.279  1.00  0.00     0.044 C 
ATOM     21  C   UNL A   1      35.497  23.092  24.252  1.00  0.00    -0.048 A 
ATOM     22  C   UNL A   1      35.438  24.333  24.893  1.00  0.00     0.006 A 
ATOM     23  C   UNL A   1      34.471  22.179  24.484  1.00  0.00     0.045 A 
ATOM     24  C   UNL A   1      34.301  24.703  25.623  1.00  0.00     0.029 A 
ATOM     25  C   UNL A   1      33.372  22.542  25.258  1.00  0.00     0.147 A 
ATOM     26  F   UNL A   1      32.491  21.594  25.595  1.00  0.00    -0.205 F 
ENDBRANCH  14  19
ENDBRANCH  12  13
ENDBRANCH   8  12
ENDBRANCH   4   7
ENDBRANCH   2   3
ENDBRANCH   1   2
BRANCH   1  27
ATOM     27  C   UNL A   1      32.258  31.810  26.912  1.00  0.00     0.118 C 
BRANCH  27  28
ATOM     28  N   UNL A   1      32.296  33.243  27.175  1.00  0.00    -0.352 N 
ATOM     29  C   UNL A   1      33.120  33.959  28.007  1.00  0.00     0.251 C 
ATOM     30  H   UNL A   1      31.632  33.777  26.682  1.00  0.00     0.163 HD
ATOM     31  O   UNL A   1      32.845  35.119  28.285  1.00  0.00    -0.269 OA
BRANCH  29  32
ATOM     32  C   UNL A   1      34.316  33.305  28.572  1.00  0.00     0.039 A 
ATOM     33  C   UNL A   1      35.542  33.967  28.516  1.00  0.00     0.014 A 
ATOM     34  C   UNL A   1      34.216  32.047  29.171  1.00  0.00     0.014 A 
ATOM     35  C   UNL A   1      36.657  33.393  29.125  1.00  0.00     0.010 A 
ATOM     36  C   UNL A   1      35.298  31.529  29.867  1.00  0.00     0.010 A 
ATOM     37  C   UNL A   1      36.534  32.189  29.840  1.00  0.00    -0.014 A 
BRANCH  37  38
ATOM     38  C   UNL A   1      37.690  31.593  30.553  1.00  0.00     0.031 A 
ATOM     39  C   UNL A   1      38.542  30.562  29.869  1.00  0.00     0.074 A 
ATOM     40  C   UNL A   1      37.928  31.934  31.833  1.00  0.00     0.049 A 
ATOM     41  N   UNL A   1      39.559  29.884  30.336  1.00  0.00    -0.248 NA
ATOM     42  C   UNL A   1      38.177  30.222  28.486  1.00  0.00     0.031 C 
ATOM     43  C   UNL A   1      37.145  32.895  32.612  1.00  0.00     0.029 A 
ATOM     44  N   UNL A   1      38.900  31.514  32.704  1.00  0.00    -0.354 N 
ATOM     45  C   UNL A   1      39.945  29.030  29.310  1.00  0.00     0.074 A 
ATOM     46  C   UNL A   1      38.998  29.217  28.232  1.00  0.00     0.031 C 
ATOM     47  C   UNL A   1      37.698  33.029  33.828  1.00  0.00     0.029 A 
ATOM     48  C   UNL A   1      38.838  32.124  33.935  1.00  0.00     0.049 A 
ATOM     49  H   UNL A   1      39.577  30.838  32.471  1.00  0.00     0.167 HD
ATOM     50  C   UNL A   1      41.010  28.190  29.260  1.00  0.00     0.034 A 
ATOM     51  C   UNL A   1      39.612  31.968  35.026  1.00  0.00     0.034 A 
ATOM     52  C   UNL A   1      41.939  28.017  30.350  1.00  0.00     0.049 A 
ATOM     53  C   UNL A   1      40.753  30.985  34.973  1.00  0.00     0.074 A 
ATOM     54  C   UNL A   1      43.082  27.238  30.396  1.00  0.00     0.029 A 
ATOM     55  N   UNL A   1      41.823  28.622  31.597  1.00  0.00    -0.354 N 
ATOM     56  N   UNL A   1      41.144  30.223  33.978  1.00  0.00    -0.248 NA
ATOM     57  C   UNL A   1      41.558  30.848  36.191  1.00  0.00     0.031 C 
ATOM     58  C   UNL A   1      43.603  27.302  31.693  1.00  0.00     0.029 A 
ATOM     59  C   UNL A   1      42.845  28.195  32.433  1.00  0.00     0.049 A 
ATOM     60  H   UNL A   1      41.117  29.260  31.849  1.00  0.00     0.167 HD
ATOM     61  C   UNL A   1      42.265  29.541  34.440  1.00  0.00     0.074 A 
ATOM     62  C   UNL A   1      42.489  29.990  35.801  1.00  0.00     0.031 C 
ATOM     63  C   UNL A   1      43.045  28.634  33.797  1.00  0.00     0.034 A 
BRANCH  50  64
ATOM     64  C   UNL A   1      41.184  27.376  27.995  1.00  0.00     0.023 A 
ATOM     65  C   UNL A   1      40.802  26.022  27.929  1.00  0.00     0.031 A 
ATOM     66  C   UNL A   1      41.809  27.932  26.867  1.00  0.00     0.131 A 
ATOM     67  C   UNL A   1      41.156  25.246  26.816  1.00  0.00     0.055 A 
ATOM     68  C   UNL A   1      42.062  27.180  25.716  1.00  0.00     0.041 A 
ATOM     69  F   UNL A   1      42.218  29.211  26.870  1.00  0.00    -0.206 F 
ATOM     70  C   UNL A   1      41.757  25.821  25.697  1.00  0.00     0.022 A 
BRANCH  67  71
ATOM     71  S   UNL A   1      41.012  23.441  26.945  1.00  0.00     0.124 S 
ATOM     72  O   UNL A   1      41.554  23.198  28.281  1.00  0.00    -0.237 OA
ATOM     73  O   UNL A   1      39.579  23.227  26.786  1.00  0.00    -0.237 OA
ATOM     74  O   UNL A   1      41.844  22.953  25.848  1.00  0.00    -0.744 OA
ENDBRANCH  67  71
ENDBRANCH  50  64
BRANCH  51  75
ATOM     75  C   UNL A   1      39.349  32.774  36.251  1.00  0.00     0.023 A 
ATOM     76  C   UNL A   1      38.500  32.289  37.257  1.00  0.00     0.031 A 
ATOM     77  C   UNL A   1      39.930  34.042  36.430  1.00  0.00     0.131 A 
ATOM     78  C   UNL A   1      38.228  33.079  38.383  1.00  0.00     0.055 A 
ATOM     79  C   UNL A   1      39.696  34.803  37.577  1.00  0.00     0.041 A 
ATOM     80  F   UNL A   1      40.755  34.549  35.500  1.00  0.00    -0.206 F 
ATOM     81  C   UNL A   1      38.832  34.326  38.558  1.00  0.00     0.022 A 
BRANCH  78  82
ATOM     82  S   UNL A   1      37.019  32.477  39.593  1.00  0.00     0.124 S 
ATOM     83  O   UNL A   1      37.229  33.398  40.705  1.00  0.00    -0.237 OA
ATOM     84  O   UNL A   1      35.762  32.624  38.867  1.00  0.00    -0.237 OA
ATOM     85  O   UNL A   1      37.437  31.097  39.835  1.00  0.00    -0.744 OA
ENDBRANCH  78  82
ENDBRANCH  51  75
BRANCH  63  86
ATOM     86  C   UNL A   1      44.241  28.099  34.550  1.00  0.00     0.023 A 
ATOM     87  C   UNL A   1      44.167  26.933  35.333  1.00  0.00     0.031 A 
ATOM     88  C   UNL A   1      45.472  28.776  34.492  1.00  0.00     0.131 A 
ATOM     89  C   UNL A   1      45.283  26.516  36.073  1.00  0.00     0.055 A 
ATOM     90  C   UNL A   1      46.599  28.317  35.174  1.00  0.00     0.041 A 
ATOM     91  F   UNL A   1      45.602  29.899  33.766  1.00  0.00    -0.206 F 
ATOM     92  C   UNL A   1      46.505  27.188  35.982  1.00  0.00     0.022 A 
BRANCH  89  93
ATOM     93  S   UNL A   1      45.089  25.141  37.241  1.00  0.00     0.124 S 
ATOM     94  O   UNL A   1      44.292  25.754  38.299  1.00  0.00    -0.237 OA
ATOM     95  O   UNL A   1      44.410  24.136  36.432  1.00  0.00    -0.237 OA
ATOM     96  O   UNL A   1      46.465  24.812  37.613  1.00  0.00    -0.744 OA
ENDBRANCH  89  93
ENDBRANCH  63  86
ENDBRANCH  37  38
ENDBRANCH  29  32
ENDBRANCH  27  28
ENDBRANCH   1  27
TORSDOF 16
ENDMDL
MODEL 2
REMARK VINA RESULT:     -12.3      5.269      8.395
REMARK SMILES Cc1ccc(NC(=O)NC[C@@H]2CC[C@@H](C(=O)NCCCNC(=O)c3ccc(-c4c5nc(c(-c6cc(S(=O)(=O)[O-])ccc6F)c6ccc([nH]6)c(-c6cc(S(=O)(=O)[O-])ccc6F)c6nc(c(-c7cc(S(=O)(=O)[O-])ccc7F)c7ccc4[nH]7)C=C6)C=C5)cc3)O2)c(F)c1
REMARK SMILES IDX 19 1 18 2 17 3 15 4 16 5 14 7 11 8 12 9 87 10 13 11 10 12
REMARK SMILES IDX 9 13 6 14 7 15 8 17 5 19 1 20 2 21 3 22 90 23 4 24 88 25
REMARK SMILES IDX 89 26 20 27 21 28 22 29 23 31 24 32 25 33 86 34 26 35 85 36
REMARK SMILES IDX 27 37 28 38 29 39 79 40 30 41 84 42 78 43 80 44 31 45 83 46
REMARK SMILES IDX 77 47 76 48 32 50 64 51 44 52 63 53 45 54 48 55 62 56 81 57
REMARK SMILES IDX 46 58 47 59 61 61 82 62 49 63 33 64 34 65 42 66 35 67 41 68
REMARK SMILES IDX 43 69 40 70 36 71 37 72 38 73 39 74 65 75 66 76 74 77 67 78
REMARK SMILES IDX 73 79 75 80 72 81 68 82 69 83 70 84 71 85 50 86 51 87 59 88
REMARK SMILES IDX 52 89 58 90 60 91 57 92 53 93 54 94 55 95 56 96
REMARK H PARENT 17 6 6 16 9 18 21 30 80 49 48 60
REMARK Flexibility Score: inf
ROOT
ATOM      1  C   UNL A   1      37.034  22.396  24.217  1.00  0.00     0.042 C 
ENDROOT
BRANCH   1   2
ATOM      2  C   UNL A   1      35.570  22.589  23.869  1.00  0.00     0.117 C 
BRANCH   2   3
ATOM      3  N   UNL A   1      34.756  21.499  24.377  1.00  0.00    -0.354 N 
ATOM      4  C   UNL A   1      33.571  21.591  25.053  1.00  0.00     0.249 C 
ATOM      5  O   UNL A   1      33.067  20.567  25.516  1.00  0.00    -0.272 OA
ATOM      6  H   UNL A   1      35.096  20.589  24.218  1.00  0.00     0.163 HD
BRANCH   4   7
ATOM      7  C   UNL A   1      32.968  22.987  25.236  1.00  0.00     0.207 C 
ATOM      8  C   UNL A   1      31.012  23.744  24.196  1.00  0.00     0.138 C 
ATOM      9  C   UNL A   1      30.920  24.052  25.678  1.00  0.00     0.037 C 
ATOM     10  O   UNL A   1      32.401  23.462  23.996  1.00  0.00    -0.363 OA
ATOM     11  C   UNL A   1      31.856  23.029  26.266  1.00  0.00     0.045 C 
BRANCH   8  12
ATOM     12  C   UNL A   1      30.569  24.875  23.248  1.00  0.00     0.149 C 
BRANCH  12  13
ATOM     13  N   UNL A   1      31.473  24.997  22.102  1.00  0.00    -0.335 N 
ATOM     14  N   UNL A   1      33.419  26.210  22.785  1.00  0.00    -0.305 N 
ATOM     15  C   UNL A   1      32.703  25.490  21.899  1.00  0.00     0.319 C 
ATOM     16  H   UNL A   1      34.383  26.201  22.585  1.00  0.00     0.171 HD
ATOM     17  O   UNL A   1      33.269  25.172  20.847  1.00  0.00    -0.249 OA
ATOM     18  H   UNL A   1      31.082  24.626  21.279  1.00  0.00     0.165 HD
BRANCH  14  19
ATOM     19  C   UNL A   1      33.112  26.968  23.924  1.00  0.00     0.078 A 
ATOM     20  C   UNL A   1      31.607  28.607  27.607  1.00  0.00     0.044 C 
ATOM     21  C   UNL A   1      32.252  28.142  26.337  1.00  0.00    -0.048 A 
ATOM     22  C   UNL A   1      33.249  27.162  26.342  1.00  0.00     0.006 A 
ATOM     23  C   UNL A   1      31.816  28.636  25.111  1.00  0.00     0.045 A 
ATOM     24  C   UNL A   1      33.682  26.583  25.141  1.00  0.00     0.029 A 
ATOM     25  C   UNL A   1      32.297  28.089  23.924  1.00  0.00     0.147 A 
ATOM     26  F   UNL A   1      31.984  28.692  22.772  1.00  0.00    -0.205 F 
ENDBRANCH  14  19
ENDBRANCH  12  13
ENDBRANCH   8  12
ENDBRANCH   4   7
ENDBRANCH   2   3
ENDBRANCH   1   2
BRANCH   1  27
ATOM     27  C   UNL A   1      37.269  22.276  25.713  1.00  0.00     0.118 C 
BRANCH  27  28
ATOM     28  N   UNL A   1      38.344  21.343  26.025  1.00  0.00    -0.352 N 
ATOM     29  C   UNL A   1      39.628  21.594  26.440  1.00  0.00     0.251 C 
ATOM     30  H   UNL A   1      38.115  20.391  25.924  1.00  0.00     0.163 HD
ATOM     31  O   UNL A   1      40.462  20.698  26.417  1.00  0.00    -0.269 OA
BRANCH  29  32
ATOM     32  C   UNL A   1      39.986  22.954  26.888  1.00  0.00     0.039 A 
ATOM     33  C   UNL A   1      40.825  23.106  27.992  1.00  0.00     0.014 A 
ATOM     34  C   UNL A   1      39.505  24.072  26.203  1.00  0.00     0.014 A 
ATOM     35  C   UNL A   1      41.236  24.385  28.366  1.00  0.00     0.010 A 
ATOM     36  C   UNL A   1      40.000  25.331  26.509  1.00  0.00     0.010 A 
ATOM     37  C   UNL A   1      40.859  25.504  27.603  1.00  0.00    -0.014 A 
BRANCH  37  38
ATOM     38  C   UNL A   1      41.338  26.866  27.940  1.00  0.00     0.031 A 
ATOM     39  C   UNL A   1      42.758  27.257  27.642  1.00  0.00     0.074 A 
ATOM     40  C   UNL A   1      40.513  27.723  28.570  1.00  0.00     0.049 A 
ATOM     41  N   UNL A   1      43.383  28.376  27.906  1.00  0.00    -0.248 NA
ATOM     42  C   UNL A   1      43.596  26.239  26.991  1.00  0.00     0.031 C 
ATOM     43  C   UNL A   1      39.126  27.440  28.945  1.00  0.00     0.029 A 
ATOM     44  N   UNL A   1      40.719  29.007  29.004  1.00  0.00    -0.354 N 
ATOM     45  C   UNL A   1      44.689  28.190  27.468  1.00  0.00     0.074 A 
ATOM     46  C   UNL A   1      44.782  26.823  27.002  1.00  0.00     0.031 C 
ATOM     47  C   UNL A   1      38.591  28.536  29.505  1.00  0.00     0.029 A 
ATOM     48  C   UNL A   1      39.610  29.578  29.582  1.00  0.00     0.049 A 
ATOM     49  H   UNL A   1      41.581  29.475  28.911  1.00  0.00     0.167 HD
ATOM     50  C   UNL A   1      45.708  29.086  27.429  1.00  0.00     0.034 A 
ATOM     51  C   UNL A   1      39.437  30.803  30.116  1.00  0.00     0.034 A 
ATOM     52  C   UNL A   1      45.591  30.444  27.904  1.00  0.00     0.049 A 
ATOM     53  C   UNL A   1      40.597  31.764  30.120  1.00  0.00     0.074 A 
ATOM     54  C   UNL A   1      46.534  31.455  27.867  1.00  0.00     0.029 A 
ATOM     55  N   UNL A   1      44.464  30.976  28.521  1.00  0.00    -0.354 N 
ATOM     56  N   UNL A   1      41.813  31.598  29.650  1.00  0.00    -0.248 NA
ATOM     57  C   UNL A   1      40.357  33.080  30.721  1.00  0.00     0.031 C 
ATOM     58  C   UNL A   1      46.011  32.566  28.538  1.00  0.00     0.029 A 
ATOM     59  C   UNL A   1      44.706  32.285  28.910  1.00  0.00     0.049 A 
ATOM     60  H   UNL A   1      43.617  30.493  28.659  1.00  0.00     0.167 HD
ATOM     61  C   UNL A   1      42.472  32.803  29.870  1.00  0.00     0.074 A 
ATOM     62  C   UNL A   1      41.514  33.688  30.505  1.00  0.00     0.031 C 
ATOM     63  C   UNL A   1      43.749  33.151  29.565  1.00  0.00     0.034 A 
BRANCH  50  64
ATOM     64  C   UNL A   1      47.034  28.595  26.889  1.00  0.00     0.023 A 
ATOM     65  C   UNL A   1      47.243  28.398  25.510  1.00  0.00     0.031 A 
ATOM     66  C   UNL A   1      48.077  28.247  27.764  1.00  0.00     0.131 A 
ATOM     67  C   UNL A   1      48.408  27.758  25.062  1.00  0.00     0.055 A 
ATOM     68  C   UNL A   1      49.281  27.709  27.299  1.00  0.00     0.041 A 
ATOM     69  F   UNL A   1      47.936  28.390  29.091  1.00  0.00    -0.206 F 
ATOM     70  C   UNL A   1      49.441  27.438  25.943  1.00  0.00     0.022 A 
BRANCH  67  71
ATOM     71  S   UNL A   1      48.455  27.159  23.350  1.00  0.00     0.124 S 
ATOM     72  O   UNL A   1      47.451  28.010  22.712  1.00  0.00    -0.237 OA
ATOM     73  O   UNL A   1      49.840  27.408  22.967  1.00  0.00    -0.237 OA
ATOM     74  O   UNL A   1      48.081  25.752  23.468  1.00  0.00    -0.744 OA
ENDBRANCH  67  71
ENDBRANCH  50  64
BRANCH  51  75
ATOM     75  C   UNL A   1      38.112  31.196  30.670  1.00  0.00     0.023 A 
ATOM     76  C   UNL A   1      37.151  31.814  29.855  1.00  0.00     0.031 A 
ATOM     77  C   UNL A   1      37.790  30.974  32.021  1.00  0.00     0.131 A 
ATOM     78  C   UNL A   1      35.925  32.217  30.404  1.00  0.00     0.055 A 
ATOM     79  C   UNL A   1      36.549  31.332  32.550  1.00  0.00     0.041 A 
ATOM     80  F   UNL A   1      38.673  30.381  32.841  1.00  0.00    -0.206 F 
ATOM     81  C   UNL A   1      35.611  31.967  31.742  1.00  0.00     0.022 A 
BRANCH  78  82
ATOM     82  S   UNL A   1      34.765  33.135  29.354  1.00  0.00     0.124 S 
ATOM     83  O   UNL A   1      34.046  32.053  28.691  1.00  0.00    -0.237 OA
ATOM     84  O   UNL A   1      34.007  33.902  30.337  1.00  0.00    -0.237 OA
ATOM     85  O   UNL A   1      35.640  33.926  28.491  1.00  0.00    -0.744 OA
ENDBRANCH  78  82
ENDBRANCH  51  75
BRANCH  63  86
ATOM     86  C   UNL A   1      44.168  34.569  29.880  1.00  0.00     0.023 A 
ATOM     87  C   UNL A   1      43.969  35.623  28.970  1.00  0.00     0.031 A 
ATOM     88  C   UNL A   1      44.788  34.866  31.107  1.00  0.00     0.131 A 
ATOM     89  C   UNL A   1      44.440  36.908  29.276  1.00  0.00     0.055 A 
ATOM     90  C   UNL A   1      45.191  36.160  31.435  1.00  0.00     0.041 A 
ATOM     91  F   UNL A   1      45.010  33.899  32.012  1.00  0.00    -0.206 F 
ATOM     92  C   UNL A   1      45.031  37.189  30.511  1.00  0.00     0.022 A 
BRANCH  89  93
ATOM     93  S   UNL A   1      44.367  38.190  27.994  1.00  0.00     0.124 S 
ATOM     94  O   UNL A   1      45.772  38.334  27.629  1.00  0.00    -0.237 OA
ATOM     95  O   UNL A   1      43.506  37.578  26.989  1.00  0.00    -0.237 OA
ATOM     96  O   UNL A   1      43.786  39.338  28.690  1.00  0.00    -0.744 OA
ENDBRANCH  89  93
ENDBRANCH  63  86
ENDBRANCH  37  38
ENDBRANCH  29  32
ENDBRANCH  27  28
ENDBRANCH   1  27
TORSDOF 16
ENDMDL
MODEL 3
REMARK VINA RESULT:     -12.3      0.595      7.475
REMARK SMILES Cc1ccc(NC(=O)NC[C@@H]2CC[C@@H](C(=O)NCCCNC(=O)c3ccc(-c4c5nc(c(-c6cc(S(=O)(=O)[O-])ccc6F)c6ccc([nH]6)c(-c6cc(S(=O)(=O)[O-])ccc6F)c6nc(c(-c7cc(S(=O)(=O)[O-])ccc7F)c7ccc4[nH]7)C=C6)C=C5)cc3)O2)c(F)c1
REMARK SMILES IDX 19 1 18 2 17 3 15 4 16 5 14 7 11 8 12 9 87 10 13 11 10 12
REMARK SMILES IDX 9 13 6 14 7 15 8 17 5 19 1 20 2 21 3 22 90 23 4 24 88 25
REMARK SMILES IDX 89 26 20 27 21 28 22 29 23 31 24 32 25 33 86 34 26 35 85 36
REMARK SMILES IDX 27 37 28 38 29 39 79 40 30 41 84 42 78 43 80 44 31 45 83 46
REMARK SMILES IDX 77 47 76 48 32 50 64 51 44 52 63 53 45 54 48 55 62 56 81 57
REMARK SMILES IDX 46 58 47 59 61 61 82 62 49 63 33 64 34 65 42 66 35 67 41 68
REMARK SMILES IDX 43 69 40 70 36 71 37 72 38 73 39 74 65 75 66 76 74 77 67 78
REMARK SMILES IDX 73 79 75 80 72 81 68 82 69 83 70 84 71 85 50 86 51 87 59 88
REMARK SMILES IDX 52 89 58 90 60 91 57 92 53 93 54 94 55 95 56 96
REMARK H PARENT 17 6 6 16 9 18 21 30 80 49 48 60
REMARK Flexibility Score: inf
ROOT
ATOM      1  C   UNL A   1      31.508  31.802  26.497  1.00  0.00     0.042 C 
ENDROOT
BRANCH   1   2
ATOM      2  C   UNL A   1      31.712  30.484  25.772  1.00  0.00     0.117 C 
BRANCH   2   3
ATOM      3  N   UNL A   1      30.775  30.333  24.672  1.00  0.00    -0.354 N 
ATOM      4  C   UNL A   1      30.661  29.273  23.816  1.00  0.00     0.249 C 
ATOM      5  O   UNL A   1      29.887  29.356  22.863  1.00  0.00    -0.272 OA
ATOM      6  H   UNL A   1      30.151  31.080  24.525  1.00  0.00     0.163 HD
BRANCH   4   7
ATOM      7  C   UNL A   1      31.555  28.056  24.076  1.00  0.00     0.207 C 
ATOM      8  C   UNL A   1      31.345  25.990  22.996  1.00  0.00     0.138 C 
ATOM      9  C   UNL A   1      32.798  26.421  22.932  1.00  0.00     0.037 C 
ATOM     10  O   UNL A   1      30.786  26.836  24.006  1.00  0.00    -0.363 OA
ATOM     11  C   UNL A   1      32.683  27.916  23.072  1.00  0.00     0.045 C 
BRANCH   8  12
ATOM     12  C   UNL A   1      31.101  24.513  23.361  1.00  0.00     0.149 C 
BRANCH  12  13
ATOM     13  N   UNL A   1      30.387  24.389  24.634  1.00  0.00    -0.335 N 
ATOM     14  N   UNL A   1      31.991  24.155  26.395  1.00  0.00    -0.305 N 
ATOM     15  C   UNL A   1      30.737  24.307  25.926  1.00  0.00     0.319 C 
ATOM     16  H   UNL A   1      32.078  24.434  27.334  1.00  0.00     0.171 HD
ATOM     17  O   UNL A   1      29.844  24.489  26.762  1.00  0.00    -0.249 OA
ATOM     18  H   UNL A   1      29.411  24.357  24.512  1.00  0.00     0.165 HD
BRANCH  14  19
ATOM     19  C   UNL A   1      33.199  23.691  25.856  1.00  0.00     0.078 A 
ATOM     20  C   UNL A   1      36.602  22.646  23.437  1.00  0.00     0.044 C 
ATOM     21  C   UNL A   1      35.510  22.979  24.407  1.00  0.00    -0.048 A 
ATOM     22  C   UNL A   1      35.378  24.263  24.945  1.00  0.00     0.006 A 
ATOM     23  C   UNL A   1      34.556  22.021  24.741  1.00  0.00     0.045 A 
ATOM     24  C   UNL A   1      34.233  24.615  25.672  1.00  0.00     0.029 A 
ATOM     25  C   UNL A   1      33.450  22.372  25.511  1.00  0.00     0.147 A 
ATOM     26  F   UNL A   1      32.644  21.399  25.947  1.00  0.00    -0.205 F 
ENDBRANCH  14  19
ENDBRANCH  12  13
ENDBRANCH   8  12
ENDBRANCH   4   7
ENDBRANCH   2   3
ENDBRANCH   1   2
BRANCH   1  27
ATOM     27  C   UNL A   1      32.750  32.255  27.245  1.00  0.00     0.118 C 
BRANCH  27  28
ATOM     28  N   UNL A   1      32.730  33.686  27.521  1.00  0.00    -0.352 N 
ATOM     29  C   UNL A   1      33.432  34.407  28.455  1.00  0.00     0.251 C 
ATOM     30  H   UNL A   1      32.123  34.214  26.953  1.00  0.00     0.163 HD
ATOM     31  O   UNL A   1      33.106  35.560  28.705  1.00  0.00    -0.269 OA
BRANCH  29  32
ATOM     32  C   UNL A   1      34.560  33.766  29.159  1.00  0.00     0.039 A 
ATOM     33  C   UNL A   1      34.298  32.741  30.068  1.00  0.00     0.014 A 
ATOM     34  C   UNL A   1      35.872  34.169  28.902  1.00  0.00     0.014 A 
ATOM     35  C   UNL A   1      35.364  32.075  30.671  1.00  0.00     0.010 A 
ATOM     36  C   UNL A   1      36.930  33.436  29.419  1.00  0.00     0.010 A 
ATOM     37  C   UNL A   1      36.688  32.389  30.319  1.00  0.00    -0.014 A 
BRANCH  37  38
ATOM     38  C   UNL A   1      37.836  31.649  30.895  1.00  0.00     0.031 A 
ATOM     39  C   UNL A   1      38.293  31.944  32.296  1.00  0.00     0.074 A 
ATOM     40  C   UNL A   1      38.503  30.761  30.134  1.00  0.00     0.049 A 
ATOM     41  N   UNL A   1      39.306  31.447  32.960  1.00  0.00    -0.248 NA
ATOM     42  C   UNL A   1      37.530  32.961  33.033  1.00  0.00     0.031 C 
ATOM     43  C   UNL A   1      38.174  30.420  28.747  1.00  0.00     0.029 A 
ATOM     44  N   UNL A   1      39.593  29.979  30.418  1.00  0.00    -0.354 N 
ATOM     45  C   UNL A   1      39.308  32.101  34.186  1.00  0.00     0.074 A 
ATOM     46  C   UNL A   1      38.250  33.087  34.135  1.00  0.00     0.031 C 
ATOM     47  C   UNL A   1      39.012  29.462  28.321  1.00  0.00     0.029 A 
ATOM     48  C   UNL A   1      39.970  29.161  29.379  1.00  0.00     0.049 A 
ATOM     49  H   UNL A   1      40.061  30.003  31.284  1.00  0.00     0.167 HD
ATOM     50  C   UNL A   1      40.099  31.878  35.266  1.00  0.00     0.034 A 
ATOM     51  C   UNL A   1      40.978  28.271  29.291  1.00  0.00     0.034 A 
ATOM     52  C   UNL A   1      41.151  30.891  35.291  1.00  0.00     0.049 A 
ATOM     53  C   UNL A   1      41.885  28.081  30.479  1.00  0.00     0.074 A 
ATOM     54  C   UNL A   1      41.979  30.538  36.341  1.00  0.00     0.029 A 
ATOM     55  N   UNL A   1      41.532  30.107  34.207  1.00  0.00    -0.354 N 
ATOM     56  N   UNL A   1      41.843  28.664  31.655  1.00  0.00    -0.248 NA
ATOM     57  C   UNL A   1      42.971  27.107  30.326  1.00  0.00     0.031 C 
ATOM     58  C   UNL A   1      42.915  29.611  35.869  1.00  0.00     0.029 A 
ATOM     59  C   UNL A   1      42.613  29.309  34.550  1.00  0.00     0.049 A 
ATOM     60  H   UNL A   1      41.096  30.119  33.324  1.00  0.00     0.167 HD
ATOM     61  C   UNL A   1      42.878  28.101  32.395  1.00  0.00     0.074 A 
ATOM     62  C   UNL A   1      43.519  27.126  31.532  1.00  0.00     0.031 C 
ATOM     63  C   UNL A   1      43.259  28.356  33.673  1.00  0.00     0.034 A 
BRANCH  50  64
ATOM     64  C   UNL A   1      39.867  32.753  36.480  1.00  0.00     0.023 A 
ATOM     65  C   UNL A   1      39.065  32.326  37.556  1.00  0.00     0.031 A 
ATOM     66  C   UNL A   1      40.388  34.057  36.531  1.00  0.00     0.131 A 
ATOM     67  C   UNL A   1      38.710  33.230  38.568  1.00  0.00     0.055 A 
ATOM     68  C   UNL A   1      40.118  34.918  37.599  1.00  0.00     0.041 A 
ATOM     69  F   UNL A   1      41.143  34.534  35.530  1.00  0.00    -0.206 F 
ATOM     70  C   UNL A   1      39.254  34.514  38.613  1.00  0.00     0.022 A 
BRANCH  67  71
ATOM     71  S   UNL A   1      37.365  32.772  39.697  1.00  0.00     0.124 S 
ATOM     72  O   UNL A   1      37.411  33.865  40.667  1.00  0.00    -0.237 OA
ATOM     73  O   UNL A   1      36.205  32.749  38.813  1.00  0.00    -0.237 OA
ATOM     74  O   UNL A   1      37.782  31.472  40.217  1.00  0.00    -0.744 OA
ENDBRANCH  67  71
ENDBRANCH  50  64
BRANCH  51  75
ATOM     75  C   UNL A   1      41.170  27.480  28.044  1.00  0.00     0.023 A 
ATOM     76  C   UNL A   1      40.825  26.121  28.000  1.00  0.00     0.031 A 
ATOM     77  C   UNL A   1      41.710  28.064  26.884  1.00  0.00     0.131 A 
ATOM     78  C   UNL A   1      41.053  25.380  26.831  1.00  0.00     0.055 A 
ATOM     79  C   UNL A   1      41.888  27.334  25.708  1.00  0.00     0.041 A 
ATOM     80  F   UNL A   1      42.051  29.363  26.873  1.00  0.00    -0.206 F 
ATOM     81  C   UNL A   1      41.568  25.980  25.680  1.00  0.00     0.022 A 
BRANCH  78  82
ATOM     82  S   UNL A   1      40.724  23.597  26.857  1.00  0.00     0.124 S 
ATOM     83  O   UNL A   1      41.657  23.109  25.847  1.00  0.00    -0.237 OA
ATOM     84  O   UNL A   1      41.034  23.250  28.239  1.00  0.00    -0.237 OA
ATOM     85  O   UNL A   1      39.310  23.507  26.498  1.00  0.00    -0.744 OA
ENDBRANCH  78  82
ENDBRANCH  51  75
BRANCH  63  86
ATOM     86  C   UNL A   1      44.399  27.535  34.228  1.00  0.00     0.023 A 
ATOM     87  C   UNL A   1      44.179  26.337  34.932  1.00  0.00     0.031 A 
ATOM     88  C   UNL A   1      45.727  27.965  34.058  1.00  0.00     0.131 A 
ATOM     89  C   UNL A   1      45.265  25.646  35.491  1.00  0.00     0.055 A 
ATOM     90  C   UNL A   1      46.808  27.236  34.556  1.00  0.00     0.041 A 
ATOM     91  F   UNL A   1      45.998  29.104  33.400  1.00  0.00    -0.206 F 
ATOM     92  C   UNL A   1      46.579  26.077  35.291  1.00  0.00     0.022 A 
BRANCH  89  93
ATOM     93  S   UNL A   1      44.930  24.232  36.578  1.00  0.00     0.124 S 
ATOM     94  O   UNL A   1      44.135  24.846  37.637  1.00  0.00    -0.237 OA
ATOM     95  O   UNL A   1      44.216  23.320  35.692  1.00  0.00    -0.237 OA
ATOM     96  O   UNL A   1      46.263  23.787  36.982  1.00  0.00    -0.744 OA
ENDBRANCH  89  93
ENDBRANCH  63  86
ENDBRANCH  37  38
ENDBRANCH  29  32
ENDBRANCH  27  28
ENDBRANCH   1  27
TORSDOF 16
ENDMDL
