MODEL 1
REMARK VINA RESULT:     -11.8      0.000      0.000
REMARK SMILES [NH3+][C@@H](Cc1ccc(F)cc1C(F)(F)F)C(=O)NCCCNC(=O)c1ccc(-c2c3nc(c(-c4cc(S(=O)(=O)[O-])ccc4F)c4ccc([nH]4)c(-c4cc(S(=O)(=O)[O-])ccc4F)c4nc(c(-c5cc(S(=O)(=O)[O-])ccc5F)c5ccc2[nH]5)C=C4)C=C3)cc1
REMARK SMILES IDX 19 1 18 2 17 3 15 4 16 5 2 7 1 8 3 12 4 13 5 14 10 15 6 16
REMARK SMILES IDX 9 17 7 18 8 19 11 20 12 21 13 22 14 23 20 24 21 25 22 26
REMARK SMILES IDX 23 28 24 29 25 30 86 31 26 32 85 33 27 34 28 35 29 36 79 37
REMARK SMILES IDX 30 38 84 39 78 40 80 41 31 42 83 43 77 44 76 45 32 47 64 48
REMARK SMILES IDX 44 49 63 50 45 51 48 52 62 53 81 54 46 55 47 56 61 58 82 59
REMARK SMILES IDX 49 60 33 61 34 62 42 63 35 64 41 65 43 66 40 67 36 68 37 69
REMARK SMILES IDX 38 70 39 71 65 72 66 73 74 74 67 75 73 76 75 77 72 78 68 79
REMARK SMILES IDX 69 80 70 81 71 82 50 83 51 84 59 85 52 86 58 87 60 88 57 89
REMARK SMILES IDX 53 90 54 91 55 92 56 93
REMARK H PARENT 17 6 1 9 1 10 1 11 21 27 80 46 48 57
REMARK Flexibility Score: inf
ROOT
ATOM      1  C   UNL A   1      34.400  21.819  26.975  1.00  0.00     0.042 C 
ENDROOT
BRANCH   1   2
ATOM      2  C   UNL A   1      33.063  21.963  26.295  1.00  0.00     0.118 C 
BRANCH   2   3
ATOM      3  N   UNL A   1      31.939  22.260  27.144  1.00  0.00    -0.351 N 
ATOM      4  C   UNL A   1      30.873  23.078  26.882  1.00  0.00     0.278 C 
ATOM      5  O   UNL A   1      29.877  22.953  27.601  1.00  0.00    -0.268 OA
ATOM      6  H   UNL A   1      31.937  21.820  28.024  1.00  0.00     0.163 HD
BRANCH   4   7
ATOM      7  C   UNL A   1      30.900  24.136  25.748  1.00  0.00     0.275 C 
BRANCH   7   8
ATOM      8  N   UNL A   1      30.653  23.516  24.428  1.00  0.00    -0.347 N 
ATOM      9  H   UNL A   1      31.242  22.689  24.325  1.00  0.00     0.345 HD
ATOM     10  H   UNL A   1      30.875  24.185  23.691  1.00  0.00     0.345 HD
ATOM     11  H   UNL A   1      29.672  23.246  24.357  1.00  0.00     0.345 HD
ENDBRANCH   7   8
BRANCH   7  12
ATOM     12  C   UNL A   1      30.180  25.489  26.017  1.00  0.00     0.111 C 
BRANCH  12  13
ATOM     13  C   UNL A   1      30.387  26.660  25.071  1.00  0.00    -0.029 A 
ATOM     14  C   UNL A   1      29.516  26.748  23.957  1.00  0.00     0.007 A 
ATOM     15  C   UNL A   1      31.335  27.696  25.277  1.00  0.00     0.062 A 
ATOM     16  C   UNL A   1      29.510  27.870  23.126  1.00  0.00     0.039 A 
ATOM     17  C   UNL A   1      31.324  28.808  24.400  1.00  0.00     0.052 A 
ATOM     18  C   UNL A   1      30.408  28.895  23.361  1.00  0.00     0.123 A 
ATOM     19  F   UNL A   1      30.378  29.992  22.594  1.00  0.00    -0.207 F 
BRANCH  15  20
ATOM     20  C   UNL A   1      32.333  27.783  26.418  1.00  0.00     0.416 C 
ATOM     21  F   UNL A   1      33.107  26.665  26.500  1.00  0.00    -0.166 F 
ATOM     22  F   UNL A   1      33.198  28.824  26.251  1.00  0.00    -0.166 F 
ATOM     23  F   UNL A   1      31.800  27.950  27.655  1.00  0.00    -0.166 F 
ENDBRANCH  15  20
ENDBRANCH  12  13
ENDBRANCH   7  12
ENDBRANCH   4   7
ENDBRANCH   2   3
ENDBRANCH   1   2
BRANCH   1  24
ATOM     24  C   UNL A   1      35.562  22.279  26.119  1.00  0.00     0.118 C 
BRANCH  24  25
ATOM     25  N   UNL A   1      36.529  21.221  25.830  1.00  0.00    -0.352 N 
ATOM     26  C   UNL A   1      37.900  21.246  25.749  1.00  0.00     0.251 C 
ATOM     27  H   UNL A   1      36.127  20.338  25.665  1.00  0.00     0.163 HD
ATOM     28  O   UNL A   1      38.491  20.251  25.331  1.00  0.00    -0.269 OA
BRANCH  26  29
ATOM     29  C   UNL A   1      38.657  22.455  26.138  1.00  0.00     0.039 A 
ATOM     30  C   UNL A   1      39.829  22.325  26.887  1.00  0.00     0.014 A 
ATOM     31  C   UNL A   1      38.210  23.725  25.774  1.00  0.00     0.014 A 
ATOM     32  C   UNL A   1      40.571  23.464  27.210  1.00  0.00     0.010 A 
ATOM     33  C   UNL A   1      39.025  24.830  25.954  1.00  0.00     0.010 A 
ATOM     34  C   UNL A   1      40.193  24.723  26.714  1.00  0.00    -0.014 A 
BRANCH  34  35
ATOM     35  C   UNL A   1      40.952  25.954  27.047  1.00  0.00     0.031 A 
ATOM     36  C   UNL A   1      40.321  26.999  27.932  1.00  0.00     0.074 A 
ATOM     37  C   UNL A   1      42.183  26.144  26.532  1.00  0.00     0.049 A 
ATOM     38  N   UNL A   1      40.797  28.158  28.307  1.00  0.00    -0.248 NA
ATOM     39  C   UNL A   1      38.961  26.728  28.434  1.00  0.00     0.031 C 
ATOM     40  C   UNL A   1      42.872  25.225  25.622  1.00  0.00     0.029 A 
ATOM     41  N   UNL A   1      43.083  27.165  26.710  1.00  0.00    -0.354 N 
ATOM     42  C   UNL A   1      39.795  28.748  29.070  1.00  0.00     0.074 A 
ATOM     43  C   UNL A   1      38.654  27.866  29.035  1.00  0.00     0.031 C 
ATOM     44  C   UNL A   1      44.106  25.692  25.374  1.00  0.00     0.029 A 
ATOM     45  C   UNL A   1      44.281  26.966  26.064  1.00  0.00     0.049 A 
ATOM     46  H   UNL A   1      42.888  27.965  27.250  1.00  0.00     0.167 HD
ATOM     47  C   UNL A   1      39.838  29.900  29.778  1.00  0.00     0.034 A 
ATOM     48  C   UNL A   1      45.396  27.723  26.036  1.00  0.00     0.034 A 
ATOM     49  C   UNL A   1      41.001  30.739  29.852  1.00  0.00     0.049 A 
ATOM     50  C   UNL A   1      45.413  29.013  26.812  1.00  0.00     0.074 A 
ATOM     51  C   UNL A   1      41.182  31.888  30.599  1.00  0.00     0.029 A 
ATOM     52  N   UNL A   1      42.181  30.519  29.158  1.00  0.00    -0.354 N 
ATOM     53  N   UNL A   1      44.470  29.531  27.566  1.00  0.00    -0.248 NA
ATOM     54  C   UNL A   1      46.635  29.825  26.733  1.00  0.00     0.031 C 
ATOM     55  C   UNL A   1      42.448  32.399  30.307  1.00  0.00     0.029 A 
ATOM     56  C   UNL A   1      43.081  31.533  29.428  1.00  0.00     0.049 A 
ATOM     57  H   UNL A   1      42.352  29.754  28.562  1.00  0.00     0.167 HD
ATOM     58  C   UNL A   1      44.989  30.724  28.057  1.00  0.00     0.074 A 
ATOM     59  C   UNL A   1      46.332  30.845  27.526  1.00  0.00     0.031 C 
ATOM     60  C   UNL A   1      44.409  31.636  28.875  1.00  0.00     0.034 A 
BRANCH  47  61
ATOM     61  C   UNL A   1      38.603  30.310  30.535  1.00  0.00     0.023 A 
ATOM     62  C   UNL A   1      37.607  31.103  29.937  1.00  0.00     0.031 A 
ATOM     63  C   UNL A   1      38.404  29.882  31.857  1.00  0.00     0.131 A 
ATOM     64  C   UNL A   1      36.478  31.480  30.677  1.00  0.00     0.055 A 
ATOM     65  C   UNL A   1      37.247  30.205  32.566  1.00  0.00     0.041 A 
ATOM     66  F   UNL A   1      39.332  29.140  32.481  1.00  0.00    -0.206 F 
ATOM     67  C   UNL A   1      36.278  31.014  31.979  1.00  0.00     0.022 A 
BRANCH  64  68
ATOM     68  S   UNL A   1      35.309  32.652  29.939  1.00  0.00     0.124 S 
ATOM     69  O   UNL A   1      34.768  31.869  28.832  1.00  0.00    -0.237 OA
ATOM     70  O   UNL A   1      34.391  32.921  31.040  1.00  0.00    -0.237 OA
ATOM     71  O   UNL A   1      36.155  33.777  29.546  1.00  0.00    -0.744 OA
ENDBRANCH  64  68
ENDBRANCH  47  61
BRANCH  48  72
ATOM     72  C   UNL A   1      46.579  27.278  25.250  1.00  0.00     0.023 A 
ATOM     73  C   UNL A   1      46.802  27.753  23.948  1.00  0.00     0.031 A 
ATOM     74  C   UNL A   1      47.517  26.383  25.797  1.00  0.00     0.131 A 
ATOM     75  C   UNL A   1      47.927  27.318  23.228  1.00  0.00     0.055 A 
ATOM     76  C   UNL A   1      48.653  25.983  25.092  1.00  0.00     0.041 A 
ATOM     77  F   UNL A   1      47.354  25.907  27.042  1.00  0.00    -0.206 F 
ATOM     78  C   UNL A   1      48.861  26.448  23.797  1.00  0.00     0.022 A 
BRANCH  75  79
ATOM     79  S   UNL A   1      48.143  27.886  21.520  1.00  0.00     0.124 S 
ATOM     80  O   UNL A   1      46.882  28.576  21.276  1.00  0.00    -0.237 OA
ATOM     81  O   UNL A   1      49.328  28.731  21.626  1.00  0.00    -0.237 OA
ATOM     82  O   UNL A   1      48.332  26.646  20.770  1.00  0.00    -0.744 OA
ENDBRANCH  75  79
ENDBRANCH  48  72
BRANCH  60  83
ATOM     83  C   UNL A   1      45.207  32.852  29.249  1.00  0.00     0.023 A 
ATOM     84  C   UNL A   1      45.100  34.041  28.510  1.00  0.00     0.031 A 
ATOM     85  C   UNL A   1      45.990  32.856  30.417  1.00  0.00     0.131 A 
ATOM     86  C   UNL A   1      45.773  35.190  28.945  1.00  0.00     0.055 A 
ATOM     87  C   UNL A   1      46.623  34.012  30.867  1.00  0.00     0.041 A 
ATOM     88  F   UNL A   1      46.110  31.743  31.160  1.00  0.00    -0.206 F 
ATOM     89  C   UNL A   1      46.515  35.189  30.130  1.00  0.00     0.022 A 
BRANCH  86  90
ATOM     90  S   UNL A   1      45.661  36.695  27.942  1.00  0.00     0.124 S 
ATOM     91  O   UNL A   1      45.568  36.151  26.591  1.00  0.00    -0.237 OA
ATOM     92  O   UNL A   1      44.452  37.332  28.456  1.00  0.00    -0.237 OA
ATOM     93  O   UNL A   1      46.906  37.400  28.243  1.00  0.00    -0.744 OA
ENDBRANCH  86  90
ENDBRANCH  60  83
ENDBRANCH  34  35
ENDBRANCH  26  29
ENDBRANCH  24  25
ENDBRANCH   1  24
TORSDOF 17
ENDMDL
MODEL 2
REMARK VINA RESULT:     -11.8      0.822      7.690
REMARK SMILES [NH3+][C@@H](Cc1ccc(F)cc1C(F)(F)F)C(=O)NCCCNC(=O)c1ccc(-c2c3nc(c(-c4cc(S(=O)(=O)[O-])ccc4F)c4ccc([nH]4)c(-c4cc(S(=O)(=O)[O-])ccc4F)c4nc(c(-c5cc(S(=O)(=O)[O-])ccc5F)c5ccc2[nH]5)C=C4)C=C3)cc1
REMARK SMILES IDX 19 1 18 2 17 3 15 4 16 5 2 7 1 8 3 12 4 13 5 14 10 15 6 16
REMARK SMILES IDX 9 17 7 18 8 19 11 20 12 21 13 22 14 23 20 24 21 25 22 26
REMARK SMILES IDX 23 28 24 29 25 30 86 31 26 32 85 33 27 34 28 35 29 36 79 37
REMARK SMILES IDX 30 38 84 39 78 40 80 41 31 42 83 43 77 44 76 45 32 47 64 48
REMARK SMILES IDX 44 49 63 50 45 51 48 52 62 53 81 54 46 55 47 56 61 58 82 59
REMARK SMILES IDX 49 60 33 61 34 62 42 63 35 64 41 65 43 66 40 67 36 68 37 69
REMARK SMILES IDX 38 70 39 71 65 72 66 73 74 74 67 75 73 76 75 77 72 78 68 79
REMARK SMILES IDX 69 80 70 81 71 82 50 83 51 84 59 85 52 86 58 87 60 88 57 89
REMARK SMILES IDX 53 90 54 91 55 92 56 93
REMARK H PARENT 17 6 1 9 1 10 1 11 21 27 80 46 48 57
REMARK Flexibility Score: inf
ROOT
ATOM      1  C   UNL A   1      35.039  22.332  24.512  1.00  0.00     0.042 C 
ENDROOT
BRANCH   1   2
ATOM      2  C   UNL A   1      33.681  22.906  24.823  1.00  0.00     0.118 C 
BRANCH   2   3
ATOM      3  N   UNL A   1      33.200  22.728  26.168  1.00  0.00    -0.351 N 
ATOM      4  C   UNL A   1      32.095  23.285  26.753  1.00  0.00     0.278 C 
ATOM      5  O   UNL A   1      31.689  22.767  27.798  1.00  0.00    -0.268 OA
ATOM      6  H   UNL A   1      33.735  22.132  26.740  1.00  0.00     0.163 HD
BRANCH   4   7
ATOM      7  C   UNL A   1      31.378  24.524  26.156  1.00  0.00     0.275 C 
BRANCH   7   8
ATOM      8  N   UNL A   1      29.928  24.502  26.456  1.00  0.00    -0.347 N 
ATOM      9  H   UNL A   1      29.612  23.535  26.536  1.00  0.00     0.345 HD
ATOM     10  H   UNL A   1      29.419  24.964  25.702  1.00  0.00     0.345 HD
ATOM     11  H   UNL A   1      29.756  24.991  27.334  1.00  0.00     0.345 HD
ENDBRANCH   7   8
BRANCH   7  12
ATOM     12  C   UNL A   1      32.088  25.900  26.302  1.00  0.00     0.111 C 
BRANCH  12  13
ATOM     13  C   UNL A   1      31.752  27.032  25.347  1.00  0.00    -0.029 A 
ATOM     14  C   UNL A   1      31.482  26.680  24.001  1.00  0.00     0.007 A 
ATOM     15  C   UNL A   1      31.618  28.392  25.734  1.00  0.00     0.062 A 
ATOM     16  C   UNL A   1      30.999  27.618  23.087  1.00  0.00     0.039 A 
ATOM     17  C   UNL A   1      31.155  29.326  24.776  1.00  0.00     0.052 A 
ATOM     18  C   UNL A   1      30.831  28.932  23.485  1.00  0.00     0.123 A 
ATOM     19  F   UNL A   1      30.328  29.827  22.626  1.00  0.00    -0.207 F 
BRANCH  15  20
ATOM     20  C   UNL A   1      31.846  28.953  27.127  1.00  0.00     0.416 C 
ATOM     21  F   UNL A   1      33.115  28.718  27.566  1.00  0.00    -0.166 F 
ATOM     22  F   UNL A   1      31.688  30.307  27.155  1.00  0.00    -0.166 F 
ATOM     23  F   UNL A   1      31.029  28.471  28.096  1.00  0.00    -0.166 F 
ENDBRANCH  15  20
ENDBRANCH  12  13
ENDBRANCH   7  12
ENDBRANCH   4   7
ENDBRANCH   2   3
ENDBRANCH   1   2
BRANCH   1  24
ATOM     24  C   UNL A   1      35.959  22.280  25.714  1.00  0.00     0.118 C 
BRANCH  24  25
ATOM     25  N   UNL A   1      36.964  21.221  25.634  1.00  0.00    -0.352 N 
ATOM     26  C   UNL A   1      38.328  21.254  25.792  1.00  0.00     0.251 C 
ATOM     27  H   UNL A   1      36.600  20.329  25.432  1.00  0.00     0.163 HD
ATOM     28  O   UNL A   1      38.985  20.251  25.517  1.00  0.00    -0.269 OA
BRANCH  26  29
ATOM     29  C   UNL A   1      39.004  22.482  26.264  1.00  0.00     0.039 A 
ATOM     30  C   UNL A   1      40.108  22.380  27.114  1.00  0.00     0.014 A 
ATOM     31  C   UNL A   1      38.544  23.742  25.880  1.00  0.00     0.014 A 
ATOM     32  C   UNL A   1      40.776  23.538  27.519  1.00  0.00     0.010 A 
ATOM     33  C   UNL A   1      39.300  24.871  26.148  1.00  0.00     0.010 A 
ATOM     34  C   UNL A   1      40.398  24.792  27.009  1.00  0.00    -0.014 A 
BRANCH  34  35
ATOM     35  C   UNL A   1      41.080  26.042  27.426  1.00  0.00     0.031 A 
ATOM     36  C   UNL A   1      42.481  26.320  26.943  1.00  0.00     0.074 A 
ATOM     37  C   UNL A   1      40.457  26.903  28.256  1.00  0.00     0.049 A 
ATOM     38  N   UNL A   1      43.264  27.329  27.223  1.00  0.00    -0.248 NA
ATOM     39  C   UNL A   1      43.103  25.317  26.060  1.00  0.00     0.031 C 
ATOM     40  C   UNL A   1      39.121  26.711  28.828  1.00  0.00     0.029 A 
ATOM     41  N   UNL A   1      40.856  28.118  28.752  1.00  0.00    -0.354 N 
ATOM     42  C   UNL A   1      44.462  27.071  26.564  1.00  0.00     0.074 A 
ATOM     43  C   UNL A   1      44.339  25.775  25.943  1.00  0.00     0.031 C 
ATOM     44  C   UNL A   1      38.788  27.798  29.542  1.00  0.00     0.029 A 
ATOM     45  C   UNL A   1      39.902  28.741  29.523  1.00  0.00     0.049 A 
ATOM     46  H   UNL A   1      41.742  28.507  28.574  1.00  0.00     0.167 HD
ATOM     47  C   UNL A   1      45.551  27.866  26.446  1.00  0.00     0.034 A 
ATOM     48  C   UNL A   1      39.922  29.939  30.141  1.00  0.00     0.034 A 
ATOM     49  C   UNL A   1      45.637  29.179  27.021  1.00  0.00     0.049 A 
ATOM     50  C   UNL A   1      41.154  30.797  30.015  1.00  0.00     0.074 A 
ATOM     51  C   UNL A   1      46.660  30.101  26.900  1.00  0.00     0.029 A 
ATOM     52  N   UNL A   1      44.663  29.758  27.820  1.00  0.00    -0.354 N 
ATOM     53  N   UNL A   1      42.258  30.554  29.347  1.00  0.00    -0.248 NA
ATOM     54  C   UNL A   1      41.148  32.082  30.726  1.00  0.00     0.031 C 
ATOM     55  C   UNL A   1      46.334  31.212  27.680  1.00  0.00     0.029 A 
ATOM     56  C   UNL A   1      45.079  31.010  28.234  1.00  0.00     0.049 A 
ATOM     57  H   UNL A   1      43.804  29.341  28.057  1.00  0.00     0.167 HD
ATOM     58  C   UNL A   1      43.075  31.661  29.551  1.00  0.00     0.074 A 
ATOM     59  C   UNL A   1      42.334  32.578  30.393  1.00  0.00     0.031 C 
ATOM     60  C   UNL A   1      44.325  31.898  29.083  1.00  0.00     0.034 A 
BRANCH  47  61
ATOM     61  C   UNL A   1      46.723  27.344  25.659  1.00  0.00     0.023 A 
ATOM     62  C   UNL A   1      46.975  27.779  24.346  1.00  0.00     0.031 A 
ATOM     63  C   UNL A   1      47.614  26.425  26.236  1.00  0.00     0.131 A 
ATOM     64  C   UNL A   1      48.067  27.260  23.636  1.00  0.00     0.055 A 
ATOM     65  C   UNL A   1      48.737  25.962  25.548  1.00  0.00     0.041 A 
ATOM     66  F   UNL A   1      47.409  25.962  27.479  1.00  0.00    -0.206 F 
ATOM     67  C   UNL A   1      48.965  26.374  24.238  1.00  0.00     0.022 A 
BRANCH  64  68
ATOM     68  S   UNL A   1      48.254  27.700  21.888  1.00  0.00     0.124 S 
ATOM     69  O   UNL A   1      49.448  28.538  21.923  1.00  0.00    -0.237 OA
ATOM     70  O   UNL A   1      48.406  26.398  21.248  1.00  0.00    -0.237 OA
ATOM     71  O   UNL A   1      47.011  28.404  21.578  1.00  0.00    -0.744 OA
ENDBRANCH  64  68
ENDBRANCH  47  61
BRANCH  48  72
ATOM     72  C   UNL A   1      38.741  30.392  30.926  1.00  0.00     0.023 A 
ATOM     73  C   UNL A   1      37.708  31.124  30.320  1.00  0.00     0.031 A 
ATOM     74  C   UNL A   1      38.618  30.082  32.293  1.00  0.00     0.131 A 
ATOM     75  C   UNL A   1      36.604  31.538  31.084  1.00  0.00     0.055 A 
ATOM     76  C   UNL A   1      37.502  30.463  33.038  1.00  0.00     0.041 A 
ATOM     77  F   UNL A   1      39.575  29.375  32.917  1.00  0.00    -0.206 F 
ATOM     78  C   UNL A   1      36.488  31.200  32.435  1.00  0.00     0.022 A 
BRANCH  75  79
ATOM     79  S   UNL A   1      35.326  32.552  30.291  1.00  0.00     0.124 S 
ATOM     80  O   UNL A   1      34.960  31.725  29.147  1.00  0.00    -0.237 OA
ATOM     81  O   UNL A   1      34.327  32.667  31.349  1.00  0.00    -0.237 OA
ATOM     82  O   UNL A   1      36.029  33.792  29.966  1.00  0.00    -0.744 OA
ENDBRANCH  75  79
ENDBRANCH  48  72
BRANCH  60  83
ATOM     83  C   UNL A   1      44.985  33.193  29.468  1.00  0.00     0.023 A 
ATOM     84  C   UNL A   1      44.730  34.372  28.751  1.00  0.00     0.031 A 
ATOM     85  C   UNL A   1      45.779  33.268  30.625  1.00  0.00     0.131 A 
ATOM     86  C   UNL A   1      45.272  35.584  29.197  1.00  0.00     0.055 A 
ATOM     87  C   UNL A   1      46.282  34.483  31.087  1.00  0.00     0.041 A 
ATOM     88  F   UNL A   1      46.039  32.165  31.346  1.00  0.00    -0.206 F 
ATOM     89  C   UNL A   1      46.027  35.651  30.372  1.00  0.00     0.022 A 
BRANCH  86  90
ATOM     90  S   UNL A   1      44.972  37.083  28.221  1.00  0.00     0.124 S 
ATOM     91  O   UNL A   1      46.080  37.937  28.634  1.00  0.00    -0.237 OA
ATOM     92  O   UNL A   1      45.028  36.586  26.850  1.00  0.00    -0.237 OA
ATOM     93  O   UNL A   1      43.650  37.521  28.667  1.00  0.00    -0.744 OA
ENDBRANCH  86  90
ENDBRANCH  60  83
ENDBRANCH  34  35
ENDBRANCH  26  29
ENDBRANCH  24  25
ENDBRANCH   1  24
TORSDOF 17
ENDMDL
MODEL 3
REMARK VINA RESULT:     -11.7      5.302     10.199
REMARK SMILES [NH3+][C@@H](Cc1ccc(F)cc1C(F)(F)F)C(=O)NCCCNC(=O)c1ccc(-c2c3nc(c(-c4cc(S(=O)(=O)[O-])ccc4F)c4ccc([nH]4)c(-c4cc(S(=O)(=O)[O-])ccc4F)c4nc(c(-c5cc(S(=O)(=O)[O-])ccc5F)c5ccc2[nH]5)C=C4)C=C3)cc1
REMARK SMILES IDX 19 1 18 2 17 3 15 4 16 5 2 7 1 8 3 12 4 13 5 14 10 15 6 16
REMARK SMILES IDX 9 17 7 18 8 19 11 20 12 21 13 22 14 23 20 24 21 25 22 26
REMARK SMILES IDX 23 28 24 29 25 30 86 31 26 32 85 33 27 34 28 35 29 36 79 37
REMARK SMILES IDX 30 38 84 39 78 40 80 41 31 42 83 43 77 44 76 45 32 47 64 48
REMARK SMILES IDX 44 49 63 50 45 51 48 52 62 53 81 54 46 55 47 56 61 58 82 59
REMARK SMILES IDX 49 60 33 61 34 62 42 63 35 64 41 65 43 66 40 67 36 68 37 69
REMARK SMILES IDX 38 70 39 71 65 72 66 73 74 74 67 75 73 76 75 77 72 78 68 79
REMARK SMILES IDX 69 80 70 81 71 82 50 83 51 84 59 85 52 86 58 87 60 88 57 89
REMARK SMILES IDX 53 90 54 91 55 92 56 93
REMARK H PARENT 17 6 1 9 1 10 1 11 21 27 80 46 48 57
REMARK Flexibility Score: inf
ROOT
ATOM      1  C   UNL A   1      32.640  27.675  24.739  1.00  0.00     0.042 C 
ENDROOT
BRANCH   1   2
ATOM      2  C   UNL A   1      31.951  27.354  23.438  1.00  0.00     0.118 C 
BRANCH   2   3
ATOM      3  N   UNL A   1      32.747  26.699  22.433  1.00  0.00    -0.351 N 
ATOM      4  C   UNL A   1      32.761  25.373  22.096  1.00  0.00     0.278 C 
ATOM      5  O   UNL A   1      33.275  25.072  21.013  1.00  0.00    -0.268 OA
ATOM      6  H   UNL A   1      33.360  27.278  21.925  1.00  0.00     0.163 HD
BRANCH   4   7
ATOM      7  C   UNL A   1      32.179  24.275  23.025  1.00  0.00     0.275 C 
BRANCH   7   8
ATOM      8  N   UNL A   1      30.733  24.075  22.780  1.00  0.00    -0.347 N 
ATOM      9  H   UNL A   1      30.544  24.151  21.780  1.00  0.00     0.345 HD
ATOM     10  H   UNL A   1      30.202  24.788  23.281  1.00  0.00     0.345 HD
ATOM     11  H   UNL A   1      30.457  23.150  23.109  1.00  0.00     0.345 HD
ENDBRANCH   7   8
BRANCH   7  12
ATOM     12  C   UNL A   1      33.026  22.986  23.225  1.00  0.00     0.111 C 
BRANCH  12  13
ATOM     13  C   UNL A   1      34.339  23.052  23.986  1.00  0.00    -0.029 A 
ATOM     14  C   UNL A   1      35.528  23.098  23.216  1.00  0.00     0.007 A 
ATOM     15  C   UNL A   1      34.440  23.147  25.399  1.00  0.00     0.062 A 
ATOM     16  C   UNL A   1      36.770  23.329  23.809  1.00  0.00     0.039 A 
ATOM     17  C   UNL A   1      35.718  23.353  25.975  1.00  0.00     0.052 A 
ATOM     18  C   UNL A   1      36.853  23.464  25.183  1.00  0.00     0.123 A 
ATOM     19  F   UNL A   1      38.034  23.729  25.754  1.00  0.00    -0.207 F 
BRANCH  15  20
ATOM     20  C   UNL A   1      33.283  23.135  26.382  1.00  0.00     0.416 C 
ATOM     21  F   UNL A   1      32.518  24.258  26.278  1.00  0.00    -0.166 F 
ATOM     22  F   UNL A   1      32.440  22.088  26.153  1.00  0.00    -0.166 F 
ATOM     23  F   UNL A   1      33.625  23.046  27.692  1.00  0.00    -0.166 F 
ENDBRANCH  15  20
ENDBRANCH  12  13
ENDBRANCH   7  12
ENDBRANCH   4   7
ENDBRANCH   2   3
ENDBRANCH   1   2
BRANCH   1  24
ATOM     24  C   UNL A   1      33.424  28.971  24.700  1.00  0.00     0.118 C 
BRANCH  24  25
ATOM     25  N   UNL A   1      32.732  30.091  25.335  1.00  0.00    -0.352 N 
ATOM     26  C   UNL A   1      32.978  30.756  26.512  1.00  0.00     0.251 C 
ATOM     27  H   UNL A   1      31.954  30.426  24.834  1.00  0.00     0.163 HD
ATOM     28  O   UNL A   1      32.152  31.572  26.920  1.00  0.00    -0.269 OA
BRANCH  26  29
ATOM     29  C   UNL A   1      34.205  30.483  27.291  1.00  0.00     0.039 A 
ATOM     30  C   UNL A   1      35.060  31.536  27.626  1.00  0.00     0.014 A 
ATOM     31  C   UNL A   1      34.524  29.184  27.687  1.00  0.00     0.014 A 
ATOM     32  C   UNL A   1      36.191  31.284  28.405  1.00  0.00     0.010 A 
ATOM     33  C   UNL A   1      35.551  28.962  28.589  1.00  0.00     0.010 A 
ATOM     34  C   UNL A   1      36.427  30.000  28.924  1.00  0.00    -0.014 A 
BRANCH  34  35
ATOM     35  C   UNL A   1      37.624  29.696  29.746  1.00  0.00     0.031 A 
ATOM     36  C   UNL A   1      38.711  28.819  29.177  1.00  0.00     0.074 A 
ATOM     37  C   UNL A   1      37.718  30.178  31.000  1.00  0.00     0.049 A 
ATOM     38  N   UNL A   1      39.814  28.402  29.744  1.00  0.00    -0.248 NA
ATOM     39  C   UNL A   1      38.522  28.310  27.807  1.00  0.00     0.031 C 
ATOM     40  C   UNL A   1      36.702  30.994  31.672  1.00  0.00     0.029 A 
ATOM     41  N   UNL A   1      38.719  30.067  31.932  1.00  0.00    -0.354 N 
ATOM     42  C   UNL A   1      40.431  27.580  28.807  1.00  0.00     0.074 A 
ATOM     43  C   UNL A   1      39.547  27.484  27.672  1.00  0.00     0.031 C 
ATOM     44  C   UNL A   1      37.160  31.361  32.880  1.00  0.00     0.029 A 
ATOM     45  C   UNL A   1      38.477  30.767  33.091  1.00  0.00     0.049 A 
ATOM     46  H   UNL A   1      39.534  29.534  31.785  1.00  0.00     0.167 HD
ATOM     47  C   UNL A   1      41.650  26.996  28.867  1.00  0.00     0.034 A 
ATOM     48  C   UNL A   1      39.234  30.917  34.197  1.00  0.00     0.034 A 
ATOM     49  C   UNL A   1      42.546  27.149  29.979  1.00  0.00     0.049 A 
ATOM     50  C   UNL A   1      40.576  30.238  34.251  1.00  0.00     0.074 A 
ATOM     51  C   UNL A   1      43.835  26.665  30.113  1.00  0.00     0.029 A 
ATOM     52  N   UNL A   1      42.250  27.838  31.144  1.00  0.00    -0.354 N 
ATOM     53  N   UNL A   1      41.163  29.504  33.335  1.00  0.00    -0.248 NA
ATOM     54  C   UNL A   1      41.358  30.402  35.484  1.00  0.00     0.031 C 
ATOM     55  C   UNL A   1      44.294  27.008  31.386  1.00  0.00     0.029 A 
ATOM     56  C   UNL A   1      43.316  27.760  32.021  1.00  0.00     0.049 A 
ATOM     57  H   UNL A   1      41.406  28.313  31.322  1.00  0.00     0.167 HD
ATOM     58  C   UNL A   1      42.386  29.124  33.877  1.00  0.00     0.074 A 
ATOM     59  C   UNL A   1      42.461  29.720  35.196  1.00  0.00     0.031 C 
ATOM     60  C   UNL A   1      43.360  28.353  33.334  1.00  0.00     0.034 A 
BRANCH  47  61
ATOM     61  C   UNL A   1      42.088  26.155  27.698  1.00  0.00     0.023 A 
ATOM     62  C   UNL A   1      41.824  24.775  27.649  1.00  0.00     0.031 A 
ATOM     63  C   UNL A   1      42.751  26.742  26.607  1.00  0.00     0.131 A 
ATOM     64  C   UNL A   1      42.261  24.019  26.552  1.00  0.00     0.055 A 
ATOM     65  C   UNL A   1      43.125  25.997  25.488  1.00  0.00     0.041 A 
ATOM     66  F   UNL A   1      43.045  28.052  26.612  1.00  0.00    -0.206 F 
ATOM     67  C   UNL A   1      42.886  24.626  25.459  1.00  0.00     0.022 A 
BRANCH  64  68
ATOM     68  S   UNL A   1      42.070  22.218  26.608  1.00  0.00     0.124 S 
ATOM     69  O   UNL A   1      42.770  21.810  25.393  1.00  0.00    -0.237 OA
ATOM     70  O   UNL A   1      42.718  21.869  27.866  1.00  0.00    -0.237 OA
ATOM     71  O   UNL A   1      40.621  22.027  26.580  1.00  0.00    -0.744 OA
ENDBRANCH  64  68
ENDBRANCH  47  61
BRANCH  48  72
ATOM     72  C   UNL A   1      38.737  31.742  35.333  1.00  0.00     0.023 A 
ATOM     73  C   UNL A   1      38.164  31.142  36.466  1.00  0.00     0.031 A 
ATOM     74  C   UNL A   1      38.847  33.144  35.312  1.00  0.00     0.131 A 
ATOM     75  C   UNL A   1      37.704  31.943  37.523  1.00  0.00     0.055 A 
ATOM     76  C   UNL A   1      38.424  33.934  36.382  1.00  0.00     0.041 A 
ATOM     77  F   UNL A   1      39.397  33.765  34.255  1.00  0.00    -0.206 F 
ATOM     78  C   UNL A   1      37.844  33.333  37.495  1.00  0.00     0.022 A 
BRANCH  75  79
ATOM     79  S   UNL A   1      36.895  31.144  38.935  1.00  0.00     0.124 S 
ATOM     80  O   UNL A   1      37.888  31.325  39.987  1.00  0.00    -0.237 OA
ATOM     81  O   UNL A   1      35.669  31.924  39.068  1.00  0.00    -0.237 OA
ATOM     82  O   UNL A   1      36.706  29.766  38.484  1.00  0.00    -0.744 OA
ENDBRANCH  75  79
ENDBRANCH  48  72
BRANCH  60  83
ATOM     83  C   UNL A   1      44.592  28.097  34.154  1.00  0.00     0.023 A 
ATOM     84  C   UNL A   1      44.661  27.002  35.029  1.00  0.00     0.031 A 
ATOM     85  C   UNL A   1      45.741  28.886  33.973  1.00  0.00     0.131 A 
ATOM     86  C   UNL A   1      45.860  26.726  35.699  1.00  0.00     0.055 A 
ATOM     87  C   UNL A   1      46.942  28.582  34.610  1.00  0.00     0.041 A 
ATOM     88  F   UNL A   1      45.722  29.937  33.137  1.00  0.00    -0.206 F 
ATOM     89  C   UNL A   1      47.007  27.495  35.479  1.00  0.00     0.022 A 
BRANCH  86  90
ATOM     90  S   UNL A   1      45.905  25.338  36.865  1.00  0.00     0.124 S 
ATOM     91  O   UNL A   1      45.393  25.953  38.085  1.00  0.00    -0.237 OA
ATOM     92  O   UNL A   1      45.028  24.359  36.228  1.00  0.00    -0.237 OA
ATOM     93  O   UNL A   1      47.319  24.969  36.902  1.00  0.00    -0.744 OA
ENDBRANCH  86  90
ENDBRANCH  60  83
ENDBRANCH  34  35
ENDBRANCH  26  29
ENDBRANCH  24  25
ENDBRANCH   1  24
TORSDOF 17
ENDMDL
