MODEL 1
REMARK VINA RESULT:     -11.5      0.000      0.000
REMARK SMILES CC[C@](O)(c1ccc(O)cc1)[C@H](F)C(=O)NCCCNC(=O)c1ccc(-c2c3nc(c(-c4cc(S(=O)(=O)[O-])ccc4F)c4ccc([nH]4)c(-c4cc(S(=O)(=O)[O-])ccc4F)c4nc(c(-c5cc(S(=O)(=O)[O-])ccc5F)c5ccc2[nH]5)C=C4)C=C3)cc1
REMARK SMILES IDX 18 1 17 2 16 3 14 4 15 5 12 7 13 8 3 9 2 10 1 11 5 12 6 13
REMARK SMILES IDX 11 14 7 15 10 16 8 17 9 18 4 20 19 22 20 23 21 24 22 26
REMARK SMILES IDX 23 27 24 28 85 29 25 30 84 31 26 32 27 33 28 34 78 35 29 36
REMARK SMILES IDX 83 37 77 38 79 39 30 40 82 41 76 42 75 43 31 45 63 46 43 47
REMARK SMILES IDX 62 48 44 49 47 50 61 51 80 52 45 53 46 54 60 56 81 57 48 58
REMARK SMILES IDX 32 59 33 60 41 61 34 62 40 63 42 64 39 65 35 66 36 67 37 68
REMARK SMILES IDX 38 69 64 70 65 71 73 72 66 73 72 74 74 75 71 76 67 77 68 78
REMARK SMILES IDX 69 79 70 80 49 81 50 82 58 83 51 84 57 85 59 86 56 87 52 88
REMARK SMILES IDX 53 89 54 90 55 91
REMARK H PARENT 16 6 9 19 4 21 20 25 79 44 47 55
REMARK Flexibility Score: inf
ROOT
ATOM      1  C   UNL A   1      35.471  22.071  26.073  1.00  0.00     0.042 C 
ENDROOT
BRANCH   1   2
ATOM      2  C   UNL A   1      34.404  23.122  25.832  1.00  0.00     0.117 C 
BRANCH   2   3
ATOM      3  N   UNL A   1      33.397  23.221  26.865  1.00  0.00    -0.353 N 
ATOM      4  C   UNL A   1      32.061  23.446  26.687  1.00  0.00     0.257 C 
ATOM      5  O   UNL A   1      31.310  23.239  27.648  1.00  0.00    -0.272 OA
ATOM      6  H   UNL A   1      33.706  23.114  27.794  1.00  0.00     0.163 HD
BRANCH   4   7
ATOM      7  C   UNL A   1      31.497  23.930  25.354  1.00  0.00     0.291 C 
ATOM      8  F   UNL A   1      30.721  22.963  24.771  1.00  0.00    -0.233 F 
BRANCH   7   9
ATOM      9  C   UNL A   1      30.791  25.337  25.297  1.00  0.00     0.130 C 
BRANCH   9  10
ATOM     10  C   UNL A   1      30.002  25.582  23.975  1.00  0.00     0.040 C 
ATOM     11  C   UNL A   1      28.847  26.572  23.902  1.00  0.00     0.007 C 
ENDBRANCH   9  10
BRANCH   9  12
ATOM     12  C   UNL A   1      31.668  26.470  25.850  1.00  0.00    -0.013 A 
ATOM     13  C   UNL A   1      32.999  26.708  25.476  1.00  0.00     0.010 A 
ATOM     14  C   UNL A   1      31.144  27.302  26.868  1.00  0.00     0.010 A 
ATOM     15  C   UNL A   1      33.804  27.628  26.169  1.00  0.00     0.046 A 
ATOM     16  C   UNL A   1      31.928  28.243  27.538  1.00  0.00     0.046 A 
ATOM     17  C   UNL A   1      33.265  28.371  27.209  1.00  0.00     0.115 A 
BRANCH  17  18
ATOM     18  O   UNL A   1      34.023  29.232  27.942  1.00  0.00    -0.508 OA
ATOM     19  H   UNL A   1      34.957  29.217  27.864  1.00  0.00     0.293 HD
ENDBRANCH  17  18
ENDBRANCH   9  12
BRANCH   9  20
ATOM     20  O   UNL A   1      29.696  25.277  26.280  1.00  0.00    -0.382 OA
ATOM     21  H   UNL A   1      30.046  24.983  27.135  1.00  0.00     0.212 HD
ENDBRANCH   9  20
ENDBRANCH   7   9
ENDBRANCH   4   7
ENDBRANCH   2   3
ENDBRANCH   1   2
BRANCH   1  22
ATOM     22  C   UNL A   1      36.576  22.049  25.023  1.00  0.00     0.118 C 
BRANCH  22  23
ATOM     23  N   UNL A   1      37.568  20.995  25.222  1.00  0.00    -0.352 N 
ATOM     24  C   UNL A   1      38.821  21.011  25.791  1.00  0.00     0.251 C 
ATOM     25  H   UNL A   1      37.288  20.112  24.888  1.00  0.00     0.163 HD
ATOM     26  O   UNL A   1      39.520  20.003  25.711  1.00  0.00    -0.269 OA
BRANCH  24  27
ATOM     27  C   UNL A   1      39.354  22.232  26.442  1.00  0.00     0.039 A 
ATOM     28  C   UNL A   1      40.375  22.109  27.391  1.00  0.00     0.014 A 
ATOM     29  C   UNL A   1      38.872  23.498  26.121  1.00  0.00     0.014 A 
ATOM     30  C   UNL A   1      40.992  23.255  27.906  1.00  0.00     0.010 A 
ATOM     31  C   UNL A   1      39.564  24.632  26.536  1.00  0.00     0.010 A 
ATOM     32  C   UNL A   1      40.644  24.526  27.425  1.00  0.00    -0.014 A 
BRANCH  32  33
ATOM     33  C   UNL A   1      41.382  25.760  27.817  1.00  0.00     0.031 A 
ATOM     34  C   UNL A   1      40.677  26.845  28.591  1.00  0.00     0.074 A 
ATOM     35  C   UNL A   1      42.647  25.956  27.389  1.00  0.00     0.049 A 
ATOM     36  N   UNL A   1      41.065  28.067  28.852  1.00  0.00    -0.248 NA
ATOM     37  C   UNL A   1      39.332  26.524  29.095  1.00  0.00     0.031 C 
ATOM     38  C   UNL A   1      43.433  25.008  26.594  1.00  0.00     0.029 A 
ATOM     39  N   UNL A   1      43.494  27.027  27.545  1.00  0.00    -0.354 N 
ATOM     40  C   UNL A   1      40.002  28.669  29.518  1.00  0.00     0.074 A 
ATOM     41  C   UNL A   1      38.931  27.697  29.560  1.00  0.00     0.031 C 
ATOM     42  C   UNL A   1      44.650  25.524  26.362  1.00  0.00     0.029 A 
ATOM     43  C   UNL A   1      44.717  26.864  26.935  1.00  0.00     0.049 A 
ATOM     44  H   UNL A   1      43.248  27.837  28.049  1.00  0.00     0.167 HD
ATOM     45  C   UNL A   1      39.932  29.908  30.067  1.00  0.00     0.034 A 
ATOM     46  C   UNL A   1      45.766  27.704  26.831  1.00  0.00     0.034 A 
ATOM     47  C   UNL A   1      41.021  30.852  30.058  1.00  0.00     0.049 A 
ATOM     48  C   UNL A   1      45.668  29.072  27.458  1.00  0.00     0.074 A 
ATOM     49  C   UNL A   1      41.075  32.115  30.620  1.00  0.00     0.029 A 
ATOM     50  N   UNL A   1      42.258  30.630  29.466  1.00  0.00    -0.354 N 
ATOM     51  N   UNL A   1      44.658  29.617  28.097  1.00  0.00    -0.248 NA
ATOM     52  C   UNL A   1      46.851  29.936  27.355  1.00  0.00     0.031 C 
ATOM     53  C   UNL A   1      42.325  32.672  30.335  1.00  0.00     0.029 A 
ATOM     54  C   UNL A   1      43.076  31.734  29.645  1.00  0.00     0.049 A 
ATOM     55  H   UNL A   1      42.517  29.808  28.990  1.00  0.00     0.167 HD
ATOM     56  C   UNL A   1      45.103  30.871  28.505  1.00  0.00     0.074 A 
ATOM     57  C   UNL A   1      46.473  30.997  28.051  1.00  0.00     0.031 C 
ATOM     58  C   UNL A   1      44.442  31.835  29.194  1.00  0.00     0.034 A 
BRANCH  45  59
ATOM     59  C   UNL A   1      38.630  30.306  30.717  1.00  0.00     0.023 A 
ATOM     60  C   UNL A   1      37.644  31.016  30.009  1.00  0.00     0.031 A 
ATOM     61  C   UNL A   1      38.377  29.997  32.065  1.00  0.00     0.131 A 
ATOM     62  C   UNL A   1      36.491  31.463  30.671  1.00  0.00     0.055 A 
ATOM     63  C   UNL A   1      37.188  30.371  32.695  1.00  0.00     0.041 A 
ATOM     64  F   UNL A   1      39.288  29.336  32.797  1.00  0.00    -0.206 F 
ATOM     65  C   UNL A   1      36.243  31.122  32.002  1.00  0.00     0.022 A 
BRANCH  62  66
ATOM     66  S   UNL A   1      35.388  32.611  29.803  1.00  0.00     0.124 S 
ATOM     67  O   UNL A   1      35.025  31.831  28.623  1.00  0.00    -0.237 OA
ATOM     68  O   UNL A   1      34.324  32.827  30.778  1.00  0.00    -0.237 OA
ATOM     69  O   UNL A   1      36.239  33.769  29.540  1.00  0.00    -0.744 OA
ENDBRANCH  62  66
ENDBRANCH  45  59
BRANCH  46  70
ATOM     70  C   UNL A   1      47.005  27.296  26.106  1.00  0.00     0.023 A 
ATOM     71  C   UNL A   1      47.231  27.715  24.784  1.00  0.00     0.031 A 
ATOM     72  C   UNL A   1      47.945  26.431  26.692  1.00  0.00     0.131 A 
ATOM     73  C   UNL A   1      48.332  27.218  24.070  1.00  0.00     0.055 A 
ATOM     74  C   UNL A   1      49.072  25.986  25.996  1.00  0.00     0.041 A 
ATOM     75  F   UNL A   1      47.782  26.005  27.955  1.00  0.00    -0.206 F 
ATOM     76  C   UNL A   1      49.260  26.366  24.671  1.00  0.00     0.022 A 
BRANCH  73  77
ATOM     77  S   UNL A   1      48.469  27.616  22.306  1.00  0.00     0.124 S 
ATOM     78  O   UNL A   1      47.235  28.357  22.072  1.00  0.00    -0.237 OA
ATOM     79  O   UNL A   1      49.701  28.395  22.267  1.00  0.00    -0.237 OA
ATOM     80  O   UNL A   1      48.540  26.304  21.666  1.00  0.00    -0.744 OA
ENDBRANCH  73  77
ENDBRANCH  46  70
BRANCH  58  81
ATOM     81  C   UNL A   1      45.220  33.075  29.554  1.00  0.00     0.023 A 
ATOM     82  C   UNL A   1      45.944  33.172  30.754  1.00  0.00     0.031 A 
ATOM     83  C   UNL A   1      45.224  34.179  28.683  1.00  0.00     0.131 A 
ATOM     84  C   UNL A   1      46.602  34.368  31.076  1.00  0.00     0.055 A 
ATOM     85  C   UNL A   1      45.925  35.347  28.983  1.00  0.00     0.041 A 
ATOM     86  F   UNL A   1      44.548  34.137  27.524  1.00  0.00    -0.206 F 
ATOM     87  C   UNL A   1      46.609  35.450  30.191  1.00  0.00     0.022 A 
BRANCH  84  88
ATOM     88  S   UNL A   1      47.388  34.519  32.703  1.00  0.00     0.124 S 
ATOM     89  O   UNL A   1      48.672  35.125  32.364  1.00  0.00    -0.237 OA
ATOM     90  O   UNL A   1      46.451  35.374  33.424  1.00  0.00    -0.237 OA
ATOM     91  O   UNL A   1      47.459  33.139  33.180  1.00  0.00    -0.744 OA
ENDBRANCH  84  88
ENDBRANCH  58  81
ENDBRANCH  32  33
ENDBRANCH  24  27
ENDBRANCH  22  23
ENDBRANCH   1  22
TORSDOF 18
ENDMDL
MODEL 2
REMARK VINA RESULT:     -11.4      1.955      2.304
REMARK SMILES CC[C@](O)(c1ccc(O)cc1)[C@H](F)C(=O)NCCCNC(=O)c1ccc(-c2c3nc(c(-c4cc(S(=O)(=O)[O-])ccc4F)c4ccc([nH]4)c(-c4cc(S(=O)(=O)[O-])ccc4F)c4nc(c(-c5cc(S(=O)(=O)[O-])ccc5F)c5ccc2[nH]5)C=C4)C=C3)cc1
REMARK SMILES IDX 18 1 17 2 16 3 14 4 15 5 12 7 13 8 3 9 2 10 1 11 5 12 6 13
REMARK SMILES IDX 11 14 7 15 10 16 8 17 9 18 4 20 19 22 20 23 21 24 22 26
REMARK SMILES IDX 23 27 24 28 85 29 25 30 84 31 26 32 27 33 28 34 78 35 29 36
REMARK SMILES IDX 83 37 77 38 79 39 30 40 82 41 76 42 75 43 31 45 63 46 43 47
REMARK SMILES IDX 62 48 44 49 47 50 61 51 80 52 45 53 46 54 60 56 81 57 48 58
REMARK SMILES IDX 32 59 33 60 41 61 34 62 40 63 42 64 39 65 35 66 36 67 37 68
REMARK SMILES IDX 38 69 64 70 65 71 73 72 66 73 72 74 74 75 71 76 67 77 68 78
REMARK SMILES IDX 69 79 70 80 49 81 50 82 58 83 51 84 57 85 59 86 56 87 52 88
REMARK SMILES IDX 53 89 54 90 55 91
REMARK H PARENT 16 6 9 19 4 21 20 25 79 44 47 55
REMARK Flexibility Score: inf
ROOT
ATOM      1  C   UNL A   1      35.299  21.895  25.869  1.00  0.00     0.042 C 
ENDROOT
BRANCH   1   2
ATOM      2  C   UNL A   1      34.306  23.026  25.683  1.00  0.00     0.117 C 
BRANCH   2   3
ATOM      3  N   UNL A   1      33.349  23.183  26.756  1.00  0.00    -0.353 N 
ATOM      4  C   UNL A   1      32.048  23.583  26.640  1.00  0.00     0.257 C 
ATOM      5  O   UNL A   1      31.304  23.410  27.613  1.00  0.00    -0.272 OA
ATOM      6  H   UNL A   1      33.668  22.981  27.666  1.00  0.00     0.163 HD
BRANCH   4   7
ATOM      7  C   UNL A   1      31.511  24.217  25.359  1.00  0.00     0.291 C 
ATOM      8  F   UNL A   1      30.702  23.342  24.682  1.00  0.00    -0.233 F 
BRANCH   7   9
ATOM      9  C   UNL A   1      30.862  25.649  25.437  1.00  0.00     0.130 C 
BRANCH   9  10
ATOM     10  C   UNL A   1      29.911  25.966  24.243  1.00  0.00     0.040 C 
ATOM     11  C   UNL A   1      30.094  27.208  23.380  1.00  0.00     0.007 C 
ENDBRANCH   9  10
BRANCH   9  12
ATOM     12  C   UNL A   1      31.851  26.731  25.896  1.00  0.00    -0.013 A 
ATOM     13  C   UNL A   1      31.560  27.739  26.828  1.00  0.00     0.010 A 
ATOM     14  C   UNL A   1      33.130  26.784  25.293  1.00  0.00     0.010 A 
ATOM     15  C   UNL A   1      32.438  28.813  27.046  1.00  0.00     0.046 A 
ATOM     16  C   UNL A   1      34.022  27.832  25.531  1.00  0.00     0.046 A 
ATOM     17  C   UNL A   1      33.653  28.860  26.378  1.00  0.00     0.115 A 
BRANCH  17  18
ATOM     18  O   UNL A   1      34.507  29.911  26.517  1.00  0.00    -0.508 OA
ATOM     19  H   UNL A   1      34.174  30.787  26.535  1.00  0.00     0.293 HD
ENDBRANCH  17  18
ENDBRANCH   9  12
BRANCH   9  20
ATOM     20  O   UNL A   1      29.909  25.597  26.559  1.00  0.00    -0.382 OA
ATOM     21  H   UNL A   1      29.017  25.425  26.218  1.00  0.00     0.212 HD
ENDBRANCH   9  20
ENDBRANCH   7   9
ENDBRANCH   4   7
ENDBRANCH   2   3
ENDBRANCH   1   2
BRANCH   1  22
ATOM     22  C   UNL A   1      36.532  21.991  24.977  1.00  0.00     0.118 C 
BRANCH  22  23
ATOM     23  N   UNL A   1      37.512  20.930  25.195  1.00  0.00    -0.352 N 
ATOM     24  C   UNL A   1      38.762  20.942  25.771  1.00  0.00     0.251 C 
ATOM     25  H   UNL A   1      37.226  20.045  24.872  1.00  0.00     0.163 HD
ATOM     26  O   UNL A   1      39.452  19.926  25.709  1.00  0.00    -0.269 OA
BRANCH  24  27
ATOM     27  C   UNL A   1      39.303  22.167  26.408  1.00  0.00     0.039 A 
ATOM     28  C   UNL A   1      40.345  22.050  27.335  1.00  0.00     0.014 A 
ATOM     29  C   UNL A   1      38.808  23.430  26.095  1.00  0.00     0.014 A 
ATOM     30  C   UNL A   1      40.968  23.200  27.834  1.00  0.00     0.010 A 
ATOM     31  C   UNL A   1      39.504  24.568  26.492  1.00  0.00     0.010 A 
ATOM     32  C   UNL A   1      40.603  24.469  27.358  1.00  0.00    -0.014 A 
BRANCH  32  33
ATOM     33  C   UNL A   1      41.344  25.707  27.732  1.00  0.00     0.031 A 
ATOM     34  C   UNL A   1      40.644  26.800  28.500  1.00  0.00     0.074 A 
ATOM     35  C   UNL A   1      42.606  25.898  27.292  1.00  0.00     0.049 A 
ATOM     36  N   UNL A   1      41.034  28.024  28.746  1.00  0.00    -0.248 NA
ATOM     37  C   UNL A   1      39.304  26.484  29.017  1.00  0.00     0.031 C 
ATOM     38  C   UNL A   1      43.386  24.943  26.502  1.00  0.00     0.029 A 
ATOM     39  N   UNL A   1      43.453  26.972  27.431  1.00  0.00    -0.354 N 
ATOM     40  C   UNL A   1      39.975  28.633  29.413  1.00  0.00     0.074 A 
ATOM     41  C   UNL A   1      38.906  27.661  29.474  1.00  0.00     0.031 C 
ATOM     42  C   UNL A   1      44.601  25.457  26.255  1.00  0.00     0.029 A 
ATOM     43  C   UNL A   1      44.672  26.803  26.814  1.00  0.00     0.049 A 
ATOM     44  H   UNL A   1      43.211  27.787  27.928  1.00  0.00     0.167 HD
ATOM     45  C   UNL A   1      39.910  29.878  29.949  1.00  0.00     0.034 A 
ATOM     46  C   UNL A   1      45.720  27.642  26.693  1.00  0.00     0.034 A 
ATOM     47  C   UNL A   1      40.999  30.822  29.922  1.00  0.00     0.049 A 
ATOM     48  C   UNL A   1      45.626  29.016  27.306  1.00  0.00     0.074 A 
ATOM     49  C   UNL A   1      41.056  32.091  30.471  1.00  0.00     0.029 A 
ATOM     50  N   UNL A   1      42.231  30.594  29.324  1.00  0.00    -0.354 N 
ATOM     51  N   UNL A   1      44.621  29.568  27.947  1.00  0.00    -0.248 NA
ATOM     52  C   UNL A   1      46.808  29.879  27.185  1.00  0.00     0.031 C 
ATOM     53  C   UNL A   1      42.304  32.646  30.170  1.00  0.00     0.029 A 
ATOM     54  C   UNL A   1      43.050  31.700  29.485  1.00  0.00     0.049 A 
ATOM     55  H   UNL A   1      42.486  29.767  28.854  1.00  0.00     0.167 HD
ATOM     56  C   UNL A   1      45.069  30.826  28.338  1.00  0.00     0.074 A 
ATOM     57  C   UNL A   1      46.434  30.948  27.873  1.00  0.00     0.031 C 
ATOM     58  C   UNL A   1      44.412  31.797  29.023  1.00  0.00     0.034 A 
BRANCH  45  59
ATOM     59  C   UNL A   1      38.612  30.282  30.605  1.00  0.00     0.023 A 
ATOM     60  C   UNL A   1      37.607  30.955  29.889  1.00  0.00     0.031 A 
ATOM     61  C   UNL A   1      38.383  30.017  31.967  1.00  0.00     0.131 A 
ATOM     62  C   UNL A   1      36.458  31.410  30.552  1.00  0.00     0.055 A 
ATOM     63  C   UNL A   1      37.199  30.398  32.601  1.00  0.00     0.041 A 
ATOM     64  F   UNL A   1      39.314  29.394  32.708  1.00  0.00    -0.206 F 
ATOM     65  C   UNL A   1      36.234  31.113  31.897  1.00  0.00     0.022 A 
BRANCH  62  66
ATOM     66  S   UNL A   1      35.328  32.513  29.661  1.00  0.00     0.124 S 
ATOM     67  O   UNL A   1      36.253  33.505  29.120  1.00  0.00    -0.237 OA
ATOM     68  O   UNL A   1      34.710  31.618  28.689  1.00  0.00    -0.237 OA
ATOM     69  O   UNL A   1      34.437  33.008  30.709  1.00  0.00    -0.744 OA
ENDBRANCH  62  66
ENDBRANCH  45  59
BRANCH  46  70
ATOM     70  C   UNL A   1      46.953  27.227  25.963  1.00  0.00     0.023 A 
ATOM     71  C   UNL A   1      47.970  26.517  26.621  1.00  0.00     0.031 A 
ATOM     72  C   UNL A   1      47.166  27.591  24.622  1.00  0.00     0.131 A 
ATOM     73  C   UNL A   1      49.180  26.248  25.960  1.00  0.00     0.055 A 
ATOM     74  C   UNL A   1      48.348  27.269  23.950  1.00  0.00     0.041 A 
ATOM     75  F   UNL A   1      46.225  28.264  23.942  1.00  0.00    -0.206 F 
ATOM     76  C   UNL A   1      49.370  26.610  24.625  1.00  0.00     0.022 A 
BRANCH  73  77
ATOM     77  S   UNL A   1      50.541  25.519  26.910  1.00  0.00     0.124 S 
ATOM     78  O   UNL A   1      49.860  24.449  27.631  1.00  0.00    -0.237 OA
ATOM     79  O   UNL A   1      51.455  25.100  25.854  1.00  0.00    -0.237 OA
ATOM     80  O   UNL A   1      51.010  26.628  27.737  1.00  0.00    -0.744 OA
ENDBRANCH  73  77
ENDBRANCH  46  70
BRANCH  58  81
ATOM     81  C   UNL A   1      45.192  33.041  29.363  1.00  0.00     0.023 A 
ATOM     82  C   UNL A   1      45.212  34.158  28.512  1.00  0.00     0.031 A 
ATOM     83  C   UNL A   1      45.935  33.099  30.556  1.00  0.00     0.131 A 
ATOM     84  C   UNL A   1      46.003  35.269  28.839  1.00  0.00     0.055 A 
ATOM     85  C   UNL A   1      46.677  34.228  30.902  1.00  0.00     0.041 A 
ATOM     86  F   UNL A   1      45.949  32.058  31.404  1.00  0.00    -0.206 F 
ATOM     87  C   UNL A   1      46.723  35.317  30.036  1.00  0.00     0.022 A 
BRANCH  84  88
ATOM     88  S   UNL A   1      46.138  36.625  27.643  1.00  0.00     0.124 S 
ATOM     89  O   UNL A   1      44.737  36.943  27.384  1.00  0.00    -0.237 OA
ATOM     90  O   UNL A   1      46.891  37.627  28.391  1.00  0.00    -0.237 OA
ATOM     91  O   UNL A   1      46.856  36.023  26.520  1.00  0.00    -0.744 OA
ENDBRANCH  84  88
ENDBRANCH  58  81
ENDBRANCH  32  33
ENDBRANCH  24  27
ENDBRANCH  22  23
ENDBRANCH   1  22
TORSDOF 18
ENDMDL
MODEL 3
REMARK VINA RESULT:     -11.3      2.368      8.343
REMARK SMILES CC[C@](O)(c1ccc(O)cc1)[C@H](F)C(=O)NCCCNC(=O)c1ccc(-c2c3nc(c(-c4cc(S(=O)(=O)[O-])ccc4F)c4ccc([nH]4)c(-c4cc(S(=O)(=O)[O-])ccc4F)c4nc(c(-c5cc(S(=O)(=O)[O-])ccc5F)c5ccc2[nH]5)C=C4)C=C3)cc1
REMARK SMILES IDX 18 1 17 2 16 3 14 4 15 5 12 7 13 8 3 9 2 10 1 11 5 12 6 13
REMARK SMILES IDX 11 14 7 15 10 16 8 17 9 18 4 20 19 22 20 23 21 24 22 26
REMARK SMILES IDX 23 27 24 28 85 29 25 30 84 31 26 32 27 33 28 34 78 35 29 36
REMARK SMILES IDX 83 37 77 38 79 39 30 40 82 41 76 42 75 43 31 45 63 46 43 47
REMARK SMILES IDX 62 48 44 49 47 50 61 51 80 52 45 53 46 54 60 56 81 57 48 58
REMARK SMILES IDX 32 59 33 60 41 61 34 62 40 63 42 64 39 65 35 66 36 67 37 68
REMARK SMILES IDX 38 69 64 70 65 71 73 72 66 73 72 74 74 75 71 76 67 77 68 78
REMARK SMILES IDX 69 79 70 80 49 81 50 82 58 83 51 84 57 85 59 86 56 87 52 88
REMARK SMILES IDX 53 89 54 90 55 91
REMARK H PARENT 16 6 9 19 4 21 20 25 79 44 47 55
REMARK Flexibility Score: inf
ROOT
ATOM      1  C   UNL A   1      36.559  20.612  25.130  1.00  0.00     0.042 C 
ENDROOT
BRANCH   1   2
ATOM      2  C   UNL A   1      35.789  21.456  26.128  1.00  0.00     0.117 C 
BRANCH   2   3
ATOM      3  N   UNL A   1      35.714  22.865  25.808  1.00  0.00    -0.353 N 
ATOM      4  C   UNL A   1      34.588  23.637  25.771  1.00  0.00     0.257 C 
ATOM      5  O   UNL A   1      34.733  24.865  25.740  1.00  0.00    -0.272 OA
ATOM      6  H   UNL A   1      36.564  23.315  25.596  1.00  0.00     0.163 HD
BRANCH   4   7
ATOM      7  C   UNL A   1      33.190  23.022  25.773  1.00  0.00     0.291 C 
ATOM      8  F   UNL A   1      32.430  23.537  26.791  1.00  0.00    -0.233 F 
BRANCH   7   9
ATOM      9  C   UNL A   1      32.379  22.981  24.424  1.00  0.00     0.130 C 
BRANCH   9  10
ATOM     10  C   UNL A   1      31.025  23.750  24.489  1.00  0.00     0.040 C 
ATOM     11  C   UNL A   1      30.448  24.465  23.274  1.00  0.00     0.007 C 
ENDBRANCH   9  10
BRANCH   9  12
ATOM     12  C   UNL A   1      32.408  21.600  23.750  1.00  0.00    -0.013 A 
ATOM     13  C   UNL A   1      32.133  21.365  22.394  1.00  0.00     0.010 A 
ATOM     14  C   UNL A   1      32.653  20.458  24.548  1.00  0.00     0.010 A 
ATOM     15  C   UNL A   1      31.975  20.063  21.892  1.00  0.00     0.046 A 
ATOM     16  C   UNL A   1      32.532  19.160  24.048  1.00  0.00     0.046 A 
ATOM     17  C   UNL A   1      32.155  18.972  22.731  1.00  0.00     0.115 A 
BRANCH  17  18
ATOM     18  O   UNL A   1      31.957  17.696  22.299  1.00  0.00    -0.508 OA
ATOM     19  H   UNL A   1      31.093  17.400  22.092  1.00  0.00     0.293 HD
ENDBRANCH  17  18
ENDBRANCH   9  12
BRANCH   9  20
ATOM     20  O   UNL A   1      33.138  23.811  23.473  1.00  0.00    -0.382 OA
ATOM     21  H   UNL A   1      33.307  24.681  23.868  1.00  0.00     0.212 HD
ENDBRANCH   9  20
ENDBRANCH   7   9
ENDBRANCH   4   7
ENDBRANCH   2   3
ENDBRANCH   1   2
BRANCH   1  22
ATOM     22  C   UNL A   1      38.009  21.039  24.937  1.00  0.00     0.118 C 
BRANCH  22  23
ATOM     23  N   UNL A   1      38.978  20.199  25.638  1.00  0.00    -0.352 N 
ATOM     24  C   UNL A   1      40.018  20.510  26.484  1.00  0.00     0.251 C 
ATOM     25  H   UNL A   1      38.865  19.234  25.476  1.00  0.00     0.163 HD
ATOM     26  O   UNL A   1      40.780  19.613  26.840  1.00  0.00    -0.269 OA
BRANCH  24  27
ATOM     27  C   UNL A   1      40.261  21.905  26.923  1.00  0.00     0.039 A 
ATOM     28  C   UNL A   1      41.208  22.151  27.924  1.00  0.00     0.014 A 
ATOM     29  C   UNL A   1      39.579  22.977  26.352  1.00  0.00     0.014 A 
ATOM     30  C   UNL A   1      41.558  23.467  28.246  1.00  0.00     0.010 A 
ATOM     31  C   UNL A   1      40.014  24.279  26.581  1.00  0.00     0.010 A 
ATOM     32  C   UNL A   1      41.020  24.542  27.524  1.00  0.00    -0.014 A 
BRANCH  32  33
ATOM     33  C   UNL A   1      41.482  25.946  27.715  1.00  0.00     0.031 A 
ATOM     34  C   UNL A   1      42.849  26.360  27.232  1.00  0.00     0.074 A 
ATOM     35  C   UNL A   1      40.726  26.817  28.416  1.00  0.00     0.049 A 
ATOM     36  N   UNL A   1      43.520  27.458  27.474  1.00  0.00    -0.248 NA
ATOM     37  C   UNL A   1      43.577  25.386  26.404  1.00  0.00     0.031 C 
ATOM     38  C   UNL A   1      39.404  26.534  28.980  1.00  0.00     0.029 A 
ATOM     39  N   UNL A   1      40.967  28.117  28.792  1.00  0.00    -0.354 N 
ATOM     40  C   UNL A   1      44.757  27.290  26.860  1.00  0.00     0.074 A 
ATOM     41  C   UNL A   1      44.764  25.959  26.291  1.00  0.00     0.031 C 
ATOM     42  C   UNL A   1      38.940  27.632  29.599  1.00  0.00     0.029 A 
ATOM     43  C   UNL A   1      39.952  28.680  29.532  1.00  0.00     0.049 A 
ATOM     44  H   UNL A   1      41.790  28.602  28.552  1.00  0.00     0.167 HD
ATOM     45  C   UNL A   1      45.783  28.172  26.756  1.00  0.00     0.034 A 
ATOM     46  C   UNL A   1      39.854  29.895  30.108  1.00  0.00     0.034 A 
ATOM     47  C   UNL A   1      45.747  29.512  27.287  1.00  0.00     0.049 A 
ATOM     48  C   UNL A   1      41.004  30.861  29.970  1.00  0.00     0.074 A 
ATOM     49  C   UNL A   1      46.710  30.501  27.202  1.00  0.00     0.029 A 
ATOM     50  N   UNL A   1      44.682  30.056  27.993  1.00  0.00    -0.354 N 
ATOM     51  N   UNL A   1      42.160  30.688  29.372  1.00  0.00    -0.248 NA
ATOM     52  C   UNL A   1      40.834  32.186  30.579  1.00  0.00     0.031 C 
ATOM     53  C   UNL A   1      46.247  31.628  27.889  1.00  0.00     0.029 A 
ATOM     54  C   UNL A   1      44.969  31.363  28.353  1.00  0.00     0.049 A 
ATOM     55  H   UNL A   1      43.845  29.583  28.206  1.00  0.00     0.167 HD
ATOM     56  C   UNL A   1      42.835  31.898  29.501  1.00  0.00     0.074 A 
ATOM     57  C   UNL A   1      41.955  32.794  30.221  1.00  0.00     0.031 C 
ATOM     58  C   UNL A   1      44.073  32.243  29.062  1.00  0.00     0.034 A 
BRANCH  45  59
ATOM     59  C   UNL A   1      47.028  27.706  26.042  1.00  0.00     0.023 A 
ATOM     60  C   UNL A   1      47.240  27.981  24.680  1.00  0.00     0.031 A 
ATOM     61  C   UNL A   1      48.005  26.955  26.720  1.00  0.00     0.131 A 
ATOM     62  C   UNL A   1      48.355  27.444  24.021  1.00  0.00     0.055 A 
ATOM     63  C   UNL A   1      49.157  26.496  26.078  1.00  0.00     0.041 A 
ATOM     64  F   UNL A   1      47.850  26.645  28.017  1.00  0.00    -0.206 F 
ATOM     65  C   UNL A   1      49.330  26.726  24.716  1.00  0.00     0.022 A 
BRANCH  62  66
ATOM     66  S   UNL A   1      48.441  27.585  22.215  1.00  0.00     0.124 S 
ATOM     67  O   UNL A   1      49.607  28.447  22.044  1.00  0.00    -0.237 OA
ATOM     68  O   UNL A   1      48.606  26.197  21.797  1.00  0.00    -0.237 OA
ATOM     69  O   UNL A   1      47.162  28.196  21.859  1.00  0.00    -0.744 OA
ENDBRANCH  62  66
ENDBRANCH  45  59
BRANCH  46  70
ATOM     70  C   UNL A   1      38.634  30.282  30.876  1.00  0.00     0.023 A 
ATOM     71  C   UNL A   1      37.589  30.983  30.252  1.00  0.00     0.031 A 
ATOM     72  C   UNL A   1      38.523  30.022  32.253  1.00  0.00     0.131 A 
ATOM     73  C   UNL A   1      36.509  31.456  31.015  1.00  0.00     0.055 A 
ATOM     74  C   UNL A   1      37.418  30.443  32.996  1.00  0.00     0.041 A 
ATOM     75  F   UNL A   1      39.490  29.350  32.898  1.00  0.00    -0.206 F 
ATOM     76  C   UNL A   1      36.411  31.180  32.380  1.00  0.00     0.022 A 
BRANCH  73  77
ATOM     77  S   UNL A   1      35.291  32.534  30.213  1.00  0.00     0.124 S 
ATOM     78  O   UNL A   1      34.798  31.678  29.140  1.00  0.00    -0.237 OA
ATOM     79  O   UNL A   1      34.358  32.798  31.303  1.00  0.00    -0.237 OA
ATOM     80  O   UNL A   1      36.086  33.682  29.782  1.00  0.00    -0.744 OA
ENDBRANCH  73  77
ENDBRANCH  46  70
BRANCH  58  81
ATOM     81  C   UNL A   1      44.509  33.667  29.294  1.00  0.00     0.023 A 
ATOM     82  C   UNL A   1      44.205  34.691  28.381  1.00  0.00     0.031 A 
ATOM     83  C   UNL A   1      45.250  33.996  30.442  1.00  0.00     0.131 A 
ATOM     84  C   UNL A   1      44.685  35.989  28.606  1.00  0.00     0.055 A 
ATOM     85  C   UNL A   1      45.680  35.300  30.688  1.00  0.00     0.041 A 
ATOM     86  F   UNL A   1      45.567  33.054  31.344  1.00  0.00    -0.206 F 
ATOM     87  C   UNL A   1      45.408  36.303  29.761  1.00  0.00     0.022 A 
BRANCH  84  88
ATOM     88  S   UNL A   1      44.418  37.251  27.331  1.00  0.00     0.124 S 
ATOM     89  O   UNL A   1      45.630  37.132  26.528  1.00  0.00    -0.237 OA
ATOM     90  O   UNL A   1      43.185  36.795  26.696  1.00  0.00    -0.237 OA
ATOM     91  O   UNL A   1      44.297  38.492  28.096  1.00  0.00    -0.744 OA
ENDBRANCH  84  88
ENDBRANCH  58  81
ENDBRANCH  32  33
ENDBRANCH  24  27
ENDBRANCH  22  23
ENDBRANCH   1  22
TORSDOF 18
ENDMDL
