MODEL 1
REMARK VINA RESULT:     -11.8      0.000      0.000
REMARK SMILES N#Cc1ccc(/C=C/C(=O)N[C@H]2C=C[C@H](C(=O)NCCCNC(=O)c3ccc(-c4c5nc(c(-c6cc(S(=O)(=O)[O-])ccc6F)c6ccc([nH]6)c(-c6cc(S(=O)(=O)[O-])ccc6F)c6nc(c(-c7cc(S(=O)(=O)[O-])ccc7F)c7ccc4[nH]7)C=C6)C=C5)cc3)C2)cc1
REMARK SMILES IDX 19 1 18 2 16 3 17 4 15 6 12 7 13 8 88 9 14 10 11 11 9 12
REMARK SMILES IDX 10 13 8 15 7 16 6 17 3 18 4 19 90 20 5 21 89 22 2 23 1 24
REMARK SMILES IDX 20 25 21 26 22 27 23 28 24 30 25 31 26 32 87 33 27 34 86 35
REMARK SMILES IDX 28 36 29 37 30 38 80 39 31 40 85 41 79 42 81 43 32 44 84 45
REMARK SMILES IDX 78 46 77 47 33 49 65 50 45 51 64 52 46 53 49 54 63 55 82 56
REMARK SMILES IDX 47 57 48 58 62 60 83 61 50 62 34 63 35 64 43 65 36 66 42 67
REMARK SMILES IDX 44 68 41 69 37 70 38 71 39 72 40 73 66 74 67 75 75 76 68 77
REMARK SMILES IDX 74 78 76 79 73 80 69 81 70 82 71 83 72 84 51 85 52 86 60 87
REMARK SMILES IDX 53 88 59 89 61 90 58 91 54 92 55 93 56 94 57 95
REMARK H PARENT 18 5 11 14 22 29 81 48 49 59
REMARK Flexibility Score: inf
ROOT
ATOM      1  C   UNL A   1      32.335  27.349  26.951  1.00  0.00     0.117 C 
ENDROOT
BRANCH   1   2
ATOM      2  N   UNL A   1      31.398  26.252  26.962  1.00  0.00    -0.356 N 
ATOM      3  C   UNL A   1      31.582  24.963  26.589  1.00  0.00     0.227 C 
ATOM      4  O   UNL A   1      30.591  24.231  26.630  1.00  0.00    -0.274 OA
ATOM      5  H   UNL A   1      30.495  26.472  27.287  1.00  0.00     0.163 HD
BRANCH   3   6
ATOM      6  C   UNL A   1      32.951  24.469  26.099  1.00  0.00     0.103 C 
ATOM      7  C   UNL A   1      32.596  23.824  23.806  1.00  0.00     0.106 C 
ATOM      8  C   UNL A   1      33.006  22.630  24.595  1.00  0.00    -0.006 C 
ATOM      9  C   UNL A   1      33.174  24.952  24.660  1.00  0.00     0.047 C 
ATOM     10  C   UNL A   1      33.079  22.974  25.892  1.00  0.00    -0.016 C 
BRANCH   7  11
ATOM     11  N   UNL A   1      33.045  23.884  22.449  1.00  0.00    -0.346 N 
ATOM     12  C   UNL A   1      32.716  24.796  21.483  1.00  0.00     0.244 C 
ATOM     13  O   UNL A   1      33.344  24.762  20.421  1.00  0.00    -0.270 OA
ATOM     14  H   UNL A   1      33.673  23.178  22.174  1.00  0.00     0.164 HD
BRANCH  12  15
ATOM     15  C   UNL A   1      31.645  25.848  21.623  1.00  0.00     0.072 C 
ATOM     16  C   UNL A   1      31.667  26.995  22.318  1.00  0.00     0.014 C 
BRANCH  16  17
ATOM     17  C   UNL A   1      30.680  28.069  22.517  1.00  0.00    -0.025 A 
ATOM     18  C   UNL A   1      28.685  29.952  23.151  1.00  0.00     0.052 A 
ATOM     19  C   UNL A   1      29.915  30.362  22.617  1.00  0.00     0.020 A 
ATOM     20  C   UNL A   1      28.437  28.599  23.345  1.00  0.00     0.020 A 
ATOM     21  C   UNL A   1      30.913  29.425  22.306  1.00  0.00     0.009 A 
ATOM     22  C   UNL A   1      29.421  27.674  23.015  1.00  0.00     0.009 A 
BRANCH  18  23
ATOM     23  C   UNL A   1      27.678  30.911  23.503  1.00  0.00     0.099 C 
ATOM     24  N   UNL A   1      26.871  31.686  23.799  1.00  0.00    -0.192 NA
ENDBRANCH  18  23
ENDBRANCH  16  17
ENDBRANCH  12  15
ENDBRANCH   7  11
ENDBRANCH   3   6
ENDBRANCH   1   2
BRANCH   1  25
ATOM     25  C   UNL A   1      31.891  28.457  26.008  1.00  0.00     0.042 C 
BRANCH  25  26
ATOM     26  C   UNL A   1      32.988  29.456  25.653  1.00  0.00     0.118 C 
BRANCH  26  27
ATOM     27  N   UNL A   1      32.642  30.821  26.013  1.00  0.00    -0.352 N 
ATOM     28  C   UNL A   1      33.167  31.651  26.971  1.00  0.00     0.251 C 
ATOM     29  H   UNL A   1      31.912  31.215  25.482  1.00  0.00     0.163 HD
ATOM     30  O   UNL A   1      32.567  32.688  27.245  1.00  0.00    -0.269 OA
BRANCH  28  31
ATOM     31  C   UNL A   1      34.419  31.304  27.681  1.00  0.00     0.039 A 
ATOM     32  C   UNL A   1      34.543  30.027  28.234  1.00  0.00     0.014 A 
ATOM     33  C   UNL A   1      35.449  32.233  27.852  1.00  0.00     0.014 A 
ATOM     34  C   UNL A   1      35.707  29.676  28.920  1.00  0.00     0.010 A 
ATOM     35  C   UNL A   1      36.650  31.847  28.442  1.00  0.00     0.010 A 
ATOM     36  C   UNL A   1      36.784  30.574  29.009  1.00  0.00    -0.014 A 
BRANCH  36  37
ATOM     37  C   UNL A   1      38.027  30.198  29.738  1.00  0.00     0.031 A 
ATOM     38  C   UNL A   1      38.284  30.727  31.125  1.00  0.00     0.074 A 
ATOM     39  C   UNL A   1      38.926  29.384  29.151  1.00  0.00     0.049 A 
ATOM     40  N   UNL A   1      39.301  30.506  31.920  1.00  0.00    -0.248 NA
ATOM     41  C   UNL A   1      37.280  31.647  31.680  1.00  0.00     0.031 C 
ATOM     42  C   UNL A   1      38.814  28.840  27.797  1.00  0.00     0.029 A 
ATOM     43  N   UNL A   1      40.108  28.865  29.619  1.00  0.00    -0.354 N 
ATOM     44  C   UNL A   1      39.056  31.256  33.066  1.00  0.00     0.074 A 
ATOM     45  C   UNL A   1      37.844  32.008  32.821  1.00  0.00     0.031 C 
ATOM     46  C   UNL A   1      39.857  28.031  27.560  1.00  0.00     0.029 A 
ATOM     47  C   UNL A   1      40.743  28.039  28.720  1.00  0.00     0.049 A 
ATOM     48  H   UNL A   1      40.467  29.065  30.514  1.00  0.00     0.167 HD
ATOM     49  C   UNL A   1      39.753  31.290  34.230  1.00  0.00     0.034 A 
ATOM     50  C   UNL A   1      41.910  27.371  28.812  1.00  0.00     0.034 A 
ATOM     51  C   UNL A   1      40.969  30.545  34.453  1.00  0.00     0.049 A 
ATOM     52  C   UNL A   1      42.698  27.458  30.095  1.00  0.00     0.074 A 
ATOM     53  C   UNL A   1      41.749  30.489  35.597  1.00  0.00     0.029 A 
ATOM     54  N   UNL A   1      41.594  29.736  33.511  1.00  0.00    -0.354 N 
ATOM     55  N   UNL A   1      42.432  28.142  31.185  1.00  0.00    -0.248 NA
ATOM     56  C   UNL A   1      43.930  26.666  30.165  1.00  0.00     0.031 C 
ATOM     57  C   UNL A   1      42.884  29.722  35.316  1.00  0.00     0.029 A 
ATOM     58  C   UNL A   1      42.762  29.204  34.037  1.00  0.00     0.049 A 
ATOM     59  H   UNL A   1      41.256  29.565  32.602  1.00  0.00     0.167 HD
ATOM     60  C   UNL A   1      43.448  27.828  32.086  1.00  0.00     0.074 A 
ATOM     61  C   UNL A   1      44.317  26.885  31.412  1.00  0.00     0.031 C 
ATOM     62  C   UNL A   1      43.636  28.273  33.357  1.00  0.00     0.034 A 
BRANCH  49  63
ATOM     63  C   UNL A   1      39.223  32.186  35.327  1.00  0.00     0.023 A 
ATOM     64  C   UNL A   1      39.601  33.537  35.421  1.00  0.00     0.031 A 
ATOM     65  C   UNL A   1      38.374  31.676  36.325  1.00  0.00     0.131 A 
ATOM     66  C   UNL A   1      39.220  34.300  36.536  1.00  0.00     0.055 A 
ATOM     67  C   UNL A   1      37.911  32.470  37.377  1.00  0.00     0.041 A 
ATOM     68  F   UNL A   1      37.995  30.388  36.310  1.00  0.00    -0.206 F 
ATOM     69  C   UNL A   1      38.352  33.784  37.500  1.00  0.00     0.022 A 
BRANCH  66  70
ATOM     70  S   UNL A   1      40.034  35.899  36.806  1.00  0.00     0.124 S 
ATOM     71  O   UNL A   1      41.423  35.491  37.004  1.00  0.00    -0.237 OA
ATOM     72  O   UNL A   1      39.747  36.612  35.568  1.00  0.00    -0.237 OA
ATOM     73  O   UNL A   1      39.370  36.422  37.999  1.00  0.00    -0.744 OA
ENDBRANCH  66  70
ENDBRANCH  49  63
BRANCH  50  74
ATOM     74  C   UNL A   1      42.410  26.575  27.653  1.00  0.00     0.023 A 
ATOM     75  C   UNL A   1      42.028  25.237  27.458  1.00  0.00     0.031 A 
ATOM     76  C   UNL A   1      43.312  27.142  26.734  1.00  0.00     0.131 A 
ATOM     77  C   UNL A   1      42.578  24.501  26.395  1.00  0.00     0.055 A 
ATOM     78  C   UNL A   1      43.805  26.426  25.644  1.00  0.00     0.041 A 
ATOM     79  F   UNL A   1      43.711  28.416  26.873  1.00  0.00    -0.206 F 
ATOM     80  C   UNL A   1      43.449  25.093  25.477  1.00  0.00     0.022 A 
BRANCH  77  81
ATOM     81  S   UNL A   1      42.211  22.729  26.278  1.00  0.00     0.124 S 
ATOM     82  O   UNL A   1      42.942  22.198  27.424  1.00  0.00    -0.237 OA
ATOM     83  O   UNL A   1      40.755  22.712  26.381  1.00  0.00    -0.237 OA
ATOM     84  O   UNL A   1      42.745  22.357  24.969  1.00  0.00    -0.744 OA
ENDBRANCH  77  81
ENDBRANCH  50  74
BRANCH  62  85
ATOM     85  C   UNL A   1      44.798  27.685  34.127  1.00  0.00     0.023 A 
ATOM     86  C   UNL A   1      44.666  26.525  34.912  1.00  0.00     0.031 A 
ATOM     87  C   UNL A   1      46.052  28.322  34.107  1.00  0.00     0.131 A 
ATOM     88  C   UNL A   1      45.735  26.097  35.713  1.00  0.00     0.055 A 
ATOM     89  C   UNL A   1      47.139  27.838  34.836  1.00  0.00     0.041 A 
ATOM     90  F   UNL A   1      46.242  29.436  33.382  1.00  0.00    -0.206 F 
ATOM     91  C   UNL A   1      46.977  26.732  35.664  1.00  0.00     0.022 A 
BRANCH  88  92
ATOM     92  S   UNL A   1      45.429  24.802  36.947  1.00  0.00     0.124 S 
ATOM     93  O   UNL A   1      46.587  24.941  37.824  1.00  0.00    -0.237 OA
ATOM     94  O   UNL A   1      44.148  25.208  37.513  1.00  0.00    -0.237 OA
ATOM     95  O   UNL A   1      45.396  23.574  36.153  1.00  0.00    -0.744 OA
ENDBRANCH  88  92
ENDBRANCH  62  85
ENDBRANCH  36  37
ENDBRANCH  28  31
ENDBRANCH  26  27
ENDBRANCH  25  26
ENDBRANCH   1  25
TORSDOF 17
ENDMDL
MODEL 2
REMARK VINA RESULT:     -11.4      2.884      8.787
REMARK SMILES N#Cc1ccc(/C=C/C(=O)N[C@H]2C=C[C@H](C(=O)NCCCNC(=O)c3ccc(-c4c5nc(c(-c6cc(S(=O)(=O)[O-])ccc6F)c6ccc([nH]6)c(-c6cc(S(=O)(=O)[O-])ccc6F)c6nc(c(-c7cc(S(=O)(=O)[O-])ccc7F)c7ccc4[nH]7)C=C6)C=C5)cc3)C2)cc1
REMARK SMILES IDX 19 1 18 2 16 3 17 4 15 6 12 7 13 8 88 9 14 10 11 11 9 12
REMARK SMILES IDX 10 13 8 15 7 16 6 17 3 18 4 19 90 20 5 21 89 22 2 23 1 24
REMARK SMILES IDX 20 25 21 26 22 27 23 28 24 30 25 31 26 32 87 33 27 34 86 35
REMARK SMILES IDX 28 36 29 37 30 38 80 39 31 40 85 41 79 42 81 43 32 44 84 45
REMARK SMILES IDX 78 46 77 47 33 49 65 50 45 51 64 52 46 53 49 54 63 55 82 56
REMARK SMILES IDX 47 57 48 58 62 60 83 61 50 62 34 63 35 64 43 65 36 66 42 67
REMARK SMILES IDX 44 68 41 69 37 70 38 71 39 72 40 73 66 74 67 75 75 76 68 77
REMARK SMILES IDX 74 78 76 79 73 80 69 81 70 82 71 83 72 84 51 85 52 86 60 87
REMARK SMILES IDX 53 88 59 89 61 90 58 91 54 92 55 93 56 94 57 95
REMARK H PARENT 18 5 11 14 22 29 81 48 49 59
REMARK Flexibility Score: inf
ROOT
ATOM      1  C   UNL A   1      31.382  30.757  26.370  1.00  0.00     0.117 C 
ENDROOT
BRANCH   1   2
ATOM      2  N   UNL A   1      32.665  30.120  26.550  1.00  0.00    -0.356 N 
ATOM      3  C   UNL A   1      33.348  29.312  25.704  1.00  0.00     0.227 C 
ATOM      4  O   UNL A   1      34.402  28.837  26.128  1.00  0.00    -0.274 OA
ATOM      5  H   UNL A   1      33.107  30.299  27.412  1.00  0.00     0.163 HD
BRANCH   3   6
ATOM      6  C   UNL A   1      32.796  28.980  24.310  1.00  0.00     0.103 C 
ATOM      7  C   UNL A   1      32.763  26.574  24.211  1.00  0.00     0.106 C 
ATOM      8  C   UNL A   1      33.691  27.096  23.171  1.00  0.00    -0.006 C 
ATOM      9  C   UNL A   1      31.846  27.780  24.418  1.00  0.00     0.047 C 
ATOM     10  C   UNL A   1      33.798  28.428  23.318  1.00  0.00    -0.016 C 
BRANCH   7  11
ATOM     11  N   UNL A   1      32.034  25.386  23.886  1.00  0.00    -0.346 N 
ATOM     12  C   UNL A   1      32.311  24.094  24.238  1.00  0.00     0.244 C 
ATOM     13  O   UNL A   1      31.460  23.234  23.991  1.00  0.00    -0.270 OA
ATOM     14  H   UNL A   1      31.226  25.517  23.338  1.00  0.00     0.164 HD
BRANCH  12  15
ATOM     15  C   UNL A   1      33.578  23.640  24.916  1.00  0.00     0.072 C 
ATOM     16  C   UNL A   1      34.790  23.412  24.387  1.00  0.00     0.014 C 
BRANCH  16  17
ATOM     17  C   UNL A   1      36.070  22.967  24.961  1.00  0.00    -0.025 A 
ATOM     18  C   UNL A   1      38.561  21.944  25.785  1.00  0.00     0.052 A 
ATOM     19  C   UNL A   1      38.154  23.232  26.160  1.00  0.00     0.020 A 
ATOM     20  C   UNL A   1      37.715  21.152  25.019  1.00  0.00     0.020 A 
ATOM     21  C   UNL A   1      36.916  23.746  25.746  1.00  0.00     0.009 A 
ATOM     22  C   UNL A   1      36.479  21.658  24.629  1.00  0.00     0.009 A 
BRANCH  18  23
ATOM     23  C   UNL A   1      39.842  21.432  26.176  1.00  0.00     0.099 C 
ATOM     24  N   UNL A   1      40.876  21.011  26.483  1.00  0.00    -0.192 NA
ENDBRANCH  18  23
ENDBRANCH  16  17
ENDBRANCH  12  15
ENDBRANCH   7  11
ENDBRANCH   3   6
ENDBRANCH   1   2
BRANCH   1  25
ATOM     25  C   UNL A   1      31.454  32.251  26.644  1.00  0.00     0.042 C 
BRANCH  25  26
ATOM     26  C   UNL A   1      32.777  32.716  27.244  1.00  0.00     0.118 C 
BRANCH  26  27
ATOM     27  N   UNL A   1      32.752  34.114  27.642  1.00  0.00    -0.352 N 
ATOM     28  C   UNL A   1      33.404  34.763  28.661  1.00  0.00     0.251 C 
ATOM     29  H   UNL A   1      32.173  34.689  27.091  1.00  0.00     0.163 HD
ATOM     30  O   UNL A   1      33.057  35.907  28.947  1.00  0.00    -0.269 OA
BRANCH  28  31
ATOM     31  C   UNL A   1      34.488  34.100  29.420  1.00  0.00     0.039 A 
ATOM     32  C   UNL A   1      35.811  34.442  29.134  1.00  0.00     0.014 A 
ATOM     33  C   UNL A   1      34.220  33.113  30.372  1.00  0.00     0.014 A 
ATOM     34  C   UNL A   1      36.855  33.823  29.824  1.00  0.00     0.010 A 
ATOM     35  C   UNL A   1      35.255  32.575  31.134  1.00  0.00     0.010 A 
ATOM     36  C   UNL A   1      36.587  32.902  30.851  1.00  0.00    -0.014 A 
BRANCH  36  37
ATOM     37  C   UNL A   1      37.700  32.244  31.590  1.00  0.00     0.031 A 
ATOM     38  C   UNL A   1      38.480  31.124  30.951  1.00  0.00     0.074 A 
ATOM     39  C   UNL A   1      38.007  32.652  32.838  1.00  0.00     0.049 A 
ATOM     40  N   UNL A   1      39.485  30.436  31.433  1.00  0.00    -0.248 NA
ATOM     41  C   UNL A   1      38.055  30.704  29.608  1.00  0.00     0.031 C 
ATOM     42  C   UNL A   1      37.300  33.696  33.581  1.00  0.00     0.029 A 
ATOM     43  N   UNL A   1      38.996  32.245  33.698  1.00  0.00    -0.354 N 
ATOM     44  C   UNL A   1      39.813  29.508  30.450  1.00  0.00     0.074 A 
ATOM     45  C   UNL A   1      38.839  29.661  29.391  1.00  0.00     0.031 C 
ATOM     46  C   UNL A   1      37.903  33.877  34.766  1.00  0.00     0.029 A 
ATOM     47  C   UNL A   1      39.005  32.928  34.892  1.00  0.00     0.049 A 
ATOM     48  H   UNL A   1      39.638  31.530  33.481  1.00  0.00     0.167 HD
ATOM     49  C   UNL A   1      40.850  28.633  30.414  1.00  0.00     0.034 A 
ATOM     50  C   UNL A   1      39.802  32.800  35.972  1.00  0.00     0.034 A 
ATOM     51  C   UNL A   1      41.804  28.482  31.486  1.00  0.00     0.049 A 
ATOM     52  C   UNL A   1      40.919  31.789  35.935  1.00  0.00     0.074 A 
ATOM     53  C   UNL A   1      42.903  27.642  31.551  1.00  0.00     0.029 A 
ATOM     54  N   UNL A   1      41.768  29.176  32.690  1.00  0.00    -0.354 N 
ATOM     55  N   UNL A   1      41.240  30.944  34.982  1.00  0.00    -0.248 NA
ATOM     56  C   UNL A   1      41.793  31.731  37.112  1.00  0.00     0.031 C 
ATOM     57  C   UNL A   1      43.474  27.763  32.822  1.00  0.00     0.029 A 
ATOM     58  C   UNL A   1      42.805  28.760  33.513  1.00  0.00     0.049 A 
ATOM     59  H   UNL A   1      41.104  29.864  32.925  1.00  0.00     0.167 HD
ATOM     60  C   UNL A   1      42.381  30.281  35.431  1.00  0.00     0.074 A 
ATOM     61  C   UNL A   1      42.693  30.838  36.731  1.00  0.00     0.031 C 
ATOM     62  C   UNL A   1      43.107  29.309  34.818  1.00  0.00     0.034 A 
BRANCH  49  63
ATOM     63  C   UNL A   1      40.974  27.759  29.186  1.00  0.00     0.023 A 
ATOM     64  C   UNL A   1      41.999  27.955  28.243  1.00  0.00     0.031 A 
ATOM     65  C   UNL A   1      40.030  26.752  28.921  1.00  0.00     0.131 A 
ATOM     66  C   UNL A   1      41.996  27.235  27.038  1.00  0.00     0.055 A 
ATOM     67  C   UNL A   1      40.093  25.965  27.768  1.00  0.00     0.041 A 
ATOM     68  F   UNL A   1      39.011  26.528  29.767  1.00  0.00    -0.206 F 
ATOM     69  C   UNL A   1      41.067  26.219  26.808  1.00  0.00     0.022 A 
BRANCH  66  70
ATOM     70  S   UNL A   1      43.096  27.783  25.703  1.00  0.00     0.124 S 
ATOM     71  O   UNL A   1      43.754  28.933  26.319  1.00  0.00    -0.237 OA
ATOM     72  O   UNL A   1      43.933  26.610  25.483  1.00  0.00    -0.237 OA
ATOM     73  O   UNL A   1      42.176  28.109  24.615  1.00  0.00    -0.744 OA
ENDBRANCH  66  70
ENDBRANCH  49  63
BRANCH  50  74
ATOM     74  C   UNL A   1      39.563  33.640  37.182  1.00  0.00     0.023 A 
ATOM     75  C   UNL A   1      38.868  33.146  38.298  1.00  0.00     0.031 A 
ATOM     76  C   UNL A   1      40.008  34.975  37.223  1.00  0.00     0.131 A 
ATOM     77  C   UNL A   1      38.602  33.992  39.387  1.00  0.00     0.055 A 
ATOM     78  C   UNL A   1      39.796  35.791  38.334  1.00  0.00     0.041 A 
ATOM     79  F   UNL A   1      40.676  35.500  36.184  1.00  0.00    -0.206 F 
ATOM     80  C   UNL A   1      39.077  35.304  39.420  1.00  0.00     0.022 A 
BRANCH  77  81
ATOM     81  S   UNL A   1      37.543  33.382  40.728  1.00  0.00     0.124 S 
ATOM     82  O   UNL A   1      37.434  34.561  41.580  1.00  0.00    -0.237 OA
ATOM     83  O   UNL A   1      36.333  32.995  40.009  1.00  0.00    -0.237 OA
ATOM     84  O   UNL A   1      38.312  32.273  41.290  1.00  0.00    -0.744 OA
ENDBRANCH  77  81
ENDBRANCH  50  74
BRANCH  62  85
ATOM     85  C   UNL A   1      44.357  28.834  35.524  1.00  0.00     0.023 A 
ATOM     86  C   UNL A   1      44.330  27.816  36.494  1.00  0.00     0.031 A 
ATOM     87  C   UNL A   1      45.596  29.443  35.249  1.00  0.00     0.131 A 
ATOM     88  C   UNL A   1      45.491  27.506  37.216  1.00  0.00     0.055 A 
ATOM     89  C   UNL A   1      46.767  29.066  35.908  1.00  0.00     0.041 A 
ATOM     90  F   UNL A   1      45.689  30.425  34.339  1.00  0.00    -0.206 F 
ATOM     91  C   UNL A   1      46.714  28.107  36.915  1.00  0.00     0.022 A 
BRANCH  88  92
ATOM     92  S   UNL A   1      45.347  26.427  38.669  1.00  0.00     0.124 S 
ATOM     93  O   UNL A   1      45.838  25.155  38.148  1.00  0.00    -0.237 OA
ATOM     94  O   UNL A   1      46.208  27.094  39.638  1.00  0.00    -0.237 OA
ATOM     95  O   UNL A   1      43.919  26.460  38.979  1.00  0.00    -0.744 OA
ENDBRANCH  88  92
ENDBRANCH  62  85
ENDBRANCH  36  37
ENDBRANCH  28  31
ENDBRANCH  26  27
ENDBRANCH  25  26
ENDBRANCH   1  25
TORSDOF 17
ENDMDL
MODEL 3
REMARK VINA RESULT:     -11.4      2.504      4.567
REMARK SMILES N#Cc1ccc(/C=C/C(=O)N[C@H]2C=C[C@H](C(=O)NCCCNC(=O)c3ccc(-c4c5nc(c(-c6cc(S(=O)(=O)[O-])ccc6F)c6ccc([nH]6)c(-c6cc(S(=O)(=O)[O-])ccc6F)c6nc(c(-c7cc(S(=O)(=O)[O-])ccc7F)c7ccc4[nH]7)C=C6)C=C5)cc3)C2)cc1
REMARK SMILES IDX 19 1 18 2 16 3 17 4 15 6 12 7 13 8 88 9 14 10 11 11 9 12
REMARK SMILES IDX 10 13 8 15 7 16 6 17 3 18 4 19 90 20 5 21 89 22 2 23 1 24
REMARK SMILES IDX 20 25 21 26 22 27 23 28 24 30 25 31 26 32 87 33 27 34 86 35
REMARK SMILES IDX 28 36 29 37 30 38 80 39 31 40 85 41 79 42 81 43 32 44 84 45
REMARK SMILES IDX 78 46 77 47 33 49 65 50 45 51 64 52 46 53 49 54 63 55 82 56
REMARK SMILES IDX 47 57 48 58 62 60 83 61 50 62 34 63 35 64 43 65 36 66 42 67
REMARK SMILES IDX 44 68 41 69 37 70 38 71 39 72 40 73 66 74 67 75 75 76 68 77
REMARK SMILES IDX 74 78 76 79 73 80 69 81 70 82 71 83 72 84 51 85 52 86 60 87
REMARK SMILES IDX 53 88 59 89 61 90 58 91 54 92 55 93 56 94 57 95
REMARK H PARENT 18 5 11 14 22 29 81 48 49 59
REMARK Flexibility Score: inf
ROOT
ATOM      1  C   UNL A   1      31.390  30.783  26.867  1.00  0.00     0.117 C 
ENDROOT
BRANCH   1   2
ATOM      2  N   UNL A   1      32.668  30.143  26.670  1.00  0.00    -0.356 N 
ATOM      3  C   UNL A   1      33.129  29.461  25.595  1.00  0.00     0.227 C 
ATOM      4  O   UNL A   1      34.243  28.946  25.706  1.00  0.00    -0.274 OA
ATOM      5  H   UNL A   1      33.295  30.213  27.426  1.00  0.00     0.163 HD
BRANCH   3   6
ATOM      6  C   UNL A   1      32.274  29.308  24.329  1.00  0.00     0.103 C 
ATOM      7  C   UNL A   1      32.179  26.935  23.925  1.00  0.00     0.106 C 
ATOM      8  C   UNL A   1      32.859  27.601  22.781  1.00  0.00    -0.006 C 
ATOM      9  C   UNL A   1      31.352  28.092  24.488  1.00  0.00     0.047 C 
ATOM     10  C   UNL A   1      33.018  28.904  23.073  1.00  0.00    -0.016 C 
BRANCH   7  11
ATOM     11  N   UNL A   1      31.375  25.791  23.619  1.00  0.00    -0.346 N 
ATOM     12  C   UNL A   1      31.625  24.476  23.900  1.00  0.00     0.244 C 
ATOM     13  O   UNL A   1      30.721  23.661  23.693  1.00  0.00    -0.270 OA
ATOM     14  H   UNL A   1      30.532  25.975  23.146  1.00  0.00     0.164 HD
BRANCH  12  15
ATOM     15  C   UNL A   1      32.923  23.946  24.453  1.00  0.00     0.072 C 
ATOM     16  C   UNL A   1      34.134  23.898  23.878  1.00  0.00     0.014 C 
BRANCH  16  17
ATOM     17  C   UNL A   1      35.443  23.399  24.330  1.00  0.00    -0.025 A 
ATOM     18  C   UNL A   1      37.842  22.497  25.498  1.00  0.00     0.052 A 
ATOM     19  C   UNL A   1      37.364  21.929  24.309  1.00  0.00     0.020 A 
ATOM     20  C   UNL A   1      37.137  23.536  26.094  1.00  0.00     0.020 A 
ATOM     21  C   UNL A   1      36.166  22.373  23.728  1.00  0.00     0.009 A 
ATOM     22  C   UNL A   1      35.962  23.987  25.503  1.00  0.00     0.009 A 
BRANCH  18  23
ATOM     23  C   UNL A   1      39.046  22.020  26.113  1.00  0.00     0.099 C 
ATOM     24  N   UNL A   1      40.017  21.641  26.618  1.00  0.00    -0.192 NA
ENDBRANCH  18  23
ENDBRANCH  16  17
ENDBRANCH  12  15
ENDBRANCH   7  11
ENDBRANCH   3   6
ENDBRANCH   1   2
BRANCH   1  25
ATOM     25  C   UNL A   1      31.452  32.270  26.553  1.00  0.00     0.042 C 
BRANCH  25  26
ATOM     26  C   UNL A   1      32.766  32.939  26.946  1.00  0.00     0.118 C 
BRANCH  26  27
ATOM     27  N   UNL A   1      32.567  34.211  27.622  1.00  0.00    -0.352 N 
ATOM     28  C   UNL A   1      33.173  34.732  28.738  1.00  0.00     0.251 C 
ATOM     29  H   UNL A   1      31.887  34.794  27.212  1.00  0.00     0.163 HD
ATOM     30  O   UNL A   1      32.687  35.733  29.259  1.00  0.00    -0.269 OA
BRANCH  28  31
ATOM     31  C   UNL A   1      34.376  34.095  29.323  1.00  0.00     0.039 A 
ATOM     32  C   UNL A   1      34.206  33.147  30.333  1.00  0.00     0.014 A 
ATOM     33  C   UNL A   1      35.665  34.457  28.924  1.00  0.00     0.014 A 
ATOM     34  C   UNL A   1      35.322  32.540  30.912  1.00  0.00     0.010 A 
ATOM     35  C   UNL A   1      36.771  33.775  29.426  1.00  0.00     0.010 A 
ATOM     36  C   UNL A   1      36.616  32.828  30.446  1.00  0.00    -0.014 A 
BRANCH  36  37
ATOM     37  C   UNL A   1      37.807  32.178  31.061  1.00  0.00     0.031 A 
ATOM     38  C   UNL A   1      38.361  32.687  32.367  1.00  0.00     0.074 A 
ATOM     39  C   UNL A   1      38.392  31.133  30.444  1.00  0.00     0.049 A 
ATOM     40  N   UNL A   1      39.382  32.248  33.059  1.00  0.00    -0.248 NA
ATOM     41  C   UNL A   1      37.699  33.860  32.955  1.00  0.00     0.031 C 
ATOM     42  C   UNL A   1      37.976  30.574  29.156  1.00  0.00     0.029 A 
ATOM     43  N   UNL A   1      39.454  30.348  30.818  1.00  0.00    -0.354 N 
ATOM     44  C   UNL A   1      39.479  33.089  34.164  1.00  0.00     0.074 A 
ATOM     45  C   UNL A   1      38.474  34.116  33.996  1.00  0.00     0.031 C 
ATOM     46  C   UNL A   1      38.745  29.513  28.869  1.00  0.00     0.029 A 
ATOM     47  C   UNL A   1      39.743  29.346  29.921  1.00  0.00     0.049 A 
ATOM     48  H   UNL A   1      39.963  30.490  31.649  1.00  0.00     0.167 HD
ATOM     49  C   UNL A   1      40.304  32.995  35.238  1.00  0.00     0.034 A 
ATOM     50  C   UNL A   1      40.707  28.404  29.935  1.00  0.00     0.034 A 
ATOM     51  C   UNL A   1      41.312  31.973  35.383  1.00  0.00     0.049 A 
ATOM     52  C   UNL A   1      41.647  28.344  31.113  1.00  0.00     0.074 A 
ATOM     53  C   UNL A   1      42.190  31.771  36.435  1.00  0.00     0.029 A 
ATOM     54  N   UNL A   1      41.590  30.987  34.444  1.00  0.00    -0.354 N 
ATOM     55  N   UNL A   1      41.701  29.123  32.169  1.00  0.00    -0.248 NA
ATOM     56  C   UNL A   1      42.640  27.265  31.108  1.00  0.00     0.031 C 
ATOM     57  C   UNL A   1      43.052  30.724  36.092  1.00  0.00     0.029 A 
ATOM     58  C   UNL A   1      42.644  30.196  34.877  1.00  0.00     0.049 A 
ATOM     59  H   UNL A   1      41.108  30.867  33.593  1.00  0.00     0.167 HD
ATOM     60  C   UNL A   1      42.711  28.600  32.975  1.00  0.00     0.074 A 
ATOM     61  C   UNL A   1      43.223  27.434  32.285  1.00  0.00     0.031 C 
ATOM     62  C   UNL A   1      43.163  29.040  34.179  1.00  0.00     0.034 A 
BRANCH  49  63
ATOM     63  C   UNL A   1      40.159  34.048  36.314  1.00  0.00     0.023 A 
ATOM     64  C   UNL A   1      41.145  35.030  36.522  1.00  0.00     0.031 A 
ATOM     65  C   UNL A   1      39.051  34.043  37.180  1.00  0.00     0.131 A 
ATOM     66  C   UNL A   1      41.058  35.892  37.626  1.00  0.00     0.055 A 
ATOM     67  C   UNL A   1      38.918  34.974  38.214  1.00  0.00     0.041 A 
ATOM     68  F   UNL A   1      38.086  33.118  37.053  1.00  0.00    -0.206 F 
ATOM     69  C   UNL A   1      39.935  35.891  38.456  1.00  0.00     0.022 A 
BRANCH  66  70
ATOM     70  S   UNL A   1      42.519  36.871  38.072  1.00  0.00     0.124 S 
ATOM     71  O   UNL A   1      42.999  37.297  36.759  1.00  0.00    -0.237 OA
ATOM     72  O   UNL A   1      41.953  37.916  38.915  1.00  0.00    -0.237 OA
ATOM     73  O   UNL A   1      43.379  35.908  38.759  1.00  0.00    -0.744 OA
ENDBRANCH  66  70
ENDBRANCH  49  63
BRANCH  50  74
ATOM     74  C   UNL A   1      40.842  27.452  28.794  1.00  0.00     0.023 A 
ATOM     75  C   UNL A   1      41.804  27.638  27.788  1.00  0.00     0.031 A 
ATOM     76  C   UNL A   1      39.977  26.348  28.680  1.00  0.00     0.131 A 
ATOM     77  C   UNL A   1      41.850  26.759  26.693  1.00  0.00     0.055 A 
ATOM     78  C   UNL A   1      40.068  25.442  27.623  1.00  0.00     0.041 A 
ATOM     79  F   UNL A   1      39.037  26.123  29.613  1.00  0.00    -0.206 F 
ATOM     80  C   UNL A   1      41.001  25.653  26.615  1.00  0.00     0.022 A 
BRANCH  77  81
ATOM     81  S   UNL A   1      42.976  27.132  25.321  1.00  0.00     0.124 S 
ATOM     82  O   UNL A   1      43.032  25.851  24.626  1.00  0.00    -0.237 OA
ATOM     83  O   UNL A   1      42.269  28.207  24.631  1.00  0.00    -0.237 OA
ATOM     84  O   UNL A   1      44.211  27.533  25.994  1.00  0.00    -0.744 OA
ENDBRANCH  77  81
ENDBRANCH  50  74
BRANCH  62  85
ATOM     85  C   UNL A   1      44.228  28.208  34.860  1.00  0.00     0.023 A 
ATOM     86  C   UNL A   1      43.913  27.224  35.814  1.00  0.00     0.031 A 
ATOM     87  C   UNL A   1      45.588  28.435  34.578  1.00  0.00     0.131 A 
ATOM     88  C   UNL A   1      44.940  26.575  36.515  1.00  0.00     0.055 A 
ATOM     89  C   UNL A   1      46.603  27.721  35.214  1.00  0.00     0.041 A 
ATOM     90  F   UNL A   1      45.955  29.365  33.682  1.00  0.00    -0.206 F 
ATOM     91  C   UNL A   1      46.282  26.800  36.206  1.00  0.00     0.022 A 
BRANCH  88  92
ATOM     92  S   UNL A   1      44.500  25.557  37.953  1.00  0.00     0.124 S 
ATOM     93  O   UNL A   1      45.812  25.177  38.465  1.00  0.00    -0.237 OA
ATOM     94  O   UNL A   1      43.740  26.492  38.774  1.00  0.00    -0.237 OA
ATOM     95  O   UNL A   1      43.721  24.465  37.372  1.00  0.00    -0.744 OA
ENDBRANCH  88  92
ENDBRANCH  62  85
ENDBRANCH  36  37
ENDBRANCH  28  31
ENDBRANCH  26  27
ENDBRANCH  25  26
ENDBRANCH   1  25
TORSDOF 17
ENDMDL
