MODEL 1
REMARK VINA RESULT:     -10.0      0.000      0.000
REMARK SMILES C#CCN(CC(=O)NCCCNC(=O)c1ccc(-c2c3nc(c(-c4cc(S(=O)(=O)[O-])ccc4F)c4ccc([nH]4)c(-c4cc(S(=O)(=O)[O-])ccc4F)c4nc(c(-c5cc(S(=O)(=O)[O-])ccc5F)c5ccc2[nH]5)C=C4)C=C3)cc1)C(=O)C(C)(C)[NH2+]CC
REMARK SMILES IDX 9 1 8 2 6 3 7 4 5 6 4 7 3 8 2 9 1 10 78 11 79 12 80 13 81 14
REMARK SMILES IDX 82 15 83 16 84 19 85 20 10 21 11 22 12 23 13 24 14 26 15 27
REMARK SMILES IDX 16 28 77 29 17 30 76 31 18 32 19 33 20 34 70 35 21 36 75 37
REMARK SMILES IDX 69 38 71 39 22 40 74 41 68 42 67 43 23 45 55 46 35 47 54 48
REMARK SMILES IDX 36 49 39 50 53 51 72 52 37 53 38 54 52 56 73 57 40 58 24 59
REMARK SMILES IDX 25 60 33 61 26 62 32 63 34 64 31 65 27 66 28 67 29 68 30 69
REMARK SMILES IDX 56 70 57 71 65 72 58 73 64 74 66 75 63 76 59 77 60 78 61 79
REMARK SMILES IDX 62 80 41 81 42 82 50 83 43 84 49 85 51 86 48 87 44 88 45 89
REMARK SMILES IDX 46 90 47 91
REMARK H PARENT 8 5 83 17 83 18 12 25 71 44 39 55
REMARK Flexibility Score: inf
ROOT
ATOM      1  C   UNL A   1      31.510  27.858  24.742  1.00  0.00     0.117 C 
ENDROOT
BRANCH   1   2
ATOM      2  N   UNL A   1      30.897  26.744  25.439  1.00  0.00    -0.354 N 
ATOM      3  C   UNL A   1      31.460  25.636  25.999  1.00  0.00     0.239 C 
ATOM      4  O   UNL A   1      30.776  25.005  26.812  1.00  0.00    -0.273 OA
ATOM      5  H   UNL A   1      29.918  26.797  25.522  1.00  0.00     0.163 HD
BRANCH   3   6
ATOM      6  C   UNL A   1      32.922  25.234  25.753  1.00  0.00     0.220 C 
BRANCH   6   7
ATOM      7  N   UNL A   1      33.210  23.802  25.695  1.00  0.00    -0.317 N 
BRANCH   7   8
ATOM      8  C   UNL A   1      34.255  23.318  26.599  1.00  0.00     0.210 C 
BRANCH   8   9
ATOM      9  C   UNL A   1      35.651  23.482  26.020  1.00  0.00    -0.085 C 
ATOM     10  C   UNL A   1      36.848  23.623  25.523  1.00  0.00     0.006 C 
ENDBRANCH   8   9
ENDBRANCH   7   8
BRANCH   7  11
ATOM     11  C   UNL A   1      32.609  22.849  24.867  1.00  0.00     0.284 C 
ATOM     12  O   UNL A   1      31.956  21.946  25.413  1.00  0.00    -0.268 OA
BRANCH  11  13
ATOM     13  C   UNL A   1      32.791  22.818  23.286  1.00  0.00     0.170 C 
ATOM     14  C   UNL A   1      34.219  22.952  22.752  1.00  0.00     0.090 C 
ATOM     15  C   UNL A   1      32.159  21.513  22.766  1.00  0.00     0.090 C 
BRANCH  13  16
ATOM     16  N   UNL A   1      31.953  23.878  22.645  1.00  0.00    -0.334 N 
ATOM     17  H   UNL A   1      31.261  24.170  23.336  1.00  0.00     0.347 HD
ATOM     18  H   UNL A   1      31.598  23.427  21.802  1.00  0.00     0.347 HD
BRANCH  16  19
ATOM     19  C   UNL A   1      32.592  25.090  22.145  1.00  0.00     0.257 C 
ATOM     20  C   UNL A   1      31.632  26.151  21.624  1.00  0.00     0.071 C 
ENDBRANCH  16  19
ENDBRANCH  13  16
ENDBRANCH  11  13
ENDBRANCH   7  11
ENDBRANCH   6   7
ENDBRANCH   3   6
ENDBRANCH   1   2
BRANCH   1  21
ATOM     21  C   UNL A   1      31.303  29.210  25.420  1.00  0.00     0.042 C 
BRANCH  21  22
ATOM     22  C   UNL A   1      32.540  29.786  26.111  1.00  0.00     0.118 C 
BRANCH  22  23
ATOM     23  N   UNL A   1      32.405  31.200  26.425  1.00  0.00    -0.352 N 
ATOM     24  C   UNL A   1      33.134  32.021  27.249  1.00  0.00     0.251 C 
ATOM     25  H   UNL A   1      31.660  31.648  25.963  1.00  0.00     0.163 HD
ATOM     26  O   UNL A   1      32.681  33.140  27.508  1.00  0.00    -0.269 OA
BRANCH  24  27
ATOM     27  C   UNL A   1      34.424  31.597  27.842  1.00  0.00     0.039 A 
ATOM     28  C   UNL A   1      35.436  32.550  27.996  1.00  0.00     0.014 A 
ATOM     29  C   UNL A   1      34.671  30.268  28.193  1.00  0.00     0.014 A 
ATOM     30  C   UNL A   1      36.659  32.191  28.573  1.00  0.00     0.010 A 
ATOM     31  C   UNL A   1      35.865  29.922  28.827  1.00  0.00     0.010 A 
ATOM     32  C   UNL A   1      36.867  30.883  29.037  1.00  0.00    -0.014 A 
BRANCH  32  33
ATOM     33  C   UNL A   1      38.098  30.514  29.786  1.00  0.00     0.031 A 
ATOM     34  C   UNL A   1      39.083  29.535  29.210  1.00  0.00     0.074 A 
ATOM     35  C   UNL A   1      38.281  31.002  31.030  1.00  0.00     0.049 A 
ATOM     36  N   UNL A   1      40.144  29.005  29.764  1.00  0.00    -0.248 NA
ATOM     37  C   UNL A   1      38.827  29.074  27.838  1.00  0.00     0.031 C 
ATOM     38  C   UNL A   1      37.380  31.936  31.709  1.00  0.00     0.029 A 
ATOM     39  N   UNL A   1      39.270  30.766  31.952  1.00  0.00    -0.354 N 
ATOM     40  C   UNL A   1      40.677  28.138  28.816  1.00  0.00     0.074 A 
ATOM     41  C   UNL A   1      39.794  28.184  27.668  1.00  0.00     0.031 C 
ATOM     42  C   UNL A   1      37.861  32.197  32.935  1.00  0.00     0.029 A 
ATOM     43  C   UNL A   1      39.070  31.411  33.151  1.00  0.00     0.049 A 
ATOM     44  H   UNL A   1      40.049  30.191  31.773  1.00  0.00     0.167 HD
ATOM     45  C   UNL A   1      41.805  27.386  28.893  1.00  0.00     0.034 A 
ATOM     46  C   UNL A   1      39.761  31.354  34.307  1.00  0.00     0.034 A 
ATOM     47  C   UNL A   1      42.676  27.356  30.045  1.00  0.00     0.049 A 
ATOM     48  C   UNL A   1      40.979  30.472  34.386  1.00  0.00     0.074 A 
ATOM     49  C   UNL A   1      43.879  26.687  30.199  1.00  0.00     0.029 A 
ATOM     50  N   UNL A   1      42.431  28.006  31.248  1.00  0.00    -0.354 N 
ATOM     51  N   UNL A   1      41.500  29.699  33.460  1.00  0.00    -0.248 NA
ATOM     52  C   UNL A   1      41.702  30.455  35.664  1.00  0.00     0.031 C 
ATOM     53  C   UNL A   1      44.322  26.873  31.514  1.00  0.00     0.029 A 
ATOM     54  C   UNL A   1      43.435  27.718  32.162  1.00  0.00     0.049 A 
ATOM     55  H   UNL A   1      41.655  28.587  31.426  1.00  0.00     0.167 HD
ATOM     56  C   UNL A   1      42.622  29.116  34.043  1.00  0.00     0.074 A 
ATOM     57  C   UNL A   1      42.713  29.644  35.389  1.00  0.00     0.031 C 
ATOM     58  C   UNL A   1      43.499  28.226  33.512  1.00  0.00     0.034 A 
BRANCH  45  59
ATOM     59  C   UNL A   1      42.140  26.510  27.709  1.00  0.00     0.023 A 
ATOM     60  C   UNL A   1      41.670  25.188  27.609  1.00  0.00     0.031 A 
ATOM     61  C   UNL A   1      42.956  26.996  26.672  1.00  0.00     0.131 A 
ATOM     62  C   UNL A   1      42.075  24.378  26.537  1.00  0.00     0.055 A 
ATOM     63  C   UNL A   1      43.293  26.210  25.569  1.00  0.00     0.041 A 
ATOM     64  F   UNL A   1      43.451  28.243  26.718  1.00  0.00    -0.206 F 
ATOM     65  C   UNL A   1      42.864  24.887  25.503  1.00  0.00     0.022 A 
BRANCH  62  66
ATOM     66  S   UNL A   1      41.669  22.611  26.583  1.00  0.00     0.124 S 
ATOM     67  O   UNL A   1      42.296  22.195  27.835  1.00  0.00    -0.237 OA
ATOM     68  O   UNL A   1      40.211  22.622  26.571  1.00  0.00    -0.237 OA
ATOM     69  O   UNL A   1      42.299  22.082  25.374  1.00  0.00    -0.744 OA
ENDBRANCH  62  66
ENDBRANCH  45  59
BRANCH  46  70
ATOM     70  C   UNL A   1      39.299  32.122  35.498  1.00  0.00     0.023 A 
ATOM     71  C   UNL A   1      39.728  33.439  35.721  1.00  0.00     0.031 A 
ATOM     72  C   UNL A   1      38.447  31.534  36.450  1.00  0.00     0.131 A 
ATOM     73  C   UNL A   1      39.334  34.114  36.886  1.00  0.00     0.055 A 
ATOM     74  C   UNL A   1      38.018  32.226  37.584  1.00  0.00     0.041 A 
ATOM     75  F   UNL A   1      38.007  30.277  36.283  1.00  0.00    -0.206 F 
ATOM     76  C   UNL A   1      38.472  33.522  37.812  1.00  0.00     0.022 A 
BRANCH  73  77
ATOM     77  S   UNL A   1      40.026  35.758  37.213  1.00  0.00     0.124 S 
ATOM     78  O   UNL A   1      39.721  36.462  35.973  1.00  0.00    -0.237 OA
ATOM     79  O   UNL A   1      39.272  36.176  38.390  1.00  0.00    -0.237 OA
ATOM     80  O   UNL A   1      41.444  35.491  37.447  1.00  0.00    -0.744 OA
ENDBRANCH  73  77
ENDBRANCH  46  70
BRANCH  58  81
ATOM     81  C   UNL A   1      44.643  27.789  34.393  1.00  0.00     0.023 A 
ATOM     82  C   UNL A   1      44.555  26.638  35.197  1.00  0.00     0.031 A 
ATOM     83  C   UNL A   1      45.828  28.544  34.447  1.00  0.00     0.131 A 
ATOM     84  C   UNL A   1      45.610  26.305  36.059  1.00  0.00     0.055 A 
ATOM     85  C   UNL A   1      46.898  28.175  35.263  1.00  0.00     0.041 A 
ATOM     86  F   UNL A   1      45.964  29.655  33.706  1.00  0.00    -0.206 F 
ATOM     87  C   UNL A   1      46.788  27.057  36.085  1.00  0.00     0.022 A 
BRANCH  84  88
ATOM     88  S   UNL A   1      45.392  24.921  37.212  1.00  0.00     0.124 S 
ATOM     89  O   UNL A   1      44.050  25.167  37.730  1.00  0.00    -0.237 OA
ATOM     90  O   UNL A   1      45.537  23.760  36.340  1.00  0.00    -0.237 OA
ATOM     91  O   UNL A   1      46.473  25.107  38.180  1.00  0.00    -0.744 OA
ENDBRANCH  84  88
ENDBRANCH  58  81
ENDBRANCH  32  33
ENDBRANCH  24  27
ENDBRANCH  22  23
ENDBRANCH  21  22
ENDBRANCH   1  21
TORSDOF 20
ENDMDL
MODEL 2
REMARK VINA RESULT:      -9.9      5.016     10.302
REMARK SMILES C#CCN(CC(=O)NCCCNC(=O)c1ccc(-c2c3nc(c(-c4cc(S(=O)(=O)[O-])ccc4F)c4ccc([nH]4)c(-c4cc(S(=O)(=O)[O-])ccc4F)c4nc(c(-c5cc(S(=O)(=O)[O-])ccc5F)c5ccc2[nH]5)C=C4)C=C3)cc1)C(=O)C(C)(C)[NH2+]CC
REMARK SMILES IDX 9 1 8 2 6 3 7 4 5 6 4 7 3 8 2 9 1 10 78 11 79 12 80 13 81 14
REMARK SMILES IDX 82 15 83 16 84 19 85 20 10 21 11 22 12 23 13 24 14 26 15 27
REMARK SMILES IDX 16 28 77 29 17 30 76 31 18 32 19 33 20 34 70 35 21 36 75 37
REMARK SMILES IDX 69 38 71 39 22 40 74 41 68 42 67 43 23 45 55 46 35 47 54 48
REMARK SMILES IDX 36 49 39 50 53 51 72 52 37 53 38 54 52 56 73 57 40 58 24 59
REMARK SMILES IDX 25 60 33 61 26 62 32 63 34 64 31 65 27 66 28 67 29 68 30 69
REMARK SMILES IDX 56 70 57 71 65 72 58 73 64 74 66 75 63 76 59 77 60 78 61 79
REMARK SMILES IDX 62 80 41 81 42 82 50 83 43 84 49 85 51 86 48 87 44 88 45 89
REMARK SMILES IDX 46 90 47 91
REMARK H PARENT 8 5 83 17 83 18 12 25 71 44 39 55
REMARK Flexibility Score: inf
ROOT
ATOM      1  C   UNL A   1      34.234  22.876  25.543  1.00  0.00     0.117 C 
ENDROOT
BRANCH   1   2
ATOM      2  N   UNL A   1      34.090  23.442  24.216  1.00  0.00    -0.354 N 
ATOM      3  C   UNL A   1      33.947  24.739  23.819  1.00  0.00     0.239 C 
ATOM      4  O   UNL A   1      34.171  24.993  22.631  1.00  0.00    -0.273 OA
ATOM      5  H   UNL A   1      34.095  22.785  23.483  1.00  0.00     0.163 HD
BRANCH   3   6
ATOM      6  C   UNL A   1      33.651  25.879  24.805  1.00  0.00     0.220 C 
BRANCH   6   7
ATOM      7  N   UNL A   1      32.583  26.807  24.436  1.00  0.00    -0.317 N 
BRANCH   7   8
ATOM      8  C   UNL A   1      31.301  26.201  24.075  1.00  0.00     0.210 C 
BRANCH   8   9
ATOM      9  C   UNL A   1      30.267  27.230  23.648  1.00  0.00    -0.085 C 
ATOM     10  C   UNL A   1      29.380  28.114  23.282  1.00  0.00     0.006 C 
ENDBRANCH   8   9
ENDBRANCH   7   8
BRANCH   7  11
ATOM     11  C   UNL A   1      32.654  28.202  24.378  1.00  0.00     0.284 C 
ATOM     12  O   UNL A   1      32.937  28.716  23.284  1.00  0.00    -0.268 OA
BRANCH  11  13
ATOM     13  C   UNL A   1      32.477  29.145  25.647  1.00  0.00     0.170 C 
ATOM     14  C   UNL A   1      31.492  30.309  25.512  1.00  0.00     0.090 C 
ATOM     15  C   UNL A   1      32.075  28.257  26.840  1.00  0.00     0.090 C 
BRANCH  13  16
ATOM     16  N   UNL A   1      33.798  29.702  26.072  1.00  0.00    -0.334 N 
ATOM     17  H   UNL A   1      33.614  30.601  26.517  1.00  0.00     0.347 HD
ATOM     18  H   UNL A   1      34.340  29.721  25.208  1.00  0.00     0.347 HD
BRANCH  16  19
ATOM     19  C   UNL A   1      34.635  28.936  26.989  1.00  0.00     0.257 C 
ATOM     20  C   UNL A   1      35.846  29.687  27.527  1.00  0.00     0.071 C 
ENDBRANCH  16  19
ENDBRANCH  13  16
ENDBRANCH  11  13
ENDBRANCH   7  11
ENDBRANCH   6   7
ENDBRANCH   3   6
ENDBRANCH   1   2
BRANCH   1  21
ATOM     21  C   UNL A   1      35.272  21.761  25.637  1.00  0.00     0.042 C 
BRANCH  21  22
ATOM     22  C   UNL A   1      36.702  22.174  25.287  1.00  0.00     0.118 C 
BRANCH  22  23
ATOM     23  N   UNL A   1      37.679  21.136  25.582  1.00  0.00    -0.352 N 
ATOM     24  C   UNL A   1      38.978  21.209  26.020  1.00  0.00     0.251 C 
ATOM     25  H   UNL A   1      37.349  20.219  25.442  1.00  0.00     0.163 HD
ATOM     26  O   UNL A   1      39.664  20.183  25.986  1.00  0.00    -0.269 OA
BRANCH  24  27
ATOM     27  C   UNL A   1      39.573  22.474  26.508  1.00  0.00     0.039 A 
ATOM     28  C   UNL A   1      40.554  22.413  27.503  1.00  0.00     0.014 A 
ATOM     29  C   UNL A   1      39.141  23.719  26.043  1.00  0.00     0.014 A 
ATOM     30  C   UNL A   1      41.156  23.586  27.972  1.00  0.00     0.010 A 
ATOM     31  C   UNL A   1      39.785  24.884  26.463  1.00  0.00     0.010 A 
ATOM     32  C   UNL A   1      40.809  24.829  27.422  1.00  0.00    -0.014 A 
BRANCH  32  33
ATOM     33  C   UNL A   1      41.537  26.071  27.796  1.00  0.00     0.031 A 
ATOM     34  C   UNL A   1      40.841  27.174  28.544  1.00  0.00     0.074 A 
ATOM     35  C   UNL A   1      42.809  26.237  27.380  1.00  0.00     0.049 A 
ATOM     36  N   UNL A   1      41.275  28.370  28.850  1.00  0.00    -0.248 NA
ATOM     37  C   UNL A   1      39.466  26.901  28.988  1.00  0.00     0.031 C 
ATOM     38  C   UNL A   1      43.583  25.252  26.621  1.00  0.00     0.029 A 
ATOM     39  N   UNL A   1      43.669  27.299  27.518  1.00  0.00    -0.354 N 
ATOM     40  C   UNL A   1      40.226  29.001  29.510  1.00  0.00     0.074 A 
ATOM     41  C   UNL A   1      39.119  28.065  29.519  1.00  0.00     0.031 C 
ATOM     42  C   UNL A   1      44.801  25.753  26.365  1.00  0.00     0.029 A 
ATOM     43  C   UNL A   1      44.880  27.111  26.891  1.00  0.00     0.049 A 
ATOM     44  H   UNL A   1      43.441  28.117  28.016  1.00  0.00     0.167 HD
ATOM     45  C   UNL A   1      40.195  30.238  30.066  1.00  0.00     0.034 A 
ATOM     46  C   UNL A   1      45.925  27.946  26.729  1.00  0.00     0.034 A 
ATOM     47  C   UNL A   1      41.310  31.157  30.050  1.00  0.00     0.049 A 
ATOM     48  C   UNL A   1      45.848  29.333  27.309  1.00  0.00     0.074 A 
ATOM     49  C   UNL A   1      41.408  32.404  30.646  1.00  0.00     0.029 A 
ATOM     50  N   UNL A   1      42.513  30.941  29.390  1.00  0.00    -0.354 N 
ATOM     51  N   UNL A   1      44.866  29.895  27.977  1.00  0.00    -0.248 NA
ATOM     52  C   UNL A   1      47.018  30.199  27.114  1.00  0.00     0.031 C 
ATOM     53  C   UNL A   1      42.638  32.968  30.286  1.00  0.00     0.029 A 
ATOM     54  C   UNL A   1      43.340  32.047  29.526  1.00  0.00     0.049 A 
ATOM     55  H   UNL A   1      42.744  30.120  28.895  1.00  0.00     0.167 HD
ATOM     56  C   UNL A   1      45.311  31.176  28.295  1.00  0.00     0.074 A 
ATOM     57  C   UNL A   1      46.654  31.293  27.765  1.00  0.00     0.031 C 
ATOM     58  C   UNL A   1      44.666  32.164  28.966  1.00  0.00     0.034 A 
BRANCH  45  59
ATOM     59  C   UNL A   1      38.902  30.682  30.709  1.00  0.00     0.023 A 
ATOM     60  C   UNL A   1      37.936  31.417  30.000  1.00  0.00     0.031 A 
ATOM     61  C   UNL A   1      38.636  30.379  32.057  1.00  0.00     0.131 A 
ATOM     62  C   UNL A   1      36.787  31.885  30.657  1.00  0.00     0.055 A 
ATOM     63  C   UNL A   1      37.456  30.781  32.684  1.00  0.00     0.041 A 
ATOM     64  F   UNL A   1      39.528  29.695  32.792  1.00  0.00    -0.206 F 
ATOM     65  C   UNL A   1      36.529  31.552  31.988  1.00  0.00     0.022 A 
BRANCH  62  66
ATOM     66  S   UNL A   1      35.703  33.049  29.786  1.00  0.00     0.124 S 
ATOM     67  O   UNL A   1      35.558  34.115  30.773  1.00  0.00    -0.237 OA
ATOM     68  O   UNL A   1      36.483  33.379  28.598  1.00  0.00    -0.237 OA
ATOM     69  O   UNL A   1      34.490  32.270  29.539  1.00  0.00    -0.744 OA
ENDBRANCH  62  66
ENDBRANCH  45  59
BRANCH  46  70
ATOM     70  C   UNL A   1      47.121  27.512  25.951  1.00  0.00     0.023 A 
ATOM     71  C   UNL A   1      47.250  27.823  24.589  1.00  0.00     0.031 A 
ATOM     72  C   UNL A   1      48.137  26.750  26.555  1.00  0.00     0.131 A 
ATOM     73  C   UNL A   1      48.351  27.342  23.864  1.00  0.00     0.055 A 
ATOM     74  C   UNL A   1      49.256  26.316  25.842  1.00  0.00     0.041 A 
ATOM     75  F   UNL A   1      48.063  26.428  27.855  1.00  0.00    -0.206 F 
ATOM     76  C   UNL A   1      49.361  26.603  24.484  1.00  0.00     0.022 A 
BRANCH  73  77
ATOM     77  S   UNL A   1      48.409  27.637  22.076  1.00  0.00     0.124 S 
ATOM     78  O   UNL A   1      48.592  26.287  21.557  1.00  0.00    -0.237 OA
ATOM     79  O   UNL A   1      47.107  28.249  21.827  1.00  0.00    -0.237 OA
ATOM     80  O   UNL A   1      49.555  28.529  21.914  1.00  0.00    -0.744 OA
ENDBRANCH  73  77
ENDBRANCH  46  70
BRANCH  58  81
ATOM     81  C   UNL A   1      45.426  33.451  29.177  1.00  0.00     0.023 A 
ATOM     82  C   UNL A   1      45.279  34.544  28.304  1.00  0.00     0.031 A 
ATOM     83  C   UNL A   1      46.323  33.579  30.251  1.00  0.00     0.131 A 
ATOM     84  C   UNL A   1      46.057  35.696  28.489  1.00  0.00     0.055 A 
ATOM     85  C   UNL A   1      47.052  34.750  30.465  1.00  0.00     0.041 A 
ATOM     86  F   UNL A   1      46.507  32.566  31.112  1.00  0.00    -0.206 F 
ATOM     87  C   UNL A   1      46.931  35.812  29.573  1.00  0.00     0.022 A 
BRANCH  84  88
ATOM     88  S   UNL A   1      45.977  37.013  27.243  1.00  0.00     0.124 S 
ATOM     89  O   UNL A   1      46.512  38.156  27.975  1.00  0.00    -0.237 OA
ATOM     90  O   UNL A   1      46.822  36.487  26.176  1.00  0.00    -0.237 OA
ATOM     91  O   UNL A   1      44.553  37.094  26.921  1.00  0.00    -0.744 OA
ENDBRANCH  84  88
ENDBRANCH  58  81
ENDBRANCH  32  33
ENDBRANCH  24  27
ENDBRANCH  22  23
ENDBRANCH  21  22
ENDBRANCH   1  21
TORSDOF 20
ENDMDL
MODEL 3
REMARK VINA RESULT:      -9.8      1.563      2.284
REMARK SMILES C#CCN(CC(=O)NCCCNC(=O)c1ccc(-c2c3nc(c(-c4cc(S(=O)(=O)[O-])ccc4F)c4ccc([nH]4)c(-c4cc(S(=O)(=O)[O-])ccc4F)c4nc(c(-c5cc(S(=O)(=O)[O-])ccc5F)c5ccc2[nH]5)C=C4)C=C3)cc1)C(=O)C(C)(C)[NH2+]CC
REMARK SMILES IDX 9 1 8 2 6 3 7 4 5 6 4 7 3 8 2 9 1 10 78 11 79 12 80 13 81 14
REMARK SMILES IDX 82 15 83 16 84 19 85 20 10 21 11 22 12 23 13 24 14 26 15 27
REMARK SMILES IDX 16 28 77 29 17 30 76 31 18 32 19 33 20 34 70 35 21 36 75 37
REMARK SMILES IDX 69 38 71 39 22 40 74 41 68 42 67 43 23 45 55 46 35 47 54 48
REMARK SMILES IDX 36 49 39 50 53 51 72 52 37 53 38 54 52 56 73 57 40 58 24 59
REMARK SMILES IDX 25 60 33 61 26 62 32 63 34 64 31 65 27 66 28 67 29 68 30 69
REMARK SMILES IDX 56 70 57 71 65 72 58 73 64 74 66 75 63 76 59 77 60 78 61 79
REMARK SMILES IDX 62 80 41 81 42 82 50 83 43 84 49 85 51 86 48 87 44 88 45 89
REMARK SMILES IDX 46 90 47 91
REMARK H PARENT 8 5 83 17 83 18 12 25 71 44 39 55
REMARK Flexibility Score: inf
ROOT
ATOM      1  C   UNL A   1      30.935  30.144  25.371  1.00  0.00     0.117 C 
ENDROOT
BRANCH   1   2
ATOM      2  N   UNL A   1      30.864  29.921  23.940  1.00  0.00    -0.354 N 
ATOM      3  C   UNL A   1      31.006  28.774  23.216  1.00  0.00     0.239 C 
ATOM      4  O   UNL A   1      30.581  28.783  22.056  1.00  0.00    -0.273 OA
ATOM      5  H   UNL A   1      30.684  30.727  23.404  1.00  0.00     0.163 HD
BRANCH   3   6
ATOM      6  C   UNL A   1      31.546  27.471  23.825  1.00  0.00     0.220 C 
BRANCH   6   7
ATOM      7  N   UNL A   1      32.950  27.156  23.565  1.00  0.00    -0.317 N 
BRANCH   7   8
ATOM      8  C   UNL A   1      33.925  28.155  24.000  1.00  0.00     0.210 C 
BRANCH   8   9
ATOM      9  C   UNL A   1      33.953  28.328  25.510  1.00  0.00    -0.085 C 
ATOM     10  C   UNL A   1      33.977  28.476  26.805  1.00  0.00     0.006 C 
ENDBRANCH   8   9
ENDBRANCH   7   8
BRANCH   7  11
ATOM     11  C   UNL A   1      33.459  26.015  22.938  1.00  0.00     0.284 C 
ATOM     12  O   UNL A   1      33.769  26.110  21.740  1.00  0.00    -0.268 OA
BRANCH  11  13
ATOM     13  C   UNL A   1      33.579  24.598  23.653  1.00  0.00     0.170 C 
ATOM     14  C   UNL A   1      34.155  23.450  22.819  1.00  0.00     0.090 C 
ATOM     15  C   UNL A   1      34.418  24.786  24.931  1.00  0.00     0.090 C 
BRANCH  13  16
ATOM     16  N   UNL A   1      32.249  24.167  24.182  1.00  0.00    -0.334 N 
ATOM     17  H   UNL A   1      32.022  23.280  23.730  1.00  0.00     0.347 HD
ATOM     18  H   UNL A   1      31.639  24.957  23.973  1.00  0.00     0.347 HD
BRANCH  16  19
ATOM     19  C   UNL A   1      32.080  23.968  25.617  1.00  0.00     0.257 C 
ATOM     20  C   UNL A   1      30.908  24.719  26.232  1.00  0.00     0.071 C 
ENDBRANCH  16  19
ENDBRANCH  13  16
ENDBRANCH  11  13
ENDBRANCH   7  11
ENDBRANCH   6   7
ENDBRANCH   3   6
ENDBRANCH   1   2
BRANCH   1  21
ATOM     21  C   UNL A   1      31.125  31.606  25.766  1.00  0.00     0.042 C 
BRANCH  21  22
ATOM     22  C   UNL A   1      32.174  31.853  26.851  1.00  0.00     0.118 C 
BRANCH  22  23
ATOM     23  N   UNL A   1      32.249  33.248  27.258  1.00  0.00    -0.352 N 
ATOM     24  C   UNL A   1      33.102  33.901  28.113  1.00  0.00     0.251 C 
ATOM     25  H   UNL A   1      31.566  33.827  26.847  1.00  0.00     0.163 HD
ATOM     26  O   UNL A   1      32.818  35.053  28.455  1.00  0.00    -0.269 OA
BRANCH  24  27
ATOM     27  C   UNL A   1      34.328  33.260  28.641  1.00  0.00     0.039 A 
ATOM     28  C   UNL A   1      35.544  33.940  28.520  1.00  0.00     0.014 A 
ATOM     29  C   UNL A   1      34.308  31.980  29.199  1.00  0.00     0.014 A 
ATOM     30  C   UNL A   1      36.720  33.376  29.029  1.00  0.00     0.010 A 
ATOM     31  C   UNL A   1      35.468  31.444  29.763  1.00  0.00     0.010 A 
ATOM     32  C   UNL A   1      36.683  32.143  29.697  1.00  0.00    -0.014 A 
BRANCH  32  33
ATOM     33  C   UNL A   1      37.888  31.593  30.375  1.00  0.00     0.031 A 
ATOM     34  C   UNL A   1      38.741  30.555  29.701  1.00  0.00     0.074 A 
ATOM     35  C   UNL A   1      38.161  31.973  31.639  1.00  0.00     0.049 A 
ATOM     36  N   UNL A   1      39.754  29.877  30.179  1.00  0.00    -0.248 NA
ATOM     37  C   UNL A   1      38.395  30.219  28.313  1.00  0.00     0.031 C 
ATOM     38  C   UNL A   1      37.390  32.952  32.410  1.00  0.00     0.029 A 
ATOM     39  N   UNL A   1      39.146  31.570  32.507  1.00  0.00    -0.354 N 
ATOM     40  C   UNL A   1      40.160  29.024  29.158  1.00  0.00     0.074 A 
ATOM     41  C   UNL A   1      39.252  29.242  28.050  1.00  0.00     0.031 C 
ATOM     42  C   UNL A   1      37.933  33.076  33.631  1.00  0.00     0.029 A 
ATOM     43  C   UNL A   1      39.054  32.151  33.751  1.00  0.00     0.049 A 
ATOM     44  H   UNL A   1      39.851  30.928  32.262  1.00  0.00     0.167 HD
ATOM     45  C   UNL A   1      41.199  28.151  29.145  1.00  0.00     0.034 A 
ATOM     46  C   UNL A   1      39.769  31.941  34.874  1.00  0.00     0.034 A 
ATOM     47  C   UNL A   1      42.096  27.949  30.259  1.00  0.00     0.049 A 
ATOM     48  C   UNL A   1      40.884  30.929  34.851  1.00  0.00     0.074 A 
ATOM     49  C   UNL A   1      43.222  27.145  30.325  1.00  0.00     0.029 A 
ATOM     50  N   UNL A   1      41.960  28.539  31.510  1.00  0.00    -0.354 N 
ATOM     51  N   UNL A   1      41.289  30.169  33.859  1.00  0.00    -0.248 NA
ATOM     52  C   UNL A   1      41.639  30.748  36.097  1.00  0.00     0.031 C 
ATOM     53  C   UNL A   1      43.722  27.193  31.632  1.00  0.00     0.029 A 
ATOM     54  C   UNL A   1      42.954  28.083  32.365  1.00  0.00     0.049 A 
ATOM     55  H   UNL A   1      41.259  29.187  31.754  1.00  0.00     0.167 HD
ATOM     56  C   UNL A   1      42.357  29.430  34.362  1.00  0.00     0.074 A 
ATOM     57  C   UNL A   1      42.546  29.854  35.734  1.00  0.00     0.031 C 
ATOM     58  C   UNL A   1      43.114  28.489  33.742  1.00  0.00     0.034 A 
BRANCH  45  59
ATOM     59  C   UNL A   1      41.400  27.326  27.896  1.00  0.00     0.023 A 
ATOM     60  C   UNL A   1      41.006  25.977  27.828  1.00  0.00     0.031 A 
ATOM     61  C   UNL A   1      42.009  27.889  26.761  1.00  0.00     0.131 A 
ATOM     62  C   UNL A   1      41.289  25.220  26.681  1.00  0.00     0.055 A 
ATOM     63  C   UNL A   1      42.219  27.152  25.594  1.00  0.00     0.041 A 
ATOM     64  F   UNL A   1      42.424  29.166  26.770  1.00  0.00    -0.206 F 
ATOM     65  C   UNL A   1      41.871  25.805  25.554  1.00  0.00     0.022 A 
BRANCH  62  66
ATOM     66  S   UNL A   1      41.009  23.429  26.733  1.00  0.00     0.124 S 
ATOM     67  O   UNL A   1      39.573  23.345  26.481  1.00  0.00    -0.237 OA
ATOM     68  O   UNL A   1      41.875  22.944  25.664  1.00  0.00    -0.237 OA
ATOM     69  O   UNL A   1      41.420  23.057  28.086  1.00  0.00    -0.744 OA
ENDBRANCH  62  66
ENDBRANCH  45  59
BRANCH  46  70
ATOM     70  C   UNL A   1      39.431  32.672  36.129  1.00  0.00     0.023 A 
ATOM     71  C   UNL A   1      40.040  33.898  36.439  1.00  0.00     0.031 A 
ATOM     72  C   UNL A   1      38.517  32.136  37.052  1.00  0.00     0.131 A 
ATOM     73  C   UNL A   1      39.756  34.530  37.659  1.00  0.00     0.055 A 
ATOM     74  C   UNL A   1      38.199  32.792  38.243  1.00  0.00     0.041 A 
ATOM     75  F   UNL A   1      37.905  30.967  36.803  1.00  0.00    -0.206 F 
ATOM     76  C   UNL A   1      38.830  33.992  38.556  1.00  0.00     0.022 A 
BRANCH  73  77
ATOM     77  S   UNL A   1      40.672  36.033  38.091  1.00  0.00     0.124 S 
ATOM     78  O   UNL A   1      39.712  37.077  37.750  1.00  0.00    -0.237 OA
ATOM     79  O   UNL A   1      40.925  35.836  39.515  1.00  0.00    -0.237 OA
ATOM     80  O   UNL A   1      41.855  35.971  37.236  1.00  0.00    -0.744 OA
ENDBRANCH  73  77
ENDBRANCH  46  70
BRANCH  58  81
ATOM     81  C   UNL A   1      44.229  27.873  34.550  1.00  0.00     0.023 A 
ATOM     82  C   UNL A   1      44.030  26.704  35.308  1.00  0.00     0.031 A 
ATOM     83  C   UNL A   1      45.500  28.472  34.581  1.00  0.00     0.131 A 
ATOM     84  C   UNL A   1      45.069  26.203  36.106  1.00  0.00     0.055 A 
ATOM     85  C   UNL A   1      46.548  27.935  35.330  1.00  0.00     0.041 A 
ATOM     86  F   UNL A   1      45.744  29.591  33.881  1.00  0.00    -0.206 F 
ATOM     87  C   UNL A   1      46.331  26.801  36.109  1.00  0.00     0.022 A 
BRANCH  84  88
ATOM     88  S   UNL A   1      44.725  24.803  37.208  1.00  0.00     0.124 S 
ATOM     89  O   UNL A   1      46.055  24.232  37.397  1.00  0.00    -0.237 OA
ATOM     90  O   UNL A   1      44.140  25.459  38.374  1.00  0.00    -0.237 OA
ATOM     91  O   UNL A   1      43.800  23.976  36.435  1.00  0.00    -0.744 OA
ENDBRANCH  84  88
ENDBRANCH  58  81
ENDBRANCH  32  33
ENDBRANCH  24  27
ENDBRANCH  22  23
ENDBRANCH  21  22
ENDBRANCH   1  21
TORSDOF 20
ENDMDL
