MODEL 1
REMARK VINA RESULT:     -13.8      0.000      0.000
REMARK SMILES Cc1ccccc1C(=O)Nc1cc(NC(=O)c2ccccc2C)cc(C(=O)NCCCNC(=O)c2ccc(-c3c4nc(c(-c5cc(S(=O)(=O)[O-])ccc5F)c5ccc([nH]5)c(-c5cc(S(=O)(=O)[O-])ccc5F)c5nc(c(-c6cc(S(=O)(=O)[O-])ccc6F)c6ccc3[nH]6)C=C5)C=C4)cc2)c1
REMARK SMILES IDX 30 1 29 2 28 3 26 4 27 5 25 7 11 8 12 9 98 10 13 11 24 12
REMARK SMILES IDX 10 13 8 14 9 15 7 17 1 18 2 19 3 20 4 21 6 22 5 23 14 24
REMARK SMILES IDX 15 25 16 27 17 28 18 29 22 30 19 31 21 32 23 33 20 34 31 35
REMARK SMILES IDX 32 36 33 37 34 39 35 40 36 41 97 42 37 43 96 44 38 45 39 46
REMARK SMILES IDX 40 47 90 48 41 49 95 50 89 51 91 52 42 53 94 54 88 55 87 56
REMARK SMILES IDX 43 58 75 59 55 60 74 61 56 62 59 63 73 64 92 65 57 66 58 67
REMARK SMILES IDX 72 69 93 70 60 71 44 72 45 73 53 74 46 75 52 76 54 77 51 78
REMARK SMILES IDX 47 79 48 80 49 81 50 82 76 83 77 84 85 85 78 86 84 87 86 88
REMARK SMILES IDX 83 89 79 90 80 91 81 92 82 93 61 94 62 95 70 96 63 97 69 98
REMARK SMILES IDX 71 99 68 100 64 101 65 102 66 103 67 104
REMARK H PARENT 28 6 10 16 14 26 32 38 91 57 59 68
REMARK Flexibility Score: inf
ROOT
ATOM      1  C   UNL A   1      35.346  30.587  28.493  1.00  0.00     0.042 C 
ENDROOT
BRANCH   1   2
ATOM      2  C   UNL A   1      34.959  29.446  27.550  1.00  0.00     0.118 C 
BRANCH   2   3
ATOM      3  N   UNL A   1      33.625  28.934  27.843  1.00  0.00    -0.352 N 
ATOM      4  C   UNL A   1      32.711  28.233  27.098  1.00  0.00     0.251 C 
ATOM      5  O   UNL A   1      31.674  27.855  27.644  1.00  0.00    -0.269 OA
ATOM      6  H   UNL A   1      33.319  29.131  28.758  1.00  0.00     0.163 HD
BRANCH   4   7
ATOM      7  C   UNL A   1      32.913  27.868  25.666  1.00  0.00     0.043 A 
ATOM      8  C   UNL A   1      32.530  28.477  23.346  1.00  0.00     0.044 A 
ATOM      9  C   UNL A   1      33.154  27.302  22.917  1.00  0.00     0.052 A 
ATOM     10  C   UNL A   1      32.494  28.797  24.707  1.00  0.00     0.040 A 
ATOM     11  C   UNL A   1      33.634  26.396  23.857  1.00  0.00     0.044 A 
ATOM     12  C   UNL A   1      33.475  26.674  25.217  1.00  0.00     0.040 A 
BRANCH   8  13
ATOM     13  N   UNL A   1      31.823  29.329  22.486  1.00  0.00    -0.322 N 
ATOM     14  C   UNL A   1      30.490  29.319  22.135  1.00  0.00     0.255 C 
ATOM     15  O   UNL A   1      30.092  30.076  21.248  1.00  0.00    -0.269 OA
ATOM     16  H   UNL A   1      32.359  30.042  22.070  1.00  0.00     0.170 HD
BRANCH  14  17
ATOM     17  C   UNL A   1      29.494  28.452  22.825  1.00  0.00     0.043 A 
ATOM     18  C   UNL A   1      27.513  30.110  22.716  1.00  0.00     0.045 C 
ATOM     19  C   UNL A   1      28.165  28.817  23.127  1.00  0.00    -0.038 A 
ATOM     20  C   UNL A   1      27.370  27.914  23.857  1.00  0.00     0.004 A 
ATOM     21  C   UNL A   1      27.842  26.645  24.193  1.00  0.00     0.000 A 
ATOM     22  C   UNL A   1      29.943  27.155  23.135  1.00  0.00     0.014 A 
ATOM     23  C   UNL A   1      29.119  26.255  23.807  1.00  0.00     0.001 A 
ENDBRANCH  14  17
ENDBRANCH   8  13
BRANCH  11  24
ATOM     24  N   UNL A   1      34.221  25.158  23.545  1.00  0.00    -0.322 N 
ATOM     25  C   UNL A   1      34.103  23.923  24.131  1.00  0.00     0.255 C 
ATOM     26  H   UNL A   1      34.823  25.181  22.767  1.00  0.00     0.170 HD
ATOM     27  O   UNL A   1      34.901  23.028  23.855  1.00  0.00    -0.269 OA
BRANCH  25  28
ATOM     28  C   UNL A   1      32.970  23.606  25.027  1.00  0.00     0.043 A 
ATOM     29  C   UNL A   1      33.289  23.423  26.382  1.00  0.00     0.014 A 
ATOM     30  C   UNL A   1      31.652  23.408  24.572  1.00  0.00    -0.038 A 
ATOM     31  C   UNL A   1      32.291  23.112  27.302  1.00  0.00     0.001 A 
ATOM     32  C   UNL A   1      30.656  23.128  25.521  1.00  0.00     0.004 A 
ATOM     33  C   UNL A   1      31.244  23.490  23.126  1.00  0.00     0.045 C 
ATOM     34  C   UNL A   1      30.974  22.981  26.873  1.00  0.00     0.000 A 
ENDBRANCH  25  28
ENDBRANCH  11  24
ENDBRANCH   4   7
ENDBRANCH   2   3
ENDBRANCH   1   2
BRANCH   1  35
ATOM     35  C   UNL A   1      35.275  31.960  27.849  1.00  0.00     0.118 C 
BRANCH  35  36
ATOM     36  N   UNL A   1      34.332  32.858  28.508  1.00  0.00    -0.352 N 
ATOM     37  C   UNL A   1      34.522  33.602  29.665  1.00  0.00     0.251 C 
ATOM     38  H   UNL A   1      33.451  32.947  28.078  1.00  0.00     0.163 HD
ATOM     39  O   UNL A   1      33.655  34.291  30.146  1.00  0.00    -0.269 OA
BRANCH  37  40
ATOM     40  C   UNL A   1      35.898  33.629  30.217  1.00  0.00     0.039 A 
ATOM     41  C   UNL A   1      36.892  34.137  29.375  1.00  0.00     0.014 A 
ATOM     42  C   UNL A   1      36.219  32.882  31.347  1.00  0.00     0.014 A 
ATOM     43  C   UNL A   1      38.199  33.690  29.530  1.00  0.00     0.010 A 
ATOM     44  C   UNL A   1      37.499  32.368  31.446  1.00  0.00     0.010 A 
ATOM     45  C   UNL A   1      38.464  32.715  30.492  1.00  0.00    -0.014 A 
BRANCH  45  46
ATOM     46  C   UNL A   1      39.678  31.904  30.467  1.00  0.00     0.031 A 
ATOM     47  C   UNL A   1      39.671  30.564  29.849  1.00  0.00     0.074 A 
ATOM     48  C   UNL A   1      40.816  32.376  31.024  1.00  0.00     0.049 A 
ATOM     49  N   UNL A   1      40.530  29.640  30.117  1.00  0.00    -0.248 NA
ATOM     50  C   UNL A   1      38.614  30.118  28.947  1.00  0.00     0.031 C 
ATOM     51  C   UNL A   1      42.163  31.825  30.895  1.00  0.00     0.029 A 
ATOM     52  N   UNL A   1      40.921  33.307  32.057  1.00  0.00    -0.354 N 
ATOM     53  C   UNL A   1      40.336  28.617  29.222  1.00  0.00     0.074 A 
ATOM     54  C   UNL A   1      39.050  28.893  28.636  1.00  0.00     0.031 C 
ATOM     55  C   UNL A   1      42.893  32.211  31.952  1.00  0.00     0.029 A 
ATOM     56  C   UNL A   1      42.005  32.911  32.861  1.00  0.00     0.049 A 
ATOM     57  H   UNL A   1      40.343  34.093  32.197  1.00  0.00     0.167 HD
ATOM     58  C   UNL A   1      41.360  27.749  28.985  1.00  0.00     0.034 A 
ATOM     59  C   UNL A   1      41.841  32.624  34.184  1.00  0.00     0.034 A 
ATOM     60  C   UNL A   1      42.395  27.863  30.021  1.00  0.00     0.049 A 
ATOM     61  C   UNL A   1      42.231  31.210  34.550  1.00  0.00     0.074 A 
ATOM     62  C   UNL A   1      43.677  28.384  30.040  1.00  0.00     0.029 A 
ATOM     63  N   UNL A   1      42.059  27.610  31.351  1.00  0.00    -0.354 N 
ATOM     64  N   UNL A   1      42.426  30.258  33.679  1.00  0.00    -0.248 NA
ATOM     65  C   UNL A   1      42.412  30.751  35.923  1.00  0.00     0.031 C 
ATOM     66  C   UNL A   1      44.071  28.528  31.399  1.00  0.00     0.029 A 
ATOM     67  C   UNL A   1      43.051  28.050  32.206  1.00  0.00     0.049 A 
ATOM     68  H   UNL A   1      41.225  27.174  31.643  1.00  0.00     0.167 HD
ATOM     69  C   UNL A   1      42.717  29.085  34.331  1.00  0.00     0.074 A 
ATOM     70  C   UNL A   1      42.727  29.458  35.736  1.00  0.00     0.031 C 
ATOM     71  C   UNL A   1      42.904  27.911  33.652  1.00  0.00     0.034 A 
BRANCH  58  72
ATOM     72  C   UNL A   1      41.560  26.956  27.699  1.00  0.00     0.023 A 
ATOM     73  C   UNL A   1      41.811  25.566  27.789  1.00  0.00     0.031 A 
ATOM     74  C   UNL A   1      41.660  27.483  26.390  1.00  0.00     0.131 A 
ATOM     75  C   UNL A   1      42.170  24.800  26.658  1.00  0.00     0.055 A 
ATOM     76  C   UNL A   1      41.976  26.715  25.262  1.00  0.00     0.041 A 
ATOM     77  F   UNL A   1      41.505  28.779  26.111  1.00  0.00    -0.206 F 
ATOM     78  C   UNL A   1      42.245  25.368  25.391  1.00  0.00     0.022 A 
BRANCH  75  79
ATOM     79  S   UNL A   1      42.614  23.053  26.862  1.00  0.00     0.124 S 
ATOM     80  O   UNL A   1      42.280  22.497  25.555  1.00  0.00    -0.237 OA
ATOM     81  O   UNL A   1      44.032  23.128  27.193  1.00  0.00    -0.237 OA
ATOM     82  O   UNL A   1      41.750  22.609  27.956  1.00  0.00    -0.744 OA
ENDBRANCH  75  79
ENDBRANCH  58  72
BRANCH  59  83
ATOM     83  C   UNL A   1      40.777  33.441  34.833  1.00  0.00     0.023 A 
ATOM     84  C   UNL A   1      39.669  32.739  35.356  1.00  0.00     0.031 A 
ATOM     85  C   UNL A   1      41.010  34.740  35.299  1.00  0.00     0.131 A 
ATOM     86  C   UNL A   1      38.951  33.257  36.441  1.00  0.00     0.055 A 
ATOM     87  C   UNL A   1      40.238  35.287  36.335  1.00  0.00     0.041 A 
ATOM     88  F   UNL A   1      42.062  35.447  34.861  1.00  0.00    -0.206 F 
ATOM     89  C   UNL A   1      39.238  34.526  36.944  1.00  0.00     0.022 A 
BRANCH  86  90
ATOM     90  S   UNL A   1      37.845  32.152  37.372  1.00  0.00     0.124 S 
ATOM     91  O   UNL A   1      38.547  32.002  38.639  1.00  0.00    -0.237 OA
ATOM     92  O   UNL A   1      36.592  32.903  37.426  1.00  0.00    -0.237 OA
ATOM     93  O   UNL A   1      37.778  30.955  36.535  1.00  0.00    -0.744 OA
ENDBRANCH  86  90
ENDBRANCH  59  83
BRANCH  71  94
ATOM     94  C   UNL A   1      43.037  26.535  34.281  1.00  0.00     0.023 A 
ATOM     95  C   UNL A   1      44.253  25.847  34.408  1.00  0.00     0.031 A 
ATOM     96  C   UNL A   1      41.913  25.889  34.857  1.00  0.00     0.131 A 
ATOM     97  C   UNL A   1      44.315  24.564  34.988  1.00  0.00     0.055 A 
ATOM     98  C   UNL A   1      41.988  24.650  35.503  1.00  0.00     0.041 A 
ATOM     99  F   UNL A   1      40.690  26.438  34.825  1.00  0.00    -0.206 F 
ATOM    100  C   UNL A   1      43.193  23.969  35.557  1.00  0.00     0.022 A 
BRANCH  97 101
ATOM    101  S   UNL A   1      45.887  23.663  34.924  1.00  0.00     0.124 S 
ATOM    102  O   UNL A   1      45.578  22.586  33.988  1.00  0.00    -0.237 OA
ATOM    103  O   UNL A   1      46.812  24.681  34.435  1.00  0.00    -0.237 OA
ATOM    104  O   UNL A   1      46.101  23.241  36.307  1.00  0.00    -0.744 OA
ENDBRANCH  97 101
ENDBRANCH  71  94
ENDBRANCH  45  46
ENDBRANCH  37  40
ENDBRANCH  35  36
ENDBRANCH   1  35
TORSDOF 17
ENDMDL
MODEL 2
REMARK VINA RESULT:     -13.6      3.938      9.364
REMARK SMILES Cc1ccccc1C(=O)Nc1cc(NC(=O)c2ccccc2C)cc(C(=O)NCCCNC(=O)c2ccc(-c3c4nc(c(-c5cc(S(=O)(=O)[O-])ccc5F)c5ccc([nH]5)c(-c5cc(S(=O)(=O)[O-])ccc5F)c5nc(c(-c6cc(S(=O)(=O)[O-])ccc6F)c6ccc3[nH]6)C=C5)C=C4)cc2)c1
REMARK SMILES IDX 30 1 29 2 28 3 26 4 27 5 25 7 11 8 12 9 98 10 13 11 24 12
REMARK SMILES IDX 10 13 8 14 9 15 7 17 1 18 2 19 3 20 4 21 6 22 5 23 14 24
REMARK SMILES IDX 15 25 16 27 17 28 18 29 22 30 19 31 21 32 23 33 20 34 31 35
REMARK SMILES IDX 32 36 33 37 34 39 35 40 36 41 97 42 37 43 96 44 38 45 39 46
REMARK SMILES IDX 40 47 90 48 41 49 95 50 89 51 91 52 42 53 94 54 88 55 87 56
REMARK SMILES IDX 43 58 75 59 55 60 74 61 56 62 59 63 73 64 92 65 57 66 58 67
REMARK SMILES IDX 72 69 93 70 60 71 44 72 45 73 53 74 46 75 52 76 54 77 51 78
REMARK SMILES IDX 47 79 48 80 49 81 50 82 76 83 77 84 85 85 78 86 84 87 86 88
REMARK SMILES IDX 83 89 79 90 80 91 81 92 82 93 61 94 62 95 70 96 63 97 69 98
REMARK SMILES IDX 71 99 68 100 64 101 65 102 66 103 67 104
REMARK H PARENT 28 6 10 16 14 26 32 38 91 57 59 68
REMARK Flexibility Score: inf
ROOT
ATOM      1  C   UNL A   1      38.262  22.094  26.134  1.00  0.00     0.042 C 
ENDROOT
BRANCH   1   2
ATOM      2  C   UNL A   1      36.772  22.227  25.814  1.00  0.00     0.118 C 
BRANCH   2   3
ATOM      3  N   UNL A   1      36.555  22.796  24.488  1.00  0.00    -0.352 N 
ATOM      4  C   UNL A   1      35.656  23.710  24.002  1.00  0.00     0.251 C 
ATOM      5  O   UNL A   1      35.760  24.070  22.829  1.00  0.00    -0.269 OA
ATOM      6  H   UNL A   1      37.177  22.454  23.805  1.00  0.00     0.163 HD
BRANCH   4   7
ATOM      7  C   UNL A   1      34.572  24.325  24.822  1.00  0.00     0.043 A 
ATOM      8  C   UNL A   1      33.753  26.331  25.919  1.00  0.00     0.044 A 
ATOM      9  C   UNL A   1      32.648  25.630  26.413  1.00  0.00     0.052 A 
ATOM     10  C   UNL A   1      34.655  25.703  25.055  1.00  0.00     0.040 A 
ATOM     11  C   UNL A   1      32.517  24.273  26.137  1.00  0.00     0.044 A 
ATOM     12  C   UNL A   1      33.498  23.633  25.377  1.00  0.00     0.040 A 
BRANCH   8  13
ATOM     13  N   UNL A   1      34.084  27.631  26.329  1.00  0.00    -0.322 N 
ATOM     14  C   UNL A   1      33.747  28.844  25.769  1.00  0.00     0.255 C 
ATOM     15  O   UNL A   1      34.260  29.876  26.207  1.00  0.00    -0.269 OA
ATOM     16  H   UNL A   1      34.641  27.684  27.139  1.00  0.00     0.170 HD
BRANCH  14  17
ATOM     17  C   UNL A   1      32.743  28.961  24.674  1.00  0.00     0.043 A 
ATOM     18  C   UNL A   1      34.375  28.538  22.712  1.00  0.00     0.045 C 
ATOM     19  C   UNL A   1      33.026  28.866  23.294  1.00  0.00    -0.038 A 
ATOM     20  C   UNL A   1      31.979  29.079  22.379  1.00  0.00     0.004 A 
ATOM     21  C   UNL A   1      30.670  29.282  22.814  1.00  0.00     0.000 A 
ATOM     22  C   UNL A   1      31.412  29.127  25.098  1.00  0.00     0.014 A 
ATOM     23  C   UNL A   1      30.381  29.278  24.174  1.00  0.00     0.001 A 
ENDBRANCH  14  17
ENDBRANCH   8  13
BRANCH  11  24
ATOM     24  N   UNL A   1      31.486  23.456  26.631  1.00  0.00    -0.322 N 
ATOM     25  C   UNL A   1      30.790  22.423  26.054  1.00  0.00     0.255 C 
ATOM     26  H   UNL A   1      31.215  23.659  27.555  1.00  0.00     0.170 HD
ATOM     27  O   UNL A   1      29.754  22.009  26.573  1.00  0.00    -0.269 OA
BRANCH  25  28
ATOM     28  C   UNL A   1      31.310  21.722  24.860  1.00  0.00     0.043 A 
ATOM     29  C   UNL A   1      31.975  20.510  25.100  1.00  0.00     0.014 A 
ATOM     30  C   UNL A   1      31.236  22.250  23.556  1.00  0.00    -0.038 A 
ATOM     31  C   UNL A   1      32.508  19.780  24.040  1.00  0.00     0.001 A 
ATOM     32  C   UNL A   1      31.750  21.482  22.499  1.00  0.00     0.004 A 
ATOM     33  C   UNL A   1      30.627  23.585  23.226  1.00  0.00     0.045 C 
ATOM     34  C   UNL A   1      32.380  20.259  22.740  1.00  0.00     0.000 A 
ENDBRANCH  25  28
ENDBRANCH  11  24
ENDBRANCH   4   7
ENDBRANCH   2   3
ENDBRANCH   1   2
BRANCH   1  35
ATOM     35  C   UNL A   1      39.068  23.341  25.816  1.00  0.00     0.118 C 
BRANCH  35  36
ATOM     36  N   UNL A   1      40.412  23.322  26.386  1.00  0.00    -0.352 N 
ATOM     37  C   UNL A   1      41.087  24.354  27.023  1.00  0.00     0.251 C 
ATOM     38  H   UNL A   1      40.900  22.470  26.308  1.00  0.00     0.163 HD
ATOM     39  O   UNL A   1      42.219  24.239  27.429  1.00  0.00    -0.269 OA
BRANCH  37  40
ATOM     40  C   UNL A   1      40.303  25.577  27.319  1.00  0.00     0.039 A 
ATOM     41  C   UNL A   1      40.634  26.717  26.579  1.00  0.00     0.014 A 
ATOM     42  C   UNL A   1      39.545  25.664  28.484  1.00  0.00     0.014 A 
ATOM     43  C   UNL A   1      40.413  27.970  27.139  1.00  0.00     0.010 A 
ATOM     44  C   UNL A   1      39.407  26.905  29.078  1.00  0.00     0.010 A 
ATOM     45  C   UNL A   1      39.910  28.045  28.438  1.00  0.00    -0.014 A 
BRANCH  45  46
ATOM     46  C   UNL A   1      40.017  29.255  29.248  1.00  0.00     0.031 A 
ATOM     47  C   UNL A   1      38.986  30.307  29.163  1.00  0.00     0.074 A 
ATOM     48  C   UNL A   1      41.074  29.422  30.075  1.00  0.00     0.049 A 
ATOM     49  N   UNL A   1      39.176  31.535  29.507  1.00  0.00    -0.248 NA
ATOM     50  C   UNL A   1      37.671  30.076  28.572  1.00  0.00     0.031 C 
ATOM     51  C   UNL A   1      41.235  30.433  31.116  1.00  0.00     0.029 A 
ATOM     52  N   UNL A   1      42.343  28.862  29.936  1.00  0.00    -0.354 N 
ATOM     53  C   UNL A   1      37.959  32.170  29.481  1.00  0.00     0.074 A 
ATOM     54  C   UNL A   1      37.103  31.273  28.748  1.00  0.00     0.031 C 
ATOM     55  C   UNL A   1      42.544  30.617  31.343  1.00  0.00     0.029 A 
ATOM     56  C   UNL A   1      43.270  29.829  30.364  1.00  0.00     0.049 A 
ATOM     57  H   UNL A   1      42.551  27.959  29.601  1.00  0.00     0.167 HD
ATOM     58  C   UNL A   1      37.795  33.307  30.215  1.00  0.00     0.034 A 
ATOM     59  C   UNL A   1      44.240  30.303  29.530  1.00  0.00     0.034 A 
ATOM     60  C   UNL A   1      39.094  33.852  30.633  1.00  0.00     0.049 A 
ATOM     61  C   UNL A   1      44.166  31.795  29.301  1.00  0.00     0.074 A 
ATOM     62  C   UNL A   1      39.758  33.918  31.846  1.00  0.00     0.029 A 
ATOM     63  N   UNL A   1      40.021  34.227  29.661  1.00  0.00    -0.354 N 
ATOM     64  N   UNL A   1      43.133  32.531  29.610  1.00  0.00    -0.248 NA
ATOM     65  C   UNL A   1      45.237  32.572  28.686  1.00  0.00     0.031 C 
ATOM     66  C   UNL A   1      41.118  34.245  31.583  1.00  0.00     0.029 A 
ATOM     67  C   UNL A   1      41.270  34.426  30.218  1.00  0.00     0.049 A 
ATOM     68  H   UNL A   1      39.813  34.335  28.704  1.00  0.00     0.167 HD
ATOM     69  C   UNL A   1      43.359  33.830  29.229  1.00  0.00     0.074 A 
ATOM     70  C   UNL A   1      44.707  33.807  28.684  1.00  0.00     0.031 C 
ATOM     71  C   UNL A   1      42.407  34.801  29.380  1.00  0.00     0.034 A 
BRANCH  58  72
ATOM     72  C   UNL A   1      36.468  33.815  30.766  1.00  0.00     0.023 A 
ATOM     73  C   UNL A   1      35.499  34.307  29.859  1.00  0.00     0.031 A 
ATOM     74  C   UNL A   1      36.130  33.981  32.129  1.00  0.00     0.131 A 
ATOM     75  C   UNL A   1      34.320  34.944  30.305  1.00  0.00     0.055 A 
ATOM     76  C   UNL A   1      34.940  34.576  32.570  1.00  0.00     0.041 A 
ATOM     77  F   UNL A   1      36.937  33.624  33.131  1.00  0.00    -0.206 F 
ATOM     78  C   UNL A   1      34.032  35.073  31.658  1.00  0.00     0.022 A 
BRANCH  75  79
ATOM     79  S   UNL A   1      33.184  35.677  29.094  1.00  0.00     0.124 S 
ATOM     80  O   UNL A   1      32.638  34.496  28.433  1.00  0.00    -0.237 OA
ATOM     81  O   UNL A   1      32.268  36.429  29.942  1.00  0.00    -0.237 OA
ATOM     82  O   UNL A   1      34.062  36.496  28.258  1.00  0.00    -0.744 OA
ENDBRANCH  75  79
ENDBRANCH  58  72
BRANCH  59  83
ATOM     83  C   UNL A   1      44.724  29.284  28.557  1.00  0.00     0.023 A 
ATOM     84  C   UNL A   1      45.564  28.269  29.066  1.00  0.00     0.031 A 
ATOM     85  C   UNL A   1      44.083  29.052  27.335  1.00  0.00     0.131 A 
ATOM     86  C   UNL A   1      45.596  27.007  28.461  1.00  0.00     0.055 A 
ATOM     87  C   UNL A   1      44.179  27.810  26.690  1.00  0.00     0.041 A 
ATOM     88  F   UNL A   1      43.251  29.966  26.813  1.00  0.00    -0.206 F 
ATOM     89  C   UNL A   1      44.895  26.766  27.279  1.00  0.00     0.022 A 
BRANCH  86  90
ATOM     90  S   UNL A   1      46.314  25.610  29.378  1.00  0.00     0.124 S 
ATOM     91  O   UNL A   1      45.935  25.911  30.753  1.00  0.00    -0.237 OA
ATOM     92  O   UNL A   1      45.660  24.447  28.781  1.00  0.00    -0.237 OA
ATOM     93  O   UNL A   1      47.742  25.703  29.076  1.00  0.00    -0.744 OA
ENDBRANCH  86  90
ENDBRANCH  59  83
BRANCH  71  94
ATOM     94  C   UNL A   1      42.481  36.212  28.822  1.00  0.00     0.023 A 
ATOM     95  C   UNL A   1      43.091  37.287  29.488  1.00  0.00     0.031 A 
ATOM     96  C   UNL A   1      41.989  36.505  27.525  1.00  0.00     0.131 A 
ATOM     97  C   UNL A   1      43.117  38.579  28.927  1.00  0.00     0.055 A 
ATOM     98  C   UNL A   1      42.086  37.770  26.936  1.00  0.00     0.041 A 
ATOM     99  F   UNL A   1      41.396  35.571  26.767  1.00  0.00    -0.206 F 
ATOM    100  C   UNL A   1      42.638  38.824  27.645  1.00  0.00     0.022 A 
BRANCH  97 101
ATOM    101  S   UNL A   1      43.738  39.947  29.943  1.00  0.00     0.124 S 
ATOM    102  O   UNL A   1      45.081  40.135  29.403  1.00  0.00    -0.237 OA
ATOM    103  O   UNL A   1      42.784  41.012  29.652  1.00  0.00    -0.237 OA
ATOM    104  O   UNL A   1      43.685  39.419  31.305  1.00  0.00    -0.744 OA
ENDBRANCH  97 101
ENDBRANCH  71  94
ENDBRANCH  45  46
ENDBRANCH  37  40
ENDBRANCH  35  36
ENDBRANCH   1  35
TORSDOF 17
ENDMDL
MODEL 3
REMARK VINA RESULT:     -13.6      3.680      9.334
REMARK SMILES Cc1ccccc1C(=O)Nc1cc(NC(=O)c2ccccc2C)cc(C(=O)NCCCNC(=O)c2ccc(-c3c4nc(c(-c5cc(S(=O)(=O)[O-])ccc5F)c5ccc([nH]5)c(-c5cc(S(=O)(=O)[O-])ccc5F)c5nc(c(-c6cc(S(=O)(=O)[O-])ccc6F)c6ccc3[nH]6)C=C5)C=C4)cc2)c1
REMARK SMILES IDX 30 1 29 2 28 3 26 4 27 5 25 7 11 8 12 9 98 10 13 11 24 12
REMARK SMILES IDX 10 13 8 14 9 15 7 17 1 18 2 19 3 20 4 21 6 22 5 23 14 24
REMARK SMILES IDX 15 25 16 27 17 28 18 29 22 30 19 31 21 32 23 33 20 34 31 35
REMARK SMILES IDX 32 36 33 37 34 39 35 40 36 41 97 42 37 43 96 44 38 45 39 46
REMARK SMILES IDX 40 47 90 48 41 49 95 50 89 51 91 52 42 53 94 54 88 55 87 56
REMARK SMILES IDX 43 58 75 59 55 60 74 61 56 62 59 63 73 64 92 65 57 66 58 67
REMARK SMILES IDX 72 69 93 70 60 71 44 72 45 73 53 74 46 75 52 76 54 77 51 78
REMARK SMILES IDX 47 79 48 80 49 81 50 82 76 83 77 84 85 85 78 86 84 87 86 88
REMARK SMILES IDX 83 89 79 90 80 91 81 92 82 93 61 94 62 95 70 96 63 97 69 98
REMARK SMILES IDX 71 99 68 100 64 101 65 102 66 103 67 104
REMARK H PARENT 28 6 10 16 14 26 32 38 91 57 59 68
REMARK Flexibility Score: inf
ROOT
ATOM      1  C   UNL A   1      36.719  23.221  24.773  1.00  0.00     0.042 C 
ENDROOT
BRANCH   1   2
ATOM      2  C   UNL A   1      35.446  23.976  24.387  1.00  0.00     0.118 C 
BRANCH   2   3
ATOM      3  N   UNL A   1      34.978  23.601  23.057  1.00  0.00    -0.352 N 
ATOM      4  C   UNL A   1      33.796  23.803  22.393  1.00  0.00     0.251 C 
ATOM      5  O   UNL A   1      33.710  23.437  21.220  1.00  0.00    -0.269 OA
ATOM      6  H   UNL A   1      35.645  23.102  22.531  1.00  0.00     0.163 HD
BRANCH   4   7
ATOM      7  C   UNL A   1      32.609  24.476  22.998  1.00  0.00     0.043 A 
ATOM      8  C   UNL A   1      31.012  26.298  22.834  1.00  0.00     0.044 A 
ATOM      9  C   UNL A   1      30.411  25.901  24.033  1.00  0.00     0.052 A 
ATOM     10  C   UNL A   1      32.043  25.534  22.278  1.00  0.00     0.040 A 
ATOM     11  C   UNL A   1      30.923  24.811  24.729  1.00  0.00     0.044 A 
ATOM     12  C   UNL A   1      32.035  24.137  24.221  1.00  0.00     0.040 A 
BRANCH   8  13
ATOM     13  N   UNL A   1      30.712  27.505  22.187  1.00  0.00    -0.322 N 
ATOM     14  C   UNL A   1      30.962  28.802  22.582  1.00  0.00     0.255 C 
ATOM     15  O   UNL A   1      30.489  29.735  21.930  1.00  0.00    -0.269 OA
ATOM     16  H   UNL A   1      30.253  27.413  21.321  1.00  0.00     0.170 HD
BRANCH  14  17
ATOM     17  C   UNL A   1      31.828  29.123  23.751  1.00  0.00     0.043 A 
ATOM     18  C   UNL A   1      34.086  28.554  22.626  1.00  0.00     0.045 C 
ATOM     19  C   UNL A   1      33.231  28.974  23.792  1.00  0.00    -0.038 A 
ATOM     20  C   UNL A   1      33.900  29.244  25.000  1.00  0.00     0.004 A 
ATOM     21  C   UNL A   1      33.216  29.742  26.108  1.00  0.00     0.000 A 
ATOM     22  C   UNL A   1      31.157  29.665  24.862  1.00  0.00     0.014 A 
ATOM     23  C   UNL A   1      31.848  29.980  26.031  1.00  0.00     0.001 A 
ENDBRANCH  14  17
ENDBRANCH   8  13
BRANCH  11  24
ATOM     24  N   UNL A   1      30.442  24.362  25.971  1.00  0.00    -0.322 N 
ATOM     25  C   UNL A   1      30.605  23.170  26.631  1.00  0.00     0.255 C 
ATOM     26  H   UNL A   1      29.890  25.019  26.453  1.00  0.00     0.170 HD
ATOM     27  O   UNL A   1      29.888  22.892  27.592  1.00  0.00    -0.269 OA
BRANCH  25  28
ATOM     28  C   UNL A   1      31.697  22.240  26.272  1.00  0.00     0.043 A 
ATOM     29  C   UNL A   1      31.396  21.287  25.287  1.00  0.00     0.014 A 
ATOM     30  C   UNL A   1      32.949  22.226  26.919  1.00  0.00    -0.038 A 
ATOM     31  C   UNL A   1      32.357  20.362  24.888  1.00  0.00     0.001 A 
ATOM     32  C   UNL A   1      33.914  21.306  26.478  1.00  0.00     0.004 A 
ATOM     33  C   UNL A   1      33.319  23.147  28.048  1.00  0.00     0.045 C 
ATOM     34  C   UNL A   1      33.619  20.383  25.472  1.00  0.00     0.000 A 
ENDBRANCH  25  28
ENDBRANCH  11  24
ENDBRANCH   4   7
ENDBRANCH   2   3
ENDBRANCH   1   2
BRANCH   1  35
ATOM     35  C   UNL A   1      37.352  23.712  26.063  1.00  0.00     0.118 C 
BRANCH  35  36
ATOM     36  N   UNL A   1      38.773  23.396  26.165  1.00  0.00    -0.352 N 
ATOM     37  C   UNL A   1      39.786  24.174  26.712  1.00  0.00     0.251 C 
ATOM     38  H   UNL A   1      39.048  22.524  25.802  1.00  0.00     0.163 HD
ATOM     39  O   UNL A   1      40.943  23.828  26.713  1.00  0.00    -0.269 OA
BRANCH  37  40
ATOM     40  C   UNL A   1      39.366  25.400  27.432  1.00  0.00     0.039 A 
ATOM     41  C   UNL A   1      39.497  26.603  26.731  1.00  0.00     0.014 A 
ATOM     42  C   UNL A   1      39.192  25.381  28.813  1.00  0.00     0.014 A 
ATOM     43  C   UNL A   1      39.697  27.779  27.445  1.00  0.00     0.010 A 
ATOM     44  C   UNL A   1      39.481  26.533  29.521  1.00  0.00     0.010 A 
ATOM     45  C   UNL A   1      39.807  27.710  28.834  1.00  0.00    -0.014 A 
BRANCH  45  46
ATOM     46  C   UNL A   1      40.403  28.783  29.624  1.00  0.00     0.031 A 
ATOM     47  C   UNL A   1      39.558  29.847  30.201  1.00  0.00     0.074 A 
ATOM     48  C   UNL A   1      41.740  28.814  29.821  1.00  0.00     0.049 A 
ATOM     49  N   UNL A   1      39.996  31.007  30.553  1.00  0.00    -0.248 NA
ATOM     50  C   UNL A   1      38.109  29.721  30.327  1.00  0.00     0.031 C 
ATOM     51  C   UNL A   1      42.481  29.655  30.757  1.00  0.00     0.029 A 
ATOM     52  N   UNL A   1      42.722  28.268  28.995  1.00  0.00    -0.354 N 
ATOM     53  C   UNL A   1      38.985  31.652  31.221  1.00  0.00     0.074 A 
ATOM     54  C   UNL A   1      37.806  30.884  30.912  1.00  0.00     0.031 C 
ATOM     55  C   UNL A   1      43.741  29.790  30.317  1.00  0.00     0.029 A 
ATOM     56  C   UNL A   1      43.817  29.150  29.017  1.00  0.00     0.049 A 
ATOM     57  H   UNL A   1      42.660  27.424  28.491  1.00  0.00     0.167 HD
ATOM     58  C   UNL A   1      39.302  32.667  32.073  1.00  0.00     0.034 A 
ATOM     59  C   UNL A   1      44.283  29.734  27.875  1.00  0.00     0.034 A 
ATOM     60  C   UNL A   1      40.678  33.130  31.846  1.00  0.00     0.049 A 
ATOM     61  C   UNL A   1      44.230  31.244  27.902  1.00  0.00     0.074 A 
ATOM     62  C   UNL A   1      41.859  33.006  32.559  1.00  0.00     0.029 A 
ATOM     63  N   UNL A   1      41.030  33.637  30.596  1.00  0.00    -0.354 N 
ATOM     64  N   UNL A   1      43.553  31.936  28.777  1.00  0.00    -0.248 NA
ATOM     65  C   UNL A   1      44.917  32.094  26.935  1.00  0.00     0.031 C 
ATOM     66  C   UNL A   1      42.932  33.355  31.691  1.00  0.00     0.029 A 
ATOM     67  C   UNL A   1      42.402  33.737  30.470  1.00  0.00     0.049 A 
ATOM     68  H   UNL A   1      40.386  33.890  29.895  1.00  0.00     0.167 HD
ATOM     69  C   UNL A   1      43.669  33.275  28.499  1.00  0.00     0.074 A 
ATOM     70  C   UNL A   1      44.562  33.321  27.354  1.00  0.00     0.031 C 
ATOM     71  C   UNL A   1      43.002  34.222  29.229  1.00  0.00     0.034 A 
BRANCH  58  72
ATOM     72  C   UNL A   1      38.470  33.100  33.275  1.00  0.00     0.023 A 
ATOM     73  C   UNL A   1      38.693  32.466  34.520  1.00  0.00     0.031 A 
ATOM     74  C   UNL A   1      37.376  33.996  33.263  1.00  0.00     0.131 A 
ATOM     75  C   UNL A   1      37.852  32.694  35.631  1.00  0.00     0.055 A 
ATOM     76  C   UNL A   1      36.568  34.253  34.378  1.00  0.00     0.041 A 
ATOM     77  F   UNL A   1      36.980  34.652  32.170  1.00  0.00    -0.206 F 
ATOM     78  C   UNL A   1      36.794  33.593  35.569  1.00  0.00     0.022 A 
BRANCH  75  79
ATOM     79  S   UNL A   1      38.106  31.746  37.158  1.00  0.00     0.124 S 
ATOM     80  O   UNL A   1      38.074  30.370  36.673  1.00  0.00    -0.237 OA
ATOM     81  O   UNL A   1      39.397  32.242  37.621  1.00  0.00    -0.237 OA
ATOM     82  O   UNL A   1      36.965  32.130  37.988  1.00  0.00    -0.744 OA
ENDBRANCH  75  79
ENDBRANCH  58  72
BRANCH  59  83
ATOM     83  C   UNL A   1      44.133  28.867  26.671  1.00  0.00     0.023 A 
ATOM     84  C   UNL A   1      45.116  27.872  26.481  1.00  0.00     0.031 A 
ATOM     85  C   UNL A   1      42.913  28.722  26.001  1.00  0.00     0.131 A 
ATOM     86  C   UNL A   1      44.802  26.689  25.800  1.00  0.00     0.055 A 
ATOM     87  C   UNL A   1      42.630  27.569  25.254  1.00  0.00     0.041 A 
ATOM     88  F   UNL A   1      41.931  29.621  26.163  1.00  0.00    -0.206 F 
ATOM     89  C   UNL A   1      43.556  26.525  25.194  1.00  0.00     0.022 A 
BRANCH  86  90
ATOM     90  S   UNL A   1      45.916  25.260  25.961  1.00  0.00     0.124 S 
ATOM     91  O   UNL A   1      46.653  25.296  24.705  1.00  0.00    -0.237 OA
ATOM     92  O   UNL A   1      46.691  25.574  27.160  1.00  0.00    -0.237 OA
ATOM     93  O   UNL A   1      45.000  24.133  26.130  1.00  0.00    -0.744 OA
ENDBRANCH  86  90
ENDBRANCH  59  83
BRANCH  71  94
ATOM     94  C   UNL A   1      42.909  35.700  28.889  1.00  0.00     0.023 A 
ATOM     95  C   UNL A   1      43.619  36.705  29.564  1.00  0.00     0.031 A 
ATOM     96  C   UNL A   1      42.131  36.143  27.789  1.00  0.00     0.131 A 
ATOM     97  C   UNL A   1      43.481  38.063  29.216  1.00  0.00     0.055 A 
ATOM     98  C   UNL A   1      42.057  37.483  27.394  1.00  0.00     0.041 A 
ATOM     99  F   UNL A   1      41.413  35.292  27.043  1.00  0.00    -0.206 F 
ATOM    100  C   UNL A   1      42.722  38.458  28.119  1.00  0.00     0.022 A 
BRANCH  97 101
ATOM    101  S   UNL A   1      44.272  39.308  30.270  1.00  0.00     0.124 S 
ATOM    102  O   UNL A   1      43.665  40.543  29.782  1.00  0.00    -0.237 OA
ATOM    103  O   UNL A   1      43.867  38.890  31.608  1.00  0.00    -0.237 OA
ATOM    104  O   UNL A   1      45.696  39.158  29.976  1.00  0.00    -0.744 OA
ENDBRANCH  97 101
ENDBRANCH  71  94
ENDBRANCH  45  46
ENDBRANCH  37  40
ENDBRANCH  35  36
ENDBRANCH   1  35
TORSDOF 17
ENDMDL
