MODEL 1
REMARK VINA RESULT:     -11.7      0.000      0.000
REMARK SMILES CN(CC[NH+](C)C)C(=O)N1CC(n2cc(C(=O)NCCCNC(=O)c3ccc(-c4c5nc(c(-c6cc(S(=O)(=O)[O-])ccc6F)c6ccc([nH]6)c(-c6cc(S(=O)(=O)[O-])ccc6F)c6nc(c(-c7cc(S(=O)(=O)[O-])ccc7F)c7ccc4[nH]7)C=C6)C=C5)cc3)nn2)C1
REMARK SMILES IDX 19 1 18 2 16 3 17 4 15 6 13 7 14 8 89 9 88 10 12 11 8 12
REMARK SMILES IDX 9 13 10 14 11 15 90 16 2 17 1 18 3 19 4 20 5 21 6 22 7 23
REMARK SMILES IDX 20 25 21 26 22 27 23 28 24 30 25 31 26 32 87 33 27 34 86 35
REMARK SMILES IDX 28 36 29 37 30 38 80 39 31 40 85 41 79 42 81 43 32 44 84 45
REMARK SMILES IDX 78 46 77 47 33 49 65 50 45 51 64 52 46 53 49 54 63 55 82 56
REMARK SMILES IDX 47 57 48 58 62 60 83 61 50 62 34 63 35 64 43 65 36 66 42 67
REMARK SMILES IDX 44 68 41 69 37 70 38 71 39 72 40 73 66 74 67 75 75 76 68 77
REMARK SMILES IDX 74 78 76 79 73 80 69 81 70 82 71 83 72 84 51 85 52 86 60 87
REMARK SMILES IDX 53 88 59 89 61 90 58 91 54 92 55 93 56 94 57 95
REMARK H PARENT 18 5 5 24 22 29 81 48 49 59
REMARK Flexibility Score: inf
ROOT
ATOM      1  C   UNL A   1      32.452  29.529  27.259  1.00  0.00     0.118 C 
ENDROOT
BRANCH   1   2
ATOM      2  N   UNL A   1      32.039  29.656  25.870  1.00  0.00    -0.351 N 
ATOM      3  C   UNL A   1      31.506  28.720  25.012  1.00  0.00     0.273 C 
ATOM      4  O   UNL A   1      31.032  29.119  23.945  1.00  0.00    -0.267 OA
ATOM      5  H   UNL A   1      32.160  30.553  25.482  1.00  0.00     0.163 HD
BRANCH   3   6
ATOM      6  C   UNL A   1      31.474  27.315  25.388  1.00  0.00     0.170 A 
ATOM      7  N   UNL A   1      31.934  25.266  25.916  1.00  0.00    -0.245 N 
ATOM      8  C   UNL A   1      32.444  26.342  25.253  1.00  0.00     0.145 A 
ATOM      9  N   UNL A   1      30.682  25.496  26.332  1.00  0.00    -0.066 NA
ATOM     10  N   UNL A   1      30.372  26.738  25.984  1.00  0.00    -0.125 NA
BRANCH   7  11
ATOM     11  C   UNL A   1      32.741  24.157  26.305  1.00  0.00     0.148 C 
ATOM     12  C   UNL A   1      34.304  21.508  25.914  1.00  0.00     0.320 C 
ATOM     13  O   UNL A   1      34.749  21.576  27.056  1.00  0.00    -0.248 OA
ATOM     14  N   UNL A   1      33.666  22.579  25.320  1.00  0.00    -0.320 N 
ATOM     15  C   UNL A   1      34.057  23.985  25.559  1.00  0.00     0.150 C 
ATOM     16  C   UNL A   1      32.257  22.888  25.586  1.00  0.00     0.150 C 
BRANCH  12  17
ATOM     17  N   UNL A   1      34.481  20.423  25.065  1.00  0.00    -0.322 N 
ATOM     18  C   UNL A   1      35.753  19.724  24.963  1.00  0.00     0.149 C 
BRANCH  17  19
ATOM     19  C   UNL A   1      33.322  19.859  24.376  1.00  0.00     0.182 C 
BRANCH  19  20
ATOM     20  C   UNL A   1      32.843  18.481  24.921  1.00  0.00     0.283 C 
BRANCH  20  21
ATOM     21  N   UNL A   1      32.546  17.369  24.000  1.00  0.00    -0.338 N 
ATOM     22  C   UNL A   1      32.558  17.752  22.594  1.00  0.00     0.332 C 
ATOM     23  C   UNL A   1      33.316  16.161  24.266  1.00  0.00     0.332 C 
ATOM     24  H   UNL A   1      31.578  17.121  24.206  1.00  0.00     0.347 HD
ENDBRANCH  20  21
ENDBRANCH  19  20
ENDBRANCH  17  19
ENDBRANCH  12  17
ENDBRANCH   7  11
ENDBRANCH   3   6
ENDBRANCH   1   2
BRANCH   1  25
ATOM     25  C   UNL A   1      33.828  28.870  27.407  1.00  0.00     0.042 C 
BRANCH  25  26
ATOM     26  C   UNL A   1      34.959  29.749  26.891  1.00  0.00     0.118 C 
BRANCH  26  27
ATOM     27  N   UNL A   1      34.895  31.102  27.439  1.00  0.00    -0.352 N 
ATOM     28  C   UNL A   1      35.535  31.614  28.549  1.00  0.00     0.251 C 
ATOM     29  H   UNL A   1      34.317  31.732  26.951  1.00  0.00     0.163 HD
ATOM     30  O   UNL A   1      35.100  32.631  29.079  1.00  0.00    -0.269 OA
BRANCH  28  31
ATOM     31  C   UNL A   1      36.718  30.923  29.096  1.00  0.00     0.039 A 
ATOM     32  C   UNL A   1      36.588  29.667  29.696  1.00  0.00     0.014 A 
ATOM     33  C   UNL A   1      37.970  31.529  28.995  1.00  0.00     0.014 A 
ATOM     34  C   UNL A   1      37.736  28.987  30.099  1.00  0.00     0.010 A 
ATOM     35  C   UNL A   1      39.110  30.811  29.288  1.00  0.00     0.010 A 
ATOM     36  C   UNL A   1      39.003  29.549  29.863  1.00  0.00    -0.014 A 
BRANCH  36  37
ATOM     37  C   UNL A   1      40.211  28.738  30.040  1.00  0.00     0.031 A 
ATOM     38  C   UNL A   1      40.548  28.461  31.463  1.00  0.00     0.074 A 
ATOM     39  C   UNL A   1      40.846  28.075  29.048  1.00  0.00     0.049 A 
ATOM     40  N   UNL A   1      41.542  28.919  32.148  1.00  0.00    -0.248 NA
ATOM     41  C   UNL A   1      39.562  27.726  32.275  1.00  0.00     0.031 C 
ATOM     42  C   UNL A   1      40.457  27.980  27.638  1.00  0.00     0.029 A 
ATOM     43  N   UNL A   1      41.925  27.241  29.116  1.00  0.00    -0.354 N 
ATOM     44  C   UNL A   1      41.456  28.316  33.400  1.00  0.00     0.074 A 
ATOM     45  C   UNL A   1      40.115  27.806  33.486  1.00  0.00     0.031 C 
ATOM     46  C   UNL A   1      41.138  26.975  27.045  1.00  0.00     0.029 A 
ATOM     47  C   UNL A   1      42.124  26.458  27.979  1.00  0.00     0.049 A 
ATOM     48  H   UNL A   1      42.514  27.197  29.903  1.00  0.00     0.167 HD
ATOM     49  C   UNL A   1      42.576  28.062  34.136  1.00  0.00     0.034 A 
ATOM     50  C   UNL A   1      43.017  25.445  27.813  1.00  0.00     0.034 A 
ATOM     51  C   UNL A   1      43.701  28.825  33.626  1.00  0.00     0.049 A 
ATOM     52  C   UNL A   1      44.083  25.641  28.825  1.00  0.00     0.074 A 
ATOM     53  C   UNL A   1      43.936  30.171  33.400  1.00  0.00     0.029 A 
ATOM     54  N   UNL A   1      44.659  28.164  32.886  1.00  0.00    -0.354 N 
ATOM     55  N   UNL A   1      44.907  26.650  28.810  1.00  0.00    -0.248 NA
ATOM     56  C   UNL A   1      43.940  24.979  30.112  1.00  0.00     0.031 C 
ATOM     57  C   UNL A   1      44.653  30.219  32.167  1.00  0.00     0.029 A 
ATOM     58  C   UNL A   1      44.904  28.908  31.758  1.00  0.00     0.049 A 
ATOM     59  H   UNL A   1      45.091  27.312  33.123  1.00  0.00     0.167 HD
ATOM     60  C   UNL A   1      45.028  27.030  30.135  1.00  0.00     0.074 A 
ATOM     61  C   UNL A   1      44.509  25.897  30.899  1.00  0.00     0.031 C 
ATOM     62  C   UNL A   1      45.265  28.333  30.474  1.00  0.00     0.034 A 
BRANCH  49  63
ATOM     63  C   UNL A   1      42.773  26.838  35.023  1.00  0.00     0.023 A 
ATOM     64  C   UNL A   1      43.603  25.821  34.512  1.00  0.00     0.031 A 
ATOM     65  C   UNL A   1      42.001  26.470  36.148  1.00  0.00     0.131 A 
ATOM     66  C   UNL A   1      43.504  24.497  34.972  1.00  0.00     0.055 A 
ATOM     67  C   UNL A   1      41.957  25.163  36.650  1.00  0.00     0.041 A 
ATOM     68  F   UNL A   1      41.199  27.318  36.798  1.00  0.00    -0.206 F 
ATOM     69  C   UNL A   1      42.674  24.156  36.032  1.00  0.00     0.022 A 
BRANCH  66  70
ATOM     70  S   UNL A   1      44.323  23.205  34.007  1.00  0.00     0.124 S 
ATOM     71  O   UNL A   1      44.469  22.155  35.008  1.00  0.00    -0.237 OA
ATOM     72  O   UNL A   1      43.348  22.960  32.949  1.00  0.00    -0.237 OA
ATOM     73  O   UNL A   1      45.565  23.842  33.576  1.00  0.00    -0.744 OA
ENDBRANCH  66  70
ENDBRANCH  49  63
BRANCH  50  74
ATOM     74  C   UNL A   1      42.891  24.203  27.000  1.00  0.00     0.023 A 
ATOM     75  C   UNL A   1      43.875  23.796  26.073  1.00  0.00     0.031 A 
ATOM     76  C   UNL A   1      41.898  23.253  27.327  1.00  0.00     0.131 A 
ATOM     77  C   UNL A   1      43.847  22.489  25.526  1.00  0.00     0.055 A 
ATOM     78  C   UNL A   1      41.874  21.966  26.782  1.00  0.00     0.041 A 
ATOM     79  F   UNL A   1      40.968  23.512  28.258  1.00  0.00    -0.206 F 
ATOM     80  C   UNL A   1      42.856  21.575  25.889  1.00  0.00     0.022 A 
BRANCH  77  81
ATOM     81  S   UNL A   1      45.174  21.916  24.413  1.00  0.00     0.124 S 
ATOM     82  O   UNL A   1      44.551  20.780  23.746  1.00  0.00    -0.237 OA
ATOM     83  O   UNL A   1      45.429  23.093  23.590  1.00  0.00    -0.237 OA
ATOM     84  O   UNL A   1      46.260  21.569  25.331  1.00  0.00    -0.744 OA
ENDBRANCH  77  81
ENDBRANCH  50  74
BRANCH  62  85
ATOM     85  C   UNL A   1      45.743  29.286  29.393  1.00  0.00     0.023 A 
ATOM     86  C   UNL A   1      44.905  30.061  28.557  1.00  0.00     0.031 A 
ATOM     87  C   UNL A   1      47.131  29.474  29.269  1.00  0.00     0.131 A 
ATOM     88  C   UNL A   1      45.467  30.961  27.628  1.00  0.00     0.055 A 
ATOM     89  C   UNL A   1      47.683  30.384  28.367  1.00  0.00     0.041 A 
ATOM     90  F   UNL A   1      47.985  28.789  30.048  1.00  0.00    -0.206 F 
ATOM     91  C   UNL A   1      46.853  31.123  27.535  1.00  0.00     0.022 A 
BRANCH  88  92
ATOM     92  S   UNL A   1      44.410  31.915  26.491  1.00  0.00     0.124 S 
ATOM     93  O   UNL A   1      43.385  30.961  26.087  1.00  0.00    -0.237 OA
ATOM     94  O   UNL A   1      43.957  33.019  27.336  1.00  0.00    -0.237 OA
ATOM     95  O   UNL A   1      45.331  32.310  25.423  1.00  0.00    -0.744 OA
ENDBRANCH  88  92
ENDBRANCH  62  85
ENDBRANCH  36  37
ENDBRANCH  28  31
ENDBRANCH  26  27
ENDBRANCH  25  26
ENDBRANCH   1  25
TORSDOF 18
ENDMDL
MODEL 2
REMARK VINA RESULT:     -11.3      3.267      9.759
REMARK SMILES CN(CC[NH+](C)C)C(=O)N1CC(n2cc(C(=O)NCCCNC(=O)c3ccc(-c4c5nc(c(-c6cc(S(=O)(=O)[O-])ccc6F)c6ccc([nH]6)c(-c6cc(S(=O)(=O)[O-])ccc6F)c6nc(c(-c7cc(S(=O)(=O)[O-])ccc7F)c7ccc4[nH]7)C=C6)C=C5)cc3)nn2)C1
REMARK SMILES IDX 19 1 18 2 16 3 17 4 15 6 13 7 14 8 89 9 88 10 12 11 8 12
REMARK SMILES IDX 9 13 10 14 11 15 90 16 2 17 1 18 3 19 4 20 5 21 6 22 7 23
REMARK SMILES IDX 20 25 21 26 22 27 23 28 24 30 25 31 26 32 87 33 27 34 86 35
REMARK SMILES IDX 28 36 29 37 30 38 80 39 31 40 85 41 79 42 81 43 32 44 84 45
REMARK SMILES IDX 78 46 77 47 33 49 65 50 45 51 64 52 46 53 49 54 63 55 82 56
REMARK SMILES IDX 47 57 48 58 62 60 83 61 50 62 34 63 35 64 43 65 36 66 42 67
REMARK SMILES IDX 44 68 41 69 37 70 38 71 39 72 40 73 66 74 67 75 75 76 68 77
REMARK SMILES IDX 74 78 76 79 73 80 69 81 70 82 71 83 72 84 51 85 52 86 60 87
REMARK SMILES IDX 53 88 59 89 61 90 58 91 54 92 55 93 56 94 57 95
REMARK H PARENT 18 5 5 24 22 29 81 48 49 59
REMARK Flexibility Score: inf
ROOT
ATOM      1  C   UNL A   1      37.384  21.401  25.150  1.00  0.00     0.118 C 
ENDROOT
BRANCH   1   2
ATOM      2  N   UNL A   1      36.478  20.275  24.987  1.00  0.00    -0.351 N 
ATOM      3  C   UNL A   1      35.101  20.232  25.003  1.00  0.00     0.273 C 
ATOM      4  O   UNL A   1      34.553  19.194  24.625  1.00  0.00    -0.267 OA
ATOM      5  H   UNL A   1      36.919  19.406  24.843  1.00  0.00     0.163 HD
BRANCH   3   6
ATOM      6  C   UNL A   1      34.336  21.398  25.416  1.00  0.00     0.170 A 
ATOM      7  N   UNL A   1      33.013  23.107  25.555  1.00  0.00    -0.245 N 
ATOM      8  C   UNL A   1      33.697  22.352  24.649  1.00  0.00     0.145 A 
ATOM      9  N   UNL A   1      33.296  22.740  26.811  1.00  0.00    -0.066 NA
ATOM     10  N   UNL A   1      34.135  21.714  26.743  1.00  0.00    -0.125 NA
BRANCH   7  11
ATOM     11  C   UNL A   1      31.964  23.993  25.171  1.00  0.00     0.148 C 
ATOM     12  C   UNL A   1      30.711  26.659  24.204  1.00  0.00     0.320 C 
ATOM     13  O   UNL A   1      29.606  26.133  24.115  1.00  0.00    -0.248 OA
ATOM     14  N   UNL A   1      31.858  25.911  24.378  1.00  0.00    -0.320 N 
ATOM     15  C   UNL A   1      32.051  24.577  23.768  1.00  0.00     0.150 C 
ATOM     16  C   UNL A   1      32.265  25.407  25.694  1.00  0.00     0.150 C 
BRANCH  12  17
ATOM     17  N   UNL A   1      30.952  28.017  24.034  1.00  0.00    -0.322 N 
ATOM     18  C   UNL A   1      30.001  28.889  23.361  1.00  0.00     0.149 C 
BRANCH  17  19
ATOM     19  C   UNL A   1      32.109  28.624  24.687  1.00  0.00     0.182 C 
BRANCH  19  20
ATOM     20  C   UNL A   1      31.793  29.373  26.016  1.00  0.00     0.283 C 
BRANCH  20  21
ATOM     21  N   UNL A   1      32.818  29.505  27.068  1.00  0.00    -0.338 N 
ATOM     22  C   UNL A   1      33.953  28.609  26.897  1.00  0.00     0.332 C 
ATOM     23  C   UNL A   1      33.214  30.881  27.335  1.00  0.00     0.332 C 
ATOM     24  H   UNL A   1      32.348  29.191  27.918  1.00  0.00     0.347 HD
ENDBRANCH  20  21
ENDBRANCH  19  20
ENDBRANCH  17  19
ENDBRANCH  12  17
ENDBRANCH   7  11
ENDBRANCH   3   6
ENDBRANCH   1   2
BRANCH   1  25
ATOM     25  C   UNL A   1      38.709  21.003  25.808  1.00  0.00     0.042 C 
BRANCH  25  26
ATOM     26  C   UNL A   1      39.466  22.197  26.374  1.00  0.00     0.118 C 
BRANCH  26  27
ATOM     27  N   UNL A   1      40.887  22.152  26.040  1.00  0.00    -0.352 N 
ATOM     28  C   UNL A   1      41.821  23.166  26.106  1.00  0.00     0.251 C 
ATOM     29  H   UNL A   1      41.224  21.282  25.727  1.00  0.00     0.163 HD
ATOM     30  O   UNL A   1      42.858  23.073  25.456  1.00  0.00    -0.269 OA
BRANCH  28  31
ATOM     31  C   UNL A   1      41.554  24.356  26.936  1.00  0.00     0.039 A 
ATOM     32  C   UNL A   1      42.299  24.590  28.095  1.00  0.00     0.014 A 
ATOM     33  C   UNL A   1      40.561  25.253  26.543  1.00  0.00     0.014 A 
ATOM     34  C   UNL A   1      42.105  25.779  28.796  1.00  0.00     0.010 A 
ATOM     35  C   UNL A   1      40.450  26.477  27.168  1.00  0.00     0.010 A 
ATOM     36  C   UNL A   1      41.201  26.740  28.310  1.00  0.00    -0.014 A 
BRANCH  36  37
ATOM     37  C   UNL A   1      41.182  28.088  28.883  1.00  0.00     0.031 A 
ATOM     38  C   UNL A   1      42.209  29.001  28.310  1.00  0.00     0.074 A 
ATOM     39  C   UNL A   1      40.198  28.579  29.669  1.00  0.00     0.049 A 
ATOM     40  N   UNL A   1      43.263  29.475  28.887  1.00  0.00    -0.248 NA
ATOM     41  C   UNL A   1      42.154  29.280  26.865  1.00  0.00     0.031 C 
ATOM     42  C   UNL A   1      38.953  27.916  30.067  1.00  0.00     0.029 A 
ATOM     43  N   UNL A   1      40.049  29.831  30.191  1.00  0.00    -0.354 N 
ATOM     44  C   UNL A   1      43.858  30.326  27.960  1.00  0.00     0.074 A 
ATOM     45  C   UNL A   1      43.280  29.974  26.693  1.00  0.00     0.031 C 
ATOM     46  C   UNL A   1      38.090  28.830  30.563  1.00  0.00     0.029 A 
ATOM     47  C   UNL A   1      38.770  30.110  30.670  1.00  0.00     0.049 A 
ATOM     48  H   UNL A   1      40.785  30.484  30.225  1.00  0.00     0.167 HD
ATOM     49  C   UNL A   1      44.572  31.417  28.365  1.00  0.00     0.034 A 
ATOM     50  C   UNL A   1      38.288  31.306  31.107  1.00  0.00     0.034 A 
ATOM     51  C   UNL A   1      44.913  31.304  29.772  1.00  0.00     0.049 A 
ATOM     52  C   UNL A   1      39.460  32.133  31.479  1.00  0.00     0.074 A 
ATOM     53  C   UNL A   1      45.580  30.361  30.534  1.00  0.00     0.029 A 
ATOM     54  N   UNL A   1      44.209  32.067  30.679  1.00  0.00    -0.354 N 
ATOM     55  N   UNL A   1      40.248  31.848  32.478  1.00  0.00    -0.248 NA
ATOM     56  C   UNL A   1      40.034  33.008  30.470  1.00  0.00     0.031 C 
ATOM     57  C   UNL A   1      44.841  30.284  31.754  1.00  0.00     0.029 A 
ATOM     58  C   UNL A   1      43.832  31.247  31.714  1.00  0.00     0.049 A 
ATOM     59  H   UNL A   1      44.011  33.028  30.600  1.00  0.00     0.167 HD
ATOM     60  C   UNL A   1      41.524  32.117  32.012  1.00  0.00     0.074 A 
ATOM     61  C   UNL A   1      41.322  32.938  30.819  1.00  0.00     0.031 C 
ATOM     62  C   UNL A   1      42.602  31.411  32.468  1.00  0.00     0.034 A 
BRANCH  49  63
ATOM     63  C   UNL A   1      44.599  32.755  27.636  1.00  0.00     0.023 A 
ATOM     64  C   UNL A   1      43.954  33.830  28.278  1.00  0.00     0.031 A 
ATOM     65  C   UNL A   1      44.928  32.978  26.280  1.00  0.00     0.131 A 
ATOM     66  C   UNL A   1      43.502  34.947  27.554  1.00  0.00     0.055 A 
ATOM     67  C   UNL A   1      44.537  34.126  25.578  1.00  0.00     0.041 A 
ATOM     68  F   UNL A   1      45.590  32.094  25.529  1.00  0.00    -0.206 F 
ATOM     69  C   UNL A   1      43.777  35.097  26.202  1.00  0.00     0.022 A 
BRANCH  66  70
ATOM     70  S   UNL A   1      42.363  36.083  28.382  1.00  0.00     0.124 S 
ATOM     71  O   UNL A   1      41.084  35.425  28.140  1.00  0.00    -0.237 OA
ATOM     72  O   UNL A   1      42.857  36.052  29.755  1.00  0.00    -0.237 OA
ATOM     73  O   UNL A   1      42.568  37.343  27.673  1.00  0.00    -0.744 OA
ENDBRANCH  66  70
ENDBRANCH  49  63
BRANCH  50  74
ATOM     74  C   UNL A   1      36.907  31.858  31.005  1.00  0.00     0.023 A 
ATOM     75  C   UNL A   1      36.188  32.322  32.129  1.00  0.00     0.031 A 
ATOM     76  C   UNL A   1      36.375  32.178  29.738  1.00  0.00     0.131 A 
ATOM     77  C   UNL A   1      35.002  33.078  31.958  1.00  0.00     0.055 A 
ATOM     78  C   UNL A   1      35.204  32.922  29.574  1.00  0.00     0.041 A 
ATOM     79  F   UNL A   1      37.026  31.856  28.609  1.00  0.00    -0.206 F 
ATOM     80  C   UNL A   1      34.519  33.386  30.685  1.00  0.00     0.022 A 
BRANCH  77  81
ATOM     81  S   UNL A   1      34.125  33.775  33.397  1.00  0.00     0.124 S 
ATOM     82  O   UNL A   1      32.872  33.030  33.389  1.00  0.00    -0.237 OA
ATOM     83  O   UNL A   1      35.042  33.491  34.496  1.00  0.00    -0.237 OA
ATOM     84  O   UNL A   1      33.998  35.194  33.063  1.00  0.00    -0.744 OA
ENDBRANCH  77  81
ENDBRANCH  50  74
BRANCH  62  85
ATOM     85  C   UNL A   1      42.443  30.584  33.732  1.00  0.00     0.023 A 
ATOM     86  C   UNL A   1      42.286  29.179  33.776  1.00  0.00     0.031 A 
ATOM     87  C   UNL A   1      42.543  31.262  34.960  1.00  0.00     0.131 A 
ATOM     88  C   UNL A   1      42.211  28.513  35.016  1.00  0.00     0.055 A 
ATOM     89  C   UNL A   1      42.494  30.597  36.185  1.00  0.00     0.041 A 
ATOM     90  F   UNL A   1      42.718  32.594  34.992  1.00  0.00    -0.206 F 
ATOM     91  C   UNL A   1      42.317  29.221  36.218  1.00  0.00     0.022 A 
BRANCH  88  92
ATOM     92  S   UNL A   1      41.935  26.714  35.098  1.00  0.00     0.124 S 
ATOM     93  O   UNL A   1      41.918  26.429  36.527  1.00  0.00    -0.237 OA
ATOM     94  O   UNL A   1      40.659  26.560  34.400  1.00  0.00    -0.237 OA
ATOM     95  O   UNL A   1      43.086  26.161  34.380  1.00  0.00    -0.744 OA
ENDBRANCH  88  92
ENDBRANCH  62  85
ENDBRANCH  36  37
ENDBRANCH  28  31
ENDBRANCH  26  27
ENDBRANCH  25  26
ENDBRANCH   1  25
TORSDOF 18
ENDMDL
MODEL 3
REMARK VINA RESULT:     -11.1      3.331      9.614
REMARK SMILES CN(CC[NH+](C)C)C(=O)N1CC(n2cc(C(=O)NCCCNC(=O)c3ccc(-c4c5nc(c(-c6cc(S(=O)(=O)[O-])ccc6F)c6ccc([nH]6)c(-c6cc(S(=O)(=O)[O-])ccc6F)c6nc(c(-c7cc(S(=O)(=O)[O-])ccc7F)c7ccc4[nH]7)C=C6)C=C5)cc3)nn2)C1
REMARK SMILES IDX 19 1 18 2 16 3 17 4 15 6 13 7 14 8 89 9 88 10 12 11 8 12
REMARK SMILES IDX 9 13 10 14 11 15 90 16 2 17 1 18 3 19 4 20 5 21 6 22 7 23
REMARK SMILES IDX 20 25 21 26 22 27 23 28 24 30 25 31 26 32 87 33 27 34 86 35
REMARK SMILES IDX 28 36 29 37 30 38 80 39 31 40 85 41 79 42 81 43 32 44 84 45
REMARK SMILES IDX 78 46 77 47 33 49 65 50 45 51 64 52 46 53 49 54 63 55 82 56
REMARK SMILES IDX 47 57 48 58 62 60 83 61 50 62 34 63 35 64 43 65 36 66 42 67
REMARK SMILES IDX 44 68 41 69 37 70 38 71 39 72 40 73 66 74 67 75 75 76 68 77
REMARK SMILES IDX 74 78 76 79 73 80 69 81 70 82 71 83 72 84 51 85 52 86 60 87
REMARK SMILES IDX 53 88 59 89 61 90 58 91 54 92 55 93 56 94 57 95
REMARK H PARENT 18 5 5 24 22 29 81 48 49 59
REMARK Flexibility Score: inf
ROOT
ATOM      1  C   UNL A   1      36.568  21.728  25.168  1.00  0.00     0.118 C 
ENDROOT
BRANCH   1   2
ATOM      2  N   UNL A   1      35.558  20.700  25.361  1.00  0.00    -0.351 N 
ATOM      3  C   UNL A   1      34.253  20.642  24.923  1.00  0.00     0.273 C 
ATOM      4  O   UNL A   1      33.657  19.566  25.027  1.00  0.00    -0.267 OA
ATOM      5  H   UNL A   1      35.854  19.922  25.888  1.00  0.00     0.163 HD
BRANCH   3   6
ATOM      6  C   UNL A   1      33.629  21.810  24.322  1.00  0.00     0.170 A 
ATOM      7  N   UNL A   1      33.057  23.801  23.691  1.00  0.00    -0.245 N 
ATOM      8  C   UNL A   1      33.689  23.137  24.700  1.00  0.00     0.145 A 
ATOM      9  N   UNL A   1      32.524  22.952  22.804  1.00  0.00    -0.066 NA
ATOM     10  N   UNL A   1      32.838  21.723  23.196  1.00  0.00    -0.125 NA
BRANCH   7  11
ATOM     11  C   UNL A   1      33.177  25.211  23.514  1.00  0.00     0.148 C 
ATOM     12  C   UNL A   1      32.233  28.164  23.517  1.00  0.00     0.320 C 
ATOM     13  O   UNL A   1      33.371  28.551  23.270  1.00  0.00    -0.248 OA
ATOM     14  N   UNL A   1      31.978  26.862  23.901  1.00  0.00    -0.320 N 
ATOM     15  C   UNL A   1      32.905  26.072  24.739  1.00  0.00     0.150 C 
ATOM     16  C   UNL A   1      31.873  25.771  22.926  1.00  0.00     0.150 C 
BRANCH  12  17
ATOM     17  N   UNL A   1      31.113  28.985  23.550  1.00  0.00    -0.322 N 
ATOM     18  C   UNL A   1      30.874  29.918  24.641  1.00  0.00     0.149 C 
BRANCH  17  19
ATOM     19  C   UNL A   1      30.232  29.038  22.385  1.00  0.00     0.182 C 
BRANCH  19  20
ATOM     20  C   UNL A   1      28.711  28.966  22.711  1.00  0.00     0.283 C 
BRANCH  20  21
ATOM     21  N   UNL A   1      27.815  30.090  22.380  1.00  0.00    -0.338 N 
ATOM     22  C   UNL A   1      27.631  31.035  23.473  1.00  0.00     0.332 C 
ATOM     23  C   UNL A   1      28.128  30.739  21.114  1.00  0.00     0.332 C 
ATOM     24  H   UNL A   1      26.903  29.654  22.240  1.00  0.00     0.347 HD
ENDBRANCH  20  21
ENDBRANCH  19  20
ENDBRANCH  17  19
ENDBRANCH  12  17
ENDBRANCH   7  11
ENDBRANCH   3   6
ENDBRANCH   1   2
BRANCH   1  25
ATOM     25  C   UNL A   1      37.914  21.359  25.800  1.00  0.00     0.042 C 
BRANCH  25  26
ATOM     26  C   UNL A   1      38.777  22.578  26.096  1.00  0.00     0.118 C 
BRANCH  26  27
ATOM     27  N   UNL A   1      40.204  22.273  26.010  1.00  0.00    -0.352 N 
ATOM     28  C   UNL A   1      41.279  23.099  26.265  1.00  0.00     0.251 C 
ATOM     29  H   UNL A   1      40.426  21.355  25.734  1.00  0.00     0.163 HD
ATOM     30  O   UNL A   1      42.379  22.817  25.801  1.00  0.00    -0.269 OA
BRANCH  28  31
ATOM     31  C   UNL A   1      41.091  24.320  27.071  1.00  0.00     0.039 A 
ATOM     32  C   UNL A   1      41.802  24.497  28.261  1.00  0.00     0.014 A 
ATOM     33  C   UNL A   1      40.207  25.303  26.625  1.00  0.00     0.014 A 
ATOM     34  C   UNL A   1      41.693  25.709  28.942  1.00  0.00     0.010 A 
ATOM     35  C   UNL A   1      40.186  26.540  27.234  1.00  0.00     0.010 A 
ATOM     36  C   UNL A   1      40.907  26.745  28.406  1.00  0.00    -0.014 A 
BRANCH  36  37
ATOM     37  C   UNL A   1      40.993  28.097  28.966  1.00  0.00     0.031 A 
ATOM     38  C   UNL A   1      42.045  28.943  28.339  1.00  0.00     0.074 A 
ATOM     39  C   UNL A   1      40.075  28.650  29.789  1.00  0.00     0.049 A 
ATOM     40  N   UNL A   1      43.149  29.358  28.865  1.00  0.00    -0.248 NA
ATOM     41  C   UNL A   1      41.943  29.214  26.895  1.00  0.00     0.031 C 
ATOM     42  C   UNL A   1      38.812  28.065  30.248  1.00  0.00     0.029 A 
ATOM     43  N   UNL A   1      40.022  29.913  30.304  1.00  0.00    -0.354 N 
ATOM     44  C   UNL A   1      43.752  30.166  27.904  1.00  0.00     0.074 A 
ATOM     45  C   UNL A   1      43.098  29.839  26.668  1.00  0.00     0.031 C 
ATOM     46  C   UNL A   1      38.027  29.032  30.772  1.00  0.00     0.029 A 
ATOM     47  C   UNL A   1      38.784  30.271  30.835  1.00  0.00     0.049 A 
ATOM     48  H   UNL A   1      40.796  30.522  30.300  1.00  0.00     0.167 HD
ATOM     49  C   UNL A   1      44.545  31.216  28.267  1.00  0.00     0.034 A 
ATOM     50  C   UNL A   1      38.393  31.496  31.281  1.00  0.00     0.034 A 
ATOM     51  C   UNL A   1      44.941  31.094  29.659  1.00  0.00     0.049 A 
ATOM     52  C   UNL A   1      39.627  32.255  31.593  1.00  0.00     0.074 A 
ATOM     53  C   UNL A   1      45.584  30.119  30.401  1.00  0.00     0.029 A 
ATOM     54  N   UNL A   1      44.323  31.904  30.588  1.00  0.00    -0.354 N 
ATOM     55  N   UNL A   1      40.440  31.932  32.559  1.00  0.00    -0.248 NA
ATOM     56  C   UNL A   1      40.205  33.088  30.551  1.00  0.00     0.031 C 
ATOM     57  C   UNL A   1      44.897  30.095  31.652  1.00  0.00     0.029 A 
ATOM     58  C   UNL A   1      43.945  31.116  31.646  1.00  0.00     0.049 A 
ATOM     59  H   UNL A   1      44.179  32.875  30.508  1.00  0.00     0.167 HD
ATOM     60  C   UNL A   1      41.707  32.122  32.035  1.00  0.00     0.074 A 
ATOM     61  C   UNL A   1      41.501  32.944  30.844  1.00  0.00     0.031 C 
ATOM     62  C   UNL A   1      42.761  31.357  32.451  1.00  0.00     0.034 A 
BRANCH  49  63
ATOM     63  C   UNL A   1      44.618  32.545  27.524  1.00  0.00     0.023 A 
ATOM     64  C   UNL A   1      43.972  33.638  28.132  1.00  0.00     0.031 A 
ATOM     65  C   UNL A   1      44.995  32.746  26.177  1.00  0.00     0.131 A 
ATOM     66  C   UNL A   1      43.562  34.754  27.382  1.00  0.00     0.055 A 
ATOM     67  C   UNL A   1      44.645  33.891  25.449  1.00  0.00     0.041 A 
ATOM     68  F   UNL A   1      45.664  31.842  25.457  1.00  0.00    -0.206 F 
ATOM     69  C   UNL A   1      43.883  34.882  26.037  1.00  0.00     0.022 A 
BRANCH  66  70
ATOM     70  S   UNL A   1      42.417  35.918  28.159  1.00  0.00     0.124 S 
ATOM     71  O   UNL A   1      42.870  35.875  29.545  1.00  0.00    -0.237 OA
ATOM     72  O   UNL A   1      42.699  37.148  27.426  1.00  0.00    -0.237 OA
ATOM     73  O   UNL A   1      41.107  35.325  27.905  1.00  0.00    -0.744 OA
ENDBRANCH  66  70
ENDBRANCH  49  63
BRANCH  50  74
ATOM     74  C   UNL A   1      37.043  32.127  31.234  1.00  0.00     0.023 A 
ATOM     75  C   UNL A   1      36.390  32.438  30.021  1.00  0.00     0.031 A 
ATOM     76  C   UNL A   1      36.262  32.193  32.408  1.00  0.00     0.131 A 
ATOM     77  C   UNL A   1      35.016  32.782  30.016  1.00  0.00     0.055 A 
ATOM     78  C   UNL A   1      34.908  32.536  32.397  1.00  0.00     0.041 A 
ATOM     79  F   UNL A   1      36.767  31.837  33.599  1.00  0.00    -0.206 F 
ATOM     80  C   UNL A   1      34.275  32.819  31.199  1.00  0.00     0.022 A 
BRANCH  77  81
ATOM     81  S   UNL A   1      34.135  33.078  28.446  1.00  0.00     0.124 S 
ATOM     82  O   UNL A   1      35.127  33.806  27.665  1.00  0.00    -0.237 OA
ATOM     83  O   UNL A   1      33.819  31.726  27.998  1.00  0.00    -0.237 OA
ATOM     84  O   UNL A   1      32.973  33.870  28.853  1.00  0.00    -0.744 OA
ENDBRANCH  77  81
ENDBRANCH  50  74
BRANCH  62  85
ATOM     85  C   UNL A   1      42.610  30.551  33.729  1.00  0.00     0.023 A 
ATOM     86  C   UNL A   1      42.235  29.189  33.798  1.00  0.00     0.031 A 
ATOM     87  C   UNL A   1      42.950  31.189  34.936  1.00  0.00     0.131 A 
ATOM     88  C   UNL A   1      42.190  28.528  35.043  1.00  0.00     0.055 A 
ATOM     89  C   UNL A   1      42.928  30.526  36.162  1.00  0.00     0.041 A 
ATOM     90  F   UNL A   1      43.338  32.475  34.942  1.00  0.00    -0.206 F 
ATOM     91  C   UNL A   1      42.538  29.195  36.222  1.00  0.00     0.022 A 
BRANCH  88  92
ATOM     92  S   UNL A   1      41.640  26.795  35.163  1.00  0.00     0.124 S 
ATOM     93  O   UNL A   1      41.299  26.636  36.571  1.00  0.00    -0.237 OA
ATOM     94  O   UNL A   1      40.518  26.756  34.226  1.00  0.00    -0.237 OA
ATOM     95  O   UNL A   1      42.815  26.035  34.730  1.00  0.00    -0.744 OA
ENDBRANCH  88  92
ENDBRANCH  62  85
ENDBRANCH  36  37
ENDBRANCH  28  31
ENDBRANCH  26  27
ENDBRANCH  25  26
ENDBRANCH   1  25
TORSDOF 18
ENDMDL
