MODEL 1
REMARK VINA RESULT:     -10.6      0.000      0.000
REMARK SMILES C[C@H](Nc1ccc2c(c1)Cc1ccccc1-2)[C@@H](C)C(=O)NCCCNC(=O)c1ccc(-c2c3nc(c(-c4cc(S(=O)(=O)[O-])ccc4F)c4ccc([nH]4)c(-c4cc(S(=O)(=O)[O-])ccc4F)c4nc(c(-c5cc(S(=O)(=O)[O-])ccc5F)c5ccc2[nH]5)C=C4)C=C3)cc1
REMARK SMILES IDX 23 1 22 2 21 3 19 4 20 5 17 7 18 8 2 9 1 10 3 11 4 13 5 14
REMARK SMILES IDX 9 15 6 16 8 17 7 18 10 19 16 20 11 21 15 22 12 23 14 24
REMARK SMILES IDX 13 25 24 26 25 27 26 28 27 30 28 31 29 32 90 33 30 34 89 35
REMARK SMILES IDX 31 36 32 37 33 38 83 39 34 40 88 41 82 42 84 43 35 44 87 45
REMARK SMILES IDX 81 46 80 47 36 49 68 50 48 51 67 52 49 53 52 54 66 55 85 56
REMARK SMILES IDX 50 57 51 58 65 60 86 61 53 62 37 63 38 64 46 65 39 66 45 67
REMARK SMILES IDX 47 68 44 69 40 70 41 71 42 72 43 73 69 74 70 75 78 76 71 77
REMARK SMILES IDX 77 78 79 79 76 80 72 81 73 82 74 83 75 84 54 85 55 86 63 87
REMARK SMILES IDX 56 88 62 89 64 90 61 91 57 92 58 93 59 94 60 95
REMARK H PARENT 21 6 3 12 25 29 84 48 52 59
REMARK Flexibility Score: inf
ROOT
ATOM      1  C   UNL A   1      34.397  35.329  28.354  1.00  0.00     0.042 C 
ENDROOT
BRANCH   1   2
ATOM      2  C   UNL A   1      33.275  35.438  29.382  1.00  0.00     0.117 C 
BRANCH   2   3
ATOM      3  N   UNL A   1      33.729  35.990  30.648  1.00  0.00    -0.356 N 
ATOM      4  C   UNL A   1      34.183  35.401  31.786  1.00  0.00     0.224 C 
ATOM      5  O   UNL A   1      34.526  36.151  32.706  1.00  0.00    -0.275 OA
ATOM      6  H   UNL A   1      33.701  36.973  30.688  1.00  0.00     0.163 HD
BRANCH   4   7
ATOM      7  C   UNL A   1      34.299  33.887  31.947  1.00  0.00     0.097 C 
ATOM      8  C   UNL A   1      33.694  33.465  33.289  1.00  0.00     0.020 C 
BRANCH   7   9
ATOM      9  C   UNL A   1      35.725  33.365  31.659  1.00  0.00     0.088 C 
ATOM     10  C   UNL A   1      36.050  32.152  32.538  1.00  0.00     0.031 C 
BRANCH   9  11
ATOM     11  N   UNL A   1      36.710  34.460  31.721  1.00  0.00    -0.382 N 
ATOM     12  H   UNL A   1      36.368  35.336  32.016  1.00  0.00     0.160 HD
BRANCH  11  13
ATOM     13  C   UNL A   1      38.055  34.403  31.414  1.00  0.00     0.035 A 
ATOM     14  C   UNL A   1      38.519  34.169  30.105  1.00  0.00     0.026 A 
ATOM     15  C   UNL A   1      39.001  34.584  32.435  1.00  0.00     0.030 A 
ATOM     16  C   UNL A   1      39.879  34.069  29.797  1.00  0.00     0.011 A 
ATOM     17  C   UNL A   1      40.353  34.507  32.126  1.00  0.00    -0.034 A 
ATOM     18  C   UNL A   1      40.792  34.232  30.816  1.00  0.00    -0.014 A 
ATOM     19  C   UNL A   1      41.542  34.695  33.045  1.00  0.00     0.072 C 
ATOM     20  C   UNL A   1      42.236  34.196  30.801  1.00  0.00    -0.015 A 
ATOM     21  C   UNL A   1      42.709  34.478  32.100  1.00  0.00    -0.036 A 
ATOM     22  C   UNL A   1      43.118  33.940  29.766  1.00  0.00     0.009 A 
ATOM     23  C   UNL A   1      44.065  34.525  32.376  1.00  0.00     0.005 A 
ATOM     24  C   UNL A   1      44.487  33.979  30.038  1.00  0.00     0.001 A 
ATOM     25  C   UNL A   1      44.956  34.273  31.330  1.00  0.00     0.000 A 
ENDBRANCH  11  13
ENDBRANCH   9  11
ENDBRANCH   7   9
ENDBRANCH   4   7
ENDBRANCH   2   3
ENDBRANCH   1   2
BRANCH   1  26
ATOM     26  C   UNL A   1      35.130  33.994  28.375  1.00  0.00     0.118 C 
BRANCH  26  27
ATOM     27  N   UNL A   1      34.279  32.889  27.956  1.00  0.00    -0.352 N 
ATOM     28  C   UNL A   1      34.554  31.551  27.849  1.00  0.00     0.251 C 
ATOM     29  H   UNL A   1      33.360  33.144  27.712  1.00  0.00     0.163 HD
ATOM     30  O   UNL A   1      33.762  30.827  27.241  1.00  0.00    -0.269 OA
BRANCH  28  31
ATOM     31  C   UNL A   1      35.787  30.979  28.431  1.00  0.00     0.039 A 
ATOM     32  C   UNL A   1      35.680  29.979  29.402  1.00  0.00     0.014 A 
ATOM     33  C   UNL A   1      37.048  31.446  28.052  1.00  0.00     0.014 A 
ATOM     34  C   UNL A   1      36.835  29.407  29.941  1.00  0.00     0.010 A 
ATOM     35  C   UNL A   1      38.195  30.812  28.519  1.00  0.00     0.010 A 
ATOM     36  C   UNL A   1      38.103  29.793  29.477  1.00  0.00    -0.014 A 
BRANCH  36  37
ATOM     37  C   UNL A   1      39.344  29.160  29.996  1.00  0.00     0.031 A 
ATOM     38  C   UNL A   1      39.995  29.685  31.247  1.00  0.00     0.074 A 
ATOM     39  C   UNL A   1      39.917  28.152  29.309  1.00  0.00     0.049 A 
ATOM     40  N   UNL A   1      41.113  29.319  31.818  1.00  0.00    -0.248 NA
ATOM     41  C   UNL A   1      39.310  30.796  31.923  1.00  0.00     0.031 C 
ATOM     42  C   UNL A   1      39.401  27.577  28.065  1.00  0.00     0.029 A 
ATOM     43  N   UNL A   1      41.060  27.433  29.557  1.00  0.00    -0.354 N 
ATOM     44  C   UNL A   1      41.272  30.161  32.914  1.00  0.00     0.074 A 
ATOM     45  C   UNL A   1      40.177  31.106  32.874  1.00  0.00     0.031 C 
ATOM     46  C   UNL A   1      40.202  26.570  27.681  1.00  0.00     0.029 A 
ATOM     47  C   UNL A   1      41.315  26.460  28.619  1.00  0.00     0.049 A 
ATOM     48  H   UNL A   1      41.641  27.599  30.334  1.00  0.00     0.167 HD
ATOM     49  C   UNL A   1      42.224  30.130  33.882  1.00  0.00     0.034 A 
ATOM     50  C   UNL A   1      42.333  25.584  28.523  1.00  0.00     0.034 A 
ATOM     51  C   UNL A   1      43.310  29.179  33.903  1.00  0.00     0.049 A 
ATOM     52  C   UNL A   1      43.410  25.597  29.577  1.00  0.00     0.074 A 
ATOM     53  C   UNL A   1      44.307  29.028  34.851  1.00  0.00     0.029 A 
ATOM     54  N   UNL A   1      43.549  28.222  32.924  1.00  0.00    -0.354 N 
ATOM     55  N   UNL A   1      43.524  26.371  30.632  1.00  0.00    -0.248 NA
ATOM     56  C   UNL A   1      44.487  24.613  29.431  1.00  0.00     0.031 C 
ATOM     57  C   UNL A   1      45.189  28.036  34.408  1.00  0.00     0.029 A 
ATOM     58  C   UNL A   1      44.697  27.503  33.226  1.00  0.00     0.049 A 
ATOM     59  H   UNL A   1      42.987  28.077  32.129  1.00  0.00     0.167 HD
ATOM     60  C   UNL A   1      44.671  25.941  31.295  1.00  0.00     0.074 A 
ATOM     61  C   UNL A   1      45.203  24.835  30.524  1.00  0.00     0.031 C 
ATOM     62  C   UNL A   1      45.228  26.412  32.440  1.00  0.00     0.034 A 
BRANCH  49  63
ATOM     63  C   UNL A   1      42.135  31.179  34.969  1.00  0.00     0.023 A 
ATOM     64  C   UNL A   1      41.021  31.259  35.825  1.00  0.00     0.031 A 
ATOM     65  C   UNL A   1      43.139  32.153  35.112  1.00  0.00     0.131 A 
ATOM     66  C   UNL A   1      40.884  32.345  36.703  1.00  0.00     0.055 A 
ATOM     67  C   UNL A   1      43.045  33.176  36.060  1.00  0.00     0.041 A 
ATOM     68  F   UNL A   1      44.218  32.146  34.314  1.00  0.00    -0.206 F 
ATOM     69  C   UNL A   1      41.903  33.290  36.846  1.00  0.00     0.022 A 
BRANCH  66  70
ATOM     70  S   UNL A   1      39.277  32.612  37.501  1.00  0.00     0.124 S 
ATOM     71  O   UNL A   1      38.838  33.854  36.869  1.00  0.00    -0.237 OA
ATOM     72  O   UNL A   1      38.538  31.411  37.130  1.00  0.00    -0.237 OA
ATOM     73  O   UNL A   1      39.614  32.728  38.918  1.00  0.00    -0.744 OA
ENDBRANCH  66  70
ENDBRANCH  49  63
BRANCH  50  74
ATOM     74  C   UNL A   1      42.381  24.611  27.394  1.00  0.00     0.023 A 
ATOM     75  C   UNL A   1      41.626  23.428  27.434  1.00  0.00     0.031 A 
ATOM     76  C   UNL A   1      43.193  24.838  26.270  1.00  0.00     0.131 A 
ATOM     77  C   UNL A   1      41.727  22.499  26.387  1.00  0.00     0.055 A 
ATOM     78  C   UNL A   1      43.252  23.935  25.207  1.00  0.00     0.041 A 
ATOM     79  F   UNL A   1      43.930  25.957  26.179  1.00  0.00    -0.206 F 
ATOM     80  C   UNL A   1      42.522  22.751  25.267  1.00  0.00     0.022 A 
BRANCH  77  81
ATOM     81  S   UNL A   1      40.848  20.919  26.541  1.00  0.00     0.124 S 
ATOM     82  O   UNL A   1      41.735  20.016  25.818  1.00  0.00    -0.237 OA
ATOM     83  O   UNL A   1      40.792  20.743  27.988  1.00  0.00    -0.237 OA
ATOM     84  O   UNL A   1      39.563  21.182  25.897  1.00  0.00    -0.744 OA
ENDBRANCH  77  81
ENDBRANCH  50  74
BRANCH  62  85
ATOM     85  C   UNL A   1      46.454  25.693  32.953  1.00  0.00     0.023 A 
ATOM     86  C   UNL A   1      47.738  25.956  32.444  1.00  0.00     0.031 A 
ATOM     87  C   UNL A   1      46.330  24.715  33.957  1.00  0.00     0.131 A 
ATOM     88  C   UNL A   1      48.836  25.209  32.898  1.00  0.00     0.055 A 
ATOM     89  C   UNL A   1      47.436  24.023  34.452  1.00  0.00     0.041 A 
ATOM     90  F   UNL A   1      45.128  24.418  34.478  1.00  0.00    -0.206 F 
ATOM     91  C   UNL A   1      48.697  24.258  33.912  1.00  0.00     0.022 A 
BRANCH  88  92
ATOM     92  S   UNL A   1      50.437  25.422  32.069  1.00  0.00     0.124 S 
ATOM     93  O   UNL A   1      51.272  25.932  33.151  1.00  0.00    -0.237 OA
ATOM     94  O   UNL A   1      50.736  24.068  31.617  1.00  0.00    -0.237 OA
ATOM     95  O   UNL A   1      50.147  26.381  31.005  1.00  0.00    -0.744 OA
ENDBRANCH  88  92
ENDBRANCH  62  85
ENDBRANCH  36  37
ENDBRANCH  28  31
ENDBRANCH  26  27
ENDBRANCH   1  26
TORSDOF 16
ENDMDL
MODEL 2
REMARK VINA RESULT:     -10.4      6.198     10.640
REMARK SMILES C[C@H](Nc1ccc2c(c1)Cc1ccccc1-2)[C@@H](C)C(=O)NCCCNC(=O)c1ccc(-c2c3nc(c(-c4cc(S(=O)(=O)[O-])ccc4F)c4ccc([nH]4)c(-c4cc(S(=O)(=O)[O-])ccc4F)c4nc(c(-c5cc(S(=O)(=O)[O-])ccc5F)c5ccc2[nH]5)C=C4)C=C3)cc1
REMARK SMILES IDX 23 1 22 2 21 3 19 4 20 5 17 7 18 8 2 9 1 10 3 11 4 13 5 14
REMARK SMILES IDX 9 15 6 16 8 17 7 18 10 19 16 20 11 21 15 22 12 23 14 24
REMARK SMILES IDX 13 25 24 26 25 27 26 28 27 30 28 31 29 32 90 33 30 34 89 35
REMARK SMILES IDX 31 36 32 37 33 38 83 39 34 40 88 41 82 42 84 43 35 44 87 45
REMARK SMILES IDX 81 46 80 47 36 49 68 50 48 51 67 52 49 53 52 54 66 55 85 56
REMARK SMILES IDX 50 57 51 58 65 60 86 61 53 62 37 63 38 64 46 65 39 66 45 67
REMARK SMILES IDX 47 68 44 69 40 70 41 71 42 72 43 73 69 74 70 75 78 76 71 77
REMARK SMILES IDX 77 78 79 79 76 80 72 81 73 82 74 83 75 84 54 85 55 86 63 87
REMARK SMILES IDX 56 88 62 89 64 90 61 91 57 92 58 93 59 94 60 95
REMARK H PARENT 21 6 3 12 25 29 84 48 52 59
REMARK Flexibility Score: inf
ROOT
ATOM      1  C   UNL A   1      35.435  22.491  24.353  1.00  0.00     0.042 C 
ENDROOT
BRANCH   1   2
ATOM      2  C   UNL A   1      35.362  23.962  23.955  1.00  0.00     0.117 C 
BRANCH   2   3
ATOM      3  N   UNL A   1      34.847  24.805  25.021  1.00  0.00    -0.356 N 
ATOM      4  C   UNL A   1      33.976  25.849  25.015  1.00  0.00     0.224 C 
ATOM      5  O   UNL A   1      33.707  26.361  26.107  1.00  0.00    -0.275 OA
ATOM      6  H   UNL A   1      35.193  24.577  25.913  1.00  0.00     0.163 HD
BRANCH   4   7
ATOM      7  C   UNL A   1      33.325  26.378  23.739  1.00  0.00     0.097 C 
ATOM      8  C   UNL A   1      33.664  27.861  23.565  1.00  0.00     0.020 C 
BRANCH   7   9
ATOM      9  C   UNL A   1      31.825  26.017  23.643  1.00  0.00     0.088 C 
ATOM     10  C   UNL A   1      30.963  27.281  23.564  1.00  0.00     0.031 C 
BRANCH   9  11
ATOM     11  N   UNL A   1      31.443  25.067  24.703  1.00  0.00    -0.382 N 
ATOM     12  H   UNL A   1      30.956  25.445  25.471  1.00  0.00     0.160 HD
BRANCH  11  13
ATOM     13  C   UNL A   1      31.688  23.708  24.746  1.00  0.00     0.035 A 
ATOM     14  C   UNL A   1      31.874  23.014  25.957  1.00  0.00     0.026 A 
ATOM     15  C   UNL A   1      31.754  22.984  23.545  1.00  0.00     0.030 A 
ATOM     16  C   UNL A   1      32.162  21.647  26.003  1.00  0.00     0.011 A 
ATOM     17  C   UNL A   1      32.018  21.622  23.590  1.00  0.00    -0.034 A 
ATOM     18  C   UNL A   1      32.241  20.958  24.812  1.00  0.00    -0.014 A 
ATOM     19  C   UNL A   1      32.108  20.640  22.440  1.00  0.00     0.072 C 
ATOM     20  C   UNL A   1      32.507  19.563  24.549  1.00  0.00    -0.015 A 
ATOM     21  C   UNL A   1      32.423  19.341  23.158  1.00  0.00    -0.036 A 
ATOM     22  C   UNL A   1      32.806  18.525  25.414  1.00  0.00     0.009 A 
ATOM     23  C   UNL A   1      32.619  18.082  22.618  1.00  0.00     0.005 A 
ATOM     24  C   UNL A   1      33.013  17.253  24.876  1.00  0.00     0.001 A 
ATOM     25  C   UNL A   1      32.915  17.032  23.492  1.00  0.00     0.000 A 
ENDBRANCH  11  13
ENDBRANCH   9  11
ENDBRANCH   7   9
ENDBRANCH   4   7
ENDBRANCH   2   3
ENDBRANCH   1   2
BRANCH   1  26
ATOM     26  C   UNL A   1      36.034  22.252  25.733  1.00  0.00     0.118 C 
BRANCH  26  27
ATOM     27  N   UNL A   1      36.994  21.158  25.737  1.00  0.00    -0.352 N 
ATOM     28  C   UNL A   1      38.359  21.177  25.869  1.00  0.00     0.251 C 
ATOM     29  H   UNL A   1      36.602  20.262  25.627  1.00  0.00     0.163 HD
ATOM     30  O   UNL A   1      38.998  20.158  25.599  1.00  0.00    -0.269 OA
BRANCH  28  31
ATOM     31  C   UNL A   1      39.062  22.401  26.311  1.00  0.00     0.039 A 
ATOM     32  C   UNL A   1      40.182  22.281  27.138  1.00  0.00     0.014 A 
ATOM     33  C   UNL A   1      38.604  23.668  25.941  1.00  0.00     0.014 A 
ATOM     34  C   UNL A   1      40.876  23.425  27.540  1.00  0.00     0.010 A 
ATOM     35  C   UNL A   1      39.350  24.799  26.264  1.00  0.00     0.010 A 
ATOM     36  C   UNL A   1      40.487  24.692  27.075  1.00  0.00    -0.014 A 
BRANCH  36  37
ATOM     37  C   UNL A   1      41.243  25.918  27.444  1.00  0.00     0.031 A 
ATOM     38  C   UNL A   1      40.605  26.965  28.317  1.00  0.00     0.074 A 
ATOM     39  C   UNL A   1      42.479  26.116  26.944  1.00  0.00     0.049 A 
ATOM     40  N   UNL A   1      41.069  28.129  28.691  1.00  0.00    -0.248 NA
ATOM     41  C   UNL A   1      39.250  26.672  28.804  1.00  0.00     0.031 C 
ATOM     42  C   UNL A   1      43.191  25.192  26.060  1.00  0.00     0.029 A 
ATOM     43  N   UNL A   1      43.355  27.160  27.108  1.00  0.00    -0.354 N 
ATOM     44  C   UNL A   1      40.058  28.714  29.447  1.00  0.00     0.074 A 
ATOM     45  C   UNL A   1      38.931  27.808  29.406  1.00  0.00     0.031 C 
ATOM     46  C   UNL A   1      44.407  25.691  25.791  1.00  0.00     0.029 A 
ATOM     47  C   UNL A   1      44.544  26.992  26.438  1.00  0.00     0.049 A 
ATOM     48  H   UNL A   1      43.150  27.954  27.652  1.00  0.00     0.167 HD
ATOM     49  C   UNL A   1      40.078  29.883  30.138  1.00  0.00     0.034 A 
ATOM     50  C   UNL A   1      45.620  27.798  26.351  1.00  0.00     0.034 A 
ATOM     51  C   UNL A   1      41.213  30.774  30.165  1.00  0.00     0.049 A 
ATOM     52  C   UNL A   1      45.606  29.116  27.081  1.00  0.00     0.074 A 
ATOM     53  C   UNL A   1      41.362  31.962  30.860  1.00  0.00     0.029 A 
ATOM     54  N   UNL A   1      42.394  30.583  29.456  1.00  0.00    -0.354 N 
ATOM     55  N   UNL A   1      44.660  29.637  27.828  1.00  0.00    -0.248 NA
ATOM     56  C   UNL A   1      46.808  29.948  26.963  1.00  0.00     0.031 C 
ATOM     57  C   UNL A   1      42.596  32.524  30.512  1.00  0.00     0.029 A 
ATOM     58  C   UNL A   1      43.259  31.646  29.669  1.00  0.00     0.049 A 
ATOM     59  H   UNL A   1      42.587  29.805  28.885  1.00  0.00     0.167 HD
ATOM     60  C   UNL A   1      45.169  30.845  28.298  1.00  0.00     0.074 A 
ATOM     61  C   UNL A   1      46.509  30.966  27.757  1.00  0.00     0.031 C 
ATOM     62  C   UNL A   1      44.587  31.765  29.110  1.00  0.00     0.034 A 
BRANCH  49  63
ATOM     63  C   UNL A   1      38.819  30.261  30.888  1.00  0.00     0.023 A 
ATOM     64  C   UNL A   1      37.802  31.020  30.282  1.00  0.00     0.031 A 
ATOM     65  C   UNL A   1      38.660  29.920  32.242  1.00  0.00     0.131 A 
ATOM     66  C   UNL A   1      36.733  31.506  31.051  1.00  0.00     0.055 A 
ATOM     67  C   UNL A   1      37.541  30.320  32.978  1.00  0.00     0.041 A 
ATOM     68  F   UNL A   1      39.603  29.214  32.887  1.00  0.00    -0.206 F 
ATOM     69  C   UNL A   1      36.581  31.138  32.389  1.00  0.00     0.022 A 
BRANCH  66  70
ATOM     70  S   UNL A   1      35.662  32.781  30.330  1.00  0.00     0.124 S 
ATOM     71  O   UNL A   1      34.399  32.527  31.019  1.00  0.00    -0.237 OA
ATOM     72  O   UNL A   1      36.351  34.013  30.693  1.00  0.00    -0.237 OA
ATOM     73  O   UNL A   1      35.661  32.461  28.904  1.00  0.00    -0.744 OA
ENDBRANCH  66  70
ENDBRANCH  49  63
BRANCH  50  74
ATOM     74  C   UNL A   1      46.807  27.380  25.552  1.00  0.00     0.023 A 
ATOM     75  C   UNL A   1      46.980  27.828  24.234  1.00  0.00     0.031 A 
ATOM     76  C   UNL A   1      47.776  26.512  26.086  1.00  0.00     0.131 A 
ATOM     77  C   UNL A   1      48.075  27.379  23.479  1.00  0.00     0.055 A 
ATOM     78  C   UNL A   1      48.891  26.108  25.350  1.00  0.00     0.041 A 
ATOM     79  F   UNL A   1      47.662  26.059  27.346  1.00  0.00    -0.206 F 
ATOM     80  C   UNL A   1      49.040  26.535  24.033  1.00  0.00     0.022 A 
BRANCH  77  81
ATOM     81  S   UNL A   1      48.187  27.866  21.736  1.00  0.00     0.124 S 
ATOM     82  O   UNL A   1      46.874  28.459  21.509  1.00  0.00    -0.237 OA
ATOM     83  O   UNL A   1      49.315  28.790  21.751  1.00  0.00    -0.237 OA
ATOM     84  O   UNL A   1      48.429  26.602  21.045  1.00  0.00    -0.744 OA
ENDBRANCH  77  81
ENDBRANCH  50  74
BRANCH  62  85
ATOM     85  C   UNL A   1      45.422  32.962  29.499  1.00  0.00     0.023 A 
ATOM     86  C   UNL A   1      45.412  34.152  28.751  1.00  0.00     0.031 A 
ATOM     87  C   UNL A   1      46.255  32.902  30.632  1.00  0.00     0.131 A 
ATOM     88  C   UNL A   1      46.262  35.210  29.109  1.00  0.00     0.055 A 
ATOM     89  C   UNL A   1      47.048  33.982  31.021  1.00  0.00     0.041 A 
ATOM     90  F   UNL A   1      46.310  31.790  31.383  1.00  0.00    -0.206 F 
ATOM     91  C   UNL A   1      47.065  35.140  30.250  1.00  0.00     0.022 A 
BRANCH  88  92
ATOM     92  S   UNL A   1      46.383  36.643  28.001  1.00  0.00     0.124 S 
ATOM     93  O   UNL A   1      47.582  36.328  27.230  1.00  0.00    -0.237 OA
ATOM     94  O   UNL A   1      45.121  36.581  27.272  1.00  0.00    -0.237 OA
ATOM     95  O   UNL A   1      46.515  37.774  28.917  1.00  0.00    -0.744 OA
ENDBRANCH  88  92
ENDBRANCH  62  85
ENDBRANCH  36  37
ENDBRANCH  28  31
ENDBRANCH  26  27
ENDBRANCH   1  26
TORSDOF 16
ENDMDL
MODEL 3
REMARK VINA RESULT:     -10.3      4.942     11.335
REMARK SMILES C[C@H](Nc1ccc2c(c1)Cc1ccccc1-2)[C@@H](C)C(=O)NCCCNC(=O)c1ccc(-c2c3nc(c(-c4cc(S(=O)(=O)[O-])ccc4F)c4ccc([nH]4)c(-c4cc(S(=O)(=O)[O-])ccc4F)c4nc(c(-c5cc(S(=O)(=O)[O-])ccc5F)c5ccc2[nH]5)C=C4)C=C3)cc1
REMARK SMILES IDX 23 1 22 2 21 3 19 4 20 5 17 7 18 8 2 9 1 10 3 11 4 13 5 14
REMARK SMILES IDX 9 15 6 16 8 17 7 18 10 19 16 20 11 21 15 22 12 23 14 24
REMARK SMILES IDX 13 25 24 26 25 27 26 28 27 30 28 31 29 32 90 33 30 34 89 35
REMARK SMILES IDX 31 36 32 37 33 38 83 39 34 40 88 41 82 42 84 43 35 44 87 45
REMARK SMILES IDX 81 46 80 47 36 49 68 50 48 51 67 52 49 53 52 54 66 55 85 56
REMARK SMILES IDX 50 57 51 58 65 60 86 61 53 62 37 63 38 64 46 65 39 66 45 67
REMARK SMILES IDX 47 68 44 69 40 70 41 71 42 72 43 73 69 74 70 75 78 76 71 77
REMARK SMILES IDX 77 78 79 79 76 80 72 81 73 82 74 83 75 84 54 85 55 86 63 87
REMARK SMILES IDX 56 88 62 89 64 90 61 91 57 92 58 93 59 94 60 95
REMARK H PARENT 21 6 3 12 25 29 84 48 52 59
REMARK Flexibility Score: inf
ROOT
ATOM      1  C   UNL A   1      31.581  31.939  26.713  1.00  0.00     0.042 C 
ENDROOT
BRANCH   1   2
ATOM      2  C   UNL A   1      31.756  30.450  26.434  1.00  0.00     0.117 C 
BRANCH   2   3
ATOM      3  N   UNL A   1      31.366  30.084  25.082  1.00  0.00    -0.356 N 
ATOM      4  C   UNL A   1      31.731  29.050  24.278  1.00  0.00     0.224 C 
ATOM      5  O   UNL A   1      31.199  28.991  23.165  1.00  0.00    -0.275 OA
ATOM      6  H   UNL A   1      30.717  30.700  24.674  1.00  0.00     0.163 HD
BRANCH   4   7
ATOM      7  C   UNL A   1      32.734  27.981  24.706  1.00  0.00     0.097 C 
ATOM      8  C   UNL A   1      33.974  28.051  23.811  1.00  0.00     0.020 C 
BRANCH   7   9
ATOM      9  C   UNL A   1      32.089  26.584  24.853  1.00  0.00     0.088 C 
ATOM     10  C   UNL A   1      31.034  26.584  25.964  1.00  0.00     0.031 C 
BRANCH   9  11
ATOM     11  N   UNL A   1      33.121  25.538  24.975  1.00  0.00    -0.382 N 
ATOM     12  H   UNL A   1      33.974  25.814  25.383  1.00  0.00     0.160 HD
BRANCH  11  13
ATOM     13  C   UNL A   1      33.032  24.217  24.582  1.00  0.00     0.035 A 
ATOM     14  C   UNL A   1      32.119  23.783  23.601  1.00  0.00     0.026 A 
ATOM     15  C   UNL A   1      33.878  23.266  25.174  1.00  0.00     0.030 A 
ATOM     16  C   UNL A   1      31.997  22.441  23.230  1.00  0.00     0.011 A 
ATOM     17  C   UNL A   1      33.773  21.936  24.790  1.00  0.00    -0.034 A 
ATOM     18  C   UNL A   1      32.825  21.520  23.836  1.00  0.00    -0.014 A 
ATOM     19  C   UNL A   1      34.590  20.751  25.263  1.00  0.00     0.072 C 
ATOM     20  C   UNL A   1      32.936  20.091  23.652  1.00  0.00    -0.015 A 
ATOM     21  C   UNL A   1      33.978  19.609  24.473  1.00  0.00    -0.036 A 
ATOM     22  C   UNL A   1      32.210  19.228  22.850  1.00  0.00     0.009 A 
ATOM     23  C   UNL A   1      34.319  18.268  24.488  1.00  0.00     0.005 A 
ATOM     24  C   UNL A   1      32.543  17.872  22.865  1.00  0.00     0.001 A 
ATOM     25  C   UNL A   1      33.591  17.397  23.673  1.00  0.00     0.000 A 
ENDBRANCH  11  13
ENDBRANCH   9  11
ENDBRANCH   7   9
ENDBRANCH   4   7
ENDBRANCH   2   3
ENDBRANCH   1   2
BRANCH   1  26
ATOM     26  C   UNL A   1      32.861  32.643  27.143  1.00  0.00     0.118 C 
BRANCH  26  27
ATOM     27  N   UNL A   1      32.619  34.011  27.581  1.00  0.00    -0.352 N 
ATOM     28  C   UNL A   1      33.138  34.707  28.642  1.00  0.00     0.251 C 
ATOM     29  H   UNL A   1      31.981  34.516  27.026  1.00  0.00     0.163 HD
ATOM     30  O   UNL A   1      32.611  35.773  28.970  1.00  0.00    -0.269 OA
BRANCH  28  31
ATOM     31  C   UNL A   1      34.297  34.186  29.397  1.00  0.00     0.039 A 
ATOM     32  C   UNL A   1      34.073  33.421  30.545  1.00  0.00     0.014 A 
ATOM     33  C   UNL A   1      35.605  34.476  29.001  1.00  0.00     0.014 A 
ATOM     34  C   UNL A   1      35.156  32.895  31.254  1.00  0.00     0.010 A 
ATOM     35  C   UNL A   1      36.679  33.876  29.652  1.00  0.00     0.010 A 
ATOM     36  C   UNL A   1      36.468  33.088  30.792  1.00  0.00    -0.014 A 
BRANCH  36  37
ATOM     37  C   UNL A   1      37.634  32.493  31.498  1.00  0.00     0.031 A 
ATOM     38  C   UNL A   1      38.380  31.339  30.886  1.00  0.00     0.074 A 
ATOM     39  C   UNL A   1      37.982  32.953  32.717  1.00  0.00     0.049 A 
ATOM     40  N   UNL A   1      39.372  30.639  31.373  1.00  0.00    -0.248 NA
ATOM     41  C   UNL A   1      37.922  30.893  29.563  1.00  0.00     0.031 C 
ATOM     42  C   UNL A   1      37.315  34.044  33.430  1.00  0.00     0.029 A 
ATOM     43  N   UNL A   1      38.981  32.560  33.571  1.00  0.00    -0.354 N 
ATOM     44  C   UNL A   1      39.650  29.663  30.422  1.00  0.00     0.074 A 
ATOM     45  C   UNL A   1      38.666  29.815  29.371  1.00  0.00     0.031 C 
ATOM     46  C   UNL A   1      37.948  34.258  34.594  1.00  0.00     0.029 A 
ATOM     47  C   UNL A   1      39.030  33.289  34.736  1.00  0.00     0.049 A 
ATOM     48  H   UNL A   1      39.605  31.826  33.368  1.00  0.00     0.167 HD
ATOM     49  C   UNL A   1      40.650  28.746  30.409  1.00  0.00     0.034 A 
ATOM     50  C   UNL A   1      39.850  33.184  35.800  1.00  0.00     0.034 A 
ATOM     51  C   UNL A   1      41.622  28.610  31.468  1.00  0.00     0.049 A 
ATOM     52  C   UNL A   1      40.923  32.126  35.792  1.00  0.00     0.074 A 
ATOM     53  C   UNL A   1      42.700  27.746  31.545  1.00  0.00     0.029 A 
ATOM     54  N   UNL A   1      41.626  29.351  32.644  1.00  0.00    -0.354 N 
ATOM     55  N   UNL A   1      41.202  31.238  34.867  1.00  0.00    -0.248 NA
ATOM     56  C   UNL A   1      41.796  32.066  36.970  1.00  0.00     0.031 C 
ATOM     57  C   UNL A   1      43.308  27.911  32.795  1.00  0.00     0.029 A 
ATOM     58  C   UNL A   1      42.666  28.940  33.466  1.00  0.00     0.049 A 
ATOM     59  H   UNL A   1      40.984  30.064  32.862  1.00  0.00     0.167 HD
ATOM     60  C   UNL A   1      42.308  30.534  35.337  1.00  0.00     0.074 A 
ATOM     61  C   UNL A   1      42.647  31.111  36.623  1.00  0.00     0.031 C 
ATOM     62  C   UNL A   1      42.985  29.511  34.755  1.00  0.00     0.034 A 
BRANCH  49  63
ATOM     63  C   UNL A   1      40.711  27.809  29.222  1.00  0.00     0.023 A 
ATOM     64  C   UNL A   1      41.651  27.986  28.191  1.00  0.00     0.031 A 
ATOM     65  C   UNL A   1      39.777  26.767  29.082  1.00  0.00     0.131 A 
ATOM     66  C   UNL A   1      41.569  27.214  27.023  1.00  0.00     0.055 A 
ATOM     67  C   UNL A   1      39.765  25.933  27.959  1.00  0.00     0.041 A 
ATOM     68  F   UNL A   1      38.840  26.556  30.019  1.00  0.00    -0.206 F 
ATOM     69  C   UNL A   1      40.649  26.169  26.911  1.00  0.00     0.022 A 
BRANCH  66  70
ATOM     70  S   UNL A   1      42.544  27.726  25.581  1.00  0.00     0.124 S 
ATOM     71  O   UNL A   1      41.874  28.967  25.198  1.00  0.00    -0.237 OA
ATOM     72  O   UNL A   1      43.882  27.869  26.140  1.00  0.00    -0.237 OA
ATOM     73  O   UNL A   1      42.372  26.619  24.642  1.00  0.00    -0.744 OA
ENDBRANCH  66  70
ENDBRANCH  49  63
BRANCH  50  74
ATOM     74  C   UNL A   1      39.700  34.112  36.957  1.00  0.00     0.023 A 
ATOM     75  C   UNL A   1      39.167  33.662  38.174  1.00  0.00     0.031 A 
ATOM     76  C   UNL A   1      40.067  35.466  36.858  1.00  0.00     0.131 A 
ATOM     77  C   UNL A   1      38.981  34.564  39.233  1.00  0.00     0.055 A 
ATOM     78  C   UNL A   1      39.929  36.349  37.931  1.00  0.00     0.041 A 
ATOM     79  F   UNL A   1      40.588  35.947  35.717  1.00  0.00    -0.206 F 
ATOM     80  C   UNL A   1      39.373  35.900  39.125  1.00  0.00     0.022 A 
BRANCH  77  81
ATOM     81  S   UNL A   1      38.159  33.976  40.740  1.00  0.00     0.124 S 
ATOM     82  O   UNL A   1      37.939  35.224  41.462  1.00  0.00    -0.237 OA
ATOM     83  O   UNL A   1      36.969  33.326  40.202  1.00  0.00    -0.237 OA
ATOM     84  O   UNL A   1      39.144  33.075  41.334  1.00  0.00    -0.744 OA
ENDBRANCH  77  81
ENDBRANCH  50  74
BRANCH  62  85
ATOM     85  C   UNL A   1      44.196  28.985  35.490  1.00  0.00     0.023 A 
ATOM     86  C   UNL A   1      44.085  28.044  36.529  1.00  0.00     0.031 A 
ATOM     87  C   UNL A   1      45.482  29.447  35.153  1.00  0.00     0.131 A 
ATOM     88  C   UNL A   1      45.232  27.642  37.233  1.00  0.00     0.055 A 
ATOM     89  C   UNL A   1      46.624  28.993  35.812  1.00  0.00     0.041 A 
ATOM     90  F   UNL A   1      45.648  30.350  34.172  1.00  0.00    -0.206 F 
ATOM     91  C   UNL A   1      46.502  28.096  36.868  1.00  0.00     0.022 A 
BRANCH  88  92
ATOM     92  S   UNL A   1      45.030  26.598  38.703  1.00  0.00     0.124 S 
ATOM     93  O   UNL A   1      45.796  25.410  38.338  1.00  0.00    -0.237 OA
ATOM     94  O   UNL A   1      45.603  27.428  39.756  1.00  0.00    -0.237 OA
ATOM     95  O   UNL A   1      43.584  26.401  38.787  1.00  0.00    -0.744 OA
ENDBRANCH  88  92
ENDBRANCH  62  85
ENDBRANCH  36  37
ENDBRANCH  28  31
ENDBRANCH  26  27
ENDBRANCH   1  26
TORSDOF 16
ENDMDL
