MODEL 1
REMARK VINA RESULT:     -10.8      0.000      0.000
REMARK SMILES C[C@@H](Sc1nncn1C)[C@@H](C)C(=O)NCCCNC(=O)c1ccc(-c2c3nc(c(-c4cc(S(=O)(=O)[O-])ccc4F)c4ccc([nH]4)c(-c4cc(S(=O)(=O)[O-])ccc4F)c4nc(c(-c5cc(S(=O)(=O)[O-])ccc5F)c5ccc2[nH]5)C=C4)C=C3)cc1
REMARK SMILES IDX 16 1 15 2 14 3 12 4 13 5 10 7 11 8 2 9 1 10 3 11 4 12 5 13
REMARK SMILES IDX 8 14 6 15 7 16 9 17 17 18 18 19 19 20 20 22 21 23 22 24
REMARK SMILES IDX 83 25 23 26 82 27 24 28 25 29 26 30 76 31 27 32 81 33 75 34
REMARK SMILES IDX 77 35 28 36 80 37 74 38 73 39 29 41 61 42 41 43 60 44 42 45
REMARK SMILES IDX 45 46 59 47 78 48 43 49 44 50 58 52 79 53 46 54 30 55 31 56
REMARK SMILES IDX 39 57 32 58 38 59 40 60 37 61 33 62 34 63 35 64 36 65 62 66
REMARK SMILES IDX 63 67 71 68 64 69 70 70 72 71 69 72 65 73 66 74 67 75 68 76
REMARK SMILES IDX 47 77 48 78 56 79 49 80 55 81 57 82 54 83 50 84 51 85 52 86
REMARK SMILES IDX 53 87
REMARK H PARENT 14 6 18 21 77 40 45 51
REMARK Flexibility Score: inf
ROOT
ATOM      1  C   UNL A   1      31.506  31.840  26.593  1.00  0.00     0.042 C 
ENDROOT
BRANCH   1   2
ATOM      2  C   UNL A   1      31.786  30.505  25.916  1.00  0.00     0.117 C 
BRANCH   2   3
ATOM      3  N   UNL A   1      33.073  29.951  26.300  1.00  0.00    -0.356 N 
ATOM      4  C   UNL A   1      33.569  28.688  26.236  1.00  0.00     0.223 C 
ATOM      5  O   UNL A   1      34.726  28.514  26.632  1.00  0.00    -0.275 OA
ATOM      6  H   UNL A   1      33.701  30.611  26.674  1.00  0.00     0.163 HD
BRANCH   4   7
ATOM      7  C   UNL A   1      32.775  27.524  25.651  1.00  0.00     0.088 C 
ATOM      8  C   UNL A   1      31.990  26.824  26.767  1.00  0.00     0.019 C 
BRANCH   7   9
ATOM      9  C   UNL A   1      33.614  26.603  24.732  1.00  0.00     0.064 C 
ATOM     10  C   UNL A   1      34.154  25.379  25.477  1.00  0.00     0.021 C 
BRANCH   9  11
ATOM     11  S   UNL A   1      32.556  26.039  23.328  1.00  0.00    -0.082 SA
BRANCH  11  12
ATOM     12  C   UNL A   1      31.518  27.398  23.091  1.00  0.00     0.191 A 
ATOM     13  N   UNL A   1      31.844  28.562  22.581  1.00  0.00    -0.124 NA
ATOM     14  N   UNL A   1      30.187  27.390  23.397  1.00  0.00    -0.312 N 
ATOM     15  N   UNL A   1      30.700  29.326  22.521  1.00  0.00    -0.138 NA
ATOM     16  C   UNL A   1      29.716  28.611  23.016  1.00  0.00     0.226 A 
ATOM     17  C   UNL A   1      29.412  26.329  23.981  1.00  0.00     0.153 C 
ENDBRANCH  11  12
ENDBRANCH   9  11
ENDBRANCH   7   9
ENDBRANCH   4   7
ENDBRANCH   2   3
ENDBRANCH   1   2
BRANCH   1  18
ATOM     18  C   UNL A   1      32.716  32.450  27.287  1.00  0.00     0.118 C 
BRANCH  18  19
ATOM     19  N   UNL A   1      32.543  33.869  27.571  1.00  0.00    -0.352 N 
ATOM     20  C   UNL A   1      33.132  34.658  28.527  1.00  0.00     0.251 C 
ATOM     21  H   UNL A   1      31.905  34.335  26.983  1.00  0.00     0.163 HD
ATOM     22  O   UNL A   1      32.681  35.785  28.735  1.00  0.00    -0.269 OA
BRANCH  20  23
ATOM     23  C   UNL A   1      34.280  34.157  29.315  1.00  0.00     0.039 A 
ATOM     24  C   UNL A   1      34.036  33.399  30.462  1.00  0.00     0.014 A 
ATOM     25  C   UNL A   1      35.593  34.444  28.936  1.00  0.00     0.014 A 
ATOM     26  C   UNL A   1      35.109  32.872  31.186  1.00  0.00     0.010 A 
ATOM     27  C   UNL A   1      36.656  33.840  29.600  1.00  0.00     0.010 A 
ATOM     28  C   UNL A   1      36.428  33.053  30.737  1.00  0.00    -0.014 A 
BRANCH  28  29
ATOM     29  C   UNL A   1      37.579  32.440  31.450  1.00  0.00     0.031 A 
ATOM     30  C   UNL A   1      38.331  31.294  30.827  1.00  0.00     0.074 A 
ATOM     31  C   UNL A   1      37.910  32.874  32.682  1.00  0.00     0.049 A 
ATOM     32  N   UNL A   1      39.313  30.581  31.317  1.00  0.00    -0.248 NA
ATOM     33  C   UNL A   1      37.895  30.873  29.487  1.00  0.00     0.031 C 
ATOM     34  C   UNL A   1      37.232  33.951  33.408  1.00  0.00     0.029 A 
ATOM     35  N   UNL A   1      38.896  32.465  33.545  1.00  0.00    -0.354 N 
ATOM     36  C   UNL A   1      39.603  29.623  30.352  1.00  0.00     0.074 A 
ATOM     37  C   UNL A   1      38.642  29.800  29.286  1.00  0.00     0.031 C 
ATOM     38  C   UNL A   1      37.845  34.140  34.587  1.00  0.00     0.029 A 
ATOM     39  C   UNL A   1      38.921  33.166  34.729  1.00  0.00     0.049 A 
ATOM     40  H   UNL A   1      39.525  31.737  33.336  1.00  0.00     0.167 HD
ATOM     41  C   UNL A   1      40.597  28.698  30.344  1.00  0.00     0.034 A 
ATOM     42  C   UNL A   1      39.714  33.031  35.810  1.00  0.00     0.034 A 
ATOM     43  C   UNL A   1      41.548  28.538  31.419  1.00  0.00     0.049 A 
ATOM     44  C   UNL A   1      40.783  31.969  35.800  1.00  0.00     0.074 A 
ATOM     45  C   UNL A   1      42.621  27.669  31.498  1.00  0.00     0.029 A 
ATOM     46  N   UNL A   1      41.532  29.255  32.610  1.00  0.00    -0.354 N 
ATOM     47  N   UNL A   1      41.078  31.099  34.861  1.00  0.00    -0.248 NA
ATOM     48  C   UNL A   1      41.633  31.875  36.994  1.00  0.00     0.031 C 
ATOM     49  C   UNL A   1      43.205  27.803  32.763  1.00  0.00     0.029 A 
ATOM     50  C   UNL A   1      42.554  28.821  33.443  1.00  0.00     0.049 A 
ATOM     51  H   UNL A   1      40.890  29.968  32.831  1.00  0.00     0.167 HD
ATOM     52  C   UNL A   1      42.169  30.379  35.338  1.00  0.00     0.074 A 
ATOM     53  C   UNL A   1      42.486  30.926  36.642  1.00  0.00     0.031 C 
ATOM     54  C   UNL A   1      42.852  29.363  34.749  1.00  0.00     0.034 A 
BRANCH  41  55
ATOM     55  C   UNL A   1      40.676  27.776  29.148  1.00  0.00     0.023 A 
ATOM     56  C   UNL A   1      41.623  27.971  28.126  1.00  0.00     0.031 A 
ATOM     57  C   UNL A   1      39.764  26.716  29.000  1.00  0.00     0.131 A 
ATOM     58  C   UNL A   1      41.575  27.187  26.963  1.00  0.00     0.055 A 
ATOM     59  C   UNL A   1      39.785  25.876  27.884  1.00  0.00     0.041 A 
ATOM     60  F   UNL A   1      38.821  26.489  29.928  1.00  0.00    -0.206 F 
ATOM     61  C   UNL A   1      40.680  26.121  26.847  1.00  0.00     0.022 A 
BRANCH  58  62
ATOM     62  S   UNL A   1      42.575  27.694  25.537  1.00  0.00     0.124 S 
ATOM     63  O   UNL A   1      42.523  26.497  24.700  1.00  0.00    -0.237 OA
ATOM     64  O   UNL A   1      41.847  28.855  25.039  1.00  0.00    -0.237 OA
ATOM     65  O   UNL A   1      43.884  27.980  26.120  1.00  0.00    -0.744 OA
ENDBRANCH  58  62
ENDBRANCH  41  55
BRANCH  42  66
ATOM     66  C   UNL A   1      39.532  33.921  36.993  1.00  0.00     0.023 A 
ATOM     67  C   UNL A   1      38.927  33.446  38.167  1.00  0.00     0.031 A 
ATOM     68  C   UNL A   1      39.935  35.269  36.957  1.00  0.00     0.131 A 
ATOM     69  C   UNL A   1      38.703  34.321  39.242  1.00  0.00     0.055 A 
ATOM     70  C   UNL A   1      39.763  36.120  38.050  1.00  0.00     0.041 A 
ATOM     71  F   UNL A   1      40.518  35.773  35.858  1.00  0.00    -0.206 F 
ATOM     72  C   UNL A   1      39.132  35.650  39.198  1.00  0.00     0.022 A 
BRANCH  69  73
ATOM     73  S   UNL A   1      37.768  33.717  40.674  1.00  0.00     0.124 S 
ATOM     74  O   UNL A   1      38.713  32.780  41.272  1.00  0.00    -0.237 OA
ATOM     75  O   UNL A   1      37.526  34.948  41.420  1.00  0.00    -0.237 OA
ATOM     76  O   UNL A   1      36.581  33.110  40.075  1.00  0.00    -0.744 OA
ENDBRANCH  69  73
ENDBRANCH  42  66
BRANCH  54  77
ATOM     77  C   UNL A   1      44.044  28.811  35.497  1.00  0.00     0.023 A 
ATOM     78  C   UNL A   1      43.928  27.726  36.383  1.00  0.00     0.031 A 
ATOM     79  C   UNL A   1      45.314  29.392  35.325  1.00  0.00     0.131 A 
ATOM     80  C   UNL A   1      45.049  27.295  37.109  1.00  0.00     0.055 A 
ATOM     81  C   UNL A   1      46.438  28.914  35.998  1.00  0.00     0.041 A 
ATOM     82  F   UNL A   1      45.483  30.434  34.496  1.00  0.00    -0.206 F 
ATOM     83  C   UNL A   1      46.307  27.869  36.907  1.00  0.00     0.022 A 
BRANCH  80  84
ATOM     84  S   UNL A   1      44.822  26.041  38.401  1.00  0.00     0.124 S 
ATOM     85  O   UNL A   1      46.184  25.547  38.584  1.00  0.00    -0.237 OA
ATOM     86  O   UNL A   1      44.276  26.824  39.505  1.00  0.00    -0.237 OA
ATOM     87  O   UNL A   1      43.892  25.090  37.796  1.00  0.00    -0.744 OA
ENDBRANCH  80  84
ENDBRANCH  54  77
ENDBRANCH  28  29
ENDBRANCH  20  23
ENDBRANCH  18  19
ENDBRANCH   1  18
TORSDOF 16
ENDMDL
MODEL 2
REMARK VINA RESULT:     -10.7      2.833      8.398
REMARK SMILES C[C@@H](Sc1nncn1C)[C@@H](C)C(=O)NCCCNC(=O)c1ccc(-c2c3nc(c(-c4cc(S(=O)(=O)[O-])ccc4F)c4ccc([nH]4)c(-c4cc(S(=O)(=O)[O-])ccc4F)c4nc(c(-c5cc(S(=O)(=O)[O-])ccc5F)c5ccc2[nH]5)C=C4)C=C3)cc1
REMARK SMILES IDX 16 1 15 2 14 3 12 4 13 5 10 7 11 8 2 9 1 10 3 11 4 12 5 13
REMARK SMILES IDX 8 14 6 15 7 16 9 17 17 18 18 19 19 20 20 22 21 23 22 24
REMARK SMILES IDX 83 25 23 26 82 27 24 28 25 29 26 30 76 31 27 32 81 33 75 34
REMARK SMILES IDX 77 35 28 36 80 37 74 38 73 39 29 41 61 42 41 43 60 44 42 45
REMARK SMILES IDX 45 46 59 47 78 48 43 49 44 50 58 52 79 53 46 54 30 55 31 56
REMARK SMILES IDX 39 57 32 58 38 59 40 60 37 61 33 62 34 63 35 64 36 65 62 66
REMARK SMILES IDX 63 67 71 68 64 69 70 70 72 71 69 72 65 73 66 74 67 75 68 76
REMARK SMILES IDX 47 77 48 78 56 79 49 80 55 81 57 82 54 83 50 84 51 85 52 86
REMARK SMILES IDX 53 87
REMARK H PARENT 14 6 18 21 77 40 45 51
REMARK Flexibility Score: inf
ROOT
ATOM      1  C   UNL A   1      31.771  28.507  26.086  1.00  0.00     0.042 C 
ENDROOT
BRANCH   1   2
ATOM      2  C   UNL A   1      31.950  27.082  25.578  1.00  0.00     0.117 C 
BRANCH   2   3
ATOM      3  N   UNL A   1      31.884  27.000  24.130  1.00  0.00    -0.356 N 
ATOM      4  C   UNL A   1      30.853  27.164  23.261  1.00  0.00     0.223 C 
ATOM      5  O   UNL A   1      31.102  27.043  22.058  1.00  0.00    -0.275 OA
ATOM      6  H   UNL A   1      32.743  26.785  23.699  1.00  0.00     0.163 HD
BRANCH   4   7
ATOM      7  C   UNL A   1      29.447  27.540  23.719  1.00  0.00     0.088 C 
ATOM      8  C   UNL A   1      28.651  26.268  24.034  1.00  0.00     0.019 C 
BRANCH   7   9
ATOM      9  C   UNL A   1      28.748  28.565  22.793  1.00  0.00     0.064 C 
ATOM     10  C   UNL A   1      27.263  28.728  23.127  1.00  0.00     0.021 C 
BRANCH   9  11
ATOM     11  S   UNL A   1      29.591  30.198  22.969  1.00  0.00    -0.082 SA
BRANCH  11  12
ATOM     12  C   UNL A   1      28.756  31.162  21.805  1.00  0.00     0.191 A 
ATOM     13  N   UNL A   1      28.290  30.769  20.643  1.00  0.00    -0.124 NA
ATOM     14  N   UNL A   1      28.458  32.480  21.995  1.00  0.00    -0.312 N 
ATOM     15  N   UNL A   1      27.646  31.842  20.068  1.00  0.00    -0.138 NA
ATOM     16  C   UNL A   1      27.757  32.861  20.890  1.00  0.00     0.226 A 
ATOM     17  C   UNL A   1      28.784  33.316  23.119  1.00  0.00     0.153 C 
ENDBRANCH  11  12
ENDBRANCH   9  11
ENDBRANCH   7   9
ENDBRANCH   4   7
ENDBRANCH   2   3
ENDBRANCH   1   2
BRANCH   1  18
ATOM     18  C   UNL A   1      32.856  29.470  25.624  1.00  0.00     0.118 C 
BRANCH  18  19
ATOM     19  N   UNL A   1      32.597  30.845  26.037  1.00  0.00    -0.352 N 
ATOM     20  C   UNL A   1      33.195  31.602  27.013  1.00  0.00     0.251 C 
ATOM     21  H   UNL A   1      31.883  31.300  25.536  1.00  0.00     0.163 HD
ATOM     22  O   UNL A   1      32.676  32.669  27.345  1.00  0.00    -0.269 OA
BRANCH  20  23
ATOM     23  C   UNL A   1      34.433  31.137  27.675  1.00  0.00     0.039 A 
ATOM     24  C   UNL A   1      35.474  32.045  27.881  1.00  0.00     0.014 A 
ATOM     25  C   UNL A   1      34.577  29.809  28.080  1.00  0.00     0.014 A 
ATOM     26  C   UNL A   1      36.628  31.635  28.554  1.00  0.00     0.010 A 
ATOM     27  C   UNL A   1      35.683  29.428  28.834  1.00  0.00     0.010 A 
ATOM     28  C   UNL A   1      36.725  30.334  29.073  1.00  0.00    -0.014 A 
BRANCH  28  29
ATOM     29  C   UNL A   1      37.912  29.899  29.856  1.00  0.00     0.031 A 
ATOM     30  C   UNL A   1      38.161  30.465  31.229  1.00  0.00     0.074 A 
ATOM     31  C   UNL A   1      38.796  29.042  29.309  1.00  0.00     0.049 A 
ATOM     32  N   UNL A   1      39.171  30.268  32.037  1.00  0.00    -0.248 NA
ATOM     33  C   UNL A   1      37.155  31.405  31.745  1.00  0.00     0.031 C 
ATOM     34  C   UNL A   1      38.685  28.455  27.971  1.00  0.00     0.029 A 
ATOM     35  N   UNL A   1      39.963  28.516  29.804  1.00  0.00    -0.354 N 
ATOM     36  C   UNL A   1      38.928  31.066  33.150  1.00  0.00     0.074 A 
ATOM     37  C   UNL A   1      37.715  31.806  32.875  1.00  0.00     0.031 C 
ATOM     38  C   UNL A   1      39.719  27.624  27.769  1.00  0.00     0.029 A 
ATOM     39  C   UNL A   1      40.596  27.658  28.934  1.00  0.00     0.049 A 
ATOM     40  H   UNL A   1      40.314  28.733  30.698  1.00  0.00     0.167 HD
ATOM     41  C   UNL A   1      39.635  31.154  34.305  1.00  0.00     0.034 A 
ATOM     42  C   UNL A   1      41.757  26.985  29.057  1.00  0.00     0.034 A 
ATOM     43  C   UNL A   1      40.843  30.406  34.561  1.00  0.00     0.049 A 
ATOM     44  C   UNL A   1      42.551  27.131  30.329  1.00  0.00     0.074 A 
ATOM     45  C   UNL A   1      41.614  30.380  35.709  1.00  0.00     0.029 A 
ATOM     46  N   UNL A   1      41.464  29.559  33.649  1.00  0.00    -0.354 N 
ATOM     47  N   UNL A   1      42.285  27.854  31.394  1.00  0.00    -0.248 NA
ATOM     48  C   UNL A   1      43.799  26.362  30.421  1.00  0.00     0.031 C 
ATOM     49  C   UNL A   1      42.739  29.585  35.466  1.00  0.00     0.029 A 
ATOM     50  C   UNL A   1      42.627  29.038  34.197  1.00  0.00     0.049 A 
ATOM     51  H   UNL A   1      41.127  29.359  32.746  1.00  0.00     0.167 HD
ATOM     52  C   UNL A   1      43.316  27.599  32.294  1.00  0.00     0.074 A 
ATOM     53  C   UNL A   1      44.199  26.647  31.651  1.00  0.00     0.031 C 
ATOM     54  C   UNL A   1      43.510  28.100  33.541  1.00  0.00     0.034 A 
BRANCH  41  55
ATOM     55  C   UNL A   1      39.128  32.117  35.356  1.00  0.00     0.023 A 
ATOM     56  C   UNL A   1      39.572  33.452  35.411  1.00  0.00     0.031 A 
ATOM     57  C   UNL A   1      38.227  31.687  36.346  1.00  0.00     0.131 A 
ATOM     58  C   UNL A   1      39.194  34.274  36.482  1.00  0.00     0.055 A 
ATOM     59  C   UNL A   1      37.778  32.541  37.355  1.00  0.00     0.041 A 
ATOM     60  F   UNL A   1      37.783  30.420  36.363  1.00  0.00    -0.206 F 
ATOM     61  C   UNL A   1      38.276  33.837  37.440  1.00  0.00     0.022 A 
BRANCH  58  62
ATOM     62  S   UNL A   1      40.055  35.855  36.703  1.00  0.00     0.124 S 
ATOM     63  O   UNL A   1      39.498  36.319  37.972  1.00  0.00    -0.237 OA
ATOM     64  O   UNL A   1      41.455  35.450  36.729  1.00  0.00    -0.237 OA
ATOM     65  O   UNL A   1      39.651  36.632  35.534  1.00  0.00    -0.744 OA
ENDBRANCH  58  62
ENDBRANCH  41  55
BRANCH  42  66
ATOM     66  C   UNL A   1      42.243  26.114  27.948  1.00  0.00     0.023 A 
ATOM     67  C   UNL A   1      41.803  24.786  27.828  1.00  0.00     0.031 A 
ATOM     68  C   UNL A   1      43.176  26.587  27.008  1.00  0.00     0.131 A 
ATOM     69  C   UNL A   1      42.327  23.964  26.817  1.00  0.00     0.055 A 
ATOM     70  C   UNL A   1      43.650  25.783  25.970  1.00  0.00     0.041 A 
ATOM     71  F   UNL A   1      43.629  27.849  27.077  1.00  0.00    -0.206 F 
ATOM     72  C   UNL A   1      43.235  24.458  25.878  1.00  0.00     0.022 A 
BRANCH  69  73
ATOM     73  S   UNL A   1      41.865  22.210  26.797  1.00  0.00     0.124 S 
ATOM     74  O   UNL A   1      42.929  21.614  27.596  1.00  0.00    -0.237 OA
ATOM     75  O   UNL A   1      40.541  22.238  27.411  1.00  0.00    -0.237 OA
ATOM     76  O   UNL A   1      41.883  21.869  25.376  1.00  0.00    -0.744 OA
ENDBRANCH  69  73
ENDBRANCH  42  66
BRANCH  54  77
ATOM     77  C   UNL A   1      44.705  27.586  34.310  1.00  0.00     0.023 A 
ATOM     78  C   UNL A   1      44.656  26.390  35.048  1.00  0.00     0.031 A 
ATOM     79  C   UNL A   1      45.908  28.313  34.312  1.00  0.00     0.131 A 
ATOM     80  C   UNL A   1      45.768  25.989  35.805  1.00  0.00     0.055 A 
ATOM     81  C   UNL A   1      47.033  27.874  35.011  1.00  0.00     0.041 A 
ATOM     82  F   UNL A   1      46.012  29.465  33.630  1.00  0.00    -0.206 F 
ATOM     83  C   UNL A   1      46.963  26.713  35.774  1.00  0.00     0.022 A 
BRANCH  80  84
ATOM     84  S   UNL A   1      45.600  24.563  36.914  1.00  0.00     0.124 S 
ATOM     85  O   UNL A   1      45.718  23.443  35.986  1.00  0.00    -0.237 OA
ATOM     86  O   UNL A   1      46.719  24.749  37.833  1.00  0.00    -0.237 OA
ATOM     87  O   UNL A   1      44.276  24.743  37.507  1.00  0.00    -0.744 OA
ENDBRANCH  80  84
ENDBRANCH  54  77
ENDBRANCH  28  29
ENDBRANCH  20  23
ENDBRANCH  18  19
ENDBRANCH   1  18
TORSDOF 16
ENDMDL
MODEL 3
REMARK VINA RESULT:     -10.6      2.828      3.794
REMARK SMILES C[C@@H](Sc1nncn1C)[C@@H](C)C(=O)NCCCNC(=O)c1ccc(-c2c3nc(c(-c4cc(S(=O)(=O)[O-])ccc4F)c4ccc([nH]4)c(-c4cc(S(=O)(=O)[O-])ccc4F)c4nc(c(-c5cc(S(=O)(=O)[O-])ccc5F)c5ccc2[nH]5)C=C4)C=C3)cc1
REMARK SMILES IDX 16 1 15 2 14 3 12 4 13 5 10 7 11 8 2 9 1 10 3 11 4 12 5 13
REMARK SMILES IDX 8 14 6 15 7 16 9 17 17 18 18 19 19 20 20 22 21 23 22 24
REMARK SMILES IDX 83 25 23 26 82 27 24 28 25 29 26 30 76 31 27 32 81 33 75 34
REMARK SMILES IDX 77 35 28 36 80 37 74 38 73 39 29 41 61 42 41 43 60 44 42 45
REMARK SMILES IDX 45 46 59 47 78 48 43 49 44 50 58 52 79 53 46 54 30 55 31 56
REMARK SMILES IDX 39 57 32 58 38 59 40 60 37 61 33 62 34 63 35 64 36 65 62 66
REMARK SMILES IDX 63 67 71 68 64 69 70 70 72 71 69 72 65 73 66 74 67 75 68 76
REMARK SMILES IDX 47 77 48 78 56 79 49 80 55 81 57 82 54 83 50 84 51 85 52 86
REMARK SMILES IDX 53 87
REMARK H PARENT 14 6 18 21 77 40 45 51
REMARK Flexibility Score: inf
ROOT
ATOM      1  C   UNL A   1      31.684  28.550  26.170  1.00  0.00     0.042 C 
ENDROOT
BRANCH   1   2
ATOM      2  C   UNL A   1      32.353  27.242  26.570  1.00  0.00     0.117 C 
BRANCH   2   3
ATOM      3  N   UNL A   1      31.392  26.178  26.800  1.00  0.00    -0.356 N 
ATOM      4  C   UNL A   1      31.042  25.099  26.052  1.00  0.00     0.223 C 
ATOM      5  O   UNL A   1      30.184  24.342  26.518  1.00  0.00    -0.275 OA
ATOM      6  H   UNL A   1      30.906  26.251  27.653  1.00  0.00     0.163 HD
BRANCH   4   7
ATOM      7  C   UNL A   1      31.705  24.777  24.715  1.00  0.00     0.088 C 
ATOM      8  C   UNL A   1      30.679  24.132  23.775  1.00  0.00     0.019 C 
BRANCH   7   9
ATOM      9  C   UNL A   1      33.055  24.035  24.857  1.00  0.00     0.064 C 
ATOM     10  C   UNL A   1      34.234  25.002  25.001  1.00  0.00     0.021 C 
BRANCH   9  11
ATOM     11  S   UNL A   1      32.982  22.942  26.342  1.00  0.00    -0.082 SA
BRANCH  11  12
ATOM     12  C   UNL A   1      32.877  21.373  25.631  1.00  0.00     0.191 A 
ATOM     13  N   UNL A   1      31.783  20.696  25.368  1.00  0.00    -0.124 NA
ATOM     14  N   UNL A   1      33.965  20.657  25.224  1.00  0.00    -0.312 N 
ATOM     15  N   UNL A   1      32.156  19.525  24.749  1.00  0.00    -0.138 NA
ATOM     16  C   UNL A   1      33.468  19.514  24.672  1.00  0.00     0.226 A 
ATOM     17  C   UNL A   1      35.356  21.011  25.326  1.00  0.00     0.153 C 
ENDBRANCH  11  12
ENDBRANCH   9  11
ENDBRANCH   7   9
ENDBRANCH   4   7
ENDBRANCH   2   3
ENDBRANCH   1   2
BRANCH   1  18
ATOM     18  C   UNL A   1      32.643  29.592  25.609  1.00  0.00     0.118 C 
BRANCH  18  19
ATOM     19  N   UNL A   1      32.299  30.948  26.020  1.00  0.00    -0.352 N 
ATOM     20  C   UNL A   1      32.848  31.742  26.995  1.00  0.00     0.251 C 
ATOM     21  H   UNL A   1      31.558  31.358  25.518  1.00  0.00     0.163 HD
ATOM     22  O   UNL A   1      32.264  32.775  27.325  1.00  0.00    -0.269 OA
BRANCH  20  23
ATOM     23  C   UNL A   1      34.112  31.356  27.658  1.00  0.00     0.039 A 
ATOM     24  C   UNL A   1      35.059  32.344  27.943  1.00  0.00     0.014 A 
ATOM     25  C   UNL A   1      34.376  30.025  27.986  1.00  0.00     0.014 A 
ATOM     26  C   UNL A   1      36.234  32.003  28.618  1.00  0.00     0.010 A 
ATOM     27  C   UNL A   1      35.499  29.703  28.742  1.00  0.00     0.010 A 
ATOM     28  C   UNL A   1      36.445  30.687  29.061  1.00  0.00    -0.014 A 
BRANCH  28  29
ATOM     29  C   UNL A   1      37.653  30.318  29.845  1.00  0.00     0.031 A 
ATOM     30  C   UNL A   1      38.687  29.397  29.252  1.00  0.00     0.074 A 
ATOM     31  C   UNL A   1      37.790  30.761  31.110  1.00  0.00     0.049 A 
ATOM     32  N   UNL A   1      39.768  28.903  29.799  1.00  0.00    -0.248 NA
ATOM     33  C   UNL A   1      38.453  28.948  27.872  1.00  0.00     0.031 C 
ATOM     34  C   UNL A   1      36.836  31.626  31.809  1.00  0.00     0.029 A 
ATOM     35  N   UNL A   1      38.779  30.546  32.036  1.00  0.00    -0.354 N 
ATOM     36  C   UNL A   1      40.336  28.077  28.834  1.00  0.00     0.074 A 
ATOM     37  C   UNL A   1      39.437  28.079  27.701  1.00  0.00     0.031 C 
ATOM     38  C   UNL A   1      37.306  31.897  33.037  1.00  0.00     0.029 A 
ATOM     39  C   UNL A   1      38.562  31.184  33.236  1.00  0.00     0.049 A 
ATOM     40  H   UNL A   1      39.571  29.988  31.858  1.00  0.00     0.167 HD
ATOM     41  C   UNL A   1      41.511  27.400  28.880  1.00  0.00     0.034 A 
ATOM     42  C   UNL A   1      39.288  31.184  34.372  1.00  0.00     0.034 A 
ATOM     43  C   UNL A   1      42.397  27.411  30.020  1.00  0.00     0.049 A 
ATOM     44  C   UNL A   1      40.568  30.390  34.417  1.00  0.00     0.074 A 
ATOM     45  C   UNL A   1      43.631  26.803  30.160  1.00  0.00     0.029 A 
ATOM     46  N   UNL A   1      42.135  28.054  31.225  1.00  0.00    -0.354 N 
ATOM     47  N   UNL A   1      41.117  29.650  33.482  1.00  0.00    -0.248 NA
ATOM     48  C   UNL A   1      41.331  30.438  35.671  1.00  0.00     0.031 C 
ATOM     49  C   UNL A   1      44.079  27.010  31.470  1.00  0.00     0.029 A 
ATOM     50  C   UNL A   1      43.167  27.825  32.123  1.00  0.00     0.049 A 
ATOM     51  H   UNL A   1      41.334  28.594  31.414  1.00  0.00     0.167 HD
ATOM     52  C   UNL A   1      42.308  29.173  34.023  1.00  0.00     0.074 A 
ATOM     53  C   UNL A   1      42.400  29.720  35.362  1.00  0.00     0.031 C 
ATOM     54  C   UNL A   1      43.243  28.363  33.463  1.00  0.00     0.034 A 
BRANCH  41  55
ATOM     55  C   UNL A   1      41.881  26.572  27.669  1.00  0.00     0.023 A 
ATOM     56  C   UNL A   1      41.507  25.219  27.557  1.00  0.00     0.031 A 
ATOM     57  C   UNL A   1      42.657  27.123  26.634  1.00  0.00     0.131 A 
ATOM     58  C   UNL A   1      41.989  24.443  26.492  1.00  0.00     0.055 A 
ATOM     59  C   UNL A   1      43.051  26.369  25.526  1.00  0.00     0.041 A 
ATOM     60  F   UNL A   1      43.065  28.401  26.691  1.00  0.00    -0.206 F 
ATOM     61  C   UNL A   1      42.735  25.016  25.460  1.00  0.00     0.022 A 
BRANCH  58  62
ATOM     62  S   UNL A   1      41.778  22.643  26.571  1.00  0.00     0.124 S 
ATOM     63  O   UNL A   1      42.315  22.227  25.277  1.00  0.00    -0.237 OA
ATOM     64  O   UNL A   1      42.572  22.283  27.739  1.00  0.00    -0.237 OA
ATOM     65  O   UNL A   1      40.334  22.474  26.721  1.00  0.00    -0.744 OA
ENDBRANCH  58  62
ENDBRANCH  41  55
BRANCH  42  66
ATOM     66  C   UNL A   1      38.826  31.958  35.560  1.00  0.00     0.023 A 
ATOM     67  C   UNL A   1      38.231  31.313  36.655  1.00  0.00     0.031 A 
ATOM     68  C   UNL A   1      38.946  33.359  35.606  1.00  0.00     0.131 A 
ATOM     69  C   UNL A   1      37.741  32.069  37.732  1.00  0.00     0.055 A 
ATOM     70  C   UNL A   1      38.510  34.102  36.704  1.00  0.00     0.041 A 
ATOM     71  F   UNL A   1      39.508  34.025  34.585  1.00  0.00    -0.206 F 
ATOM     72  C   UNL A   1      37.891  33.457  37.771  1.00  0.00     0.022 A 
BRANCH  69  73
ATOM     73  S   UNL A   1      36.828  31.218  39.048  1.00  0.00     0.124 S 
ATOM     74  O   UNL A   1      37.761  31.312  40.165  1.00  0.00    -0.237 OA
ATOM     75  O   UNL A   1      35.619  32.028  39.152  1.00  0.00    -0.237 OA
ATOM     76  O   UNL A   1      36.630  29.873  38.511  1.00  0.00    -0.744 OA
ENDBRANCH  69  73
ENDBRANCH  42  66
BRANCH  54  77
ATOM     77  C   UNL A   1      44.473  28.061  34.286  1.00  0.00     0.023 A 
ATOM     78  C   UNL A   1      44.548  26.938  35.128  1.00  0.00     0.031 A 
ATOM     79  C   UNL A   1      45.585  28.922  34.234  1.00  0.00     0.131 A 
ATOM     80  C   UNL A   1      45.683  26.738  35.928  1.00  0.00     0.055 A 
ATOM     81  C   UNL A   1      46.739  28.680  34.979  1.00  0.00     0.041 A 
ATOM     82  F   UNL A   1      45.569  30.013  33.452  1.00  0.00    -0.206 F 
ATOM     83  C   UNL A   1      46.787  27.591  35.844  1.00  0.00     0.022 A 
BRANCH  80  84
ATOM     84  S   UNL A   1      45.659  25.406  37.160  1.00  0.00     0.124 S 
ATOM     85  O   UNL A   1      46.399  26.006  38.267  1.00  0.00    -0.237 OA
ATOM     86  O   UNL A   1      44.230  25.210  37.381  1.00  0.00    -0.237 OA
ATOM     87  O   UNL A   1      46.339  24.302  36.485  1.00  0.00    -0.744 OA
ENDBRANCH  80  84
ENDBRANCH  54  77
ENDBRANCH  28  29
ENDBRANCH  20  23
ENDBRANCH  18  19
ENDBRANCH   1  18
TORSDOF 16
ENDMDL
