MODEL 1
REMARK VINA RESULT:     -13.1      0.000      0.000
REMARK SMILES Cc1cc(S(=O)(=O)Nc2ccc(Cl)cc2F)ccc1OCC(=O)NCCCNC(=O)c1ccc(-c2c3nc(c(-c4cc(S(=O)(=O)[O-])ccc4F)c4ccc([nH]4)c(-c4cc(S(=O)(=O)[O-])ccc4F)c4nc(c(-c5cc(S(=O)(=O)[O-])ccc5F)c5ccc2[nH]5)C=C4)C=C3)cc1
REMARK SMILES IDX 25 1 24 2 22 3 23 4 21 6 20 7 19 8 1 9 2 10 3 11 4 12 18 13
REMARK SMILES IDX 17 14 5 15 6 16 7 17 8 18 9 20 10 21 15 22 11 23 14 24 16 25
REMARK SMILES IDX 12 26 13 27 26 28 27 29 28 30 29 31 30 33 31 34 32 35 93 36
REMARK SMILES IDX 33 37 92 38 34 39 35 40 36 41 86 42 37 43 91 44 85 45 87 46
REMARK SMILES IDX 38 47 90 48 84 49 83 50 39 52 71 53 51 54 70 55 52 56 55 57
REMARK SMILES IDX 69 58 88 59 53 60 54 61 68 63 89 64 56 65 40 66 41 67 49 68
REMARK SMILES IDX 42 69 48 70 50 71 47 72 43 73 44 74 45 75 46 76 72 77 73 78
REMARK SMILES IDX 81 79 74 80 80 81 82 82 79 83 75 84 76 85 77 86 78 87 57 88
REMARK SMILES IDX 58 89 66 90 59 91 65 92 67 93 64 94 60 95 61 96 62 97 63 98
REMARK H PARENT 24 5 8 19 28 32 87 51 55 62
REMARK Flexibility Score: inf
ROOT
ATOM      1  C   UNL A   1      37.311  22.139  25.210  1.00  0.00     0.117 C 
ENDROOT
BRANCH   1   2
ATOM      2  N   UNL A   1      36.340  22.127  26.292  1.00  0.00    -0.353 N 
ATOM      3  C   UNL A   1      35.125  21.503  26.360  1.00  0.00     0.257 C 
ATOM      4  O   UNL A   1      34.428  21.590  27.373  1.00  0.00    -0.271 OA
ATOM      5  H   UNL A   1      36.592  22.643  27.091  1.00  0.00     0.163 HD
BRANCH   3   6
ATOM      6  C   UNL A   1      34.670  20.636  25.181  1.00  0.00     0.329 C 
BRANCH   6   7
ATOM      7  O   UNL A   1      33.337  20.750  24.736  1.00  0.00    -0.484 OA
BRANCH   7   8
ATOM      8  C   UNL A   1      32.702  21.953  24.621  1.00  0.00     0.123 A 
ATOM      9  C   UNL A   1      34.093  23.149  22.798  1.00  0.00     0.048 C 
ATOM     10  C   UNL A   1      33.029  23.079  23.854  1.00  0.00    -0.008 A 
ATOM     11  C   UNL A   1      32.301  24.273  24.074  1.00  0.00     0.029 A 
ATOM     12  C   UNL A   1      31.252  24.345  24.998  1.00  0.00     0.088 A 
ATOM     13  C   UNL A   1      31.615  22.033  25.508  1.00  0.00     0.048 A 
ATOM     14  C   UNL A   1      30.852  23.191  25.651  1.00  0.00     0.026 A 
BRANCH  12  15
ATOM     15  S   UNL A   1      30.616  25.968  25.363  1.00  0.00     0.262 S 
ATOM     16  O   UNL A   1      29.283  26.053  24.821  1.00  0.00    -0.201 OA
ATOM     17  O   UNL A   1      30.851  26.186  26.781  1.00  0.00    -0.201 OA
BRANCH  15  18
ATOM     18  N   UNL A   1      31.560  27.143  24.623  1.00  0.00    -0.277 N 
ATOM     19  H   UNL A   1      31.637  27.108  23.642  1.00  0.00     0.180 HD
BRANCH  18  20
ATOM     20  C   UNL A   1      32.258  28.185  25.293  1.00  0.00     0.085 A 
ATOM     21  C   UNL A   1      31.570  29.401  25.399  1.00  0.00     0.031 A 
ATOM     22  C   UNL A   1      33.510  28.064  25.910  1.00  0.00     0.148 A 
ATOM     23  C   UNL A   1      32.063  30.426  26.210  1.00  0.00     0.023 A 
ATOM     24  C   UNL A   1      34.004  29.082  26.725  1.00  0.00     0.062 A 
ATOM     25  F   UNL A   1      34.226  26.938  25.812  1.00  0.00    -0.205 F 
ATOM     26  C   UNL A   1      33.266  30.251  26.889  1.00  0.00     0.044 A 
ATOM     27  Cl  UNL A   1      33.825  31.480  27.953  1.00  0.00    -0.084 Cl
ENDBRANCH  18  20
ENDBRANCH  15  18
ENDBRANCH  12  15
ENDBRANCH   7   8
ENDBRANCH   6   7
ENDBRANCH   3   6
ENDBRANCH   1   2
BRANCH   1  28
ATOM     28  C   UNL A   1      38.712  21.772  25.673  1.00  0.00     0.042 C 
BRANCH  28  29
ATOM     29  C   UNL A   1      39.301  22.718  26.712  1.00  0.00     0.118 C 
BRANCH  29  30
ATOM     30  N   UNL A   1      40.706  23.045  26.483  1.00  0.00    -0.352 N 
ATOM     31  C   UNL A   1      41.315  24.286  26.442  1.00  0.00     0.251 C 
ATOM     32  H   UNL A   1      41.302  22.274  26.341  1.00  0.00     0.163 HD
ATOM     33  O   UNL A   1      42.510  24.406  26.187  1.00  0.00    -0.269 OA
BRANCH  31  34
ATOM     34  C   UNL A   1      40.535  25.474  26.856  1.00  0.00     0.039 A 
ATOM     35  C   UNL A   1      40.801  26.675  26.188  1.00  0.00     0.014 A 
ATOM     36  C   UNL A   1      39.767  25.466  28.017  1.00  0.00     0.014 A 
ATOM     37  C   UNL A   1      40.510  27.884  26.813  1.00  0.00     0.010 A 
ATOM     38  C   UNL A   1      39.560  26.659  28.682  1.00  0.00     0.010 A 
ATOM     39  C   UNL A   1      39.992  27.860  28.109  1.00  0.00    -0.014 A 
BRANCH  39  40
ATOM     40  C   UNL A   1      40.021  29.025  28.985  1.00  0.00     0.031 A 
ATOM     41  C   UNL A   1      38.942  30.025  28.959  1.00  0.00     0.074 A 
ATOM     42  C   UNL A   1      41.041  29.176  29.857  1.00  0.00     0.049 A 
ATOM     43  N   UNL A   1      39.109  31.282  29.202  1.00  0.00    -0.248 NA
ATOM     44  C   UNL A   1      37.570  29.677  28.619  1.00  0.00     0.031 C 
ATOM     45  C   UNL A   1      41.147  30.145  30.943  1.00  0.00     0.029 A 
ATOM     46  N   UNL A   1      42.310  28.611  29.768  1.00  0.00    -0.354 N 
ATOM     47  C   UNL A   1      37.860  31.836  29.366  1.00  0.00     0.074 A 
ATOM     48  C   UNL A   1      36.939  30.820  28.904  1.00  0.00     0.031 C 
ATOM     49  C   UNL A   1      42.444  30.307  31.251  1.00  0.00     0.029 A 
ATOM     50  C   UNL A   1      43.219  29.550  30.284  1.00  0.00     0.049 A 
ATOM     51  H   UNL A   1      42.529  27.720  29.411  1.00  0.00     0.167 HD
ATOM     52  C   UNL A   1      37.722  33.019  30.031  1.00  0.00     0.034 A 
ATOM     53  C   UNL A   1      44.226  30.048  29.509  1.00  0.00     0.034 A 
ATOM     54  C   UNL A   1      39.014  33.548  30.473  1.00  0.00     0.049 A 
ATOM     55  C   UNL A   1      44.153  31.547  29.323  1.00  0.00     0.074 A 
ATOM     56  C   UNL A   1      39.652  33.533  31.703  1.00  0.00     0.029 A 
ATOM     57  N   UNL A   1      39.967  33.948  29.542  1.00  0.00    -0.354 N 
ATOM     58  N   UNL A   1      43.094  32.265  29.579  1.00  0.00    -0.248 NA
ATOM     59  C   UNL A   1      45.260  32.351  28.816  1.00  0.00     0.031 C 
ATOM     60  C   UNL A   1      41.012  33.874  31.499  1.00  0.00     0.029 A 
ATOM     61  C   UNL A   1      41.197  34.123  30.150  1.00  0.00     0.049 A 
ATOM     62  H   UNL A   1      39.790  34.087  28.584  1.00  0.00     0.167 HD
ATOM     63  C   UNL A   1      43.335  33.577  29.259  1.00  0.00     0.074 A 
ATOM     64  C   UNL A   1      44.718  33.583  28.812  1.00  0.00     0.031 C 
ATOM     65  C   UNL A   1      42.365  34.535  29.380  1.00  0.00     0.034 A 
BRANCH  52  66
ATOM     66  C   UNL A   1      36.399  33.506  30.585  1.00  0.00     0.023 A 
ATOM     67  C   UNL A   1      35.500  34.190  29.740  1.00  0.00     0.031 A 
ATOM     68  C   UNL A   1      35.983  33.376  31.923  1.00  0.00     0.131 A 
ATOM     69  C   UNL A   1      34.344  34.814  30.243  1.00  0.00     0.055 A 
ATOM     70  C   UNL A   1      34.868  34.050  32.441  1.00  0.00     0.041 A 
ATOM     71  F   UNL A   1      36.612  32.553  32.775  1.00  0.00    -0.206 F 
ATOM     72  C   UNL A   1      34.050  34.791  31.602  1.00  0.00     0.022 A 
BRANCH  69  73
ATOM     73  S   UNL A   1      33.218  35.643  29.088  1.00  0.00     0.124 S 
ATOM     74  O   UNL A   1      32.363  36.414  29.985  1.00  0.00    -0.237 OA
ATOM     75  O   UNL A   1      34.140  36.410  28.256  1.00  0.00    -0.237 OA
ATOM     76  O   UNL A   1      32.555  34.532  28.404  1.00  0.00    -0.744 OA
ENDBRANCH  69  73
ENDBRANCH  52  66
BRANCH  53  77
ATOM     77  C   UNL A   1      44.722  29.069  28.496  1.00  0.00     0.023 A 
ATOM     78  C   UNL A   1      45.470  27.973  28.979  1.00  0.00     0.031 A 
ATOM     79  C   UNL A   1      44.160  28.965  27.218  1.00  0.00     0.131 A 
ATOM     80  C   UNL A   1      45.475  26.757  28.282  1.00  0.00     0.055 A 
ATOM     81  C   UNL A   1      44.247  27.774  26.482  1.00  0.00     0.041 A 
ATOM     82  F   UNL A   1      43.414  29.958  26.713  1.00  0.00    -0.206 F 
ATOM     83  C   UNL A   1      44.865  26.648  27.033  1.00  0.00     0.022 A 
BRANCH  80  84
ATOM     84  S   UNL A   1      46.012  25.269  29.174  1.00  0.00     0.124 S 
ATOM     85  O   UNL A   1      47.030  25.794  30.075  1.00  0.00    -0.237 OA
ATOM     86  O   UNL A   1      44.772  24.812  29.806  1.00  0.00    -0.237 OA
ATOM     87  O   UNL A   1      46.500  24.376  28.125  1.00  0.00    -0.744 OA
ENDBRANCH  80  84
ENDBRANCH  53  77
BRANCH  65  88
ATOM     88  C   UNL A   1      42.453  35.966  28.885  1.00  0.00     0.023 A 
ATOM     89  C   UNL A   1      43.099  36.994  29.589  1.00  0.00     0.031 A 
ATOM     90  C   UNL A   1      41.933  36.333  27.618  1.00  0.00     0.131 A 
ATOM     91  C   UNL A   1      43.132  38.312  29.093  1.00  0.00     0.055 A 
ATOM     92  C   UNL A   1      42.038  37.624  27.090  1.00  0.00     0.041 A 
ATOM     93  F   UNL A   1      41.305  35.450  26.827  1.00  0.00    -0.206 F 
ATOM     94  C   UNL A   1      42.625  38.632  27.838  1.00  0.00     0.022 A 
BRANCH  91  95
ATOM     95  S   UNL A   1      43.795  39.615  30.164  1.00  0.00     0.124 S 
ATOM     96  O   UNL A   1      43.826  38.949  31.464  1.00  0.00    -0.237 OA
ATOM     97  O   UNL A   1      45.097  39.885  29.561  1.00  0.00    -0.237 OA
ATOM     98  O   UNL A   1      42.818  40.693  30.044  1.00  0.00    -0.744 OA
ENDBRANCH  91  95
ENDBRANCH  65  88
ENDBRANCH  39  40
ENDBRANCH  31  34
ENDBRANCH  29  30
ENDBRANCH  28  29
ENDBRANCH   1  28
TORSDOF 18
ENDMDL
MODEL 2
REMARK VINA RESULT:     -12.6      3.727      5.711
REMARK SMILES Cc1cc(S(=O)(=O)Nc2ccc(Cl)cc2F)ccc1OCC(=O)NCCCNC(=O)c1ccc(-c2c3nc(c(-c4cc(S(=O)(=O)[O-])ccc4F)c4ccc([nH]4)c(-c4cc(S(=O)(=O)[O-])ccc4F)c4nc(c(-c5cc(S(=O)(=O)[O-])ccc5F)c5ccc2[nH]5)C=C4)C=C3)cc1
REMARK SMILES IDX 25 1 24 2 22 3 23 4 21 6 20 7 19 8 1 9 2 10 3 11 4 12 18 13
REMARK SMILES IDX 17 14 5 15 6 16 7 17 8 18 9 20 10 21 15 22 11 23 14 24 16 25
REMARK SMILES IDX 12 26 13 27 26 28 27 29 28 30 29 31 30 33 31 34 32 35 93 36
REMARK SMILES IDX 33 37 92 38 34 39 35 40 36 41 86 42 37 43 91 44 85 45 87 46
REMARK SMILES IDX 38 47 90 48 84 49 83 50 39 52 71 53 51 54 70 55 52 56 55 57
REMARK SMILES IDX 69 58 88 59 53 60 54 61 68 63 89 64 56 65 40 66 41 67 49 68
REMARK SMILES IDX 42 69 48 70 50 71 47 72 43 73 44 74 45 75 46 76 72 77 73 78
REMARK SMILES IDX 81 79 74 80 80 81 82 82 79 83 75 84 76 85 77 86 78 87 57 88
REMARK SMILES IDX 58 89 66 90 59 91 65 92 67 93 64 94 60 95 61 96 62 97 63 98
REMARK H PARENT 24 5 8 19 28 32 87 51 55 62
REMARK Flexibility Score: inf
ROOT
ATOM      1  C   UNL A   1      42.521  18.208  26.496  1.00  0.00     0.117 C 
ENDROOT
BRANCH   1   2
ATOM      2  N   UNL A   1      42.140  19.137  27.546  1.00  0.00    -0.353 N 
ATOM      3  C   UNL A   1      41.203  20.133  27.526  1.00  0.00     0.257 C 
ATOM      4  O   UNL A   1      40.998  20.826  28.524  1.00  0.00    -0.271 OA
ATOM      5  H   UNL A   1      42.627  19.037  28.396  1.00  0.00     0.163 HD
BRANCH   3   6
ATOM      6  C   UNL A   1      40.361  20.332  26.261  1.00  0.00     0.329 C 
BRANCH   6   7
ATOM      7  O   UNL A   1      39.942  21.637  25.930  1.00  0.00    -0.484 OA
BRANCH   7   8
ATOM      8  C   UNL A   1      38.636  21.949  25.690  1.00  0.00     0.123 A 
ATOM      9  C   UNL A   1      37.718  19.766  24.649  1.00  0.00     0.048 C 
ATOM     10  C   UNL A   1      37.629  21.209  25.056  1.00  0.00    -0.008 A 
ATOM     11  C   UNL A   1      36.405  21.856  24.764  1.00  0.00     0.029 A 
ATOM     12  C   UNL A   1      36.163  23.188  25.122  1.00  0.00     0.088 A 
ATOM     13  C   UNL A   1      38.356  23.270  26.083  1.00  0.00     0.048 A 
ATOM     14  C   UNL A   1      37.114  23.866  25.866  1.00  0.00     0.026 A 
BRANCH  12  15
ATOM     15  S   UNL A   1      34.697  23.944  24.452  1.00  0.00     0.262 S 
ATOM     16  O   UNL A   1      34.632  25.297  24.943  1.00  0.00    -0.201 OA
ATOM     17  O   UNL A   1      34.722  23.678  23.022  1.00  0.00    -0.201 OA
BRANCH  15  18
ATOM     18  N   UNL A   1      33.328  23.127  24.979  1.00  0.00    -0.277 N 
ATOM     19  H   UNL A   1      32.669  23.640  25.500  1.00  0.00     0.180 HD
BRANCH  18  20
ATOM     20  C   UNL A   1      33.038  21.755  24.736  1.00  0.00     0.085 A 
ATOM     21  C   UNL A   1      32.463  21.472  23.490  1.00  0.00     0.031 A 
ATOM     22  C   UNL A   1      33.353  20.690  25.589  1.00  0.00     0.148 A 
ATOM     23  C   UNL A   1      32.326  20.152  23.056  1.00  0.00     0.023 A 
ATOM     24  C   UNL A   1      33.224  19.370  25.160  1.00  0.00     0.062 A 
ATOM     25  F   UNL A   1      33.872  20.905  26.804  1.00  0.00    -0.205 F 
ATOM     26  C   UNL A   1      32.732  19.108  23.884  1.00  0.00     0.044 A 
ATOM     27  Cl  UNL A   1      32.642  17.489  23.312  1.00  0.00    -0.084 Cl
ENDBRANCH  18  20
ENDBRANCH  15  18
ENDBRANCH  12  15
ENDBRANCH   7   8
ENDBRANCH   6   7
ENDBRANCH   3   6
ENDBRANCH   1   2
BRANCH   1  28
ATOM     28  C   UNL A   1      43.911  18.481  25.945  1.00  0.00     0.042 C 
BRANCH  28  29
ATOM     29  C   UNL A   1      43.951  19.488  24.803  1.00  0.00     0.118 C 
BRANCH  29  30
ATOM     30  N   UNL A   1      45.240  20.159  24.652  1.00  0.00    -0.352 N 
ATOM     31  C   UNL A   1      45.543  21.501  24.789  1.00  0.00     0.251 C 
ATOM     32  H   UNL A   1      45.998  19.573  24.421  1.00  0.00     0.163 HD
ATOM     33  O   UNL A   1      46.675  21.928  24.579  1.00  0.00    -0.269 OA
BRANCH  31  34
ATOM     34  C   UNL A   1      44.512  22.410  25.339  1.00  0.00     0.039 A 
ATOM     35  C   UNL A   1      44.319  23.629  24.679  1.00  0.00     0.014 A 
ATOM     36  C   UNL A   1      43.946  22.186  26.591  1.00  0.00     0.014 A 
ATOM     37  C   UNL A   1      43.773  24.703  25.374  1.00  0.00     0.010 A 
ATOM     38  C   UNL A   1      43.489  23.271  27.314  1.00  0.00     0.010 A 
ATOM     39  C   UNL A   1      43.466  24.540  26.726  1.00  0.00    -0.014 A 
BRANCH  39  40
ATOM     40  C   UNL A   1      43.270  25.670  27.626  1.00  0.00     0.031 A 
ATOM     41  C   UNL A   1      42.017  26.443  27.618  1.00  0.00     0.074 A 
ATOM     42  C   UNL A   1      44.242  25.998  28.504  1.00  0.00     0.049 A 
ATOM     43  N   UNL A   1      41.937  27.702  27.887  1.00  0.00    -0.248 NA
ATOM     44  C   UNL A   1      40.738  25.842  27.267  1.00  0.00     0.031 C 
ATOM     45  C   UNL A   1      44.160  26.947  29.609  1.00  0.00     0.029 A 
ATOM     46  N   UNL A   1      45.596  25.692  28.406  1.00  0.00    -0.354 N 
ATOM     47  C   UNL A   1      40.604  28.000  28.058  1.00  0.00     0.074 A 
ATOM     48  C   UNL A   1      39.898  26.835  27.574  1.00  0.00     0.031 C 
ATOM     49  C   UNL A   1      45.401  27.351  29.924  1.00  0.00     0.029 A 
ATOM     50  C   UNL A   1      46.307  26.779  28.944  1.00  0.00     0.049 A 
ATOM     51  H   UNL A   1      45.984  24.868  28.031  1.00  0.00     0.167 HD
ATOM     52  C   UNL A   1      40.241  29.120  28.747  1.00  0.00     0.034 A 
ATOM     53  C   UNL A   1      47.197  27.479  28.182  1.00  0.00     0.034 A 
ATOM     54  C   UNL A   1      41.406  29.880  29.204  1.00  0.00     0.049 A 
ATOM     55  C   UNL A   1      46.834  28.938  28.027  1.00  0.00     0.074 A 
ATOM     56  C   UNL A   1      42.037  29.964  30.435  1.00  0.00     0.029 A 
ATOM     57  N   UNL A   1      42.262  30.477  28.284  1.00  0.00    -0.354 N 
ATOM     58  N   UNL A   1      45.656  29.431  28.294  1.00  0.00    -0.248 NA
ATOM     59  C   UNL A   1      47.763  29.953  27.540  1.00  0.00     0.031 C 
ATOM     60  C   UNL A   1      43.304  30.566  30.241  1.00  0.00     0.029 A 
ATOM     61  C   UNL A   1      43.435  30.874  28.898  1.00  0.00     0.049 A 
ATOM     62  H   UNL A   1      42.060  30.599  27.328  1.00  0.00     0.167 HD
ATOM     63  C   UNL A   1      45.638  30.772  28.002  1.00  0.00     0.074 A 
ATOM     64  C   UNL A   1      46.993  31.055  27.559  1.00  0.00     0.031 C 
ATOM     65  C   UNL A   1      44.501  31.521  28.141  1.00  0.00     0.034 A 
BRANCH  52  66
ATOM     66  C   UNL A   1      38.850  29.330  29.308  1.00  0.00     0.023 A 
ATOM     67  C   UNL A   1      38.022  30.333  28.760  1.00  0.00     0.031 A 
ATOM     68  C   UNL A   1      38.297  28.623  30.393  1.00  0.00     0.131 A 
ATOM     69  C   UNL A   1      36.797  30.685  29.355  1.00  0.00     0.055 A 
ATOM     70  C   UNL A   1      37.109  29.013  31.027  1.00  0.00     0.041 A 
ATOM     71  F   UNL A   1      38.859  27.497  30.854  1.00  0.00    -0.206 F 
ATOM     72  C   UNL A   1      36.359  30.064  30.519  1.00  0.00     0.022 A 
BRANCH  69  73
ATOM     73  S   UNL A   1      35.773  31.961  28.571  1.00  0.00     0.124 S 
ATOM     74  O   UNL A   1      35.122  31.221  27.495  1.00  0.00    -0.237 OA
ATOM     75  O   UNL A   1      34.916  32.388  29.672  1.00  0.00    -0.237 OA
ATOM     76  O   UNL A   1      36.751  32.957  28.132  1.00  0.00    -0.744 OA
ENDBRANCH  69  73
ENDBRANCH  52  66
BRANCH  53  77
ATOM     77  C   UNL A   1      47.872  26.635  27.150  1.00  0.00     0.023 A 
ATOM     78  C   UNL A   1      47.600  26.939  25.798  1.00  0.00     0.031 A 
ATOM     79  C   UNL A   1      49.014  25.877  27.434  1.00  0.00     0.131 A 
ATOM     80  C   UNL A   1      48.550  26.660  24.806  1.00  0.00     0.055 A 
ATOM     81  C   UNL A   1      49.917  25.519  26.423  1.00  0.00     0.041 A 
ATOM     82  F   UNL A   1      49.344  25.580  28.699  1.00  0.00    -0.206 F 
ATOM     83  C   UNL A   1      49.713  25.952  25.109  1.00  0.00     0.022 A 
BRANCH  80  84
ATOM     84  S   UNL A   1      48.383  27.507  23.208  1.00  0.00     0.124 S 
ATOM     85  O   UNL A   1      47.165  28.287  23.393  1.00  0.00    -0.237 OA
ATOM     86  O   UNL A   1      49.627  28.275  23.123  1.00  0.00    -0.237 OA
ATOM     87  O   UNL A   1      48.293  26.423  22.233  1.00  0.00    -0.744 OA
ENDBRANCH  80  84
ENDBRANCH  53  77
BRANCH  65  88
ATOM     88  C   UNL A   1      44.309  32.952  27.675  1.00  0.00     0.023 A 
ATOM     89  C   UNL A   1      44.120  34.034  28.547  1.00  0.00     0.031 A 
ATOM     90  C   UNL A   1      44.382  33.288  26.299  1.00  0.00     0.131 A 
ATOM     91  C   UNL A   1      43.924  35.341  28.061  1.00  0.00     0.055 A 
ATOM     92  C   UNL A   1      44.268  34.597  25.822  1.00  0.00     0.041 A 
ATOM     93  F   UNL A   1      44.577  32.358  25.352  1.00  0.00    -0.206 F 
ATOM     94  C   UNL A   1      44.018  35.636  26.704  1.00  0.00     0.022 A 
BRANCH  91  95
ATOM     95  S   UNL A   1      43.473  36.639  29.243  1.00  0.00     0.124 S 
ATOM     96  O   UNL A   1      42.397  37.329  28.537  1.00  0.00    -0.237 OA
ATOM     97  O   UNL A   1      43.068  35.868  30.415  1.00  0.00    -0.237 OA
ATOM     98  O   UNL A   1      44.705  37.408  29.400  1.00  0.00    -0.744 OA
ENDBRANCH  91  95
ENDBRANCH  65  88
ENDBRANCH  39  40
ENDBRANCH  31  34
ENDBRANCH  29  30
ENDBRANCH  28  29
ENDBRANCH   1  28
TORSDOF 18
ENDMDL
MODEL 3
REMARK VINA RESULT:     -12.6      3.411      5.221
REMARK SMILES Cc1cc(S(=O)(=O)Nc2ccc(Cl)cc2F)ccc1OCC(=O)NCCCNC(=O)c1ccc(-c2c3nc(c(-c4cc(S(=O)(=O)[O-])ccc4F)c4ccc([nH]4)c(-c4cc(S(=O)(=O)[O-])ccc4F)c4nc(c(-c5cc(S(=O)(=O)[O-])ccc5F)c5ccc2[nH]5)C=C4)C=C3)cc1
REMARK SMILES IDX 25 1 24 2 22 3 23 4 21 6 20 7 19 8 1 9 2 10 3 11 4 12 18 13
REMARK SMILES IDX 17 14 5 15 6 16 7 17 8 18 9 20 10 21 15 22 11 23 14 24 16 25
REMARK SMILES IDX 12 26 13 27 26 28 27 29 28 30 29 31 30 33 31 34 32 35 93 36
REMARK SMILES IDX 33 37 92 38 34 39 35 40 36 41 86 42 37 43 91 44 85 45 87 46
REMARK SMILES IDX 38 47 90 48 84 49 83 50 39 52 71 53 51 54 70 55 52 56 55 57
REMARK SMILES IDX 69 58 88 59 53 60 54 61 68 63 89 64 56 65 40 66 41 67 49 68
REMARK SMILES IDX 42 69 48 70 50 71 47 72 43 73 44 74 45 75 46 76 72 77 73 78
REMARK SMILES IDX 81 79 74 80 80 81 82 82 79 83 75 84 76 85 77 86 78 87 57 88
REMARK SMILES IDX 58 89 66 90 59 91 65 92 67 93 64 94 60 95 61 96 62 97 63 98
REMARK H PARENT 24 5 8 19 28 32 87 51 55 62
REMARK Flexibility Score: inf
ROOT
ATOM      1  C   UNL A   1      42.381  18.357  26.138  1.00  0.00     0.117 C 
ENDROOT
BRANCH   1   2
ATOM      2  N   UNL A   1      42.009  19.287  27.192  1.00  0.00    -0.353 N 
ATOM      3  C   UNL A   1      41.004  20.213  27.217  1.00  0.00     0.257 C 
ATOM      4  O   UNL A   1      40.821  20.918  28.211  1.00  0.00    -0.271 OA
ATOM      5  H   UNL A   1      42.561  19.244  28.006  1.00  0.00     0.163 HD
BRANCH   3   6
ATOM      6  C   UNL A   1      40.064  20.318  26.012  1.00  0.00     0.329 C 
BRANCH   6   7
ATOM      7  O   UNL A   1      39.379  21.532  25.795  1.00  0.00    -0.484 OA
BRANCH   7   8
ATOM      8  C   UNL A   1      38.048  21.581  25.502  1.00  0.00     0.123 A 
ATOM      9  C   UNL A   1      37.466  24.061  25.948  1.00  0.00     0.048 C 
ATOM     10  C   UNL A   1      37.131  22.634  25.627  1.00  0.00    -0.008 A 
ATOM     11  C   UNL A   1      35.757  22.351  25.435  1.00  0.00     0.029 A 
ATOM     12  C   UNL A   1      35.301  21.073  25.090  1.00  0.00     0.088 A 
ATOM     13  C   UNL A   1      37.574  20.317  25.108  1.00  0.00     0.048 A 
ATOM     14  C   UNL A   1      36.227  20.076  24.839  1.00  0.00     0.026 A 
BRANCH  12  15
ATOM     15  S   UNL A   1      33.541  20.808  25.151  1.00  0.00     0.262 S 
ATOM     16  O   UNL A   1      33.314  19.407  25.400  1.00  0.00    -0.201 OA
ATOM     17  O   UNL A   1      33.011  21.814  26.057  1.00  0.00    -0.201 OA
BRANCH  15  18
ATOM     18  N   UNL A   1      32.842  21.201  23.677  1.00  0.00    -0.277 N 
ATOM     19  H   UNL A   1      32.643  20.459  23.060  1.00  0.00     0.180 HD
BRANCH  18  20
ATOM     20  C   UNL A   1      32.511  22.514  23.241  1.00  0.00     0.085 A 
ATOM     21  C   UNL A   1      31.187  22.911  23.471  1.00  0.00     0.031 A 
ATOM     22  C   UNL A   1      33.406  23.443  22.694  1.00  0.00     0.148 A 
ATOM     23  C   UNL A   1      30.801  24.239  23.279  1.00  0.00     0.023 A 
ATOM     24  C   UNL A   1      33.028  24.772  22.506  1.00  0.00     0.062 A 
ATOM     25  F   UNL A   1      34.673  23.109  22.422  1.00  0.00    -0.205 F 
ATOM     26  C   UNL A   1      31.732  25.169  22.821  1.00  0.00     0.044 A 
ATOM     27  Cl  UNL A   1      31.275  26.820  22.669  1.00  0.00    -0.084 Cl
ENDBRANCH  18  20
ENDBRANCH  15  18
ENDBRANCH  12  15
ENDBRANCH   7   8
ENDBRANCH   6   7
ENDBRANCH   3   6
ENDBRANCH   1   2
BRANCH   1  28
ATOM     28  C   UNL A   1      43.808  18.557  25.653  1.00  0.00     0.042 C 
BRANCH  28  29
ATOM     29  C   UNL A   1      43.954  19.560  24.517  1.00  0.00     0.118 C 
BRANCH  29  30
ATOM     30  N   UNL A   1      45.248  20.237  24.488  1.00  0.00    -0.352 N 
ATOM     31  C   UNL A   1      45.554  21.544  24.820  1.00  0.00     0.251 C 
ATOM     32  H   UNL A   1      46.008  19.685  24.193  1.00  0.00     0.163 HD
ATOM     33  O   UNL A   1      46.692  21.989  24.696  1.00  0.00    -0.269 OA
BRANCH  31  34
ATOM     34  C   UNL A   1      44.515  22.374  25.472  1.00  0.00     0.039 A 
ATOM     35  C   UNL A   1      44.109  23.532  24.799  1.00  0.00     0.014 A 
ATOM     36  C   UNL A   1      44.147  22.160  26.797  1.00  0.00     0.014 A 
ATOM     37  C   UNL A   1      43.550  24.581  25.522  1.00  0.00     0.010 A 
ATOM     38  C   UNL A   1      43.678  23.230  27.534  1.00  0.00     0.010 A 
ATOM     39  C   UNL A   1      43.444  24.459  26.908  1.00  0.00    -0.014 A 
BRANCH  39  40
ATOM     40  C   UNL A   1      43.251  25.608  27.783  1.00  0.00     0.031 A 
ATOM     41  C   UNL A   1      41.998  26.381  27.761  1.00  0.00     0.074 A 
ATOM     42  C   UNL A   1      44.227  25.956  28.650  1.00  0.00     0.049 A 
ATOM     43  N   UNL A   1      41.919  27.647  28.003  1.00  0.00    -0.248 NA
ATOM     44  C   UNL A   1      40.718  25.773  27.429  1.00  0.00     0.031 C 
ATOM     45  C   UNL A   1      44.148  26.929  29.733  1.00  0.00     0.029 A 
ATOM     46  N   UNL A   1      45.580  25.647  28.554  1.00  0.00    -0.354 N 
ATOM     47  C   UNL A   1      40.587  27.948  28.172  1.00  0.00     0.074 A 
ATOM     48  C   UNL A   1      39.879  26.773  27.716  1.00  0.00     0.031 C 
ATOM     49  C   UNL A   1      45.391  27.340  30.035  1.00  0.00     0.029 A 
ATOM     50  C   UNL A   1      46.293  26.746  29.065  1.00  0.00     0.049 A 
ATOM     51  H   UNL A   1      45.966  24.816  28.197  1.00  0.00     0.167 HD
ATOM     52  C   UNL A   1      40.226  29.084  28.836  1.00  0.00     0.034 A 
ATOM     53  C   UNL A   1      47.180  27.428  28.284  1.00  0.00     0.034 A 
ATOM     54  C   UNL A   1      41.393  29.854  29.272  1.00  0.00     0.049 A 
ATOM     55  C   UNL A   1      46.817  28.884  28.098  1.00  0.00     0.074 A 
ATOM     56  C   UNL A   1      42.029  29.965  30.498  1.00  0.00     0.029 A 
ATOM     57  N   UNL A   1      42.246  30.429  28.336  1.00  0.00    -0.354 N 
ATOM     58  N   UNL A   1      45.640  29.383  28.358  1.00  0.00    -0.248 NA
ATOM     59  C   UNL A   1      47.745  29.887  27.584  1.00  0.00     0.031 C 
ATOM     60  C   UNL A   1      43.296  30.562  30.287  1.00  0.00     0.029 A 
ATOM     61  C   UNL A   1      43.422  30.840  28.937  1.00  0.00     0.049 A 
ATOM     62  H   UNL A   1      42.041  30.529  27.378  1.00  0.00     0.167 HD
ATOM     63  C   UNL A   1      45.621  30.717  28.036  1.00  0.00     0.074 A 
ATOM     64  C   UNL A   1      46.975  30.990  27.582  1.00  0.00     0.031 C 
ATOM     65  C   UNL A   1      44.485  31.470  28.161  1.00  0.00     0.034 A 
BRANCH  52  66
ATOM     66  C   UNL A   1      38.837  29.306  29.397  1.00  0.00     0.023 A 
ATOM     67  C   UNL A   1      38.013  30.305  28.838  1.00  0.00     0.031 A 
ATOM     68  C   UNL A   1      38.284  28.617  30.492  1.00  0.00     0.131 A 
ATOM     69  C   UNL A   1      36.790  30.670  29.430  1.00  0.00     0.055 A 
ATOM     70  C   UNL A   1      37.099  29.020  31.124  1.00  0.00     0.041 A 
ATOM     71  F   UNL A   1      38.843  27.494  30.968  1.00  0.00    -0.206 F 
ATOM     72  C   UNL A   1      36.353  30.066  30.604  1.00  0.00     0.022 A 
BRANCH  69  73
ATOM     73  S   UNL A   1      35.770  31.939  28.631  1.00  0.00     0.124 S 
ATOM     74  O   UNL A   1      34.794  32.254  29.670  1.00  0.00    -0.237 OA
ATOM     75  O   UNL A   1      36.749  32.977  28.328  1.00  0.00    -0.237 OA
ATOM     76  O   UNL A   1      35.225  31.248  27.462  1.00  0.00    -0.744 OA
ENDBRANCH  69  73
ENDBRANCH  52  66
BRANCH  53  77
ATOM     77  C   UNL A   1      47.851  26.562  27.269  1.00  0.00     0.023 A 
ATOM     78  C   UNL A   1      47.570  26.830  25.912  1.00  0.00     0.031 A 
ATOM     79  C   UNL A   1      48.999  25.815  27.564  1.00  0.00     0.131 A 
ATOM     80  C   UNL A   1      48.514  26.530  24.921  1.00  0.00     0.055 A 
ATOM     81  C   UNL A   1      49.896  25.435  26.556  1.00  0.00     0.041 A 
ATOM     82  F   UNL A   1      49.338  25.551  28.834  1.00  0.00    -0.206 F 
ATOM     83  C   UNL A   1      49.681  25.834  25.234  1.00  0.00     0.022 A 
BRANCH  80  84
ATOM     84  S   UNL A   1      48.333  27.336  23.303  1.00  0.00     0.124 S 
ATOM     85  O   UNL A   1      49.493  28.217  23.260  1.00  0.00    -0.237 OA
ATOM     86  O   UNL A   1      48.357  26.201  22.377  1.00  0.00    -0.237 OA
ATOM     87  O   UNL A   1      47.037  28.006  23.378  1.00  0.00    -0.744 OA
ENDBRANCH  80  84
ENDBRANCH  53  77
BRANCH  65  88
ATOM     88  C   UNL A   1      44.291  32.890  27.664  1.00  0.00     0.023 A 
ATOM     89  C   UNL A   1      44.332  34.017  28.498  1.00  0.00     0.031 A 
ATOM     90  C   UNL A   1      44.124  33.163  26.283  1.00  0.00     0.131 A 
ATOM     91  C   UNL A   1      44.124  35.313  27.987  1.00  0.00     0.055 A 
ATOM     92  C   UNL A   1      43.998  34.456  25.766  1.00  0.00     0.041 A 
ATOM     93  F   UNL A   1      44.083  32.184  25.366  1.00  0.00    -0.206 F 
ATOM     94  C   UNL A   1      43.979  35.545  26.623  1.00  0.00     0.022 A 
BRANCH  91  95
ATOM     95  S   UNL A   1      43.979  36.685  29.163  1.00  0.00     0.124 S 
ATOM     96  O   UNL A   1      43.899  35.980  30.440  1.00  0.00    -0.237 OA
ATOM     97  O   UNL A   1      45.212  37.431  28.929  1.00  0.00    -0.237 OA
ATOM     98  O   UNL A   1      42.753  37.365  28.752  1.00  0.00    -0.744 OA
ENDBRANCH  91  95
ENDBRANCH  65  88
ENDBRANCH  39  40
ENDBRANCH  31  34
ENDBRANCH  29  30
ENDBRANCH  28  29
ENDBRANCH   1  28
TORSDOF 18
ENDMDL
