MODEL 1
REMARK VINA RESULT:     -11.1      0.000      0.000
REMARK SMILES C[C@@](O)(CN1CCOCC1=O)C(=O)NCCCNC(=O)c1ccc(-c2c3nc(c(-c4cc(S(=O)(=O)[O-])ccc4F)c4ccc([nH]4)c(-c4cc(S(=O)(=O)[O-])ccc4F)c4nc(c(-c5cc(S(=O)(=O)[O-])ccc5F)c5ccc2[nH]5)C=C4)C=C3)cc1
REMARK SMILES IDX 16 1 15 2 14 3 12 4 13 5 2 7 1 8 3 9 4 11 5 12 6 13 10 14
REMARK SMILES IDX 7 15 9 16 11 17 8 18 17 19 18 20 19 21 20 23 21 24 22 25
REMARK SMILES IDX 83 26 23 27 82 28 24 29 25 30 26 31 76 32 27 33 81 34 75 35
REMARK SMILES IDX 77 36 28 37 80 38 74 39 73 40 29 42 61 43 41 44 60 45 42 46
REMARK SMILES IDX 45 47 59 48 78 49 43 50 44 51 58 53 79 54 46 55 30 56 31 57
REMARK SMILES IDX 39 58 32 59 38 60 40 61 37 62 33 63 34 64 35 65 36 66 62 67
REMARK SMILES IDX 63 68 71 69 64 70 70 71 72 72 69 73 65 74 66 75 67 76 68 77
REMARK SMILES IDX 47 78 48 79 56 80 49 81 55 82 57 83 54 84 50 85 51 86 52 87
REMARK SMILES IDX 53 88
REMARK H PARENT 14 6 3 10 18 22 77 41 45 52
REMARK Flexibility Score: inf
ROOT
ATOM      1  C   UNL A   1      31.504  31.784  26.576  1.00  0.00     0.042 C 
ENDROOT
BRANCH   1   2
ATOM      2  C   UNL A   1      31.773  30.485  25.824  1.00  0.00     0.117 C 
BRANCH   2   3
ATOM      3  N   UNL A   1      30.944  30.351  24.637  1.00  0.00    -0.353 N 
ATOM      4  C   UNL A   1      30.767  29.309  23.776  1.00  0.00     0.253 C 
ATOM      5  O   UNL A   1      29.959  29.488  22.859  1.00  0.00    -0.272 OA
ATOM      6  H   UNL A   1      30.419  31.154  24.416  1.00  0.00     0.163 HD
BRANCH   4   7
ATOM      7  C   UNL A   1      31.535  27.973  23.946  1.00  0.00     0.157 C 
ATOM      8  C   UNL A   1      31.219  27.375  25.323  1.00  0.00     0.055 C 
BRANCH   7   9
ATOM      9  O   UNL A   1      32.956  28.202  23.943  1.00  0.00    -0.378 OA
ATOM     10  H   UNL A   1      33.214  28.619  23.106  1.00  0.00     0.212 HD
ENDBRANCH   7   9
BRANCH   7  11
ATOM     11  C   UNL A   1      31.200  26.992  22.792  1.00  0.00     0.164 C 
BRANCH  11  12
ATOM     12  N   UNL A   1      31.738  25.632  22.913  1.00  0.00    -0.335 N 
ATOM     13  C   UNL A   1      30.836  24.563  23.344  1.00  0.00     0.148 C 
ATOM     14  C   UNL A   1      32.952  25.308  22.311  1.00  0.00     0.248 C 
ATOM     15  C   UNL A   1      31.553  23.287  23.773  1.00  0.00     0.182 C 
ATOM     16  C   UNL A   1      33.458  23.881  22.571  1.00  0.00     0.260 C 
ATOM     17  O   UNL A   1      33.633  26.123  21.689  1.00  0.00    -0.272 OA
ATOM     18  O   UNL A   1      32.468  22.879  22.757  1.00  0.00    -0.370 OA
ENDBRANCH  11  12
ENDBRANCH   7  11
ENDBRANCH   4   7
ENDBRANCH   2   3
ENDBRANCH   1   2
BRANCH   1  19
ATOM     19  C   UNL A   1      32.739  32.414  27.213  1.00  0.00     0.118 C 
BRANCH  19  20
ATOM     20  N   UNL A   1      32.543  33.818  27.534  1.00  0.00    -0.352 N 
ATOM     21  C   UNL A   1      33.132  34.582  28.513  1.00  0.00     0.251 C 
ATOM     22  H   UNL A   1      31.892  34.292  26.967  1.00  0.00     0.163 HD
ATOM     23  O   UNL A   1      32.675  35.695  28.761  1.00  0.00    -0.269 OA
BRANCH  21  24
ATOM     24  C   UNL A   1      34.289  34.062  29.277  1.00  0.00     0.039 A 
ATOM     25  C   UNL A   1      34.054  33.238  30.381  1.00  0.00     0.014 A 
ATOM     26  C   UNL A   1      35.600  34.398  28.925  1.00  0.00     0.014 A 
ATOM     27  C   UNL A   1      35.132  32.700  31.090  1.00  0.00     0.010 A 
ATOM     28  C   UNL A   1      36.673  33.802  29.586  1.00  0.00     0.010 A 
ATOM     29  C   UNL A   1      36.452  32.948  30.677  1.00  0.00    -0.014 A 
BRANCH  29  30
ATOM     30  C   UNL A   1      37.610  32.329  31.377  1.00  0.00     0.031 A 
ATOM     31  C   UNL A   1      38.360  31.192  30.737  1.00  0.00     0.074 A 
ATOM     32  C   UNL A   1      37.951  32.754  32.611  1.00  0.00     0.049 A 
ATOM     33  N   UNL A   1      39.335  30.466  31.221  1.00  0.00    -0.248 NA
ATOM     34  C   UNL A   1      37.940  30.804  29.382  1.00  0.00     0.031 C 
ATOM     35  C   UNL A   1      37.285  33.830  33.349  1.00  0.00     0.029 A 
ATOM     36  N   UNL A   1      38.937  32.330  33.468  1.00  0.00    -0.354 N 
ATOM     37  C   UNL A   1      39.639  29.531  30.237  1.00  0.00     0.074 A 
ATOM     38  C   UNL A   1      38.702  29.745  29.154  1.00  0.00     0.031 C 
ATOM     39  C   UNL A   1      37.894  33.995  34.534  1.00  0.00     0.029 A 
ATOM     40  C   UNL A   1      38.959  33.007  34.666  1.00  0.00     0.049 A 
ATOM     41  H   UNL A   1      39.569  31.608  33.245  1.00  0.00     0.167 HD
ATOM     42  C   UNL A   1      40.623  28.597  30.227  1.00  0.00     0.034 A 
ATOM     43  C   UNL A   1      39.740  32.840  35.754  1.00  0.00     0.034 A 
ATOM     44  C   UNL A   1      41.558  28.403  31.307  1.00  0.00     0.049 A 
ATOM     45  C   UNL A   1      40.801  31.767  35.732  1.00  0.00     0.074 A 
ATOM     46  C   UNL A   1      42.616  27.513  31.383  1.00  0.00     0.029 A 
ATOM     47  N   UNL A   1      41.548  29.105  32.506  1.00  0.00    -0.354 N 
ATOM     48  N   UNL A   1      41.098  30.917  34.776  1.00  0.00    -0.248 NA
ATOM     49  C   UNL A   1      41.639  31.639  36.932  1.00  0.00     0.031 C 
ATOM     50  C   UNL A   1      43.202  27.631  32.647  1.00  0.00     0.029 A 
ATOM     51  C   UNL A   1      42.561  28.648  33.335  1.00  0.00     0.049 A 
ATOM     52  H   UNL A   1      40.913  29.822  32.735  1.00  0.00     0.167 HD
ATOM     53  C   UNL A   1      42.182  30.182  35.248  1.00  0.00     0.074 A 
ATOM     54  C   UNL A   1      42.494  30.697  36.564  1.00  0.00     0.031 C 
ATOM     55  C   UNL A   1      42.862  29.171  34.647  1.00  0.00     0.034 A 
BRANCH  42  56
ATOM     56  C   UNL A   1      40.724  27.704  29.013  1.00  0.00     0.023 A 
ATOM     57  C   UNL A   1      41.666  27.943  27.997  1.00  0.00     0.031 A 
ATOM     58  C   UNL A   1      39.864  26.602  28.865  1.00  0.00     0.131 A 
ATOM     59  C   UNL A   1      41.681  27.136  26.850  1.00  0.00     0.055 A 
ATOM     60  C   UNL A   1      39.937  25.753  27.758  1.00  0.00     0.041 A 
ATOM     61  F   UNL A   1      38.929  26.335  29.791  1.00  0.00    -0.206 F 
ATOM     62  C   UNL A   1      40.841  26.026  26.736  1.00  0.00     0.022 A 
BRANCH  59  63
ATOM     63  S   UNL A   1      42.723  27.635  25.453  1.00  0.00     0.124 S 
ATOM     64  O   UNL A   1      42.670  26.445  24.606  1.00  0.00    -0.237 OA
ATOM     65  O   UNL A   1      42.027  28.811  24.944  1.00  0.00    -0.237 OA
ATOM     66  O   UNL A   1      44.022  27.896  26.069  1.00  0.00    -0.744 OA
ENDBRANCH  59  63
ENDBRANCH  42  56
BRANCH  43  67
ATOM     67  C   UNL A   1      39.548  33.690  36.966  1.00  0.00     0.023 A 
ATOM     68  C   UNL A   1      40.374  34.799  37.208  1.00  0.00     0.031 A 
ATOM     69  C   UNL A   1      38.580  33.368  37.934  1.00  0.00     0.131 A 
ATOM     70  C   UNL A   1      40.261  35.506  38.415  1.00  0.00     0.055 A 
ATOM     71  C   UNL A   1      38.430  34.113  39.105  1.00  0.00     0.041 A 
ATOM     72  F   UNL A   1      37.760  32.320  37.753  1.00  0.00    -0.206 F 
ATOM     73  C   UNL A   1      39.286  35.179  39.359  1.00  0.00     0.022 A 
BRANCH  70  74
ATOM     74  S   UNL A   1      41.487  36.793  38.783  1.00  0.00     0.124 S 
ATOM     75  O   UNL A   1      42.287  36.152  39.819  1.00  0.00    -0.237 OA
ATOM     76  O   UNL A   1      42.134  36.971  37.488  1.00  0.00    -0.237 OA
ATOM     77  O   UNL A   1      40.671  37.920  39.230  1.00  0.00    -0.744 OA
ENDBRANCH  70  74
ENDBRANCH  43  67
BRANCH  55  78
ATOM     78  C   UNL A   1      44.045  28.601  35.390  1.00  0.00     0.023 A 
ATOM     79  C   UNL A   1      43.908  27.543  36.306  1.00  0.00     0.031 A 
ATOM     80  C   UNL A   1      45.330  29.134  35.182  1.00  0.00     0.131 A 
ATOM     81  C   UNL A   1      45.026  27.092  37.023  1.00  0.00     0.055 A 
ATOM     82  C   UNL A   1      46.449  28.638  35.853  1.00  0.00     0.041 A 
ATOM     83  F   UNL A   1      45.520  30.146  34.321  1.00  0.00    -0.206 F 
ATOM     84  C   UNL A   1      46.298  27.621  36.790  1.00  0.00     0.022 A 
BRANCH  81  85
ATOM     85  S   UNL A   1      44.780  25.864  38.335  1.00  0.00     0.124 S 
ATOM     86  O   UNL A   1      46.141  25.401  38.578  1.00  0.00    -0.237 OA
ATOM     87  O   UNL A   1      44.178  26.661  39.399  1.00  0.00    -0.237 OA
ATOM     88  O   UNL A   1      43.890  24.879  37.721  1.00  0.00    -0.744 OA
ENDBRANCH  81  85
ENDBRANCH  55  78
ENDBRANCH  29  30
ENDBRANCH  21  24
ENDBRANCH  19  20
ENDBRANCH   1  19
TORSDOF 16
ENDMDL
MODEL 2
REMARK VINA RESULT:     -11.0      5.613     10.217
REMARK SMILES C[C@@](O)(CN1CCOCC1=O)C(=O)NCCCNC(=O)c1ccc(-c2c3nc(c(-c4cc(S(=O)(=O)[O-])ccc4F)c4ccc([nH]4)c(-c4cc(S(=O)(=O)[O-])ccc4F)c4nc(c(-c5cc(S(=O)(=O)[O-])ccc5F)c5ccc2[nH]5)C=C4)C=C3)cc1
REMARK SMILES IDX 16 1 15 2 14 3 12 4 13 5 2 7 1 8 3 9 4 11 5 12 6 13 10 14
REMARK SMILES IDX 7 15 9 16 11 17 8 18 17 19 18 20 19 21 20 23 21 24 22 25
REMARK SMILES IDX 83 26 23 27 82 28 24 29 25 30 26 31 76 32 27 33 81 34 75 35
REMARK SMILES IDX 77 36 28 37 80 38 74 39 73 40 29 42 61 43 41 44 60 45 42 46
REMARK SMILES IDX 45 47 59 48 78 49 43 50 44 51 58 53 79 54 46 55 30 56 31 57
REMARK SMILES IDX 39 58 32 59 38 60 40 61 37 62 33 63 34 64 35 65 36 66 62 67
REMARK SMILES IDX 63 68 71 69 64 70 70 71 72 72 69 73 65 74 66 75 67 76 68 77
REMARK SMILES IDX 47 78 48 79 56 80 49 81 55 82 57 83 54 84 50 85 51 86 52 87
REMARK SMILES IDX 53 88
REMARK H PARENT 14 6 3 10 18 22 77 41 45 52
REMARK Flexibility Score: inf
ROOT
ATOM      1  C   UNL A   1      41.824  20.426  27.252  1.00  0.00     0.042 C 
ENDROOT
BRANCH   1   2
ATOM      2  C   UNL A   1      42.561  20.726  25.951  1.00  0.00     0.117 C 
BRANCH   2   3
ATOM      3  N   UNL A   1      43.230  19.554  25.411  1.00  0.00    -0.353 N 
ATOM      4  C   UNL A   1      44.497  19.378  24.939  1.00  0.00     0.253 C 
ATOM      5  O   UNL A   1      44.789  18.237  24.568  1.00  0.00    -0.272 OA
ATOM      6  H   UNL A   1      42.670  18.745  25.381  1.00  0.00     0.163 HD
BRANCH   4   7
ATOM      7  C   UNL A   1      45.513  20.548  24.879  1.00  0.00     0.157 C 
ATOM      8  C   UNL A   1      46.875  20.017  24.417  1.00  0.00     0.055 C 
BRANCH   7   9
ATOM      9  O   UNL A   1      45.737  21.091  26.193  1.00  0.00    -0.378 OA
ATOM     10  H   UNL A   1      46.490  20.640  26.605  1.00  0.00     0.212 HD
ENDBRANCH   7   9
BRANCH   7  11
ATOM     11  C   UNL A   1      44.988  21.687  23.966  1.00  0.00     0.164 C 
BRANCH  11  12
ATOM     12  N   UNL A   1      45.279  23.059  24.401  1.00  0.00    -0.335 N 
ATOM     13  C   UNL A   1      46.619  23.595  24.159  1.00  0.00     0.148 C 
ATOM     14  C   UNL A   1      44.233  23.928  24.707  1.00  0.00     0.248 C 
ATOM     15  C   UNL A   1      46.924  24.867  24.946  1.00  0.00     0.182 C 
ATOM     16  C   UNL A   1      44.655  25.310  25.229  1.00  0.00     0.260 C 
ATOM     17  O   UNL A   1      43.049  23.597  24.660  1.00  0.00    -0.272 OA
ATOM     18  O   UNL A   1      45.886  25.825  24.743  1.00  0.00    -0.370 OA
ENDBRANCH  11  12
ENDBRANCH   7  11
ENDBRANCH   4   7
ENDBRANCH   2   3
ENDBRANCH   1   2
BRANCH   1  19
ATOM     19  C   UNL A   1      40.792  21.476  27.651  1.00  0.00     0.118 C 
BRANCH  19  20
ATOM     20  N   UNL A   1      39.712  21.588  26.683  1.00  0.00    -0.352 N 
ATOM     21  C   UNL A   1      38.950  22.681  26.345  1.00  0.00     0.251 C 
ATOM     22  H   UNL A   1      39.495  20.759  26.198  1.00  0.00     0.163 HD
ATOM     23  O   UNL A   1      37.945  22.521  25.659  1.00  0.00    -0.269 OA
BRANCH  21  24
ATOM     24  C   UNL A   1      39.322  24.033  26.823  1.00  0.00     0.039 A 
ATOM     25  C   UNL A   1      38.948  24.420  28.112  1.00  0.00     0.014 A 
ATOM     26  C   UNL A   1      40.017  24.925  26.001  1.00  0.00     0.014 A 
ATOM     27  C   UNL A   1      39.327  25.674  28.599  1.00  0.00     0.010 A 
ATOM     28  C   UNL A   1      40.457  26.145  26.513  1.00  0.00     0.010 A 
ATOM     29  C   UNL A   1      40.116  26.534  27.817  1.00  0.00    -0.014 A 
BRANCH  29  30
ATOM     30  C   UNL A   1      40.587  27.844  28.344  1.00  0.00     0.031 A 
ATOM     31  C   UNL A   1      42.060  28.106  28.510  1.00  0.00     0.074 A 
ATOM     32  C   UNL A   1      39.687  28.775  28.723  1.00  0.00     0.049 A 
ATOM     33  N   UNL A   1      42.662  29.144  29.032  1.00  0.00    -0.248 NA
ATOM     34  C   UNL A   1      42.974  27.049  28.052  1.00  0.00     0.031 C 
ATOM     35  C   UNL A   1      38.232  28.629  28.636  1.00  0.00     0.029 A 
ATOM     36  N   UNL A   1      39.861  30.025  29.264  1.00  0.00    -0.354 N 
ATOM     37  C   UNL A   1      44.024  28.863  28.973  1.00  0.00     0.074 A 
ATOM     38  C   UNL A   1      44.151  27.530  28.422  1.00  0.00     0.031 C 
ATOM     39  C   UNL A   1      37.649  29.752  29.085  1.00  0.00     0.029 A 
ATOM     40  C   UNL A   1      38.681  30.678  29.540  1.00  0.00     0.049 A 
ATOM     41  H   UNL A   1      40.747  30.417  29.439  1.00  0.00     0.167 HD
ATOM     42  C   UNL A   1      45.070  29.652  29.325  1.00  0.00     0.034 A 
ATOM     43  C   UNL A   1      38.455  31.881  30.110  1.00  0.00     0.034 A 
ATOM     44  C   UNL A   1      44.929  30.983  29.862  1.00  0.00     0.049 A 
ATOM     45  C   UNL A   1      39.637  32.721  30.528  1.00  0.00     0.074 A 
ATOM     46  C   UNL A   1      45.922  31.881  30.213  1.00  0.00     0.029 A 
ATOM     47  N   UNL A   1      43.718  31.610  30.130  1.00  0.00    -0.354 N 
ATOM     48  N   UNL A   1      40.919  32.454  30.430  1.00  0.00    -0.248 NA
ATOM     49  C   UNL A   1      39.340  34.032  31.124  1.00  0.00     0.031 C 
ATOM     50  C   UNL A   1      45.316  33.020  30.754  1.00  0.00     0.029 A 
ATOM     51  C   UNL A   1      43.941  32.868  30.668  1.00  0.00     0.049 A 
ATOM     52  H   UNL A   1      42.830  31.217  29.964  1.00  0.00     0.167 HD
ATOM     53  C   UNL A   1      41.578  33.579  30.917  1.00  0.00     0.074 A 
ATOM     54  C   UNL A   1      40.555  34.531  31.293  1.00  0.00     0.031 C 
ATOM     55  C   UNL A   1      42.911  33.808  31.040  1.00  0.00     0.034 A 
BRANCH  42  56
ATOM     56  C   UNL A   1      46.459  29.084  29.155  1.00  0.00     0.023 A 
ATOM     57  C   UNL A   1      47.108  29.083  27.907  1.00  0.00     0.031 A 
ATOM     58  C   UNL A   1      47.143  28.530  30.251  1.00  0.00     0.131 A 
ATOM     59  C   UNL A   1      48.367  28.481  27.772  1.00  0.00     0.055 A 
ATOM     60  C   UNL A   1      48.431  28.004  30.126  1.00  0.00     0.041 A 
ATOM     61  F   UNL A   1      46.567  28.483  31.463  1.00  0.00    -0.206 F 
ATOM     62  C   UNL A   1      49.045  27.965  28.878  1.00  0.00     0.022 A 
BRANCH  59  63
ATOM     63  S   UNL A   1      49.048  28.263  26.105  1.00  0.00     0.124 S 
ATOM     64  O   UNL A   1      47.872  28.505  25.272  1.00  0.00    -0.237 OA
ATOM     65  O   UNL A   1      50.088  29.284  26.053  1.00  0.00    -0.237 OA
ATOM     66  O   UNL A   1      49.528  26.882  26.108  1.00  0.00    -0.744 OA
ENDBRANCH  59  63
ENDBRANCH  42  56
BRANCH  43  67
ATOM     67  C   UNL A   1      37.063  32.366  30.338  1.00  0.00     0.023 A 
ATOM     68  C   UNL A   1      36.318  32.942  29.296  1.00  0.00     0.031 A 
ATOM     69  C   UNL A   1      36.478  32.322  31.617  1.00  0.00     0.131 A 
ATOM     70  C   UNL A   1      35.062  33.508  29.562  1.00  0.00     0.055 A 
ATOM     71  C   UNL A   1      35.202  32.831  31.863  1.00  0.00     0.041 A 
ATOM     72  F   UNL A   1      37.142  31.780  32.650  1.00  0.00    -0.206 F 
ATOM     73  C   UNL A   1      34.492  33.444  30.835  1.00  0.00     0.022 A 
BRANCH  70  74
ATOM     74  S   UNL A   1      34.230  34.430  28.239  1.00  0.00     0.124 S 
ATOM     75  O   UNL A   1      35.286  34.529  27.239  1.00  0.00    -0.237 OA
ATOM     76  O   UNL A   1      33.116  33.547  27.912  1.00  0.00    -0.237 OA
ATOM     77  O   UNL A   1      33.858  35.687  28.884  1.00  0.00    -0.744 OA
ENDBRANCH  70  74
ENDBRANCH  43  67
BRANCH  55  78
ATOM     78  C   UNL A   1      43.332  35.164  31.551  1.00  0.00     0.023 A 
ATOM     79  C   UNL A   1      43.422  35.444  32.926  1.00  0.00     0.031 A 
ATOM     80  C   UNL A   1      43.637  36.195  30.645  1.00  0.00     0.131 A 
ATOM     81  C   UNL A   1      43.752  36.739  33.354  1.00  0.00     0.055 A 
ATOM     82  C   UNL A   1      44.025  37.464  31.077  1.00  0.00     0.041 A 
ATOM     83  F   UNL A   1      43.565  35.985  29.321  1.00  0.00    -0.206 F 
ATOM     84  C   UNL A   1      44.070  37.746  32.439  1.00  0.00     0.022 A 
BRANCH  81  85
ATOM     85  S   UNL A   1      43.668  37.117  35.127  1.00  0.00     0.124 S 
ATOM     86  O   UNL A   1      44.596  38.236  35.243  1.00  0.00    -0.237 OA
ATOM     87  O   UNL A   1      42.257  37.438  35.311  1.00  0.00    -0.237 OA
ATOM     88  O   UNL A   1      44.108  35.877  35.763  1.00  0.00    -0.744 OA
ENDBRANCH  81  85
ENDBRANCH  55  78
ENDBRANCH  29  30
ENDBRANCH  21  24
ENDBRANCH  19  20
ENDBRANCH   1  19
TORSDOF 16
ENDMDL
MODEL 3
REMARK VINA RESULT:     -10.8      2.637      3.337
REMARK SMILES C[C@@](O)(CN1CCOCC1=O)C(=O)NCCCNC(=O)c1ccc(-c2c3nc(c(-c4cc(S(=O)(=O)[O-])ccc4F)c4ccc([nH]4)c(-c4cc(S(=O)(=O)[O-])ccc4F)c4nc(c(-c5cc(S(=O)(=O)[O-])ccc5F)c5ccc2[nH]5)C=C4)C=C3)cc1
REMARK SMILES IDX 16 1 15 2 14 3 12 4 13 5 2 7 1 8 3 9 4 11 5 12 6 13 10 14
REMARK SMILES IDX 7 15 9 16 11 17 8 18 17 19 18 20 19 21 20 23 21 24 22 25
REMARK SMILES IDX 83 26 23 27 82 28 24 29 25 30 26 31 76 32 27 33 81 34 75 35
REMARK SMILES IDX 77 36 28 37 80 38 74 39 73 40 29 42 61 43 41 44 60 45 42 46
REMARK SMILES IDX 45 47 59 48 78 49 43 50 44 51 58 53 79 54 46 55 30 56 31 57
REMARK SMILES IDX 39 58 32 59 38 60 40 61 37 62 33 63 34 64 35 65 36 66 62 67
REMARK SMILES IDX 63 68 71 69 64 70 70 71 72 72 69 73 65 74 66 75 67 76 68 77
REMARK SMILES IDX 47 78 48 79 56 80 49 81 55 82 57 83 54 84 50 85 51 86 52 87
REMARK SMILES IDX 53 88
REMARK H PARENT 14 6 3 10 18 22 77 41 45 52
REMARK Flexibility Score: inf
ROOT
ATOM      1  C   UNL A   1      31.772  28.478  26.320  1.00  0.00     0.042 C 
ENDROOT
BRANCH   1   2
ATOM      2  C   UNL A   1      31.362  27.329  25.405  1.00  0.00     0.117 C 
BRANCH   2   3
ATOM      3  N   UNL A   1      30.757  27.795  24.168  1.00  0.00    -0.353 N 
ATOM      4  C   UNL A   1      30.993  27.459  22.868  1.00  0.00     0.253 C 
ATOM      5  O   UNL A   1      30.284  28.014  22.022  1.00  0.00    -0.272 OA
ATOM      6  H   UNL A   1      30.053  28.472  24.291  1.00  0.00     0.163 HD
BRANCH   4   7
ATOM      7  C   UNL A   1      32.088  26.433  22.479  1.00  0.00     0.157 C 
ATOM      8  C   UNL A   1      33.449  26.919  22.994  1.00  0.00     0.055 C 
BRANCH   7   9
ATOM      9  O   UNL A   1      32.224  26.355  21.048  1.00  0.00    -0.378 OA
ATOM     10  H   UNL A   1      32.612  25.500  20.806  1.00  0.00     0.212 HD
ENDBRANCH   7   9
BRANCH   7  11
ATOM     11  C   UNL A   1      31.733  25.019  23.010  1.00  0.00     0.164 C 
BRANCH  11  12
ATOM     12  N   UNL A   1      32.833  24.248  23.601  1.00  0.00    -0.335 N 
ATOM     13  C   UNL A   1      32.772  23.934  25.029  1.00  0.00     0.148 C 
ATOM     14  C   UNL A   1      33.713  23.548  22.778  1.00  0.00     0.248 C 
ATOM     15  C   UNL A   1      34.098  23.451  25.611  1.00  0.00     0.182 C 
ATOM     16  C   UNL A   1      34.873  22.843  23.499  1.00  0.00     0.260 C 
ATOM     17  O   UNL A   1      33.638  23.559  21.550  1.00  0.00    -0.272 OA
ATOM     18  O   UNL A   1      34.615  22.383  24.818  1.00  0.00    -0.370 OA
ENDBRANCH  11  12
ENDBRANCH   7  11
ENDBRANCH   4   7
ENDBRANCH   2   3
ENDBRANCH   1   2
BRANCH   1  19
ATOM     19  C   UNL A   1      32.722  29.487  25.681  1.00  0.00     0.118 C 
BRANCH  19  20
ATOM     20  N   UNL A   1      32.389  30.859  26.029  1.00  0.00    -0.352 N 
ATOM     21  C   UNL A   1      32.963  31.688  26.964  1.00  0.00     0.251 C 
ATOM     22  H   UNL A   1      31.645  31.253  25.521  1.00  0.00     0.163 HD
ATOM     23  O   UNL A   1      32.401  32.740  27.258  1.00  0.00    -0.269 OA
BRANCH  21  24
ATOM     24  C   UNL A   1      34.231  31.308  27.628  1.00  0.00     0.039 A 
ATOM     25  C   UNL A   1      35.203  32.289  27.841  1.00  0.00     0.014 A 
ATOM     26  C   UNL A   1      34.475  29.988  28.022  1.00  0.00     0.014 A 
ATOM     27  C   UNL A   1      36.388  31.961  28.506  1.00  0.00     0.010 A 
ATOM     28  C   UNL A   1      35.623  29.679  28.748  1.00  0.00     0.010 A 
ATOM     29  C   UNL A   1      36.594  30.661  28.997  1.00  0.00    -0.014 A 
BRANCH  29  30
ATOM     30  C   UNL A   1      37.819  30.311  29.766  1.00  0.00     0.031 A 
ATOM     31  C   UNL A   1      38.828  29.356  29.185  1.00  0.00     0.074 A 
ATOM     32  C   UNL A   1      37.996  30.807  31.008  1.00  0.00     0.049 A 
ATOM     33  N   UNL A   1      39.909  28.860  29.731  1.00  0.00    -0.248 NA
ATOM     34  C   UNL A   1      38.573  28.878  27.818  1.00  0.00     0.031 C 
ATOM     35  C   UNL A   1      37.076  31.720  31.691  1.00  0.00     0.029 A 
ATOM     36  N   UNL A   1      39.003  30.611  31.920  1.00  0.00    -0.354 N 
ATOM     37  C   UNL A   1      40.458  28.005  28.780  1.00  0.00     0.074 A 
ATOM     38  C   UNL A   1      39.555  28.006  27.648  1.00  0.00     0.031 C 
ATOM     39  C   UNL A   1      37.573  32.021  32.902  1.00  0.00     0.029 A 
ATOM     40  C   UNL A   1      38.816  31.285  33.106  1.00  0.00     0.049 A 
ATOM     41  H   UNL A   1      39.785  30.039  31.743  1.00  0.00     0.167 HD
ATOM     42  C   UNL A   1      41.618  27.305  28.836  1.00  0.00     0.034 A 
ATOM     43  C   UNL A   1      39.555  31.297  34.234  1.00  0.00     0.034 A 
ATOM     44  C   UNL A   1      42.514  27.323  29.966  1.00  0.00     0.049 A 
ATOM     45  C   UNL A   1      40.821  30.477  34.285  1.00  0.00     0.074 A 
ATOM     46  C   UNL A   1      43.733  26.681  30.111  1.00  0.00     0.029 A 
ATOM     47  N   UNL A   1      42.290  28.015  31.150  1.00  0.00    -0.354 N 
ATOM     48  N   UNL A   1      41.343  29.704  33.361  1.00  0.00    -0.248 NA
ATOM     49  C   UNL A   1      41.602  30.540  35.528  1.00  0.00     0.031 C 
ATOM     50  C   UNL A   1      44.212  26.931  31.401  1.00  0.00     0.029 A 
ATOM     51  C   UNL A   1      43.333  27.792  32.037  1.00  0.00     0.049 A 
ATOM     52  H   UNL A   1      41.505  28.581  31.333  1.00  0.00     0.167 HD
ATOM     53  C   UNL A   1      42.533  29.222  33.900  1.00  0.00     0.074 A 
ATOM     54  C   UNL A   1      42.657  29.801  35.220  1.00  0.00     0.031 C 
ATOM     55  C   UNL A   1      43.444  28.377  33.352  1.00  0.00     0.034 A 
BRANCH  42  56
ATOM     56  C   UNL A   1      41.971  26.445  27.646  1.00  0.00     0.023 A 
ATOM     57  C   UNL A   1      41.613  25.086  27.585  1.00  0.00     0.031 A 
ATOM     58  C   UNL A   1      42.681  26.986  26.560  1.00  0.00     0.131 A 
ATOM     59  C   UNL A   1      42.022  24.301  26.498  1.00  0.00     0.055 A 
ATOM     60  C   UNL A   1      43.016  26.219  25.442  1.00  0.00     0.041 A 
ATOM     61  F   UNL A   1      43.069  28.271  26.569  1.00  0.00    -0.206 F 
ATOM     62  C   UNL A   1      42.698  24.864  25.413  1.00  0.00     0.022 A 
BRANCH  59  63
ATOM     63  S   UNL A   1      41.774  22.507  26.582  1.00  0.00     0.124 S 
ATOM     64  O   UNL A   1      42.480  22.056  25.385  1.00  0.00    -0.237 OA
ATOM     65  O   UNL A   1      42.393  22.162  27.856  1.00  0.00    -0.237 OA
ATOM     66  O   UNL A   1      40.321  22.359  26.533  1.00  0.00    -0.744 OA
ENDBRANCH  59  63
ENDBRANCH  42  56
BRANCH  43  67
ATOM     67  C   UNL A   1      39.122  32.095  35.419  1.00  0.00     0.023 A 
ATOM     68  C   UNL A   1      38.516  31.476  36.524  1.00  0.00     0.031 A 
ATOM     69  C   UNL A   1      39.248  33.496  35.437  1.00  0.00     0.131 A 
ATOM     70  C   UNL A   1      38.001  32.258  37.569  1.00  0.00     0.055 A 
ATOM     71  C   UNL A   1      38.789  34.264  36.509  1.00  0.00     0.041 A 
ATOM     72  F   UNL A   1      39.822  34.140  34.409  1.00  0.00    -0.206 F 
ATOM     73  C   UNL A   1      38.145  33.647  37.576  1.00  0.00     0.022 A 
BRANCH  70  74
ATOM     74  S   UNL A   1      37.037  31.438  38.871  1.00  0.00     0.124 S 
ATOM     75  O   UNL A   1      35.814  32.231  38.876  1.00  0.00    -0.237 OA
ATOM     76  O   UNL A   1      36.921  30.081  38.349  1.00  0.00    -0.237 OA
ATOM     77  O   UNL A   1      37.880  31.580  40.056  1.00  0.00    -0.744 OA
ENDBRANCH  70  74
ENDBRANCH  43  67
BRANCH  55  78
ATOM     78  C   UNL A   1      44.681  28.079  34.164  1.00  0.00     0.023 A 
ATOM     79  C   UNL A   1      44.738  26.999  35.063  1.00  0.00     0.031 A 
ATOM     80  C   UNL A   1      45.818  28.897  34.040  1.00  0.00     0.131 A 
ATOM     81  C   UNL A   1      45.886  26.803  35.846  1.00  0.00     0.055 A 
ATOM     82  C   UNL A   1      46.979  28.659  34.776  1.00  0.00     0.041 A 
ATOM     83  F   UNL A   1      45.820  29.944  33.199  1.00  0.00    -0.206 F 
ATOM     84  C   UNL A   1      47.013  27.615  35.696  1.00  0.00     0.022 A 
BRANCH  81  85
ATOM     85  S   UNL A   1      45.852  25.524  37.132  1.00  0.00     0.124 S 
ATOM     86  O   UNL A   1      45.468  26.290  38.312  1.00  0.00    -0.237 OA
ATOM     87  O   UNL A   1      44.851  24.594  36.622  1.00  0.00    -0.237 OA
ATOM     88  O   UNL A   1      47.222  25.014  37.144  1.00  0.00    -0.744 OA
ENDBRANCH  81  85
ENDBRANCH  55  78
ENDBRANCH  29  30
ENDBRANCH  21  24
ENDBRANCH  19  20
ENDBRANCH   1  19
TORSDOF 16
ENDMDL
