MODEL 1
REMARK VINA RESULT:     -12.0      0.000      0.000
REMARK SMILES O=C(COc1ccc(N2C[C@@H](C(=O)NCCCNC(=O)c3ccc(-c4c5nc(c(-c6cc(S(=O)(=O)[O-])ccc6F)c6ccc([nH]6)c(-c6cc(S(=O)(=O)[O-])ccc6F)c6nc(c(-c7cc(S(=O)(=O)[O-])ccc7F)c7ccc4[nH]7)C=C6)C=C5)cc3)CC2=O)cc1)Nc1ccc(Cl)cc1Cl
REMARK SMILES IDX 15 1 14 2 12 3 13 4 11 6 9 7 10 8 85 9 84 10 86 11 8 12 5 13
REMARK SMILES IDX 6 14 88 15 7 16 87 17 4 18 3 19 2 20 1 21 89 22 90 24 91 25
REMARK SMILES IDX 96 26 92 27 95 28 97 29 93 30 94 31 16 32 17 33 18 34 19 35
REMARK SMILES IDX 20 37 21 38 22 39 83 40 23 41 82 42 24 43 25 44 26 45 76 46
REMARK SMILES IDX 27 47 81 48 75 49 77 50 28 51 80 52 74 53 73 54 29 56 61 57
REMARK SMILES IDX 41 58 60 59 42 60 45 61 59 62 78 63 43 64 44 65 58 67 79 68
REMARK SMILES IDX 46 69 30 70 31 71 39 72 32 73 38 74 40 75 37 76 33 77 34 78
REMARK SMILES IDX 35 79 36 80 62 81 63 82 71 83 64 84 70 85 72 86 69 87 65 88
REMARK SMILES IDX 66 89 67 90 68 91 47 92 48 93 56 94 49 95 55 96 57 97 54 98
REMARK SMILES IDX 50 99 51 100 52 101 53 102
REMARK H PARENT 14 5 89 23 18 36 77 55 45 66
REMARK Flexibility Score: inf
ROOT
ATOM      1  C   UNL A   1      43.636  39.369  28.273  1.00  0.00     0.117 C 
ENDROOT
BRANCH   1   2
ATOM      2  N   UNL A   1      44.949  39.863  27.886  1.00  0.00    -0.356 N 
ATOM      3  C   UNL A   1      45.351  41.006  27.276  1.00  0.00     0.225 C 
ATOM      4  O   UNL A   1      46.565  41.171  27.128  1.00  0.00    -0.275 OA
ATOM      5  H   UNL A   1      45.686  39.250  28.108  1.00  0.00     0.163 HD
BRANCH   3   6
ATOM      6  C   UNL A   1      44.392  42.074  26.793  1.00  0.00     0.107 C 
ATOM      7  N   UNL A   1      43.869  42.901  24.652  1.00  0.00    -0.312 N 
ATOM      8  C   UNL A   1      43.712  41.732  25.478  1.00  0.00     0.139 C 
ATOM      9  C   UNL A   1      44.617  43.905  25.266  1.00  0.00     0.227 C 
ATOM     10  C   UNL A   1      45.023  43.446  26.635  1.00  0.00     0.116 C 
ATOM     11  O   UNL A   1      44.898  45.013  24.827  1.00  0.00    -0.274 OA
BRANCH   7  12
ATOM     12  C   UNL A   1      43.382  42.981  23.328  1.00  0.00     0.044 A 
ATOM     13  C   UNL A   1      42.322  42.969  20.721  1.00  0.00     0.120 A 
ATOM     14  C   UNL A   1      43.699  42.870  20.920  1.00  0.00     0.048 A 
ATOM     15  C   UNL A   1      41.482  43.097  21.820  1.00  0.00     0.048 A 
ATOM     16  C   UNL A   1      44.232  42.912  22.219  1.00  0.00     0.030 A 
ATOM     17  C   UNL A   1      42.008  43.093  23.110  1.00  0.00     0.030 A 
BRANCH  13  18
ATOM     18  O   UNL A   1      41.833  42.779  19.454  1.00  0.00    -0.484 OA
BRANCH  18  19
ATOM     19  C   UNL A   1      42.590  43.435  18.438  1.00  0.00     0.329 C 
BRANCH  19  20
ATOM     20  C   UNL A   1      42.477  44.962  18.381  1.00  0.00     0.262 C 
ATOM     21  O   UNL A   1      41.383  45.511  18.456  1.00  0.00    -0.271 OA
ATOM     22  N   UNL A   1      43.698  45.583  18.145  1.00  0.00    -0.322 N 
ATOM     23  H   UNL A   1      44.500  45.013  18.134  1.00  0.00     0.170 HD
BRANCH  22  24
ATOM     24  C   UNL A   1      43.881  46.970  17.921  1.00  0.00     0.060 A 
ATOM     25  C   UNL A   1      44.800  47.603  18.775  1.00  0.00     0.029 A 
ATOM     26  C   UNL A   1      43.245  47.741  16.928  1.00  0.00     0.066 A 
ATOM     27  C   UNL A   1      45.143  48.946  18.592  1.00  0.00     0.023 A 
ATOM     28  C   UNL A   1      43.601  49.083  16.740  1.00  0.00     0.043 A 
ATOM     29  Cl  UNL A   1      41.867  47.193  16.035  1.00  0.00    -0.082 Cl
ATOM     30  C   UNL A   1      44.554  49.673  17.563  1.00  0.00     0.042 A 
ATOM     31  Cl  UNL A   1      44.977  51.325  17.337  1.00  0.00    -0.084 Cl
ENDBRANCH  22  24
ENDBRANCH  19  20
ENDBRANCH  18  19
ENDBRANCH  13  18
ENDBRANCH   7  12
ENDBRANCH   3   6
ENDBRANCH   1   2
BRANCH   1  32
ATOM     32  C   UNL A   1      43.704  38.094  29.108  1.00  0.00     0.042 C 
BRANCH  32  33
ATOM     33  C   UNL A   1      44.612  38.180  30.332  1.00  0.00     0.118 C 
BRANCH  33  34
ATOM     34  N   UNL A   1      46.018  37.987  30.010  1.00  0.00    -0.352 N 
ATOM     35  C   UNL A   1      46.715  36.838  29.720  1.00  0.00     0.251 C 
ATOM     36  H   UNL A   1      46.556  38.812  29.999  1.00  0.00     0.163 HD
ATOM     37  O   UNL A   1      47.941  36.888  29.657  1.00  0.00    -0.269 OA
BRANCH  35  38
ATOM     38  C   UNL A   1      46.013  35.551  29.511  1.00  0.00     0.039 A 
ATOM     39  C   UNL A   1      45.421  35.300  28.270  1.00  0.00     0.014 A 
ATOM     40  C   UNL A   1      45.909  34.603  30.532  1.00  0.00     0.014 A 
ATOM     41  C   UNL A   1      44.791  34.074  28.032  1.00  0.00     0.010 A 
ATOM     42  C   UNL A   1      45.356  33.351  30.268  1.00  0.00     0.010 A 
ATOM     43  C   UNL A   1      44.789  33.072  29.015  1.00  0.00    -0.014 A 
BRANCH  43  44
ATOM     44  C   UNL A   1      44.198  31.730  28.752  1.00  0.00     0.031 A 
ATOM     45  C   UNL A   1      42.829  31.388  29.279  1.00  0.00     0.074 A 
ATOM     46  C   UNL A   1      44.916  30.801  28.089  1.00  0.00     0.049 A 
ATOM     47  N   UNL A   1      42.180  30.253  29.225  1.00  0.00    -0.248 NA
ATOM     48  C   UNL A   1      42.109  32.457  29.986  1.00  0.00     0.031 C 
ATOM     49  C   UNL A   1      46.267  30.999  27.558  1.00  0.00     0.029 A 
ATOM     50  N   UNL A   1      44.618  29.503  27.754  1.00  0.00    -0.354 N 
ATOM     51  C   UNL A   1      40.981  30.467  29.897  1.00  0.00     0.074 A 
ATOM     52  C   UNL A   1      41.028  31.821  30.409  1.00  0.00     0.031 C 
ATOM     53  C   UNL A   1      46.667  29.876  26.941  1.00  0.00     0.029 A 
ATOM     54  C   UNL A   1      45.628  28.860  27.077  1.00  0.00     0.049 A 
ATOM     55  H   UNL A   1      43.762  29.073  27.979  1.00  0.00     0.167 HD
ATOM     56  C   UNL A   1      39.930  29.623  30.055  1.00  0.00     0.034 A 
ATOM     57  C   UNL A   1      45.716  27.591  26.627  1.00  0.00     0.034 A 
ATOM     58  C   UNL A   1      39.898  28.278  29.532  1.00  0.00     0.049 A 
ATOM     59  C   UNL A   1      44.550  26.658  26.848  1.00  0.00     0.074 A 
ATOM     60  C   UNL A   1      38.867  27.355  29.594  1.00  0.00     0.029 A 
ATOM     61  N   UNL A   1      40.943  27.658  28.859  1.00  0.00    -0.354 N 
ATOM     62  N   UNL A   1      43.407  26.891  27.449  1.00  0.00    -0.248 NA
ATOM     63  C   UNL A   1      44.685  25.295  26.320  1.00  0.00     0.031 C 
ATOM     64  C   UNL A   1      39.314  26.157  29.025  1.00  0.00     0.029 A 
ATOM     65  C   UNL A   1      40.593  26.356  28.530  1.00  0.00     0.049 A 
ATOM     66  H   UNL A   1      41.806  28.081  28.645  1.00  0.00     0.167 HD
ATOM     67  C   UNL A   1      42.674  25.713  27.339  1.00  0.00     0.074 A 
ATOM     68  C   UNL A   1      43.498  24.778  26.600  1.00  0.00     0.031 C 
ATOM     69  C   UNL A   1      41.428  25.429  27.801  1.00  0.00     0.034 A 
BRANCH  56  70
ATOM     70  C   UNL A   1      38.745  30.128  30.845  1.00  0.00     0.023 A 
ATOM     71  C   UNL A   1      37.658  30.764  30.220  1.00  0.00     0.031 A 
ATOM     72  C   UNL A   1      38.709  29.993  32.245  1.00  0.00     0.131 A 
ATOM     73  C   UNL A   1      36.624  31.312  30.996  1.00  0.00     0.055 A 
ATOM     74  C   UNL A   1      37.635  30.462  33.004  1.00  0.00     0.041 A 
ATOM     75  F   UNL A   1      39.725  29.413  32.902  1.00  0.00    -0.206 F 
ATOM     76  C   UNL A   1      36.591  31.141  32.381  1.00  0.00     0.022 A 
BRANCH  73  77
ATOM     77  S   UNL A   1      35.406  32.381  30.183  1.00  0.00     0.124 S 
ATOM     78  O   UNL A   1      36.206  33.569  29.890  1.00  0.00    -0.237 OA
ATOM     79  O   UNL A   1      35.002  31.582  29.032  1.00  0.00    -0.237 OA
ATOM     80  O   UNL A   1      34.378  32.570  31.206  1.00  0.00    -0.744 OA
ENDBRANCH  73  77
ENDBRANCH  56  70
BRANCH  57  81
ATOM     81  C   UNL A   1      46.949  27.115  25.933  1.00  0.00     0.023 A 
ATOM     82  C   UNL A   1      47.974  26.472  26.642  1.00  0.00     0.031 A 
ATOM     83  C   UNL A   1      47.140  27.342  24.558  1.00  0.00     0.131 A 
ATOM     84  C   UNL A   1      49.168  26.126  25.988  1.00  0.00     0.055 A 
ATOM     85  C   UNL A   1      48.303  26.941  23.899  1.00  0.00     0.041 A 
ATOM     86  F   UNL A   1      46.190  27.952  23.831  1.00  0.00    -0.206 F 
ATOM     87  C   UNL A   1      49.333  26.342  24.619  1.00  0.00     0.022 A 
BRANCH  84  88
ATOM     88  S   UNL A   1      50.543  25.479  26.977  1.00  0.00     0.124 S 
ATOM     89  O   UNL A   1      49.928  24.324  27.622  1.00  0.00    -0.237 OA
ATOM     90  O   UNL A   1      51.541  25.186  25.954  1.00  0.00    -0.237 OA
ATOM     91  O   UNL A   1      50.873  26.589  27.868  1.00  0.00    -0.744 OA
ENDBRANCH  84  88
ENDBRANCH  57  81
BRANCH  69  92
ATOM     92  C   UNL A   1      40.866  24.067  27.472  1.00  0.00     0.023 A 
ATOM     93  C   UNL A   1      39.774  23.904  26.601  1.00  0.00     0.031 A 
ATOM     94  C   UNL A   1      41.424  22.914  28.052  1.00  0.00     0.131 A 
ATOM     95  C   UNL A   1      39.238  22.625  26.383  1.00  0.00     0.055 A 
ATOM     96  C   UNL A   1      40.929  21.638  27.780  1.00  0.00     0.041 A 
ATOM     97  F   UNL A   1      42.466  23.009  28.895  1.00  0.00    -0.206 F 
ATOM     98  C   UNL A   1      39.820  21.489  26.952  1.00  0.00     0.022 A 
BRANCH  95  99
ATOM     99  S   UNL A   1      37.705  22.475  25.425  1.00  0.00     0.124 S 
ATOM    100  O   UNL A   1      37.852  21.154  24.821  1.00  0.00    -0.237 OA
ATOM    101  O   UNL A   1      36.679  22.593  26.456  1.00  0.00    -0.237 OA
ATOM    102  O   UNL A   1      37.774  23.596  24.489  1.00  0.00    -0.744 OA
ENDBRANCH  95  99
ENDBRANCH  69  92
ENDBRANCH  43  44
ENDBRANCH  35  38
ENDBRANCH  33  34
ENDBRANCH  32  33
ENDBRANCH   1  32
TORSDOF 18
ENDMDL
MODEL 2
REMARK VINA RESULT:     -11.9      7.539     15.798
REMARK SMILES O=C(COc1ccc(N2C[C@@H](C(=O)NCCCNC(=O)c3ccc(-c4c5nc(c(-c6cc(S(=O)(=O)[O-])ccc6F)c6ccc([nH]6)c(-c6cc(S(=O)(=O)[O-])ccc6F)c6nc(c(-c7cc(S(=O)(=O)[O-])ccc7F)c7ccc4[nH]7)C=C6)C=C5)cc3)CC2=O)cc1)Nc1ccc(Cl)cc1Cl
REMARK SMILES IDX 15 1 14 2 12 3 13 4 11 6 9 7 10 8 85 9 84 10 86 11 8 12 5 13
REMARK SMILES IDX 6 14 88 15 7 16 87 17 4 18 3 19 2 20 1 21 89 22 90 24 91 25
REMARK SMILES IDX 96 26 92 27 95 28 97 29 93 30 94 31 16 32 17 33 18 34 19 35
REMARK SMILES IDX 20 37 21 38 22 39 83 40 23 41 82 42 24 43 25 44 26 45 76 46
REMARK SMILES IDX 27 47 81 48 75 49 77 50 28 51 80 52 74 53 73 54 29 56 61 57
REMARK SMILES IDX 41 58 60 59 42 60 45 61 59 62 78 63 43 64 44 65 58 67 79 68
REMARK SMILES IDX 46 69 30 70 31 71 39 72 32 73 38 74 40 75 37 76 33 77 34 78
REMARK SMILES IDX 35 79 36 80 62 81 63 82 71 83 64 84 70 85 72 86 69 87 65 88
REMARK SMILES IDX 66 89 67 90 68 91 47 92 48 93 56 94 49 95 55 96 57 97 54 98
REMARK SMILES IDX 50 99 51 100 52 101 53 102
REMARK H PARENT 14 5 89 23 18 36 77 55 45 66
REMARK Flexibility Score: inf
ROOT
ATOM      1  C   UNL A   1      36.375  34.642  32.600  1.00  0.00     0.117 C 
ENDROOT
BRANCH   1   2
ATOM      2  N   UNL A   1      37.004  34.357  31.319  1.00  0.00    -0.356 N 
ATOM      3  C   UNL A   1      36.533  33.804  30.174  1.00  0.00     0.225 C 
ATOM      4  O   UNL A   1      37.308  33.742  29.215  1.00  0.00    -0.275 OA
ATOM      5  H   UNL A   1      37.954  34.614  31.276  1.00  0.00     0.163 HD
BRANCH   3   6
ATOM      6  C   UNL A   1      35.119  33.282  30.021  1.00  0.00     0.107 C 
ATOM      7  N   UNL A   1      34.088  31.912  28.408  1.00  0.00    -0.312 N 
ATOM      8  C   UNL A   1      35.049  31.864  29.480  1.00  0.00     0.139 C 
ATOM      9  C   UNL A   1      33.598  33.196  28.173  1.00  0.00     0.227 C 
ATOM     10  C   UNL A   1      34.232  34.148  29.143  1.00  0.00     0.116 C 
ATOM     11  O   UNL A   1      32.762  33.547  27.351  1.00  0.00    -0.274 OA
BRANCH   7  12
ATOM     12  C   UNL A   1      33.745  30.784  27.630  1.00  0.00     0.044 A 
ATOM     13  C   UNL A   1      32.927  28.494  26.212  1.00  0.00     0.120 A 
ATOM     14  C   UNL A   1      34.199  28.551  26.780  1.00  0.00     0.048 A 
ATOM     15  C   UNL A   1      32.077  29.587  26.333  1.00  0.00     0.048 A 
ATOM     16  C   UNL A   1      34.622  29.707  27.457  1.00  0.00     0.030 A 
ATOM     17  C   UNL A   1      32.480  30.716  27.043  1.00  0.00     0.030 A 
BRANCH  13  18
ATOM     18  O   UNL A   1      32.501  27.301  25.688  1.00  0.00    -0.484 OA
BRANCH  18  19
ATOM     19  C   UNL A   1      31.529  26.632  26.492  1.00  0.00     0.329 C 
BRANCH  19  20
ATOM     20  C   UNL A   1      31.308  25.144  26.199  1.00  0.00     0.262 C 
ATOM     21  O   UNL A   1      30.287  24.578  26.575  1.00  0.00    -0.271 OA
ATOM     22  N   UNL A   1      32.401  24.550  25.581  1.00  0.00    -0.322 N 
ATOM     23  H   UNL A   1      33.145  25.138  25.314  1.00  0.00     0.170 HD
BRANCH  22  24
ATOM     24  C   UNL A   1      32.533  23.167  25.303  1.00  0.00     0.060 A 
ATOM     25  C   UNL A   1      32.222  22.784  23.987  1.00  0.00     0.029 A 
ATOM     26  C   UNL A   1      32.953  22.175  26.210  1.00  0.00     0.066 A 
ATOM     27  C   UNL A   1      32.407  21.466  23.560  1.00  0.00     0.023 A 
ATOM     28  C   UNL A   1      33.149  20.857  25.774  1.00  0.00     0.043 A 
ATOM     29  Cl  UNL A   1      33.046  22.426  27.920  1.00  0.00    -0.082 Cl
ATOM     30  C   UNL A   1      32.887  20.513  24.453  1.00  0.00     0.042 A 
ATOM     31  Cl  UNL A   1      33.115  18.891  23.928  1.00  0.00    -0.084 Cl
ENDBRANCH  22  24
ENDBRANCH  19  20
ENDBRANCH  18  19
ENDBRANCH  13  18
ENDBRANCH   7  12
ENDBRANCH   3   6
ENDBRANCH   1   2
BRANCH   1  32
ATOM     32  C   UNL A   1      35.829  33.392  33.283  1.00  0.00     0.042 C 
BRANCH  32  33
ATOM     33  C   UNL A   1      36.893  32.418  33.781  1.00  0.00     0.118 C 
BRANCH  33  34
ATOM     34  N   UNL A   1      36.630  31.041  33.391  1.00  0.00    -0.352 N 
ATOM     35  C   UNL A   1      37.282  30.232  32.491  1.00  0.00     0.251 C 
ATOM     36  H   UNL A   1      35.861  30.623  33.843  1.00  0.00     0.163 HD
ATOM     37  O   UNL A   1      36.773  29.156  32.184  1.00  0.00    -0.269 OA
BRANCH  35  38
ATOM     38  C   UNL A   1      38.564  30.649  31.878  1.00  0.00     0.039 A 
ATOM     39  C   UNL A   1      38.658  30.706  30.484  1.00  0.00     0.014 A 
ATOM     40  C   UNL A   1      39.680  30.958  32.660  1.00  0.00     0.014 A 
ATOM     41  C   UNL A   1      39.842  31.141  29.882  1.00  0.00     0.010 A 
ATOM     42  C   UNL A   1      40.830  31.471  32.062  1.00  0.00     0.010 A 
ATOM     43  C   UNL A   1      40.926  31.567  30.666  1.00  0.00    -0.014 A 
BRANCH  43  44
ATOM     44  C   UNL A   1      42.164  32.112  30.044  1.00  0.00     0.031 A 
ATOM     45  C   UNL A   1      43.370  31.229  29.855  1.00  0.00     0.074 A 
ATOM     46  C   UNL A   1      42.224  33.415  29.703  1.00  0.00     0.049 A 
ATOM     47  N   UNL A   1      44.562  31.537  29.410  1.00  0.00    -0.248 NA
ATOM     48  C   UNL A   1      43.223  29.820  30.246  1.00  0.00     0.031 C 
ATOM     49  C   UNL A   1      41.136  34.382  29.869  1.00  0.00     0.029 A 
ATOM     50  N   UNL A   1      43.242  34.157  29.156  1.00  0.00    -0.354 N 
ATOM     51  C   UNL A   1      45.308  30.365  29.476  1.00  0.00     0.074 A 
ATOM     52  C   UNL A   1      44.452  29.360  30.070  1.00  0.00     0.031 C 
ATOM     53  C   UNL A   1      41.534  35.578  29.406  1.00  0.00     0.029 A 
ATOM     54  C   UNL A   1      42.921  35.481  28.961  1.00  0.00     0.049 A 
ATOM     55  H   UNL A   1      44.121  33.777  28.925  1.00  0.00     0.167 HD
ATOM     56  C   UNL A   1      46.580  30.140  29.060  1.00  0.00     0.034 A 
ATOM     57  C   UNL A   1      43.662  36.505  28.491  1.00  0.00     0.034 A 
ATOM     58  C   UNL A   1      47.418  31.153  28.464  1.00  0.00     0.049 A 
ATOM     59  C   UNL A   1      45.086  36.241  28.071  1.00  0.00     0.074 A 
ATOM     60  C   UNL A   1      48.704  31.022  27.966  1.00  0.00     0.029 A 
ATOM     61  N   UNL A   1      47.061  32.484  28.291  1.00  0.00    -0.354 N 
ATOM     62  N   UNL A   1      45.762  35.115  28.102  1.00  0.00    -0.248 NA
ATOM     63  C   UNL A   1      45.844  37.383  27.545  1.00  0.00     0.031 C 
ATOM     64  C   UNL A   1      49.149  32.286  27.561  1.00  0.00     0.029 A 
ATOM     65  C   UNL A   1      48.112  33.191  27.725  1.00  0.00     0.049 A 
ATOM     66  H   UNL A   1      46.188  32.870  28.533  1.00  0.00     0.167 HD
ATOM     67  C   UNL A   1      47.013  35.410  27.564  1.00  0.00     0.074 A 
ATOM     68  C   UNL A   1      46.990  36.813  27.205  1.00  0.00     0.031 C 
ATOM     69  C   UNL A   1      48.082  34.593  27.379  1.00  0.00     0.034 A 
BRANCH  56  70
ATOM     70  C   UNL A   1      47.143  28.753  29.262  1.00  0.00     0.023 A 
ATOM     71  C   UNL A   1      46.987  27.744  28.296  1.00  0.00     0.031 A 
ATOM     72  C   UNL A   1      47.827  28.424  30.448  1.00  0.00     0.131 A 
ATOM     73  C   UNL A   1      47.433  26.440  28.563  1.00  0.00     0.055 A 
ATOM     74  C   UNL A   1      48.346  27.147  30.670  1.00  0.00     0.041 A 
ATOM     75  F   UNL A   1      47.991  29.337  31.418  1.00  0.00    -0.206 F 
ATOM     76  C   UNL A   1      48.136  26.141  29.731  1.00  0.00     0.022 A 
BRANCH  73  77
ATOM     77  S   UNL A   1      46.945  25.111  27.430  1.00  0.00     0.124 S 
ATOM     78  O   UNL A   1      48.206  24.391  27.260  1.00  0.00    -0.237 OA
ATOM     79  O   UNL A   1      45.908  24.417  28.184  1.00  0.00    -0.237 OA
ATOM     80  O   UNL A   1      46.481  25.826  26.241  1.00  0.00    -0.744 OA
ENDBRANCH  73  77
ENDBRANCH  56  70
BRANCH  57  81
ATOM     81  C   UNL A   1      43.085  37.879  28.397  1.00  0.00     0.023 A 
ATOM     82  C   UNL A   1      43.238  38.799  29.445  1.00  0.00     0.031 A 
ATOM     83  C   UNL A   1      42.329  38.273  27.280  1.00  0.00     0.131 A 
ATOM     84  C   UNL A   1      42.600  40.048  29.379  1.00  0.00     0.055 A 
ATOM     85  C   UNL A   1      41.747  39.539  27.192  1.00  0.00     0.041 A 
ATOM     86  F   UNL A   1      42.151  37.433  26.247  1.00  0.00    -0.206 F 
ATOM     87  C   UNL A   1      41.868  40.430  28.254  1.00  0.00     0.022 A 
BRANCH  84  88
ATOM     88  S   UNL A   1      42.658  41.130  30.835  1.00  0.00     0.124 S 
ATOM     89  O   UNL A   1      41.241  41.339  31.106  1.00  0.00    -0.237 OA
ATOM     90  O   UNL A   1      43.380  40.303  31.797  1.00  0.00    -0.237 OA
ATOM     91  O   UNL A   1      43.383  42.304  30.357  1.00  0.00    -0.744 OA
ENDBRANCH  84  88
ENDBRANCH  57  81
BRANCH  69  92
ATOM     92  C   UNL A   1      49.297  35.192  26.710  1.00  0.00     0.023 A 
ATOM     93  C   UNL A   1      50.404  35.646  27.449  1.00  0.00     0.031 A 
ATOM     94  C   UNL A   1      49.340  35.322  25.310  1.00  0.00     0.131 A 
ATOM     95  C   UNL A   1      51.479  36.263  26.790  1.00  0.00     0.055 A 
ATOM     96  C   UNL A   1      50.440  35.876  24.655  1.00  0.00     0.041 A 
ATOM     97  F   UNL A   1      48.309  34.909  24.554  1.00  0.00    -0.206 F 
ATOM     98  C   UNL A   1      51.512  36.364  25.397  1.00  0.00     0.022 A 
BRANCH  95  99
ATOM     99  S   UNL A   1      52.790  37.024  27.786  1.00  0.00     0.124 S 
ATOM    100  O   UNL A   1      53.870  36.051  27.662  1.00  0.00    -0.237 OA
ATOM    101  O   UNL A   1      52.999  38.298  27.105  1.00  0.00    -0.237 OA
ATOM    102  O   UNL A   1      52.195  37.125  29.117  1.00  0.00    -0.744 OA
ENDBRANCH  95  99
ENDBRANCH  69  92
ENDBRANCH  43  44
ENDBRANCH  35  38
ENDBRANCH  33  34
ENDBRANCH  32  33
ENDBRANCH   1  32
TORSDOF 18
ENDMDL
MODEL 3
REMARK VINA RESULT:     -11.8      7.214     14.059
REMARK SMILES O=C(COc1ccc(N2C[C@@H](C(=O)NCCCNC(=O)c3ccc(-c4c5nc(c(-c6cc(S(=O)(=O)[O-])ccc6F)c6ccc([nH]6)c(-c6cc(S(=O)(=O)[O-])ccc6F)c6nc(c(-c7cc(S(=O)(=O)[O-])ccc7F)c7ccc4[nH]7)C=C6)C=C5)cc3)CC2=O)cc1)Nc1ccc(Cl)cc1Cl
REMARK SMILES IDX 15 1 14 2 12 3 13 4 11 6 9 7 10 8 85 9 84 10 86 11 8 12 5 13
REMARK SMILES IDX 6 14 88 15 7 16 87 17 4 18 3 19 2 20 1 21 89 22 90 24 91 25
REMARK SMILES IDX 96 26 92 27 95 28 97 29 93 30 94 31 16 32 17 33 18 34 19 35
REMARK SMILES IDX 20 37 21 38 22 39 83 40 23 41 82 42 24 43 25 44 26 45 76 46
REMARK SMILES IDX 27 47 81 48 75 49 77 50 28 51 80 52 74 53 73 54 29 56 61 57
REMARK SMILES IDX 41 58 60 59 42 60 45 61 59 62 78 63 43 64 44 65 58 67 79 68
REMARK SMILES IDX 46 69 30 70 31 71 39 72 32 73 38 74 40 75 37 76 33 77 34 78
REMARK SMILES IDX 35 79 36 80 62 81 63 82 71 83 64 84 70 85 72 86 69 87 65 88
REMARK SMILES IDX 66 89 67 90 68 91 47 92 48 93 56 94 49 95 55 96 57 97 54 98
REMARK SMILES IDX 50 99 51 100 52 101 53 102
REMARK H PARENT 14 5 89 23 18 36 77 55 45 66
REMARK Flexibility Score: inf
ROOT
ATOM      1  C   UNL A   1      43.657  22.894  25.241  1.00  0.00     0.117 C 
ENDROOT
BRANCH   1   2
ATOM      2  N   UNL A   1      43.024  21.584  25.265  1.00  0.00    -0.356 N 
ATOM      3  C   UNL A   1      42.110  21.027  26.099  1.00  0.00     0.225 C 
ATOM      4  O   UNL A   1      41.712  19.891  25.825  1.00  0.00    -0.275 OA
ATOM      5  H   UNL A   1      43.314  20.988  24.538  1.00  0.00     0.163 HD
BRANCH   3   6
ATOM      6  C   UNL A   1      41.558  21.733  27.320  1.00  0.00     0.107 C 
ATOM      7  N   UNL A   1      41.172  24.002  27.815  1.00  0.00    -0.312 N 
ATOM      8  C   UNL A   1      40.683  22.930  26.988  1.00  0.00     0.139 C 
ATOM      9  C   UNL A   1      42.284  23.640  28.575  1.00  0.00     0.227 C 
ATOM     10  C   UNL A   1      42.623  22.206  28.295  1.00  0.00     0.116 C 
ATOM     11  O   UNL A   1      42.902  24.322  29.382  1.00  0.00    -0.274 OA
BRANCH   7  12
ATOM     12  C   UNL A   1      40.625  25.305  27.792  1.00  0.00     0.044 A 
ATOM     13  C   UNL A   1      39.715  27.968  27.779  1.00  0.00     0.120 A 
ATOM     14  C   UNL A   1      39.306  27.091  28.784  1.00  0.00     0.048 A 
ATOM     15  C   UNL A   1      40.556  27.508  26.773  1.00  0.00     0.048 A 
ATOM     16  C   UNL A   1      39.731  25.752  28.771  1.00  0.00     0.030 A 
ATOM     17  C   UNL A   1      41.013  26.192  26.787  1.00  0.00     0.030 A 
BRANCH  13  18
ATOM     18  O   UNL A   1      39.398  29.296  27.907  1.00  0.00    -0.484 OA
BRANCH  18  19
ATOM     19  C   UNL A   1      39.852  29.883  29.125  1.00  0.00     0.329 C 
BRANCH  19  20
ATOM     20  C   UNL A   1      39.022  31.050  29.672  1.00  0.00     0.262 C 
ATOM     21  O   UNL A   1      39.445  31.740  30.594  1.00  0.00    -0.271 OA
ATOM     22  N   UNL A   1      37.768  31.141  29.081  1.00  0.00    -0.322 N 
ATOM     23  H   UNL A   1      37.576  30.532  28.331  1.00  0.00     0.170 HD
BRANCH  22  24
ATOM     24  C   UNL A   1      36.743  32.039  29.469  1.00  0.00     0.060 A 
ATOM     25  C   UNL A   1      36.534  33.126  28.603  1.00  0.00     0.029 A 
ATOM     26  C   UNL A   1      35.929  31.924  30.613  1.00  0.00     0.066 A 
ATOM     27  C   UNL A   1      35.487  34.026  28.822  1.00  0.00     0.023 A 
ATOM     28  C   UNL A   1      34.874  32.822  30.821  1.00  0.00     0.043 A 
ATOM     29  Cl  UNL A   1      36.278  30.851  31.926  1.00  0.00    -0.082 Cl
ATOM     30  C   UNL A   1      34.651  33.859  29.921  1.00  0.00     0.042 A 
ATOM     31  Cl  UNL A   1      33.364  34.967  30.190  1.00  0.00    -0.084 Cl
ENDBRANCH  22  24
ENDBRANCH  19  20
ENDBRANCH  18  19
ENDBRANCH  13  18
ENDBRANCH   7  12
ENDBRANCH   3   6
ENDBRANCH   1   2
BRANCH   1  32
ATOM     32  C   UNL A   1      45.176  22.816  25.124  1.00  0.00     0.042 C 
BRANCH  32  33
ATOM     33  C   UNL A   1      45.933  23.894  25.895  1.00  0.00     0.118 C 
BRANCH  33  34
ATOM     34  N   UNL A   1      46.680  24.793  25.028  1.00  0.00    -0.352 N 
ATOM     35  C   UNL A   1      46.719  26.167  24.995  1.00  0.00     0.251 C 
ATOM     36  H   UNL A   1      47.246  24.346  24.358  1.00  0.00     0.163 HD
ATOM     37  O   UNL A   1      47.283  26.721  24.055  1.00  0.00    -0.269 OA
BRANCH  35  38
ATOM     38  C   UNL A   1      46.075  26.975  26.056  1.00  0.00     0.039 A 
ATOM     39  C   UNL A   1      44.697  27.197  25.993  1.00  0.00     0.014 A 
ATOM     40  C   UNL A   1      46.820  27.538  27.096  1.00  0.00     0.014 A 
ATOM     41  C   UNL A   1      44.058  27.918  27.006  1.00  0.00     0.010 A 
ATOM     42  C   UNL A   1      46.171  28.184  28.148  1.00  0.00     0.010 A 
ATOM     43  C   UNL A   1      44.783  28.384  28.115  1.00  0.00    -0.014 A 
BRANCH  43  44
ATOM     44  C   UNL A   1      44.107  29.080  29.245  1.00  0.00     0.031 A 
ATOM     45  C   UNL A   1      43.758  30.541  29.135  1.00  0.00     0.074 A 
ATOM     46  C   UNL A   1      43.861  28.413  30.391  1.00  0.00     0.049 A 
ATOM     47  N   UNL A   1      43.244  31.341  30.034  1.00  0.00    -0.248 NA
ATOM     48  C   UNL A   1      44.054  31.194  27.851  1.00  0.00     0.031 C 
ATOM     49  C   UNL A   1      44.184  27.005  30.634  1.00  0.00     0.029 A 
ATOM     50  N   UNL A   1      43.292  28.828  31.569  1.00  0.00    -0.354 N 
ATOM     51  C   UNL A   1      43.164  32.591  29.431  1.00  0.00     0.074 A 
ATOM     52  C   UNL A   1      43.747  32.455  28.113  1.00  0.00     0.031 C 
ATOM     53  C   UNL A   1      43.782  26.668  31.870  1.00  0.00     0.029 A 
ATOM     54  C   UNL A   1      43.223  27.844  32.528  1.00  0.00     0.049 A 
ATOM     55  H   UNL A   1      42.965  29.745  31.715  1.00  0.00     0.167 HD
ATOM     56  C   UNL A   1      42.633  33.740  29.920  1.00  0.00     0.034 A 
ATOM     57  C   UNL A   1      42.773  27.885  33.800  1.00  0.00     0.034 A 
ATOM     58  C   UNL A   1      42.049  33.857  31.235  1.00  0.00     0.049 A 
ATOM     59  C   UNL A   1      42.223  29.184  34.335  1.00  0.00     0.074 A 
ATOM     60  C   UNL A   1      41.443  34.960  31.813  1.00  0.00     0.029 A 
ATOM     61  N   UNL A   1      42.005  32.841  32.181  1.00  0.00    -0.354 N 
ATOM     62  N   UNL A   1      42.116  30.347  33.735  1.00  0.00    -0.248 NA
ATOM     63  C   UNL A   1      41.725  29.172  35.717  1.00  0.00     0.031 C 
ATOM     64  C   UNL A   1      41.099  34.633  33.129  1.00  0.00     0.029 A 
ATOM     65  C   UNL A   1      41.411  33.301  33.348  1.00  0.00     0.049 A 
ATOM     66  H   UNL A   1      42.343  31.927  32.044  1.00  0.00     0.167 HD
ATOM     67  C   UNL A   1      41.505  31.194  34.657  1.00  0.00     0.074 A 
ATOM     68  C   UNL A   1      41.254  30.403  35.844  1.00  0.00     0.031 C 
ATOM     69  C   UNL A   1      41.175  32.505  34.531  1.00  0.00     0.034 A 
BRANCH  56  70
ATOM     70  C   UNL A   1      42.686  34.964  29.034  1.00  0.00     0.023 A 
ATOM     71  C   UNL A   1      43.889  35.650  28.793  1.00  0.00     0.031 A 
ATOM     72  C   UNL A   1      41.514  35.467  28.440  1.00  0.00     0.131 A 
ATOM     73  C   UNL A   1      43.882  36.840  28.050  1.00  0.00     0.055 A 
ATOM     74  C   UNL A   1      41.528  36.603  27.628  1.00  0.00     0.041 A 
ATOM     75  F   UNL A   1      40.330  34.869  28.647  1.00  0.00    -0.206 F 
ATOM     76  C   UNL A   1      42.714  37.307  27.443  1.00  0.00     0.022 A 
BRANCH  73  77
ATOM     77  S   UNL A   1      45.389  37.849  28.019  1.00  0.00     0.124 S 
ATOM     78  O   UNL A   1      45.544  38.103  26.589  1.00  0.00    -0.237 OA
ATOM     79  O   UNL A   1      45.017  38.998  28.836  1.00  0.00    -0.237 OA
ATOM     80  O   UNL A   1      46.402  36.970  28.601  1.00  0.00    -0.744 OA
ENDBRANCH  73  77
ENDBRANCH  56  70
BRANCH  57  81
ATOM     81  C   UNL A   1      42.828  26.670  34.664  1.00  0.00     0.023 A 
ATOM     82  C   UNL A   1      44.048  26.204  35.179  1.00  0.00     0.031 A 
ATOM     83  C   UNL A   1      41.668  25.927  34.946  1.00  0.00     0.131 A 
ATOM     84  C   UNL A   1      44.089  25.002  35.903  1.00  0.00     0.055 A 
ATOM     85  C   UNL A   1      41.706  24.765  35.719  1.00  0.00     0.041 A 
ATOM     86  F   UNL A   1      40.474  26.328  34.480  1.00  0.00    -0.206 F 
ATOM     87  C   UNL A   1      42.925  24.288  36.189  1.00  0.00     0.022 A 
BRANCH  84  88
ATOM     88  S   UNL A   1      45.706  24.333  36.380  1.00  0.00     0.124 S 
ATOM     89  O   UNL A   1      46.444  24.413  35.124  1.00  0.00    -0.237 OA
ATOM     90  O   UNL A   1      46.121  25.260  37.428  1.00  0.00    -0.237 OA
ATOM     91  O   UNL A   1      45.393  22.980  36.835  1.00  0.00    -0.744 OA
ENDBRANCH  84  88
ENDBRANCH  57  81
BRANCH  69  92
ATOM     92  C   UNL A   1      40.458  33.149  35.694  1.00  0.00     0.023 A 
ATOM     93  C   UNL A   1      41.151  33.846  36.700  1.00  0.00     0.031 A 
ATOM     94  C   UNL A   1      39.060  33.050  35.805  1.00  0.00     0.131 A 
ATOM     95  C   UNL A   1      40.451  34.364  37.801  1.00  0.00     0.055 A 
ATOM     96  C   UNL A   1      38.362  33.624  36.867  1.00  0.00     0.041 A 
ATOM     97  F   UNL A   1      38.346  32.392  34.876  1.00  0.00    -0.206 F 
ATOM     98  C   UNL A   1      39.059  34.273  37.882  1.00  0.00     0.022 A 
BRANCH  95  99
ATOM     99  S   UNL A   1      41.395  35.071  39.179  1.00  0.00     0.124 S 
ATOM    100  O   UNL A   1      41.387  36.494  38.856  1.00  0.00    -0.237 OA
ATOM    101  O   UNL A   1      40.599  34.676  40.337  1.00  0.00    -0.237 OA
ATOM    102  O   UNL A   1      42.698  34.418  39.073  1.00  0.00    -0.744 OA
ENDBRANCH  95  99
ENDBRANCH  69  92
ENDBRANCH  43  44
ENDBRANCH  35  38
ENDBRANCH  33  34
ENDBRANCH  32  33
ENDBRANCH   1  32
TORSDOF 18
ENDMDL
