MODEL 1
REMARK VINA RESULT:     -11.8      0.000      0.000
REMARK SMILES [NH3+][C@@](C(=O)NCCCNC(=O)c1ccc(-c2c3nc(c(-c4cc(S(=O)(=O)[O-])ccc4F)c4ccc([nH]4)c(-c4cc(S(=O)(=O)[O-])ccc4F)c4nc(c(-c5cc(S(=O)(=O)[O-])ccc5F)c5ccc2[nH]5)C=C4)C=C3)cc1)(c1ccc([P@TB4](=O)([O-])[O-])cc1)C1CC1
REMARK SMILES IDX 7 1 6 2 5 3 3 4 4 5 2 7 1 8 75 12 76 13 84 14 77 15 83 16
REMARK SMILES IDX 78 17 79 18 80 19 81 20 82 21 85 22 86 23 87 24 8 25 9 26
REMARK SMILES IDX 10 27 11 29 12 30 13 31 74 32 14 33 73 34 15 35 16 36 17 37
REMARK SMILES IDX 67 38 18 39 72 40 66 41 68 42 19 43 71 44 65 45 64 46 20 48
REMARK SMILES IDX 52 49 32 50 51 51 33 52 36 53 50 54 69 55 34 56 35 57 49 59
REMARK SMILES IDX 70 60 37 61 21 62 22 63 30 64 23 65 29 66 31 67 28 68 24 69
REMARK SMILES IDX 25 70 26 71 27 72 53 73 54 74 62 75 55 76 61 77 63 78 60 79
REMARK SMILES IDX 56 80 57 81 58 82 59 83 38 84 39 85 47 86 40 87 46 88 48 89
REMARK SMILES IDX 45 90 41 91 42 92 43 93 44 94
REMARK H PARENT 5 6 1 9 1 10 1 11 9 28 68 47 36 58
REMARK Flexibility Score: inf
ROOT
ATOM      1  C   UNL A   1      31.769  28.809  26.953  1.00  0.00       nan C 
ENDROOT
BRANCH   1   2
ATOM      2  C   UNL A   1      31.432  27.469  26.329  1.00  0.00       nan C 
BRANCH   2   3
ATOM      3  N   UNL A   1      32.569  26.901  25.620  1.00  0.00       nan N 
ATOM      4  C   UNL A   1      32.728  26.361  24.377  1.00  0.00       nan C 
ATOM      5  O   UNL A   1      33.907  26.174  24.050  1.00  0.00       nan OA
ATOM      6  H   UNL A   1      33.399  26.909  26.151  1.00  0.00       nan HD
BRANCH   4   7
ATOM      7  C   UNL A   1      31.493  26.033  23.408  1.00  0.00       nan C 
BRANCH   7   8
ATOM      8  N   UNL A   1      31.987  25.518  22.099  1.00  0.00       nan N 
ATOM      9  H   UNL A   1      31.197  25.362  21.474  1.00  0.00       nan HD
ATOM     10  H   UNL A   1      32.483  24.638  22.245  1.00  0.00       nan HD
ATOM     11  H   UNL A   1      32.621  26.200  21.683  1.00  0.00       nan HD
ENDBRANCH   7   8
BRANCH   7  12
ATOM     12  C   UNL A   1      30.735  27.346  23.060  1.00  0.00       nan A 
ATOM     13  C   UNL A   1      31.329  28.507  22.560  1.00  0.00       nan A 
ATOM     14  C   UNL A   1      29.342  27.429  23.344  1.00  0.00       nan A 
ATOM     15  C   UNL A   1      30.599  29.672  22.350  1.00  0.00       nan A 
ATOM     16  C   UNL A   1      28.595  28.591  23.124  1.00  0.00       nan A 
ATOM     17  C   UNL A   1      29.232  29.722  22.633  1.00  0.00       nan A 
BRANCH  17  18
ATOM     18  P   UNL A   1      28.428  31.306  22.191  1.00  0.00       nan P 
ATOM     19  O   UNL A   1      27.840  30.752  20.889  1.00  0.00       nan OA
ATOM     20  O   UNL A   1      27.278  31.146  23.346  1.00  0.00       nan OA
ATOM     21  O   UNL A   1      27.669  32.803  21.772  1.00  0.00       nan OA
ENDBRANCH  17  18
ENDBRANCH   7  12
BRANCH   7  22
ATOM     22  C   UNL A   1      30.733  24.855  24.046  1.00  0.00       nan C 
ATOM     23  C   UNL A   1      30.654  23.464  23.470  1.00  0.00       nan C 
ATOM     24  C   UNL A   1      31.279  23.689  24.833  1.00  0.00       nan C 
ENDBRANCH   7  22
ENDBRANCH   4   7
ENDBRANCH   2   3
ENDBRANCH   1   2
BRANCH   1  25
ATOM     25  C   UNL A   1      32.663  29.672  26.077  1.00  0.00       nan C 
BRANCH  25  26
ATOM     26  N   UNL A   1      32.527  31.092  26.376  1.00  0.00       nan N 
ATOM     27  C   UNL A   1      33.220  31.885  27.253  1.00  0.00       inf C 
ATOM     28  H   UNL A   1      31.823  31.556  25.866  1.00  0.00       inf HD
ATOM     29  O   UNL A   1      32.765  32.995  27.542  1.00  0.00    -0.269 OA
BRANCH  27  30
ATOM     30  C   UNL A   1      34.481  31.413  27.861  1.00  0.00     0.039 A 
ATOM     31  C   UNL A   1      35.543  32.306  28.006  1.00  0.00     0.014 A 
ATOM     32  C   UNL A   1      34.627  30.086  28.275  1.00  0.00     0.014 A 
ATOM     33  C   UNL A   1      36.718  31.886  28.630  1.00  0.00     0.010 A 
ATOM     34  C   UNL A   1      35.748  29.703  29.002  1.00  0.00     0.010 A 
ATOM     35  C   UNL A   1      36.813  30.594  29.176  1.00  0.00    -0.014 A 
BRANCH  35  36
ATOM     36  C   UNL A   1      38.025  30.166  29.921  1.00  0.00     0.031 A 
ATOM     37  C   UNL A   1      38.268  30.658  31.324  1.00  0.00     0.074 A 
ATOM     38  C   UNL A   1      38.924  29.367  29.313  1.00  0.00     0.049 A 
ATOM     39  N   UNL A   1      39.275  30.414  32.122  1.00  0.00    -0.248 NA
ATOM     40  C   UNL A   1      37.265  31.573  31.891  1.00  0.00     0.031 C 
ATOM     41  C   UNL A   1      38.827  28.884  27.933  1.00  0.00     0.029 A 
ATOM     42  N   UNL A   1      40.094  28.818  29.772  1.00  0.00    -0.354 N 
ATOM     43  C   UNL A   1      39.028  31.142  33.280  1.00  0.00     0.074 A 
ATOM     44  C   UNL A   1      37.820  31.903  33.046  1.00  0.00     0.031 C 
ATOM     45  C   UNL A   1      39.868  28.077  27.674  1.00  0.00     0.029 A 
ATOM     46  C   UNL A   1      40.731  28.022  28.848  1.00  0.00     0.049 A 
ATOM     47  H   UNL A   1      40.444  28.978  30.678  1.00  0.00     0.167 HD
ATOM     48  C   UNL A   1      39.723  31.150  34.444  1.00  0.00     0.034 A 
ATOM     49  C   UNL A   1      41.883  27.330  28.935  1.00  0.00     0.034 A 
ATOM     50  C   UNL A   1      40.923  30.379  34.662  1.00  0.00     0.049 A 
ATOM     51  C   UNL A   1      42.643  27.359  30.237  1.00  0.00     0.074 A 
ATOM     52  C   UNL A   1      41.687  30.275  35.811  1.00  0.00     0.029 A 
ATOM     53  N   UNL A   1      41.538  29.579  33.705  1.00  0.00    -0.354 N 
ATOM     54  N   UNL A   1      42.362  28.008  31.344  1.00  0.00    -0.248 NA
ATOM     55  C   UNL A   1      43.864  26.549  30.305  1.00  0.00     0.031 C 
ATOM     56  C   UNL A   1      42.797  29.471  35.530  1.00  0.00     0.029 A 
ATOM     57  C   UNL A   1      42.686  29.004  34.228  1.00  0.00     0.049 A 
ATOM     58  H   UNL A   1      41.207  29.442  32.788  1.00  0.00     0.167 HD
ATOM     59  C   UNL A   1      43.363  27.666  32.247  1.00  0.00     0.074 A 
ATOM     60  C   UNL A   1      44.231  26.727  31.565  1.00  0.00     0.031 C 
ATOM     61  C   UNL A   1      43.555  28.090  33.524  1.00  0.00     0.034 A 
BRANCH  48  62
ATOM     62  C   UNL A   1      39.205  32.031  35.559  1.00  0.00     0.023 A 
ATOM     63  C   UNL A   1      39.624  33.366  35.696  1.00  0.00     0.031 A 
ATOM     64  C   UNL A   1      38.303  31.526  36.511  1.00  0.00     0.131 A 
ATOM     65  C   UNL A   1      39.203  34.125  36.798  1.00  0.00     0.055 A 
ATOM     66  C   UNL A   1      37.821  32.313  37.558  1.00  0.00     0.041 A 
ATOM     67  F   UNL A   1      37.884  30.252  36.447  1.00  0.00    -0.206 F 
ATOM     68  C   UNL A   1      38.281  33.617  37.716  1.00  0.00     0.022 A 
BRANCH  65  69
ATOM     69  S   UNL A   1      39.987  35.734  37.093  1.00  0.00     0.124 S 
ATOM     70  O   UNL A   1      39.655  36.452  35.866  1.00  0.00    -0.237 OA
ATOM     71  O   UNL A   1      39.318  36.194  38.305  1.00  0.00    -0.237 OA
ATOM     72  O   UNL A   1      41.402  35.403  37.248  1.00  0.00    -0.744 OA
ENDBRANCH  65  69
ENDBRANCH  48  62
BRANCH  49  73
ATOM     73  C   UNL A   1      42.395  26.559  27.765  1.00  0.00     0.023 A 
ATOM     74  C   UNL A   1      42.007  25.228  27.545  1.00  0.00     0.031 A 
ATOM     75  C   UNL A   1      43.314  27.133  26.868  1.00  0.00     0.131 A 
ATOM     76  C   UNL A   1      42.576  24.498  26.489  1.00  0.00     0.055 A 
ATOM     77  C   UNL A   1      43.832  26.422  25.785  1.00  0.00     0.041 A 
ATOM     78  F   UNL A   1      43.713  28.406  27.026  1.00  0.00    -0.206 F 
ATOM     79  C   UNL A   1      43.474  25.090  25.599  1.00  0.00     0.022 A 
BRANCH  76  80
ATOM     80  S   UNL A   1      42.196  22.730  26.350  1.00  0.00     0.124 S 
ATOM     81  O   UNL A   1      42.666  22.428  25.003  1.00  0.00    -0.237 OA
ATOM     82  O   UNL A   1      42.979  22.166  27.446  1.00  0.00    -0.237 OA
ATOM     83  O   UNL A   1      40.747  22.679  26.534  1.00  0.00    -0.744 OA
ENDBRANCH  76  80
ENDBRANCH  49  73
BRANCH  61  84
ATOM     84  C   UNL A   1      44.742  27.514  34.257  1.00  0.00     0.023 A 
ATOM     85  C   UNL A   1      44.678  26.259  34.889  1.00  0.00     0.031 A 
ATOM     86  C   UNL A   1      45.938  28.245  34.363  1.00  0.00     0.131 A 
ATOM     87  C   UNL A   1      45.756  25.811  35.665  1.00  0.00     0.055 A 
ATOM     88  C   UNL A   1      47.036  27.760  35.075  1.00  0.00     0.041 A 
ATOM     89  F   UNL A   1      46.056  29.450  33.782  1.00  0.00    -0.206 F 
ATOM     90  C   UNL A   1      46.941  26.545  35.748  1.00  0.00     0.022 A 
BRANCH  87  91
ATOM     91  S   UNL A   1      45.537  24.318  36.672  1.00  0.00     0.124 S 
ATOM     92  O   UNL A   1      44.252  23.817  36.195  1.00  0.00    -0.237 OA
ATOM     93  O   UNL A   1      46.706  23.523  36.308  1.00  0.00    -0.237 OA
ATOM     94  O   UNL A   1      45.536  24.826  38.043  1.00  0.00    -0.744 OA
ENDBRANCH  87  91
ENDBRANCH  61  84
ENDBRANCH  35  36
ENDBRANCH  27  30
ENDBRANCH  25  26
ENDBRANCH   1  25
TORSDOF 17
ENDMDL
MODEL 2
REMARK VINA RESULT:     -11.6      2.018      2.309
REMARK SMILES [NH3+][C@@](C(=O)NCCCNC(=O)c1ccc(-c2c3nc(c(-c4cc(S(=O)(=O)[O-])ccc4F)c4ccc([nH]4)c(-c4cc(S(=O)(=O)[O-])ccc4F)c4nc(c(-c5cc(S(=O)(=O)[O-])ccc5F)c5ccc2[nH]5)C=C4)C=C3)cc1)(c1ccc([P@TB4](=O)([O-])[O-])cc1)C1CC1
REMARK SMILES IDX 7 1 6 2 5 3 3 4 4 5 2 7 1 8 75 12 76 13 84 14 77 15 83 16
REMARK SMILES IDX 78 17 79 18 80 19 81 20 82 21 85 22 86 23 87 24 8 25 9 26
REMARK SMILES IDX 10 27 11 29 12 30 13 31 74 32 14 33 73 34 15 35 16 36 17 37
REMARK SMILES IDX 67 38 18 39 72 40 66 41 68 42 19 43 71 44 65 45 64 46 20 48
REMARK SMILES IDX 52 49 32 50 51 51 33 52 36 53 50 54 69 55 34 56 35 57 49 59
REMARK SMILES IDX 70 60 37 61 21 62 22 63 30 64 23 65 29 66 31 67 28 68 24 69
REMARK SMILES IDX 25 70 26 71 27 72 53 73 54 74 62 75 55 76 61 77 63 78 60 79
REMARK SMILES IDX 56 80 57 81 58 82 59 83 38 84 39 85 47 86 40 87 46 88 48 89
REMARK SMILES IDX 45 90 41 91 42 92 43 93 44 94
REMARK H PARENT 5 6 1 9 1 10 1 11 9 28 68 47 36 58
REMARK Flexibility Score: inf
ROOT
ATOM      1  C   UNL A   1      31.714  29.156  25.931  1.00  0.00       nan C 
ENDROOT
BRANCH   1   2
ATOM      2  C   UNL A   1      31.494  27.655  25.955  1.00  0.00       nan C 
BRANCH   2   3
ATOM      3  N   UNL A   1      32.547  26.943  25.250  1.00  0.00       nan N 
ATOM      4  C   UNL A   1      32.614  26.322  24.035  1.00  0.00       nan C 
ATOM      5  O   UNL A   1      33.758  26.005  23.687  1.00  0.00       nan OA
ATOM      6  H   UNL A   1      33.391  26.899  25.756  1.00  0.00       nan HD
BRANCH   4   7
ATOM      7  C   UNL A   1      31.321  26.063  23.121  1.00  0.00       nan C 
BRANCH   7   8
ATOM      8  N   UNL A   1      31.732  25.547  21.783  1.00  0.00       nan N 
ATOM      9  H   UNL A   1      31.560  24.543  21.739  1.00  0.00       nan HD
ATOM     10  H   UNL A   1      32.725  25.729  21.640  1.00  0.00       nan HD
ATOM     11  H   UNL A   1      31.191  26.018  21.058  1.00  0.00       nan HD
ENDBRANCH   7   8
BRANCH   7  12
ATOM     12  C   UNL A   1      30.607  27.413  22.826  1.00  0.00       nan A 
ATOM     13  C   UNL A   1      31.222  28.547  22.292  1.00  0.00       nan A 
ATOM     14  C   UNL A   1      29.241  27.561  23.200  1.00  0.00       nan A 
ATOM     15  C   UNL A   1      30.538  29.747  22.133  1.00  0.00       nan A 
ATOM     16  C   UNL A   1      28.538  28.759  23.032  1.00  0.00       nan A 
ATOM     17  C   UNL A   1      29.196  29.861  22.504  1.00  0.00       nan A 
BRANCH  17  18
ATOM     18  P   UNL A   1      28.442  31.484  22.119  1.00  0.00       nan P 
ATOM     19  O   UNL A   1      27.805  30.985  20.819  1.00  0.00       nan OA
ATOM     20  O   UNL A   1      27.313  31.338  23.296  1.00  0.00       nan OA
ATOM     21  O   UNL A   1      27.731  33.018  21.755  1.00  0.00       nan OA
ENDBRANCH  17  18
ENDBRANCH   7  12
BRANCH   7  22
ATOM     22  C   UNL A   1      30.541  24.909  23.779  1.00  0.00       nan C 
ATOM     23  C   UNL A   1      30.715  23.449  23.447  1.00  0.00       nan C 
ATOM     24  C   UNL A   1      30.993  23.950  24.851  1.00  0.00       nan C 
ENDBRANCH   7  22
ENDBRANCH   4   7
ENDBRANCH   2   3
ENDBRANCH   1   2
BRANCH   1  25
ATOM     25  C   UNL A   1      32.869  29.606  26.811  1.00  0.00       nan C 
BRANCH  25  26
ATOM     26  N   UNL A   1      32.913  31.055  26.966  1.00  0.00       nan N 
ATOM     27  C   UNL A   1      33.795  31.848  27.653  1.00  0.00       inf C 
ATOM     28  H   UNL A   1      32.193  31.543  26.503  1.00  0.00       inf HD
ATOM     29  O   UNL A   1      33.493  33.024  27.874  1.00  0.00    -0.269 OA
BRANCH  27  30
ATOM     30  C   UNL A   1      35.077  31.301  28.142  1.00  0.00     0.039 A 
ATOM     31  C   UNL A   1      36.205  32.123  28.161  1.00  0.00     0.014 A 
ATOM     32  C   UNL A   1      35.177  29.974  28.569  1.00  0.00     0.014 A 
ATOM     33  C   UNL A   1      37.406  31.633  28.674  1.00  0.00     0.010 A 
ATOM     34  C   UNL A   1      36.337  29.527  29.189  1.00  0.00     0.010 A 
ATOM     35  C   UNL A   1      37.471  30.346  29.236  1.00  0.00    -0.014 A 
BRANCH  35  36
ATOM     36  C   UNL A   1      38.721  29.848  29.866  1.00  0.00     0.031 A 
ATOM     37  C   UNL A   1      39.153  30.367  31.212  1.00  0.00     0.074 A 
ATOM     38  C   UNL A   1      39.486  28.960  29.200  1.00  0.00     0.049 A 
ATOM     39  N   UNL A   1      40.219  30.070  31.909  1.00  0.00    -0.248 NA
ATOM     40  C   UNL A   1      38.290  31.378  31.843  1.00  0.00     0.031 C 
ATOM     41  C   UNL A   1      39.202  28.439  27.860  1.00  0.00     0.029 A 
ATOM     42  N   UNL A   1      40.653  28.335  29.555  1.00  0.00    -0.354 N 
ATOM     43  C   UNL A   1      40.157  30.855  33.054  1.00  0.00     0.074 A 
ATOM     44  C   UNL A   1      38.991  31.702  32.918  1.00  0.00     0.031 C 
ATOM     45  C   UNL A   1      40.144  27.543  27.526  1.00  0.00     0.029 A 
ATOM     46  C   UNL A   1      41.124  27.459  28.603  1.00  0.00     0.049 A 
ATOM     47  H   UNL A   1      41.112  28.497  30.411  1.00  0.00     0.167 HD
ATOM     48  C   UNL A   1      40.973  30.847  34.136  1.00  0.00     0.034 A 
ATOM     49  C   UNL A   1      42.223  26.681  28.597  1.00  0.00     0.034 A 
ATOM     50  C   UNL A   1      42.128  29.991  34.258  1.00  0.00     0.049 A 
ATOM     51  C   UNL A   1      43.120  26.694  29.808  1.00  0.00     0.074 A 
ATOM     52  C   UNL A   1      43.003  29.866  35.323  1.00  0.00     0.029 A 
ATOM     53  N   UNL A   1      42.572  29.112  33.276  1.00  0.00    -0.354 N 
ATOM     54  N   UNL A   1      43.011  27.401  30.910  1.00  0.00    -0.248 NA
ATOM     55  C   UNL A   1      44.276  25.792  29.780  1.00  0.00     0.031 C 
ATOM     56  C   UNL A   1      44.011  28.966  34.960  1.00  0.00     0.029 A 
ATOM     57  C   UNL A   1      43.724  28.465  33.698  1.00  0.00     0.049 A 
ATOM     58  H   UNL A   1      42.134  28.970  32.407  1.00  0.00     0.167 HD
ATOM     59  C   UNL A   1      44.077  27.011  31.716  1.00  0.00     0.074 A 
ATOM     60  C   UNL A   1      44.792  25.983  30.985  1.00  0.00     0.031 C 
ATOM     61  C   UNL A   1      44.438  27.461  32.945  1.00  0.00     0.034 A 
BRANCH  48  62
ATOM     62  C   UNL A   1      40.648  31.804  35.261  1.00  0.00     0.023 A 
ATOM     63  C   UNL A   1      39.574  31.570  36.138  1.00  0.00     0.031 A 
ATOM     64  C   UNL A   1      41.401  32.975  35.447  1.00  0.00     0.131 A 
ATOM     65  C   UNL A   1      39.236  32.525  37.108  1.00  0.00     0.055 A 
ATOM     66  C   UNL A   1      41.113  33.882  36.469  1.00  0.00     0.041 A 
ATOM     67  F   UNL A   1      42.425  33.267  34.629  1.00  0.00    -0.206 F 
ATOM     68  C   UNL A   1      40.016  33.668  37.298  1.00  0.00     0.022 A 
BRANCH  65  69
ATOM     69  S   UNL A   1      37.682  32.323  38.020  1.00  0.00     0.124 S 
ATOM     70  O   UNL A   1      36.773  33.162  37.244  1.00  0.00    -0.237 OA
ATOM     71  O   UNL A   1      37.452  30.885  37.938  1.00  0.00    -0.237 OA
ATOM     72  O   UNL A   1      37.998  32.829  39.355  1.00  0.00    -0.744 OA
ENDBRANCH  65  69
ENDBRANCH  48  62
BRANCH  49  73
ATOM     73  C   UNL A   1      42.543  25.833  27.413  1.00  0.00     0.023 A 
ATOM     74  C   UNL A   1      42.110  24.499  27.334  1.00  0.00     0.031 A 
ATOM     75  C   UNL A   1      43.325  26.333  26.356  1.00  0.00     0.131 A 
ATOM     76  C   UNL A   1      42.506  23.697  26.252  1.00  0.00     0.055 A 
ATOM     77  C   UNL A   1      43.666  25.548  25.253  1.00  0.00     0.041 A 
ATOM     78  F   UNL A   1      43.760  27.603  26.375  1.00  0.00    -0.206 F 
ATOM     79  C   UNL A   1      43.267  24.217  25.204  1.00  0.00     0.022 A 
BRANCH  76  80
ATOM     80  S   UNL A   1      42.085  21.932  26.279  1.00  0.00     0.124 S 
ATOM     81  O   UNL A   1      40.651  21.964  26.019  1.00  0.00    -0.237 OA
ATOM     82  O   UNL A   1      42.922  21.407  25.204  1.00  0.00    -0.237 OA
ATOM     83  O   UNL A   1      42.469  21.512  27.625  1.00  0.00    -0.744 OA
ENDBRANCH  76  80
ENDBRANCH  49  73
BRANCH  61  84
ATOM     84  C   UNL A   1      45.652  26.818  33.572  1.00  0.00     0.023 A 
ATOM     85  C   UNL A   1      46.944  27.336  33.373  1.00  0.00     0.031 A 
ATOM     86  C   UNL A   1      45.521  25.649  34.343  1.00  0.00     0.131 A 
ATOM     87  C   UNL A   1      48.058  26.644  33.867  1.00  0.00     0.055 A 
ATOM     88  C   UNL A   1      46.629  25.005  34.896  1.00  0.00     0.041 A 
ATOM     89  F   UNL A   1      44.312  25.108  34.566  1.00  0.00    -0.206 F 
ATOM     90  C   UNL A   1      47.909  25.491  34.641  1.00  0.00     0.022 A 
BRANCH  87  91
ATOM     91  S   UNL A   1      49.713  27.198  33.369  1.00  0.00     0.124 S 
ATOM     92  O   UNL A   1      49.440  27.860  32.097  1.00  0.00    -0.237 OA
ATOM     93  O   UNL A   1      50.094  28.071  34.474  1.00  0.00    -0.237 OA
ATOM     94  O   UNL A   1      50.475  25.954  33.270  1.00  0.00    -0.744 OA
ENDBRANCH  87  91
ENDBRANCH  61  84
ENDBRANCH  35  36
ENDBRANCH  27  30
ENDBRANCH  25  26
ENDBRANCH   1  25
TORSDOF 17
ENDMDL
MODEL 3
REMARK VINA RESULT:     -11.6      5.600     10.572
REMARK SMILES [NH3+][C@@](C(=O)NCCCNC(=O)c1ccc(-c2c3nc(c(-c4cc(S(=O)(=O)[O-])ccc4F)c4ccc([nH]4)c(-c4cc(S(=O)(=O)[O-])ccc4F)c4nc(c(-c5cc(S(=O)(=O)[O-])ccc5F)c5ccc2[nH]5)C=C4)C=C3)cc1)(c1ccc([P@TB4](=O)([O-])[O-])cc1)C1CC1
REMARK SMILES IDX 7 1 6 2 5 3 3 4 4 5 2 7 1 8 75 12 76 13 84 14 77 15 83 16
REMARK SMILES IDX 78 17 79 18 80 19 81 20 82 21 85 22 86 23 87 24 8 25 9 26
REMARK SMILES IDX 10 27 11 29 12 30 13 31 74 32 14 33 73 34 15 35 16 36 17 37
REMARK SMILES IDX 67 38 18 39 72 40 66 41 68 42 19 43 71 44 65 45 64 46 20 48
REMARK SMILES IDX 52 49 32 50 51 51 33 52 36 53 50 54 69 55 34 56 35 57 49 59
REMARK SMILES IDX 70 60 37 61 21 62 22 63 30 64 23 65 29 66 31 67 28 68 24 69
REMARK SMILES IDX 25 70 26 71 27 72 53 73 54 74 62 75 55 76 61 77 63 78 60 79
REMARK SMILES IDX 56 80 57 81 58 82 59 83 38 84 39 85 47 86 40 87 46 88 48 89
REMARK SMILES IDX 45 90 41 91 42 92 43 93 44 94
REMARK H PARENT 5 6 1 9 1 10 1 11 9 28 68 47 36 58
REMARK Flexibility Score: inf
ROOT
ATOM      1  C   UNL A   1      36.483  22.633  23.839  1.00  0.00       nan C 
ENDROOT
BRANCH   1   2
ATOM      2  C   UNL A   1      35.123  23.199  23.480  1.00  0.00       nan C 
BRANCH   2   3
ATOM      3  N   UNL A   1      34.563  23.990  24.565  1.00  0.00       nan N 
ATOM      4  C   UNL A   1      33.358  23.987  25.208  1.00  0.00       nan C 
ATOM      5  O   UNL A   1      33.327  24.678  26.234  1.00  0.00       nan OA
ATOM      6  H   UNL A   1      35.185  24.672  24.907  1.00  0.00       nan HD
BRANCH   4   7
ATOM      7  C   UNL A   1      32.104  23.128  24.697  1.00  0.00       nan C 
BRANCH   7   8
ATOM      8  N   UNL A   1      30.980  23.228  25.671  1.00  0.00       nan N 
ATOM      9  H   UNL A   1      30.215  23.758  25.255  1.00  0.00       nan HD
ATOM     10  H   UNL A   1      31.303  23.703  26.515  1.00  0.00       nan HD
ATOM     11  H   UNL A   1      30.655  22.291  25.912  1.00  0.00       nan HD
ENDBRANCH   7   8
BRANCH   7  12
ATOM     12  C   UNL A   1      32.477  21.618  24.671  1.00  0.00       nan A 
ATOM     13  C   UNL A   1      33.169  20.945  25.679  1.00  0.00       nan A 
ATOM     14  C   UNL A   1      32.177  20.858  23.505  1.00  0.00       nan A 
ATOM     15  C   UNL A   1      33.540  19.611  25.550  1.00  0.00       nan A 
ATOM     16  C   UNL A   1      32.533  19.512  23.368  1.00  0.00       nan A 
ATOM     17  C   UNL A   1      33.228  18.888  24.395  1.00  0.00       nan A 
BRANCH  17  18
ATOM     18  P   UNL A   1      33.706  17.123  24.458  1.00  0.00       nan P 
ATOM     19  O   UNL A   1      32.390  16.694  25.116  1.00  0.00       nan OA
ATOM     20  O   UNL A   1      33.524  16.925  22.843  1.00  0.00       nan OA
ATOM     21  O   UNL A   1      34.157  15.454  24.518  1.00  0.00       nan OA
ENDBRANCH  17  18
ENDBRANCH   7  12
BRANCH   7  22
ATOM     22  C   UNL A   1      31.593  23.814  23.416  1.00  0.00       nan C 
ATOM     23  C   UNL A   1      30.316  24.609  23.312  1.00  0.00       nan C 
ATOM     24  C   UNL A   1      31.651  25.272  23.034  1.00  0.00       nan C 
ENDBRANCH   7  22
ENDBRANCH   4   7
ENDBRANCH   2   3
ENDBRANCH   1   2
BRANCH   1  25
ATOM     25  C   UNL A   1      36.668  22.415  25.332  1.00  0.00       nan C 
BRANCH  25  26
ATOM     26  N   UNL A   1      37.638  21.366  25.622  1.00  0.00       nan N 
ATOM     27  C   UNL A   1      38.934  21.452  26.059  1.00  0.00       inf C 
ATOM     28  H   UNL A   1      37.309  20.449  25.480  1.00  0.00       inf HD
ATOM     29  O   UNL A   1      39.657  20.455  25.982  1.00  0.00    -0.269 OA
BRANCH  27  30
ATOM     30  C   UNL A   1      39.466  22.722  26.593  1.00  0.00     0.039 A 
ATOM     31  C   UNL A   1      40.480  22.686  27.552  1.00  0.00     0.014 A 
ATOM     32  C   UNL A   1      38.959  23.952  26.165  1.00  0.00     0.014 A 
ATOM     33  C   UNL A   1      41.029  23.879  28.021  1.00  0.00     0.010 A 
ATOM     34  C   UNL A   1      39.586  25.133  26.542  1.00  0.00     0.010 A 
ATOM     35  C   UNL A   1      40.620  25.113  27.485  1.00  0.00    -0.014 A 
BRANCH  35  36
ATOM     36  C   UNL A   1      41.260  26.383  27.912  1.00  0.00     0.031 A 
ATOM     37  C   UNL A   1      42.691  26.675  27.542  1.00  0.00     0.074 A 
ATOM     38  C   UNL A   1      40.562  27.251  28.671  1.00  0.00     0.049 A 
ATOM     39  N   UNL A   1      43.426  27.715  27.841  1.00  0.00    -0.248 NA
ATOM     40  C   UNL A   1      43.399  25.648  26.761  1.00  0.00     0.031 C 
ATOM     41  C   UNL A   1      39.192  27.042  29.148  1.00  0.00     0.029 A 
ATOM     42  N   UNL A   1      40.900  28.481  29.173  1.00  0.00    -0.354 N 
ATOM     43  C   UNL A   1      44.678  27.468  27.289  1.00  0.00     0.074 A 
ATOM     44  C   UNL A   1      44.626  26.142  26.710  1.00  0.00     0.031 C 
ATOM     45  C   UNL A   1      38.794  28.124  29.835  1.00  0.00     0.029 A 
ATOM     46  C   UNL A   1      39.891  29.083  29.890  1.00  0.00     0.049 A 
ATOM     47  H   UNL A   1      41.782  28.895  29.034  1.00  0.00     0.167 HD
ATOM     48  C   UNL A   1      45.760  28.282  27.238  1.00  0.00     0.034 A 
ATOM     49  C   UNL A   1      39.856  30.271  30.523  1.00  0.00     0.034 A 
ATOM     50  C   UNL A   1      45.792  29.604  27.815  1.00  0.00     0.049 A 
ATOM     51  C   UNL A   1      41.074  31.157  30.458  1.00  0.00     0.074 A 
ATOM     52  C   UNL A   1      46.816  30.535  27.788  1.00  0.00     0.029 A 
ATOM     53  N   UNL A   1      44.750  30.184  28.529  1.00  0.00    -0.354 N 
ATOM     54  N   UNL A   1      42.231  30.931  29.878  1.00  0.00    -0.248 NA
ATOM     55  C   UNL A   1      40.973  32.464  31.116  1.00  0.00     0.031 C 
ATOM     56  C   UNL A   1      46.420  31.645  28.541  1.00  0.00     0.029 A 
ATOM     57  C   UNL A   1      45.117  31.446  28.972  1.00  0.00     0.049 A 
ATOM     58  H   UNL A   1      43.877  29.761  28.697  1.00  0.00     0.167 HD
ATOM     59  C   UNL A   1      42.989  32.079  30.086  1.00  0.00     0.074 A 
ATOM     60  C   UNL A   1      42.144  33.006  30.812  1.00  0.00     0.031 C 
ATOM     61  C   UNL A   1      44.269  32.347  29.718  1.00  0.00     0.034 A 
BRANCH  48  62
ATOM     62  C   UNL A   1      46.996  27.755  26.544  1.00  0.00     0.023 A 
ATOM     63  C   UNL A   1      47.234  27.999  25.180  1.00  0.00     0.031 A 
ATOM     64  C   UNL A   1      47.935  26.978  27.244  1.00  0.00     0.131 A 
ATOM     65  C   UNL A   1      48.338  27.412  24.543  1.00  0.00     0.055 A 
ATOM     66  C   UNL A   1      49.077  26.468  26.624  1.00  0.00     0.041 A 
ATOM     67  F   UNL A   1      47.752  26.691  28.543  1.00  0.00    -0.206 F 
ATOM     68  C   UNL A   1      49.277  26.670  25.262  1.00  0.00     0.022 A 
BRANCH  65  69
ATOM     69  S   UNL A   1      48.450  27.513  22.735  1.00  0.00     0.124 S 
ATOM     70  O   UNL A   1      48.472  26.102  22.362  1.00  0.00    -0.237 OA
ATOM     71  O   UNL A   1      47.241  28.249  22.384  1.00  0.00    -0.237 OA
ATOM     72  O   UNL A   1      49.704  28.230  22.509  1.00  0.00    -0.744 OA
ENDBRANCH  65  69
ENDBRANCH  48  62
BRANCH  49  73
ATOM     73  C   UNL A   1      38.640  30.693  31.276  1.00  0.00     0.023 A 
ATOM     74  C   UNL A   1      37.559  31.309  30.625  1.00  0.00     0.031 A 
ATOM     75  C   UNL A   1      38.557  30.521  32.669  1.00  0.00     0.131 A 
ATOM     76  C   UNL A   1      36.467  31.779  31.373  1.00  0.00     0.055 A 
ATOM     77  C   UNL A   1      37.443  30.937  33.400  1.00  0.00     0.041 A 
ATOM     78  F   UNL A   1      39.559  29.931  33.341  1.00  0.00    -0.206 F 
ATOM     79  C   UNL A   1      36.396  31.584  32.753  1.00  0.00     0.022 A 
BRANCH  76  80
ATOM     80  S   UNL A   1      35.180  32.735  30.525  1.00  0.00     0.124 S 
ATOM     81  O   UNL A   1      35.904  33.944  30.150  1.00  0.00    -0.237 OA
ATOM     82  O   UNL A   1      34.813  31.841  29.430  1.00  0.00    -0.237 OA
ATOM     83  O   UNL A   1      34.155  32.911  31.551  1.00  0.00    -0.744 OA
ENDBRANCH  76  80
ENDBRANCH  49  73
BRANCH  61  84
ATOM     84  C   UNL A   1      44.808  33.708  30.083  1.00  0.00     0.023 A 
ATOM     85  C   UNL A   1      44.670  34.809  29.218  1.00  0.00     0.031 A 
ATOM     86  C   UNL A   1      45.506  33.899  31.288  1.00  0.00     0.131 A 
ATOM     87  C   UNL A   1      45.290  36.027  29.532  1.00  0.00     0.055 A 
ATOM     88  C   UNL A   1      46.057  35.135  31.631  1.00  0.00     0.041 A 
ATOM     89  F   UNL A   1      45.670  32.884  32.151  1.00  0.00    -0.206 F 
ATOM     90  C   UNL A   1      45.968  36.202  30.741  1.00  0.00     0.022 A 
BRANCH  87  91
ATOM     91  S   UNL A   1      45.311  37.337  28.278  1.00  0.00     0.124 S 
ATOM     92  O   UNL A   1      46.025  36.694  27.180  1.00  0.00    -0.237 OA
ATOM     93  O   UNL A   1      43.889  37.581  28.059  1.00  0.00    -0.237 OA
ATOM     94  O   UNL A   1      46.033  38.427  28.934  1.00  0.00    -0.744 OA
ENDBRANCH  87  91
ENDBRANCH  61  84
ENDBRANCH  35  36
ENDBRANCH  27  30
ENDBRANCH  25  26
ENDBRANCH   1  25
TORSDOF 17
ENDMDL
