MODEL 1
REMARK VINA RESULT:     -11.2      0.000      0.000
REMARK SMILES CCC(C)(C)NC(=O)[C@@H](C)Oc1ccc(C)nc1C(=O)NCCCNC(=O)c1ccc(-c2c3nc(c(-c4cc(S(=O)(=O)[O-])ccc4F)c4ccc([nH]4)c(-c4cc(S(=O)(=O)[O-])ccc4F)c4nc(c(-c5cc(S(=O)(=O)[O-])ccc5F)c5ccc2[nH]5)C=C4)C=C3)cc1
REMARK SMILES IDX 22 1 21 2 19 3 20 4 18 6 12 7 13 8 14 9 17 10 15 11 16 12
REMARK SMILES IDX 11 13 9 14 10 15 7 16 6 17 8 19 3 20 4 21 5 22 2 23 1 24
REMARK SMILES IDX 23 25 24 26 25 27 26 28 27 30 28 31 29 32 90 33 30 34 89 35
REMARK SMILES IDX 31 36 32 37 33 38 83 39 34 40 88 41 82 42 84 43 35 44 87 45
REMARK SMILES IDX 81 46 80 47 36 49 68 50 48 51 67 52 49 53 52 54 66 55 85 56
REMARK SMILES IDX 50 57 51 58 65 60 86 61 53 62 37 63 38 64 46 65 39 66 45 67
REMARK SMILES IDX 47 68 44 69 40 70 41 71 42 72 43 73 69 74 70 75 78 76 71 77
REMARK SMILES IDX 77 78 79 79 76 80 72 81 73 82 74 83 75 84 54 85 55 86 63 87
REMARK SMILES IDX 56 88 62 89 64 90 61 91 57 92 58 93 59 94 60 95
REMARK H PARENT 21 5 6 18 25 29 84 48 52 59
REMARK Flexibility Score: inf
ROOT
ATOM      1  C   UNL A   1      34.279  23.745  26.160  1.00  0.00     0.118 C 
ENDROOT
BRANCH   1   2
ATOM      2  N   UNL A   1      34.366  24.591  24.989  1.00  0.00    -0.351 N 
ATOM      3  C   UNL A   1      33.810  25.801  24.644  1.00  0.00     0.273 C 
ATOM      4  O   UNL A   1      34.035  26.151  23.480  1.00  0.00    -0.267 OA
ATOM      5  H   UNL A   1      34.948  24.221  24.287  1.00  0.00     0.163 HD
BRANCH   3   6
ATOM      6  C   UNL A   1      33.070  26.747  25.564  1.00  0.00     0.170 A 
ATOM      7  C   UNL A   1      31.688  26.905  25.715  1.00  0.00     0.151 A 
ATOM      8  C   UNL A   1      31.259  27.634  26.826  1.00  0.00     0.051 A 
ATOM      9  C   UNL A   1      32.163  28.436  27.529  1.00  0.00     0.027 A 
ATOM     10  N   UNL A   1      33.946  27.563  26.230  1.00  0.00    -0.244 NA
ATOM     11  C   UNL A   1      33.476  28.471  27.103  1.00  0.00     0.038 A 
ATOM     12  C   UNL A   1      34.407  29.579  27.489  1.00  0.00     0.067 C 
BRANCH   7  13
ATOM     13  O   UNL A   1      30.859  26.497  24.715  1.00  0.00    -0.478 OA
BRANCH  13  14
ATOM     14  C   UNL A   1      30.572  27.296  23.577  1.00  0.00     0.259 C 
ATOM     15  C   UNL A   1      30.963  26.530  22.292  1.00  0.00     0.064 C 
BRANCH  14  16
ATOM     16  C   UNL A   1      31.033  28.750  23.315  1.00  0.00     0.261 C 
ATOM     17  N   UNL A   1      30.252  29.823  23.621  1.00  0.00    -0.348 N 
ATOM     18  H   UNL A   1      30.560  30.323  24.411  1.00  0.00     0.164 HD
ATOM     19  O   UNL A   1      32.210  28.978  23.008  1.00  0.00    -0.271 OA
BRANCH  17  20
ATOM     20  C   UNL A   1      29.030  30.386  23.000  1.00  0.00     0.034 C 
ATOM     21  C   UNL A   1      27.925  29.304  23.109  1.00  0.00     0.034 C 
ATOM     22  C   UNL A   1      29.357  30.536  21.496  1.00  0.00     0.034 C 
BRANCH  20  23
ATOM     23  C   UNL A   1      28.433  31.738  23.487  1.00  0.00     0.024 C 
ATOM     24  C   UNL A   1      28.632  33.024  22.706  1.00  0.00     0.006 C 
ENDBRANCH  20  23
ENDBRANCH  17  20
ENDBRANCH  14  16
ENDBRANCH  13  14
ENDBRANCH   7  13
ENDBRANCH   3   6
ENDBRANCH   1   2
BRANCH   1  25
ATOM     25  C   UNL A   1      35.403  22.712  26.138  1.00  0.00     0.042 C 
BRANCH  25  26
ATOM     26  C   UNL A   1      36.751  23.249  25.672  1.00  0.00     0.118 C 
BRANCH  26  27
ATOM     27  N   UNL A   1      37.826  22.351  26.069  1.00  0.00    -0.352 N 
ATOM     28  C   UNL A   1      39.127  22.622  26.419  1.00  0.00     0.251 C 
ATOM     29  H   UNL A   1      37.582  21.398  26.089  1.00  0.00     0.163 HD
ATOM     30  O   UNL A   1      39.949  21.713  26.362  1.00  0.00    -0.269 OA
BRANCH  28  31
ATOM     31  C   UNL A   1      39.549  23.978  26.859  1.00  0.00     0.039 A 
ATOM     32  C   UNL A   1      39.361  24.338  28.199  1.00  0.00     0.014 A 
ATOM     33  C   UNL A   1      40.042  24.925  25.959  1.00  0.00     0.014 A 
ATOM     34  C   UNL A   1      39.708  25.621  28.639  1.00  0.00     0.010 A 
ATOM     35  C   UNL A   1      40.459  26.177  26.413  1.00  0.00     0.010 A 
ATOM     36  C   UNL A   1      40.289  26.543  27.757  1.00  0.00    -0.014 A 
BRANCH  36  37
ATOM     37  C   UNL A   1      40.706  27.901  28.206  1.00  0.00     0.031 A 
ATOM     38  C   UNL A   1      42.167  28.270  28.231  1.00  0.00     0.074 A 
ATOM     39  C   UNL A   1      39.780  28.778  28.643  1.00  0.00     0.049 A 
ATOM     40  N   UNL A   1      42.744  29.340  28.715  1.00  0.00    -0.248 NA
ATOM     41  C   UNL A   1      43.104  27.292  27.654  1.00  0.00     0.031 C 
ATOM     42  C   UNL A   1      38.336  28.536  28.675  1.00  0.00     0.029 A 
ATOM     43  N   UNL A   1      39.912  30.044  29.159  1.00  0.00    -0.354 N 
ATOM     44  C   UNL A   1      44.109  29.165  28.505  1.00  0.00     0.074 A 
ATOM     45  C   UNL A   1      44.276  27.856  27.910  1.00  0.00     0.031 C 
ATOM     46  C   UNL A   1      37.718  29.619  29.170  1.00  0.00     0.029 A 
ATOM     47  C   UNL A   1      38.719  30.611  29.548  1.00  0.00     0.049 A 
ATOM     48  H   UNL A   1      40.779  30.503  29.244  1.00  0.00     0.167 HD
ATOM     49  C   UNL A   1      45.126  30.026  28.760  1.00  0.00     0.034 A 
ATOM     50  C   UNL A   1      38.464  31.783  30.164  1.00  0.00     0.034 A 
ATOM     51  C   UNL A   1      44.946  31.330  29.350  1.00  0.00     0.049 A 
ATOM     52  C   UNL A   1      39.623  32.691  30.506  1.00  0.00     0.074 A 
ATOM     53  C   UNL A   1      45.904  32.285  29.642  1.00  0.00     0.029 A 
ATOM     54  N   UNL A   1      43.724  31.864  29.740  1.00  0.00    -0.354 N 
ATOM     55  N   UNL A   1      40.905  32.514  30.283  1.00  0.00    -0.248 NA
ATOM     56  C   UNL A   1      39.299  33.957  31.176  1.00  0.00     0.031 C 
ATOM     57  C   UNL A   1      45.271  33.368  30.262  1.00  0.00     0.029 A 
ATOM     58  C   UNL A   1      43.909  33.122  30.289  1.00  0.00     0.049 A 
ATOM     59  H   UNL A   1      42.855  31.413  29.640  1.00  0.00     0.167 HD
ATOM     60  C   UNL A   1      41.533  33.665  30.753  1.00  0.00     0.074 A 
ATOM     61  C   UNL A   1      40.488  34.536  31.249  1.00  0.00     0.031 C 
ATOM     62  C   UNL A   1      42.853  33.978  30.777  1.00  0.00     0.034 A 
BRANCH  49  63
ATOM     63  C   UNL A   1      46.524  29.578  28.408  1.00  0.00     0.023 A 
ATOM     64  C   UNL A   1      47.294  28.814  29.302  1.00  0.00     0.031 A 
ATOM     65  C   UNL A   1      47.098  29.916  27.169  1.00  0.00     0.131 A 
ATOM     66  C   UNL A   1      48.613  28.467  28.973  1.00  0.00     0.055 A 
ATOM     67  C   UNL A   1      48.383  29.499  26.815  1.00  0.00     0.041 A 
ATOM     68  F   UNL A   1      46.419  30.660  26.282  1.00  0.00    -0.206 F 
ATOM     69  C   UNL A   1      49.154  28.781  27.724  1.00  0.00     0.022 A 
BRANCH  66  70
ATOM     70  S   UNL A   1      49.651  27.704  30.249  1.00  0.00     0.124 S 
ATOM     71  O   UNL A   1      48.962  26.435  30.469  1.00  0.00    -0.237 OA
ATOM     72  O   UNL A   1      50.950  27.620  29.591  1.00  0.00    -0.237 OA
ATOM     73  O   UNL A   1      49.575  28.647  31.363  1.00  0.00    -0.744 OA
ENDBRANCH  66  70
ENDBRANCH  49  63
BRANCH  50  74
ATOM     74  C   UNL A   1      37.070  32.168  30.538  1.00  0.00     0.023 A 
ATOM     75  C   UNL A   1      36.193  32.714  29.588  1.00  0.00     0.031 A 
ATOM     76  C   UNL A   1      36.622  32.082  31.869  1.00  0.00     0.131 A 
ATOM     77  C   UNL A   1      34.949  33.223  29.991  1.00  0.00     0.055 A 
ATOM     78  C   UNL A   1      35.354  32.523  32.253  1.00  0.00     0.041 A 
ATOM     79  F   UNL A   1      37.416  31.569  32.824  1.00  0.00    -0.206 F 
ATOM     80  C   UNL A   1      34.517  33.117  31.315  1.00  0.00     0.022 A 
BRANCH  77  81
ATOM     81  S   UNL A   1      33.965  34.157  28.786  1.00  0.00     0.124 S 
ATOM     82  O   UNL A   1      34.913  35.180  28.360  1.00  0.00    -0.237 OA
ATOM     83  O   UNL A   1      33.641  33.130  27.802  1.00  0.00    -0.237 OA
ATOM     84  O   UNL A   1      32.834  34.642  29.575  1.00  0.00    -0.744 OA
ENDBRANCH  77  81
ENDBRANCH  50  74
BRANCH  62  85
ATOM     85  C   UNL A   1      43.227  35.339  31.312  1.00  0.00     0.023 A 
ATOM     86  C   UNL A   1      43.470  36.428  30.457  1.00  0.00     0.031 A 
ATOM     87  C   UNL A   1      43.353  35.543  32.698  1.00  0.00     0.131 A 
ATOM     88  C   UNL A   1      43.884  37.656  30.993  1.00  0.00     0.055 A 
ATOM     89  C   UNL A   1      43.702  36.785  33.229  1.00  0.00     0.041 A 
ATOM     90  F   UNL A   1      43.134  34.537  33.560  1.00  0.00    -0.206 F 
ATOM     91  C   UNL A   1      43.984  37.847  32.373  1.00  0.00     0.022 A 
BRANCH  88  92
ATOM     92  S   UNL A   1      44.379  38.979  29.854  1.00  0.00     0.124 S 
ATOM     93  O   UNL A   1      45.430  38.332  29.076  1.00  0.00    -0.237 OA
ATOM     94  O   UNL A   1      43.136  39.257  29.140  1.00  0.00    -0.237 OA
ATOM     95  O   UNL A   1      44.832  40.046  30.744  1.00  0.00    -0.744 OA
ENDBRANCH  88  92
ENDBRANCH  62  85
ENDBRANCH  36  37
ENDBRANCH  28  31
ENDBRANCH  26  27
ENDBRANCH  25  26
ENDBRANCH   1  25
TORSDOF 18
ENDMDL
MODEL 2
REMARK VINA RESULT:     -11.1      3.589      9.075
REMARK SMILES CCC(C)(C)NC(=O)[C@@H](C)Oc1ccc(C)nc1C(=O)NCCCNC(=O)c1ccc(-c2c3nc(c(-c4cc(S(=O)(=O)[O-])ccc4F)c4ccc([nH]4)c(-c4cc(S(=O)(=O)[O-])ccc4F)c4nc(c(-c5cc(S(=O)(=O)[O-])ccc5F)c5ccc2[nH]5)C=C4)C=C3)cc1
REMARK SMILES IDX 22 1 21 2 19 3 20 4 18 6 12 7 13 8 14 9 17 10 15 11 16 12
REMARK SMILES IDX 11 13 9 14 10 15 7 16 6 17 8 19 3 20 4 21 5 22 2 23 1 24
REMARK SMILES IDX 23 25 24 26 25 27 26 28 27 30 28 31 29 32 90 33 30 34 89 35
REMARK SMILES IDX 31 36 32 37 33 38 83 39 34 40 88 41 82 42 84 43 35 44 87 45
REMARK SMILES IDX 81 46 80 47 36 49 68 50 48 51 67 52 49 53 52 54 66 55 85 56
REMARK SMILES IDX 50 57 51 58 65 60 86 61 53 62 37 63 38 64 46 65 39 66 45 67
REMARK SMILES IDX 47 68 44 69 40 70 41 71 42 72 43 73 69 74 70 75 78 76 71 77
REMARK SMILES IDX 77 78 79 79 76 80 72 81 73 82 74 83 75 84 54 85 55 86 63 87
REMARK SMILES IDX 56 88 62 89 64 90 61 91 57 92 58 93 59 94 60 95
REMARK H PARENT 21 5 6 18 25 29 84 48 52 59
REMARK Flexibility Score: inf
ROOT
ATOM      1  C   UNL A   1      37.123  21.069  24.605  1.00  0.00     0.118 C 
ENDROOT
BRANCH   1   2
ATOM      2  N   UNL A   1      36.295  21.390  25.749  1.00  0.00    -0.351 N 
ATOM      3  C   UNL A   1      34.938  21.452  25.955  1.00  0.00     0.273 C 
ATOM      4  O   UNL A   1      34.611  21.891  27.064  1.00  0.00    -0.267 OA
ATOM      5  H   UNL A   1      36.818  21.613  26.553  1.00  0.00     0.163 HD
BRANCH   3   6
ATOM      6  C   UNL A   1      33.860  20.949  25.020  1.00  0.00     0.170 A 
ATOM      7  C   UNL A   1      32.943  21.696  24.272  1.00  0.00     0.151 A 
ATOM      8  C   UNL A   1      32.246  21.013  23.274  1.00  0.00     0.051 A 
ATOM      9  C   UNL A   1      32.219  19.615  23.269  1.00  0.00     0.027 A 
ATOM     10  N   UNL A   1      33.801  19.580  25.037  1.00  0.00    -0.244 NA
ATOM     11  C   UNL A   1      32.907  18.944  24.261  1.00  0.00     0.038 A 
ATOM     12  C   UNL A   1      32.612  17.516  24.604  1.00  0.00     0.067 C 
BRANCH   7  13
ATOM     13  O   UNL A   1      32.662  22.973  24.650  1.00  0.00    -0.478 OA
BRANCH  13  14
ATOM     14  C   UNL A   1      31.365  23.390  25.052  1.00  0.00     0.259 C 
ATOM     15  C   UNL A   1      30.681  24.151  23.892  1.00  0.00     0.064 C 
BRANCH  14  16
ATOM     16  C   UNL A   1      30.994  24.201  26.316  1.00  0.00     0.261 C 
ATOM     17  N   UNL A   1      30.755  25.541  26.272  1.00  0.00    -0.348 N 
ATOM     18  H   UNL A   1      29.804  25.776  26.366  1.00  0.00     0.164 HD
ATOM     19  O   UNL A   1      30.706  23.611  27.365  1.00  0.00    -0.271 OA
BRANCH  17  20
ATOM     20  C   UNL A   1      31.645  26.716  26.109  1.00  0.00     0.034 C 
ATOM     21  C   UNL A   1      31.477  27.592  27.376  1.00  0.00     0.034 C 
ATOM     22  C   UNL A   1      31.057  27.523  24.929  1.00  0.00     0.034 C 
BRANCH  20  23
ATOM     23  C   UNL A   1      33.167  26.537  25.843  1.00  0.00     0.024 C 
ATOM     24  C   UNL A   1      34.014  27.659  25.271  1.00  0.00     0.006 C 
ENDBRANCH  20  23
ENDBRANCH  17  20
ENDBRANCH  14  16
ENDBRANCH  13  14
ENDBRANCH   7  13
ENDBRANCH   3   6
ENDBRANCH   1   2
BRANCH   1  25
ATOM     25  C   UNL A   1      38.122  19.977  24.978  1.00  0.00     0.042 C 
BRANCH  25  26
ATOM     26  C   UNL A   1      39.099  20.360  26.083  1.00  0.00     0.118 C 
BRANCH  26  27
ATOM     27  N   UNL A   1      40.240  19.457  26.095  1.00  0.00    -0.352 N 
ATOM     28  C   UNL A   1      41.586  19.724  26.018  1.00  0.00     0.251 C 
ATOM     29  H   UNL A   1      40.011  18.502  26.170  1.00  0.00     0.163 HD
ATOM     30  O   UNL A   1      42.343  18.819  25.680  1.00  0.00    -0.269 OA
BRANCH  28  31
ATOM     31  C   UNL A   1      42.132  21.069  26.332  1.00  0.00     0.039 A 
ATOM     32  C   UNL A   1      42.432  21.379  27.664  1.00  0.00     0.014 A 
ATOM     33  C   UNL A   1      42.271  22.056  25.353  1.00  0.00     0.014 A 
ATOM     34  C   UNL A   1      42.908  22.652  28.003  1.00  0.00     0.010 A 
ATOM     35  C   UNL A   1      42.818  23.298  25.678  1.00  0.00     0.010 A 
ATOM     36  C   UNL A   1      43.135  23.614  27.008  1.00  0.00    -0.014 A 
BRANCH  36  37
ATOM     37  C   UNL A   1      43.680  24.962  27.333  1.00  0.00     0.031 A 
ATOM     38  C   UNL A   1      42.771  26.026  27.892  1.00  0.00     0.074 A 
ATOM     39  C   UNL A   1      44.972  25.245  27.074  1.00  0.00     0.049 A 
ATOM     40  N   UNL A   1      43.014  27.293  28.110  1.00  0.00    -0.248 NA
ATOM     41  C   UNL A   1      41.400  25.611  28.231  1.00  0.00     0.031 C 
ATOM     42  C   UNL A   1      45.950  24.302  26.525  1.00  0.00     0.029 A 
ATOM     43  N   UNL A   1      45.686  26.409  27.220  1.00  0.00    -0.354 N 
ATOM     44  C   UNL A   1      41.829  27.829  28.606  1.00  0.00     0.074 A 
ATOM     45  C   UNL A   1      40.851  26.761  28.595  1.00  0.00     0.031 C 
ATOM     46  C   UNL A   1      47.134  24.921  26.395  1.00  0.00     0.029 A 
ATOM     47  C   UNL A   1      46.991  26.318  26.791  1.00  0.00     0.049 A 
ATOM     48  H   UNL A   1      45.300  27.233  27.597  1.00  0.00     0.167 HD
ATOM     49  C   UNL A   1      41.585  29.085  29.056  1.00  0.00     0.034 A 
ATOM     50  C   UNL A   1      47.953  27.257  26.700  1.00  0.00     0.034 A 
ATOM     51  C   UNL A   1      42.569  30.139  29.065  1.00  0.00     0.049 A 
ATOM     52  C   UNL A   1      47.633  28.669  27.135  1.00  0.00     0.074 A 
ATOM     53  C   UNL A   1      42.433  31.445  29.506  1.00  0.00     0.029 A 
ATOM     54  N   UNL A   1      43.876  30.011  28.612  1.00  0.00    -0.354 N 
ATOM     55  N   UNL A   1      46.510  29.150  27.618  1.00  0.00    -0.248 NA
ATOM     56  C   UNL A   1      48.710  29.660  27.019  1.00  0.00     0.031 C 
ATOM     57  C   UNL A   1      43.634  32.119  29.264  1.00  0.00     0.029 A 
ATOM     58  C   UNL A   1      44.546  31.217  28.742  1.00  0.00     0.049 A 
ATOM     59  H   UNL A   1      44.268  29.183  28.251  1.00  0.00     0.167 HD
ATOM     60  C   UNL A   1      46.763  30.492  27.897  1.00  0.00     0.074 A 
ATOM     61  C   UNL A   1      48.147  30.735  27.550  1.00  0.00     0.031 C 
ATOM     62  C   UNL A   1      45.929  31.440  28.393  1.00  0.00     0.034 A 
BRANCH  49  63
ATOM     63  C   UNL A   1      40.196  29.388  29.564  1.00  0.00     0.023 A 
ATOM     64  C   UNL A   1      39.914  29.426  30.941  1.00  0.00     0.031 A 
ATOM     65  C   UNL A   1      39.141  29.641  28.670  1.00  0.00     0.131 A 
ATOM     66  C   UNL A   1      38.601  29.646  31.382  1.00  0.00     0.055 A 
ATOM     67  C   UNL A   1      37.852  29.939  29.117  1.00  0.00     0.041 A 
ATOM     68  F   UNL A   1      39.345  29.600  27.344  1.00  0.00    -0.206 F 
ATOM     69  C   UNL A   1      37.572  29.931  30.481  1.00  0.00     0.022 A 
BRANCH  66  70
ATOM     70  S   UNL A   1      38.233  29.436  33.146  1.00  0.00     0.124 S 
ATOM     71  O   UNL A   1      37.327  28.291  33.122  1.00  0.00    -0.237 OA
ATOM     72  O   UNL A   1      39.553  29.195  33.718  1.00  0.00    -0.237 OA
ATOM     73  O   UNL A   1      37.612  30.705  33.520  1.00  0.00    -0.744 OA
ENDBRANCH  66  70
ENDBRANCH  49  63
BRANCH  50  74
ATOM     74  C   UNL A   1      49.301  26.928  26.146  1.00  0.00     0.023 A 
ATOM     75  C   UNL A   1      50.381  26.650  26.997  1.00  0.00     0.031 A 
ATOM     76  C   UNL A   1      49.552  26.975  24.762  1.00  0.00     0.131 A 
ATOM     77  C   UNL A   1      51.674  26.507  26.467  1.00  0.00     0.055 A 
ATOM     78  C   UNL A   1      50.826  26.760  24.234  1.00  0.00     0.041 A 
ATOM     79  F   UNL A   1      48.558  27.237  23.898  1.00  0.00    -0.206 F 
ATOM     80  C   UNL A   1      51.901  26.545  25.090  1.00  0.00     0.022 A 
BRANCH  77  81
ATOM     81  S   UNL A   1      53.074  26.417  27.618  1.00  0.00     0.124 S 
ATOM     82  O   UNL A   1      52.397  26.202  28.891  1.00  0.00    -0.237 OA
ATOM     83  O   UNL A   1      53.824  25.283  27.089  1.00  0.00    -0.237 OA
ATOM     84  O   UNL A   1      53.722  27.718  27.465  1.00  0.00    -0.744 OA
ENDBRANCH  77  81
ENDBRANCH  50  74
BRANCH  62  85
ATOM     85  C   UNL A   1      46.514  32.810  28.634  1.00  0.00     0.023 A 
ATOM     86  C   UNL A   1      46.609  33.765  27.606  1.00  0.00     0.031 A 
ATOM     87  C   UNL A   1      46.994  33.159  29.909  1.00  0.00     0.131 A 
ATOM     88  C   UNL A   1      47.224  35.000  27.857  1.00  0.00     0.055 A 
ATOM     89  C   UNL A   1      47.547  34.414  30.168  1.00  0.00     0.041 A 
ATOM     90  F   UNL A   1      46.930  32.285  30.927  1.00  0.00    -0.206 F 
ATOM     91  C   UNL A   1      47.677  35.338  29.135  1.00  0.00     0.022 A 
BRANCH  88  92
ATOM     92  S   UNL A   1      47.508  36.128  26.465  1.00  0.00     0.124 S 
ATOM     93  O   UNL A   1      48.857  36.612  26.736  1.00  0.00    -0.237 OA
ATOM     94  O   UNL A   1      47.367  35.243  25.312  1.00  0.00    -0.237 OA
ATOM     95  O   UNL A   1      46.449  37.125  26.611  1.00  0.00    -0.744 OA
ENDBRANCH  88  92
ENDBRANCH  62  85
ENDBRANCH  36  37
ENDBRANCH  28  31
ENDBRANCH  26  27
ENDBRANCH  25  26
ENDBRANCH   1  25
TORSDOF 18
ENDMDL
MODEL 3
REMARK VINA RESULT:     -10.9      2.709      7.946
REMARK SMILES CCC(C)(C)NC(=O)[C@@H](C)Oc1ccc(C)nc1C(=O)NCCCNC(=O)c1ccc(-c2c3nc(c(-c4cc(S(=O)(=O)[O-])ccc4F)c4ccc([nH]4)c(-c4cc(S(=O)(=O)[O-])ccc4F)c4nc(c(-c5cc(S(=O)(=O)[O-])ccc5F)c5ccc2[nH]5)C=C4)C=C3)cc1
REMARK SMILES IDX 22 1 21 2 19 3 20 4 18 6 12 7 13 8 14 9 17 10 15 11 16 12
REMARK SMILES IDX 11 13 9 14 10 15 7 16 6 17 8 19 3 20 4 21 5 22 2 23 1 24
REMARK SMILES IDX 23 25 24 26 25 27 26 28 27 30 28 31 29 32 90 33 30 34 89 35
REMARK SMILES IDX 31 36 32 37 33 38 83 39 34 40 88 41 82 42 84 43 35 44 87 45
REMARK SMILES IDX 81 46 80 47 36 49 68 50 48 51 67 52 49 53 52 54 66 55 85 56
REMARK SMILES IDX 50 57 51 58 65 60 86 61 53 62 37 63 38 64 46 65 39 66 45 67
REMARK SMILES IDX 47 68 44 69 40 70 41 71 42 72 43 73 69 74 70 75 78 76 71 77
REMARK SMILES IDX 77 78 79 79 76 80 72 81 73 82 74 83 75 84 54 85 55 86 63 87
REMARK SMILES IDX 56 88 62 89 64 90 61 91 57 92 58 93 59 94 60 95
REMARK H PARENT 21 5 6 18 25 29 84 48 52 59
REMARK Flexibility Score: inf
ROOT
ATOM      1  C   UNL A   1      33.881  23.866  24.980  1.00  0.00     0.118 C 
ENDROOT
BRANCH   1   2
ATOM      2  N   UNL A   1      33.969  24.973  24.050  1.00  0.00    -0.351 N 
ATOM      3  C   UNL A   1      33.498  26.264  24.059  1.00  0.00     0.273 C 
ATOM      4  O   UNL A   1      33.682  26.880  23.003  1.00  0.00    -0.267 OA
ATOM      5  H   UNL A   1      34.474  24.752  23.235  1.00  0.00     0.163 HD
BRANCH   3   6
ATOM      6  C   UNL A   1      32.897  26.996  25.240  1.00  0.00     0.170 A 
ATOM      7  C   UNL A   1      31.587  26.927  25.727  1.00  0.00     0.151 A 
ATOM      8  C   UNL A   1      31.360  27.474  26.991  1.00  0.00     0.051 A 
ATOM      9  C   UNL A   1      32.303  28.335  27.562  1.00  0.00     0.027 A 
ATOM     10  N   UNL A   1      33.802  27.870  25.782  1.00  0.00    -0.244 NA
ATOM     11  C   UNL A   1      33.453  28.609  26.849  1.00  0.00     0.038 A 
ATOM     12  C   UNL A   1      34.305  29.806  27.147  1.00  0.00     0.067 C 
BRANCH   7  13
ATOM     13  O   UNL A   1      30.594  26.492  24.904  1.00  0.00    -0.478 OA
BRANCH  13  14
ATOM     14  C   UNL A   1      29.772  27.375  24.155  1.00  0.00     0.259 C 
ATOM     15  C   UNL A   1      28.409  26.701  23.871  1.00  0.00     0.064 C 
BRANCH  14  16
ATOM     16  C   UNL A   1      30.132  28.090  22.831  1.00  0.00     0.261 C 
ATOM     17  N   UNL A   1      30.098  29.446  22.708  1.00  0.00    -0.348 N 
ATOM     18  H   UNL A   1      30.990  29.862  22.675  1.00  0.00     0.164 HD
ATOM     19  O   UNL A   1      30.657  27.454  21.908  1.00  0.00    -0.271 OA
BRANCH  17  20
ATOM     20  C   UNL A   1      28.984  30.420  22.617  1.00  0.00     0.034 C 
ATOM     21  C   UNL A   1      29.048  31.304  23.888  1.00  0.00     0.034 C 
ATOM     22  C   UNL A   1      27.689  29.583  22.722  1.00  0.00     0.034 C 
BRANCH  20  23
ATOM     23  C   UNL A   1      28.838  31.356  21.382  1.00  0.00     0.024 C 
ATOM     24  C   UNL A   1      28.021  32.634  21.442  1.00  0.00     0.006 C 
ENDBRANCH  20  23
ENDBRANCH  17  20
ENDBRANCH  14  16
ENDBRANCH  13  14
ENDBRANCH   7  13
ENDBRANCH   3   6
ENDBRANCH   1   2
BRANCH   1  25
ATOM     25  C   UNL A   1      35.120  22.984  24.854  1.00  0.00     0.042 C 
BRANCH  25  26
ATOM     26  C   UNL A   1      35.766  22.602  26.181  1.00  0.00     0.118 C 
BRANCH  26  27
ATOM     27  N   UNL A   1      36.724  21.523  25.994  1.00  0.00    -0.352 N 
ATOM     28  C   UNL A   1      38.092  21.561  25.864  1.00  0.00     0.251 C 
ATOM     29  H   UNL A   1      36.329  20.622  25.954  1.00  0.00     0.163 HD
ATOM     30  O   UNL A   1      38.658  20.597  25.357  1.00  0.00    -0.269 OA
BRANCH  28  31
ATOM     31  C   UNL A   1      38.885  22.731  26.321  1.00  0.00     0.039 A 
ATOM     32  C   UNL A   1      38.624  23.983  25.751  1.00  0.00     0.014 A 
ATOM     33  C   UNL A   1      39.935  22.600  27.232  1.00  0.00     0.014 A 
ATOM     34  C   UNL A   1      39.381  25.100  26.126  1.00  0.00     0.010 A 
ATOM     35  C   UNL A   1      40.638  23.726  27.663  1.00  0.00     0.010 A 
ATOM     36  C   UNL A   1      40.375  24.988  27.109  1.00  0.00    -0.014 A 
BRANCH  36  37
ATOM     37  C   UNL A   1      41.168  26.167  27.558  1.00  0.00     0.031 A 
ATOM     38  C   UNL A   1      40.498  27.274  28.331  1.00  0.00     0.074 A 
ATOM     39  C   UNL A   1      42.470  26.269  27.224  1.00  0.00     0.049 A 
ATOM     40  N   UNL A   1      40.973  28.439  28.690  1.00  0.00    -0.248 NA
ATOM     41  C   UNL A   1      39.101  27.046  28.733  1.00  0.00     0.031 C 
ATOM     42  C   UNL A   1      43.229  25.267  26.472  1.00  0.00     0.029 A 
ATOM     43  N   UNL A   1      43.385  27.266  27.457  1.00  0.00    -0.354 N 
ATOM     44  C   UNL A   1      39.935  29.085  29.356  1.00  0.00     0.074 A 
ATOM     45  C   UNL A   1      38.787  28.205  29.293  1.00  0.00     0.031 C 
ATOM     46  C   UNL A   1      44.492  25.695  26.318  1.00  0.00     0.029 A 
ATOM     47  C   UNL A   1      44.622  27.024  26.905  1.00  0.00     0.049 A 
ATOM     48  H   UNL A   1      43.174  28.079  27.972  1.00  0.00     0.167 HD
ATOM     49  C   UNL A   1      39.945  30.286  29.986  1.00  0.00     0.034 A 
ATOM     50  C   UNL A   1      45.726  27.797  26.852  1.00  0.00     0.034 A 
ATOM     51  C   UNL A   1      41.097  31.152  30.046  1.00  0.00     0.049 A 
ATOM     52  C   UNL A   1      45.687  29.164  27.496  1.00  0.00     0.074 A 
ATOM     53  C   UNL A   1      41.220  32.384  30.665  1.00  0.00     0.029 A 
ATOM     54  N   UNL A   1      42.329  30.877  29.465  1.00  0.00    -0.354 N 
ATOM     55  N   UNL A   1      44.701  29.748  28.136  1.00  0.00    -0.248 NA
ATOM     56  C   UNL A   1      46.911  29.971  27.415  1.00  0.00     0.031 C 
ATOM     57  C   UNL A   1      42.503  32.879  30.407  1.00  0.00     0.029 A 
ATOM     58  C   UNL A   1      43.206  31.925  29.692  1.00  0.00     0.049 A 
ATOM     59  H   UNL A   1      42.545  30.057  28.965  1.00  0.00     0.167 HD
ATOM     60  C   UNL A   1      45.202  30.975  28.564  1.00  0.00     0.074 A 
ATOM     61  C   UNL A   1      46.581  31.035  28.130  1.00  0.00     0.031 C 
ATOM     62  C   UNL A   1      44.581  31.966  29.252  1.00  0.00     0.034 A 
BRANCH  49  63
ATOM     63  C   UNL A   1      38.667  30.736  30.652  1.00  0.00     0.023 A 
ATOM     64  C   UNL A   1      37.699  31.478  29.952  1.00  0.00     0.031 A 
ATOM     65  C   UNL A   1      38.408  30.424  31.999  1.00  0.00     0.131 A 
ATOM     66  C   UNL A   1      36.552  31.936  30.616  1.00  0.00     0.055 A 
ATOM     67  C   UNL A   1      37.226  30.815  32.631  1.00  0.00     0.041 A 
ATOM     68  F   UNL A   1      39.303  29.734  32.724  1.00  0.00    -0.206 F 
ATOM     69  C   UNL A   1      36.294  31.587  31.944  1.00  0.00     0.022 A 
BRANCH  66  70
ATOM     70  S   UNL A   1      35.458  33.097  29.753  1.00  0.00     0.124 S 
ATOM     71  O   UNL A   1      34.203  32.351  29.721  1.00  0.00    -0.237 OA
ATOM     72  O   UNL A   1      35.485  34.265  30.626  1.00  0.00    -0.237 OA
ATOM     73  O   UNL A   1      36.102  33.275  28.453  1.00  0.00    -0.744 OA
ENDBRANCH  66  70
ENDBRANCH  49  63
BRANCH  50  74
ATOM     74  C   UNL A   1      46.956  27.334  26.142  1.00  0.00     0.023 A 
ATOM     75  C   UNL A   1      47.230  27.748  24.829  1.00  0.00     0.031 A 
ATOM     76  C   UNL A   1      47.829  26.401  26.730  1.00  0.00     0.131 A 
ATOM     77  C   UNL A   1      48.298  27.175  24.120  1.00  0.00     0.055 A 
ATOM     78  C   UNL A   1      48.934  25.888  26.046  1.00  0.00     0.041 A 
ATOM     79  F   UNL A   1      47.619  25.966  27.983  1.00  0.00    -0.206 F 
ATOM     80  C   UNL A   1      49.160  26.259  24.725  1.00  0.00     0.022 A 
BRANCH  77  81
ATOM     81  S   UNL A   1      48.453  27.537  22.349  1.00  0.00     0.124 S 
ATOM     82  O   UNL A   1      47.179  28.190  22.068  1.00  0.00    -0.237 OA
ATOM     83  O   UNL A   1      49.634  28.393  22.320  1.00  0.00    -0.237 OA
ATOM     84  O   UNL A   1      48.625  26.217  21.748  1.00  0.00    -0.744 OA
ENDBRANCH  77  81
ENDBRANCH  50  74
BRANCH  62  85
ATOM     85  C   UNL A   1      45.411  33.172  29.618  1.00  0.00     0.023 A 
ATOM     86  C   UNL A   1      46.148  33.228  30.814  1.00  0.00     0.031 A 
ATOM     87  C   UNL A   1      45.454  34.287  28.761  1.00  0.00     0.131 A 
ATOM     88  C   UNL A   1      46.849  34.396  31.147  1.00  0.00     0.055 A 
ATOM     89  C   UNL A   1      46.206  35.422  29.068  1.00  0.00     0.041 A 
ATOM     90  F   UNL A   1      44.767  34.289  27.607  1.00  0.00    -0.206 F 
ATOM     91  C   UNL A   1      46.898  35.486  30.275  1.00  0.00     0.022 A 
BRANCH  88  92
ATOM     92  S   UNL A   1      47.625  34.506  32.783  1.00  0.00     0.124 S 
ATOM     93  O   UNL A   1      47.633  35.946  33.020  1.00  0.00    -0.237 OA
ATOM     94  O   UNL A   1      46.712  33.729  33.616  1.00  0.00    -0.237 OA
ATOM     95  O   UNL A   1      48.941  33.903  32.580  1.00  0.00    -0.744 OA
ENDBRANCH  88  92
ENDBRANCH  62  85
ENDBRANCH  36  37
ENDBRANCH  28  31
ENDBRANCH  26  27
ENDBRANCH  25  26
ENDBRANCH   1  25
TORSDOF 18
ENDMDL
