MODEL 1
REMARK VINA RESULT:     -11.1      0.000      0.000
REMARK SMILES COc1ccsc1CN(Cc1ccccc1)C(=O)/C=C/C(=O)NCCCNC(=O)c1ccc(-c2c3nc(c(-c4cc(S(=O)(=O)[O-])ccc4F)c4ccc([nH]4)c(-c4cc(S(=O)(=O)[O-])ccc4F)c4nc(c(-c5cc(S(=O)(=O)[O-])ccc5F)c5ccc2[nH]5)C=C4)C=C3)cc1
REMARK SMILES IDX 24 1 23 2 21 3 22 4 20 6 19 7 17 8 18 9 9 10 8 11 7 12 3 13
REMARK SMILES IDX 4 14 5 15 6 16 2 17 1 18 10 19 11 20 12 21 16 22 13 23 15 24
REMARK SMILES IDX 14 25 25 26 26 27 27 28 28 29 29 31 30 32 31 33 92 34 32 35
REMARK SMILES IDX 91 36 33 37 34 38 35 39 85 40 36 41 90 42 84 43 86 44 37 45
REMARK SMILES IDX 89 46 83 47 82 48 38 50 70 51 50 52 69 53 51 54 54 55 68 56
REMARK SMILES IDX 87 57 52 58 53 59 67 61 88 62 55 63 39 64 40 65 48 66 41 67
REMARK SMILES IDX 47 68 49 69 46 70 42 71 43 72 44 73 45 74 71 75 72 76 80 77
REMARK SMILES IDX 73 78 79 79 81 80 78 81 74 82 75 83 76 84 77 85 56 86 57 87
REMARK SMILES IDX 65 88 58 89 64 90 66 91 63 92 59 93 60 94 61 95 62 96
REMARK H PARENT 23 5 27 30 86 49 54 60
REMARK Flexibility Score: inf
ROOT
ATOM      1  C   UNL A   1      31.993  30.464  25.864  1.00  0.00     0.118 C 
ENDROOT
BRANCH   1   2
ATOM      2  N   UNL A   1      33.359  30.060  26.163  1.00  0.00    -0.352 N 
ATOM      3  C   UNL A   1      33.837  28.813  26.423  1.00  0.00     0.244 C 
ATOM      4  O   UNL A   1      34.934  28.668  26.957  1.00  0.00    -0.270 OA
ATOM      5  H   UNL A   1      34.025  30.785  26.180  1.00  0.00     0.163 HD
BRANCH   3   6
ATOM      6  C   UNL A   1      33.072  27.626  25.998  1.00  0.00     0.077 C 
ATOM      7  C   UNL A   1      33.758  26.540  25.621  1.00  0.00     0.077 C 
BRANCH   7   8
ATOM      8  C   UNL A   1      33.149  25.228  25.412  1.00  0.00     0.247 C 
ATOM      9  O   UNL A   1      32.754  24.629  26.408  1.00  0.00    -0.270 OA
BRANCH   8  10
ATOM     10  N   UNL A   1      32.960  24.830  24.095  1.00  0.00    -0.330 N 
BRANCH  10  11
ATOM     11  C   UNL A   1      34.149  24.384  23.359  1.00  0.00     0.170 C 
BRANCH  11  12
ATOM     12  C   UNL A   1      34.870  23.261  24.062  1.00  0.00     0.066 A 
ATOM     13  C   UNL A   1      34.415  21.975  24.295  1.00  0.00     0.134 A 
ATOM     14  C   UNL A   1      35.313  21.211  25.093  1.00  0.00     0.058 A 
ATOM     15  C   UNL A   1      36.436  21.930  25.433  1.00  0.00     0.069 A 
ATOM     16  S   UNL A   1      36.425  23.501  24.752  1.00  0.00    -0.143 S 
BRANCH  13  17
ATOM     17  O   UNL A   1      33.233  21.564  23.771  1.00  0.00    -0.496 OA
ATOM     18  C   UNL A   1      32.423  20.856  24.706  1.00  0.00     0.278 C 
ENDBRANCH  13  17
ENDBRANCH  11  12
ENDBRANCH  10  11
BRANCH  10  19
ATOM     19  C   UNL A   1      31.643  24.693  23.437  1.00  0.00     0.155 C 
BRANCH  19  20
ATOM     20  C   UNL A   1      30.868  25.994  23.280  1.00  0.00    -0.029 A 
ATOM     21  C   UNL A   1      29.589  26.142  23.846  1.00  0.00     0.005 A 
ATOM     22  C   UNL A   1      31.393  27.084  22.580  1.00  0.00     0.005 A 
ATOM     23  C   UNL A   1      28.805  27.272  23.618  1.00  0.00     0.000 A 
ATOM     24  C   UNL A   1      30.637  28.253  22.410  1.00  0.00     0.000 A 
ATOM     25  C   UNL A   1      29.332  28.334  22.899  1.00  0.00     0.000 A 
ENDBRANCH  19  20
ENDBRANCH  10  19
ENDBRANCH   8  10
ENDBRANCH   7   8
ENDBRANCH   3   6
ENDBRANCH   1   2
BRANCH   1  26
ATOM     26  C   UNL A   1      31.627  31.724  26.626  1.00  0.00     0.042 C 
BRANCH  26  27
ATOM     27  C   UNL A   1      32.836  32.314  27.330  1.00  0.00     0.118 C 
BRANCH  27  28
ATOM     28  N   UNL A   1      32.668  33.747  27.554  1.00  0.00    -0.352 N 
ATOM     29  C   UNL A   1      33.185  34.520  28.562  1.00  0.00     0.251 C 
ATOM     30  H   UNL A   1      32.112  34.220  26.895  1.00  0.00     0.163 HD
ATOM     31  O   UNL A   1      32.704  35.628  28.795  1.00  0.00    -0.269 OA
BRANCH  29  32
ATOM     32  C   UNL A   1      34.312  33.999  29.358  1.00  0.00     0.039 A 
ATOM     33  C   UNL A   1      34.065  33.154  30.441  1.00  0.00     0.014 A 
ATOM     34  C   UNL A   1      35.621  34.342  29.009  1.00  0.00     0.014 A 
ATOM     35  C   UNL A   1      35.143  32.606  31.139  1.00  0.00     0.010 A 
ATOM     36  C   UNL A   1      36.686  33.713  29.635  1.00  0.00     0.010 A 
ATOM     37  C   UNL A   1      36.460  32.856  30.720  1.00  0.00    -0.014 A 
BRANCH  37  38
ATOM     38  C   UNL A   1      37.632  32.281  31.426  1.00  0.00     0.031 A 
ATOM     39  C   UNL A   1      38.408  31.170  30.772  1.00  0.00     0.074 A 
ATOM     40  C   UNL A   1      37.944  32.699  32.668  1.00  0.00     0.049 A 
ATOM     41  N   UNL A   1      39.369  30.430  31.261  1.00  0.00    -0.248 NA
ATOM     42  C   UNL A   1      38.021  30.818  29.396  1.00  0.00     0.031 C 
ATOM     43  C   UNL A   1      37.244  33.752  33.408  1.00  0.00     0.029 A 
ATOM     44  N   UNL A   1      38.922  32.281  33.533  1.00  0.00    -0.354 N 
ATOM     45  C   UNL A   1      39.688  29.518  30.261  1.00  0.00     0.074 A 
ATOM     46  C   UNL A   1      38.766  29.748  29.170  1.00  0.00     0.031 C 
ATOM     47  C   UNL A   1      37.835  33.915  34.603  1.00  0.00     0.029 A 
ATOM     48  C   UNL A   1      38.914  32.943  34.740  1.00  0.00     0.049 A 
ATOM     49  H   UNL A   1      39.570  31.574  33.312  1.00  0.00     0.167 HD
ATOM     50  C   UNL A   1      40.680  28.594  30.242  1.00  0.00     0.034 A 
ATOM     51  C   UNL A   1      39.678  32.768  35.836  1.00  0.00     0.034 A 
ATOM     52  C   UNL A   1      41.596  28.393  31.335  1.00  0.00     0.049 A 
ATOM     53  C   UNL A   1      40.745  31.699  35.811  1.00  0.00     0.074 A 
ATOM     54  C   UNL A   1      42.659  27.512  31.417  1.00  0.00     0.029 A 
ATOM     55  N   UNL A   1      41.557  29.083  32.541  1.00  0.00    -0.354 N 
ATOM     56  N   UNL A   1      41.055  30.862  34.847  1.00  0.00    -0.248 NA
ATOM     57  C   UNL A   1      41.571  31.557  37.017  1.00  0.00     0.031 C 
ATOM     58  C   UNL A   1      43.216  27.617  32.695  1.00  0.00     0.029 A 
ATOM     59  C   UNL A   1      42.561  28.628  33.381  1.00  0.00     0.049 A 
ATOM     60  H   UNL A   1      40.910  29.790  32.766  1.00  0.00     0.167 HD
ATOM     61  C   UNL A   1      42.143  30.130  35.315  1.00  0.00     0.074 A 
ATOM     62  C   UNL A   1      42.435  30.626  36.644  1.00  0.00     0.031 C 
ATOM     63  C   UNL A   1      42.842  29.143  34.699  1.00  0.00     0.034 A 
BRANCH  50  64
ATOM     64  C   UNL A   1      40.802  27.730  29.010  1.00  0.00     0.023 A 
ATOM     65  C   UNL A   1      41.744  28.009  28.004  1.00  0.00     0.031 A 
ATOM     66  C   UNL A   1      39.947  26.630  28.821  1.00  0.00     0.131 A 
ATOM     67  C   UNL A   1      41.755  27.251  26.823  1.00  0.00     0.055 A 
ATOM     68  C   UNL A   1      40.025  25.824  27.683  1.00  0.00     0.041 A 
ATOM     69  F   UNL A   1      39.010  26.326  29.733  1.00  0.00    -0.206 F 
ATOM     70  C   UNL A   1      40.922  26.142  26.668  1.00  0.00     0.022 A 
BRANCH  67  71
ATOM     71  S   UNL A   1      42.766  27.832  25.434  1.00  0.00     0.124 S 
ATOM     72  O   UNL A   1      42.835  26.635  24.600  1.00  0.00    -0.237 OA
ATOM     73  O   UNL A   1      41.972  28.934  24.904  1.00  0.00    -0.237 OA
ATOM     74  O   UNL A   1      44.026  28.218  26.065  1.00  0.00    -0.744 OA
ENDBRANCH  67  71
ENDBRANCH  50  64
BRANCH  51  75
ATOM     75  C   UNL A   1      39.472  33.610  37.051  1.00  0.00     0.023 A 
ATOM     76  C   UNL A   1      40.281  34.730  37.295  1.00  0.00     0.031 A 
ATOM     77  C   UNL A   1      38.505  33.276  38.016  1.00  0.00     0.131 A 
ATOM     78  C   UNL A   1      40.153  35.440  38.499  1.00  0.00     0.055 A 
ATOM     79  C   UNL A   1      38.336  34.024  39.183  1.00  0.00     0.041 A 
ATOM     80  F   UNL A   1      37.701  32.215  37.834  1.00  0.00    -0.206 F 
ATOM     81  C   UNL A   1      39.175  35.103  39.438  1.00  0.00     0.022 A 
BRANCH  78  82
ATOM     82  S   UNL A   1      41.361  36.740  38.871  1.00  0.00     0.124 S 
ATOM     83  O   UNL A   1      40.498  37.902  39.053  1.00  0.00    -0.237 OA
ATOM     84  O   UNL A   1      42.002  36.222  40.075  1.00  0.00    -0.237 OA
ATOM     85  O   UNL A   1      42.206  36.769  37.679  1.00  0.00    -0.744 OA
ENDBRANCH  78  82
ENDBRANCH  51  75
BRANCH  63  86
ATOM     86  C   UNL A   1      44.043  28.588  35.426  1.00  0.00     0.023 A 
ATOM     87  C   UNL A   1      43.935  27.548  36.364  1.00  0.00     0.031 A 
ATOM     88  C   UNL A   1      45.323  29.106  35.155  1.00  0.00     0.131 A 
ATOM     89  C   UNL A   1      45.080  27.089  37.031  1.00  0.00     0.055 A 
ATOM     90  C   UNL A   1      46.467  28.602  35.775  1.00  0.00     0.041 A 
ATOM     91  F   UNL A   1      45.484  30.104  34.270  1.00  0.00    -0.206 F 
ATOM     92  C   UNL A   1      46.347  27.595  36.728  1.00  0.00     0.022 A 
BRANCH  89  93
ATOM     93  S   UNL A   1      44.886  25.873  38.363  1.00  0.00     0.124 S 
ATOM     94  O   UNL A   1      44.111  26.621  39.347  1.00  0.00    -0.237 OA
ATOM     95  O   UNL A   1      44.183  24.784  37.692  1.00  0.00    -0.237 OA
ATOM     96  O   UNL A   1      46.262  25.572  38.756  1.00  0.00    -0.744 OA
ENDBRANCH  89  93
ENDBRANCH  63  86
ENDBRANCH  37  38
ENDBRANCH  29  32
ENDBRANCH  27  28
ENDBRANCH  26  27
ENDBRANCH   1  26
TORSDOF 20
ENDMDL
MODEL 2
REMARK VINA RESULT:     -11.0      1.720      2.752
REMARK SMILES COc1ccsc1CN(Cc1ccccc1)C(=O)/C=C/C(=O)NCCCNC(=O)c1ccc(-c2c3nc(c(-c4cc(S(=O)(=O)[O-])ccc4F)c4ccc([nH]4)c(-c4cc(S(=O)(=O)[O-])ccc4F)c4nc(c(-c5cc(S(=O)(=O)[O-])ccc5F)c5ccc2[nH]5)C=C4)C=C3)cc1
REMARK SMILES IDX 24 1 23 2 21 3 22 4 20 6 19 7 17 8 18 9 9 10 8 11 7 12 3 13
REMARK SMILES IDX 4 14 5 15 6 16 2 17 1 18 10 19 11 20 12 21 16 22 13 23 15 24
REMARK SMILES IDX 14 25 25 26 26 27 27 28 28 29 29 31 30 32 31 33 92 34 32 35
REMARK SMILES IDX 91 36 33 37 34 38 35 39 85 40 36 41 90 42 84 43 86 44 37 45
REMARK SMILES IDX 89 46 83 47 82 48 38 50 70 51 50 52 69 53 51 54 54 55 68 56
REMARK SMILES IDX 87 57 52 58 53 59 67 61 88 62 55 63 39 64 40 65 48 66 41 67
REMARK SMILES IDX 47 68 49 69 46 70 42 71 43 72 44 73 45 74 71 75 72 76 80 77
REMARK SMILES IDX 73 78 79 79 81 80 78 81 74 82 75 83 76 84 77 85 56 86 57 87
REMARK SMILES IDX 65 88 58 89 64 90 66 91 63 92 59 93 60 94 61 95 62 96
REMARK H PARENT 23 5 27 30 86 49 54 60
REMARK Flexibility Score: inf
ROOT
ATOM      1  C   UNL A   1      31.976  30.608  26.027  1.00  0.00     0.118 C 
ENDROOT
BRANCH   1   2
ATOM      2  N   UNL A   1      31.119  30.289  24.895  1.00  0.00    -0.352 N 
ATOM      3  C   UNL A   1      31.182  29.216  24.059  1.00  0.00     0.244 C 
ATOM      4  O   UNL A   1      30.600  29.237  22.978  1.00  0.00    -0.270 OA
ATOM      5  H   UNL A   1      30.398  30.933  24.709  1.00  0.00     0.163 HD
BRANCH   3   6
ATOM      6  C   UNL A   1      31.890  27.993  24.481  1.00  0.00     0.077 C 
ATOM      7  C   UNL A   1      31.332  27.245  25.439  1.00  0.00     0.077 C 
BRANCH   7   8
ATOM      8  C   UNL A   1      31.785  25.898  25.785  1.00  0.00     0.247 C 
ATOM      9  O   UNL A   1      31.760  25.587  26.971  1.00  0.00    -0.270 OA
BRANCH   8  10
ATOM     10  N   UNL A   1      32.088  25.050  24.728  1.00  0.00    -0.330 N 
BRANCH  10  11
ATOM     11  C   UNL A   1      31.121  23.987  24.431  1.00  0.00     0.170 C 
BRANCH  11  12
ATOM     12  C   UNL A   1      31.742  22.613  24.498  1.00  0.00     0.066 A 
ATOM     13  C   UNL A   1      32.162  21.927  25.623  1.00  0.00     0.134 A 
ATOM     14  C   UNL A   1      32.811  20.699  25.307  1.00  0.00     0.058 A 
ATOM     15  C   UNL A   1      32.854  20.476  23.949  1.00  0.00     0.069 A 
ATOM     16  S   UNL A   1      32.071  21.719  23.069  1.00  0.00    -0.143 S 
BRANCH  13  17
ATOM     17  O   UNL A   1      31.930  22.435  26.860  1.00  0.00    -0.496 OA
ATOM     18  C   UNL A   1      33.088  22.433  27.692  1.00  0.00     0.278 C 
ENDBRANCH  13  17
ENDBRANCH  11  12
ENDBRANCH  10  11
BRANCH  10  19
ATOM     19  C   UNL A   1      33.230  25.228  23.806  1.00  0.00     0.155 C 
BRANCH  19  20
ATOM     20  C   UNL A   1      34.502  24.496  24.213  1.00  0.00    -0.029 A 
ATOM     21  C   UNL A   1      35.186  23.680  23.296  1.00  0.00     0.005 A 
ATOM     22  C   UNL A   1      35.037  24.611  25.500  1.00  0.00     0.005 A 
ATOM     23  C   UNL A   1      36.282  22.902  23.671  1.00  0.00     0.000 A 
ATOM     24  C   UNL A   1      36.183  23.887  25.861  1.00  0.00     0.000 A 
ATOM     25  C   UNL A   1      36.784  23.008  24.959  1.00  0.00     0.000 A 
ENDBRANCH  19  20
ENDBRANCH  10  19
ENDBRANCH   8  10
ENDBRANCH   7   8
ENDBRANCH   3   6
ENDBRANCH   1   2
BRANCH   1  26
ATOM     26  C   UNL A   1      31.551  31.916  26.669  1.00  0.00     0.042 C 
BRANCH  26  27
ATOM     27  C   UNL A   1      32.639  32.465  27.575  1.00  0.00     0.118 C 
BRANCH  27  28
ATOM     28  N   UNL A   1      32.556  33.919  27.676  1.00  0.00    -0.352 N 
ATOM     29  C   UNL A   1      33.166  34.749  28.581  1.00  0.00     0.251 C 
ATOM     30  H   UNL A   1      31.988  34.362  27.005  1.00  0.00     0.163 HD
ATOM     31  O   UNL A   1      32.755  35.898  28.735  1.00  0.00    -0.269 OA
BRANCH  29  32
ATOM     32  C   UNL A   1      34.307  34.239  29.363  1.00  0.00     0.039 A 
ATOM     33  C   UNL A   1      34.084  33.620  30.593  1.00  0.00     0.014 A 
ATOM     34  C   UNL A   1      35.603  34.364  28.855  1.00  0.00     0.014 A 
ATOM     35  C   UNL A   1      35.165  33.073  31.288  1.00  0.00     0.010 A 
ATOM     36  C   UNL A   1      36.656  33.728  29.494  1.00  0.00     0.010 A 
ATOM     37  C   UNL A   1      36.453  33.094  30.728  1.00  0.00    -0.014 A 
BRANCH  37  38
ATOM     38  C   UNL A   1      37.624  32.512  31.427  1.00  0.00     0.031 A 
ATOM     39  C   UNL A   1      38.356  31.359  30.795  1.00  0.00     0.074 A 
ATOM     40  C   UNL A   1      37.975  32.962  32.647  1.00  0.00     0.049 A 
ATOM     41  N   UNL A   1      39.308  30.610  31.288  1.00  0.00    -0.248 NA
ATOM     42  C   UNL A   1      37.930  30.972  29.440  1.00  0.00     0.031 C 
ATOM     43  C   UNL A   1      37.320  34.058  33.366  1.00  0.00     0.029 A 
ATOM     44  N   UNL A   1      38.961  32.546  33.505  1.00  0.00    -0.354 N 
ATOM     45  C   UNL A   1      39.580  29.657  30.312  1.00  0.00     0.074 A 
ATOM     46  C   UNL A   1      38.640  29.875  29.235  1.00  0.00     0.031 C 
ATOM     47  C   UNL A   1      37.942  34.244  34.542  1.00  0.00     0.029 A 
ATOM     48  C   UNL A   1      38.997  33.248  34.689  1.00  0.00     0.049 A 
ATOM     49  H   UNL A   1      39.585  31.815  33.294  1.00  0.00     0.167 HD
ATOM     50  C   UNL A   1      40.547  28.706  30.303  1.00  0.00     0.034 A 
ATOM     51  C   UNL A   1      39.782  33.089  35.774  1.00  0.00     0.034 A 
ATOM     52  C   UNL A   1      41.482  28.516  31.383  1.00  0.00     0.049 A 
ATOM     53  C   UNL A   1      40.819  31.991  35.762  1.00  0.00     0.074 A 
ATOM     54  C   UNL A   1      42.523  27.610  31.471  1.00  0.00     0.029 A 
ATOM     55  N   UNL A   1      41.488  29.246  32.565  1.00  0.00    -0.354 N 
ATOM     56  N   UNL A   1      41.085  31.114  34.820  1.00  0.00    -0.248 NA
ATOM     57  C   UNL A   1      41.667  31.867  36.954  1.00  0.00     0.031 C 
ATOM     58  C   UNL A   1      43.111  27.742  32.732  1.00  0.00     0.029 A 
ATOM     59  C   UNL A   1      42.498  28.792  33.398  1.00  0.00     0.049 A 
ATOM     60  H   UNL A   1      40.865  29.979  32.780  1.00  0.00     0.167 HD
ATOM     61  C   UNL A   1      42.163  30.369  35.288  1.00  0.00     0.074 A 
ATOM     62  C   UNL A   1      42.498  30.900  36.593  1.00  0.00     0.031 C 
ATOM     63  C   UNL A   1      42.822  29.344  34.692  1.00  0.00     0.034 A 
BRANCH  50  64
ATOM     64  C   UNL A   1      40.618  27.799  29.098  1.00  0.00     0.023 A 
ATOM     65  C   UNL A   1      41.572  27.993  28.084  1.00  0.00     0.031 A 
ATOM     66  C   UNL A   1      39.704  26.742  28.945  1.00  0.00     0.131 A 
ATOM     67  C   UNL A   1      41.539  27.200  26.928  1.00  0.00     0.055 A 
ATOM     68  C   UNL A   1      39.735  25.898  27.832  1.00  0.00     0.041 A 
ATOM     69  F   UNL A   1      38.753  26.520  29.865  1.00  0.00    -0.206 F 
ATOM     70  C   UNL A   1      40.646  26.134  26.807  1.00  0.00     0.022 A 
BRANCH  67  71
ATOM     71  S   UNL A   1      42.578  27.680  25.521  1.00  0.00     0.124 S 
ATOM     72  O   UNL A   1      43.866  27.910  26.171  1.00  0.00    -0.237 OA
ATOM     73  O   UNL A   1      42.500  26.509  24.656  1.00  0.00    -0.237 OA
ATOM     74  O   UNL A   1      41.924  28.881  25.006  1.00  0.00    -0.744 OA
ENDBRANCH  67  71
ENDBRANCH  50  64
BRANCH  51  75
ATOM     75  C   UNL A   1      39.625  33.975  36.963  1.00  0.00     0.023 A 
ATOM     76  C   UNL A   1      39.092  33.481  38.163  1.00  0.00     0.031 A 
ATOM     77  C   UNL A   1      39.952  35.342  36.904  1.00  0.00     0.131 A 
ATOM     78  C   UNL A   1      38.841  34.354  39.233  1.00  0.00     0.055 A 
ATOM     79  C   UNL A   1      39.762  36.195  37.994  1.00  0.00     0.041 A 
ATOM     80  F   UNL A   1      40.468  35.870  35.782  1.00  0.00    -0.206 F 
ATOM     81  C   UNL A   1      39.187  35.706  39.162  1.00  0.00     0.022 A 
BRANCH  78  82
ATOM     82  S   UNL A   1      37.949  33.719  40.679  1.00  0.00     0.124 S 
ATOM     83  O   UNL A   1      38.888  32.728  41.192  1.00  0.00    -0.237 OA
ATOM     84  O   UNL A   1      37.783  34.924  41.485  1.00  0.00    -0.237 OA
ATOM     85  O   UNL A   1      36.718  33.178  40.107  1.00  0.00    -0.744 OA
ENDBRANCH  78  82
ENDBRANCH  51  75
BRANCH  63  86
ATOM     86  C   UNL A   1      44.024  28.780  35.411  1.00  0.00     0.023 A 
ATOM     87  C   UNL A   1      43.915  27.736  36.344  1.00  0.00     0.031 A 
ATOM     88  C   UNL A   1      45.305  29.294  35.137  1.00  0.00     0.131 A 
ATOM     89  C   UNL A   1      45.062  27.269  37.005  1.00  0.00     0.055 A 
ATOM     90  C   UNL A   1      46.449  28.783  35.750  1.00  0.00     0.041 A 
ATOM     91  F   UNL A   1      45.466  30.295  34.256  1.00  0.00    -0.206 F 
ATOM     92  C   UNL A   1      46.329  27.772  36.698  1.00  0.00     0.022 A 
BRANCH  89  93
ATOM     93  S   UNL A   1      44.869  26.049  38.332  1.00  0.00     0.124 S 
ATOM     94  O   UNL A   1      44.184  24.959  37.645  1.00  0.00    -0.237 OA
ATOM     95  O   UNL A   1      46.251  25.788  38.721  1.00  0.00    -0.237 OA
ATOM     96  O   UNL A   1      44.067  26.753  39.332  1.00  0.00    -0.744 OA
ENDBRANCH  89  93
ENDBRANCH  63  86
ENDBRANCH  37  38
ENDBRANCH  29  32
ENDBRANCH  27  28
ENDBRANCH  26  27
ENDBRANCH   1  26
TORSDOF 20
ENDMDL
MODEL 3
REMARK VINA RESULT:     -10.9      2.408      7.980
REMARK SMILES COc1ccsc1CN(Cc1ccccc1)C(=O)/C=C/C(=O)NCCCNC(=O)c1ccc(-c2c3nc(c(-c4cc(S(=O)(=O)[O-])ccc4F)c4ccc([nH]4)c(-c4cc(S(=O)(=O)[O-])ccc4F)c4nc(c(-c5cc(S(=O)(=O)[O-])ccc5F)c5ccc2[nH]5)C=C4)C=C3)cc1
REMARK SMILES IDX 24 1 23 2 21 3 22 4 20 6 19 7 17 8 18 9 9 10 8 11 7 12 3 13
REMARK SMILES IDX 4 14 5 15 6 16 2 17 1 18 10 19 11 20 12 21 16 22 13 23 15 24
REMARK SMILES IDX 14 25 25 26 26 27 27 28 28 29 29 31 30 32 31 33 92 34 32 35
REMARK SMILES IDX 91 36 33 37 34 38 35 39 85 40 36 41 90 42 84 43 86 44 37 45
REMARK SMILES IDX 89 46 83 47 82 48 38 50 70 51 50 52 69 53 51 54 54 55 68 56
REMARK SMILES IDX 87 57 52 58 53 59 67 61 88 62 55 63 39 64 40 65 48 66 41 67
REMARK SMILES IDX 47 68 49 69 46 70 42 71 43 72 44 73 45 74 71 75 72 76 80 77
REMARK SMILES IDX 73 78 79 79 81 80 78 81 74 82 75 83 76 84 77 85 56 86 57 87
REMARK SMILES IDX 65 88 58 89 64 90 66 91 63 92 59 93 60 94 61 95 62 96
REMARK H PARENT 23 5 27 30 86 49 54 60
REMARK Flexibility Score: inf
ROOT
ATOM      1  C   UNL A   1      31.413  30.972  25.591  1.00  0.00     0.118 C 
ENDROOT
BRANCH   1   2
ATOM      2  N   UNL A   1      30.257  30.824  24.720  1.00  0.00    -0.352 N 
ATOM      3  C   UNL A   1      30.102  29.999  23.649  1.00  0.00     0.244 C 
ATOM      4  O   UNL A   1      29.206  30.202  22.833  1.00  0.00    -0.270 OA
ATOM      5  H   UNL A   1      29.484  31.396  24.934  1.00  0.00     0.163 HD
BRANCH   3   6
ATOM      6  C   UNL A   1      30.966  28.813  23.500  1.00  0.00     0.077 C 
ATOM      7  C   UNL A   1      30.400  27.674  23.083  1.00  0.00     0.077 C 
BRANCH   7   8
ATOM      8  C   UNL A   1      31.159  26.499  22.660  1.00  0.00     0.247 C 
ATOM      9  O   UNL A   1      31.526  26.462  21.490  1.00  0.00    -0.270 OA
BRANCH   8  10
ATOM     10  N   UNL A   1      31.501  25.586  23.649  1.00  0.00    -0.330 N 
BRANCH  10  11
ATOM     11  C   UNL A   1      30.600  24.443  23.839  1.00  0.00     0.170 C 
BRANCH  11  12
ATOM     12  C   UNL A   1      31.338  23.195  24.256  1.00  0.00     0.066 A 
ATOM     13  C   UNL A   1      31.554  22.727  25.539  1.00  0.00     0.134 A 
ATOM     14  C   UNL A   1      32.393  21.577  25.570  1.00  0.00     0.058 A 
ATOM     15  C   UNL A   1      32.780  21.190  24.307  1.00  0.00     0.069 A 
ATOM     16  S   UNL A   1      32.094  22.182  23.093  1.00  0.00    -0.143 S 
BRANCH  13  17
ATOM     17  O   UNL A   1      30.981  23.351  26.600  1.00  0.00    -0.496 OA
ATOM     18  C   UNL A   1      29.751  22.753  27.002  1.00  0.00     0.278 C 
ENDBRANCH  13  17
ENDBRANCH  11  12
ENDBRANCH  10  11
BRANCH  10  19
ATOM     19  C   UNL A   1      32.764  25.611  24.418  1.00  0.00     0.155 C 
BRANCH  19  20
ATOM     20  C   UNL A   1      32.799  26.617  25.559  1.00  0.00    -0.029 A 
ATOM     21  C   UNL A   1      31.698  26.764  26.423  1.00  0.00     0.005 A 
ATOM     22  C   UNL A   1      33.916  27.424  25.797  1.00  0.00     0.005 A 
ATOM     23  C   UNL A   1      31.651  27.758  27.399  1.00  0.00     0.000 A 
ATOM     24  C   UNL A   1      33.901  28.376  26.826  1.00  0.00     0.000 A 
ATOM     25  C   UNL A   1      32.759  28.566  27.604  1.00  0.00     0.000 A 
ENDBRANCH  19  20
ENDBRANCH  10  19
ENDBRANCH   8  10
ENDBRANCH   7   8
ENDBRANCH   3   6
ENDBRANCH   1   2
BRANCH   1  26
ATOM     26  C   UNL A   1      31.259  32.190  26.485  1.00  0.00     0.042 C 
BRANCH  26  27
ATOM     27  C   UNL A   1      32.550  32.501  27.221  1.00  0.00     0.118 C 
BRANCH  27  28
ATOM     28  N   UNL A   1      32.698  33.937  27.441  1.00  0.00    -0.352 N 
ATOM     29  C   UNL A   1      33.453  34.583  28.385  1.00  0.00     0.251 C 
ATOM     30  H   UNL A   1      32.188  34.517  26.831  1.00  0.00     0.163 HD
ATOM     31  O   UNL A   1      33.231  35.764  28.647  1.00  0.00    -0.269 OA
BRANCH  29  32
ATOM     32  C   UNL A   1      34.522  33.839  29.079  1.00  0.00     0.039 A 
ATOM     33  C   UNL A   1      34.200  32.732  29.863  1.00  0.00     0.014 A 
ATOM     34  C   UNL A   1      35.852  34.240  28.928  1.00  0.00     0.014 A 
ATOM     35  C   UNL A   1      35.226  31.990  30.452  1.00  0.00     0.010 A 
ATOM     36  C   UNL A   1      36.871  33.442  29.424  1.00  0.00     0.010 A 
ATOM     37  C   UNL A   1      36.569  32.321  30.209  1.00  0.00    -0.014 A 
BRANCH  37  38
ATOM     38  C   UNL A   1      37.689  31.551  30.803  1.00  0.00     0.031 A 
ATOM     39  C   UNL A   1      38.141  31.875  32.202  1.00  0.00     0.074 A 
ATOM     40  C   UNL A   1      38.339  30.628  30.068  1.00  0.00     0.049 A 
ATOM     41  N   UNL A   1      39.179  31.433  32.862  1.00  0.00    -0.248 NA
ATOM     42  C   UNL A   1      37.336  32.863  32.941  1.00  0.00     0.031 C 
ATOM     43  C   UNL A   1      38.003  30.250  28.693  1.00  0.00     0.029 A 
ATOM     44  N   UNL A   1      39.427  29.848  30.369  1.00  0.00    -0.354 N 
ATOM     45  C   UNL A   1      39.161  32.100  34.083  1.00  0.00     0.074 A 
ATOM     46  C   UNL A   1      38.055  33.031  34.039  1.00  0.00     0.031 C 
ATOM     47  C   UNL A   1      38.850  29.291  28.282  1.00  0.00     0.029 A 
ATOM     48  C   UNL A   1      39.823  29.028  29.337  1.00  0.00     0.049 A 
ATOM     49  H   UNL A   1      39.881  29.873  31.242  1.00  0.00     0.167 HD
ATOM     50  C   UNL A   1      39.974  31.927  35.154  1.00  0.00     0.034 A 
ATOM     51  C   UNL A   1      40.864  28.177  29.249  1.00  0.00     0.034 A 
ATOM     52  C   UNL A   1      41.061  30.983  35.180  1.00  0.00     0.049 A 
ATOM     53  C   UNL A   1      41.786  28.038  30.437  1.00  0.00     0.074 A 
ATOM     54  C   UNL A   1      41.929  30.697  36.218  1.00  0.00     0.029 A 
ATOM     55  N   UNL A   1      41.431  30.169  34.116  1.00  0.00    -0.354 N 
ATOM     56  N   UNL A   1      41.740  28.653  31.597  1.00  0.00    -0.248 NA
ATOM     57  C   UNL A   1      42.895  27.083  30.309  1.00  0.00     0.031 C 
ATOM     58  C   UNL A   1      42.867  29.767  35.759  1.00  0.00     0.029 A 
ATOM     59  C   UNL A   1      42.531  29.402  34.465  1.00  0.00     0.049 A 
ATOM     60  H   UNL A   1      40.979  30.142  33.241  1.00  0.00     0.167 HD
ATOM     61  C   UNL A   1      42.784  28.122  32.351  1.00  0.00     0.074 A 
ATOM     62  C   UNL A   1      43.438  27.137  31.515  1.00  0.00     0.031 C 
ATOM     63  C   UNL A   1      43.162  28.416  33.620  1.00  0.00     0.034 A 
BRANCH  50  64
ATOM     64  C   UNL A   1      39.720  32.793  36.365  1.00  0.00     0.023 A 
ATOM     65  C   UNL A   1      38.916  32.352  37.431  1.00  0.00     0.031 A 
ATOM     66  C   UNL A   1      40.264  34.086  36.445  1.00  0.00     0.131 A 
ATOM     67  C   UNL A   1      38.613  33.223  38.488  1.00  0.00     0.055 A 
ATOM     68  C   UNL A   1      40.032  34.916  37.545  1.00  0.00     0.041 A 
ATOM     69  F   UNL A   1      41.020  34.575  35.449  1.00  0.00    -0.206 F 
ATOM     70  C   UNL A   1      39.189  34.492  38.567  1.00  0.00     0.022 A 
BRANCH  67  71
ATOM     71  S   UNL A   1      37.334  32.728  39.675  1.00  0.00     0.124 S 
ATOM     72  O   UNL A   1      37.826  31.422  40.110  1.00  0.00    -0.237 OA
ATOM     73  O   UNL A   1      37.394  33.795  40.667  1.00  0.00    -0.237 OA
ATOM     74  O   UNL A   1      36.115  32.691  38.870  1.00  0.00    -0.744 OA
ENDBRANCH  67  71
ENDBRANCH  50  64
BRANCH  51  75
ATOM     75  C   UNL A   1      41.104  27.392  28.003  1.00  0.00     0.023 A 
ATOM     76  C   UNL A   1      40.815  26.020  27.951  1.00  0.00     0.031 A 
ATOM     77  C   UNL A   1      41.679  27.986  26.865  1.00  0.00     0.131 A 
ATOM     78  C   UNL A   1      41.157  25.273  26.813  1.00  0.00     0.055 A 
ATOM     79  C   UNL A   1      41.958  27.252  25.710  1.00  0.00     0.041 A 
ATOM     80  F   UNL A   1      41.975  29.296  26.858  1.00  0.00    -0.206 F 
ATOM     81  C   UNL A   1      41.713  25.883  25.686  1.00  0.00     0.022 A 
BRANCH  78  82
ATOM     82  S   UNL A   1      40.971  23.470  26.871  1.00  0.00     0.124 S 
ATOM     83  O   UNL A   1      39.533  23.316  26.680  1.00  0.00    -0.237 OA
ATOM     84  O   UNL A   1      41.817  23.042  25.762  1.00  0.00    -0.237 OA
ATOM     85  O   UNL A   1      41.465  23.122  28.202  1.00  0.00    -0.744 OA
ENDBRANCH  78  82
ENDBRANCH  51  75
BRANCH  63  86
ATOM     86  C   UNL A   1      44.290  27.606  34.213  1.00  0.00     0.023 A 
ATOM     87  C   UNL A   1      44.061  26.423  34.935  1.00  0.00     0.031 A 
ATOM     88  C   UNL A   1      45.620  28.025  34.030  1.00  0.00     0.131 A 
ATOM     89  C   UNL A   1      45.145  25.724  35.488  1.00  0.00     0.055 A 
ATOM     90  C   UNL A   1      46.697  27.292  34.527  1.00  0.00     0.041 A 
ATOM     91  F   UNL A   1      45.896  29.150  33.349  1.00  0.00    -0.206 F 
ATOM     92  C   UNL A   1      46.462  26.140  35.271  1.00  0.00     0.022 A 
BRANCH  89  93
ATOM     93  S   UNL A   1      44.809  24.304  36.566  1.00  0.00     0.124 S 
ATOM     94  O   UNL A   1      46.150  23.928  36.999  1.00  0.00    -0.237 OA
ATOM     95  O   UNL A   1      43.948  24.886  37.591  1.00  0.00    -0.237 OA
ATOM     96  O   UNL A   1      44.152  23.347  35.677  1.00  0.00    -0.744 OA
ENDBRANCH  89  93
ENDBRANCH  63  86
ENDBRANCH  37  38
ENDBRANCH  29  32
ENDBRANCH  27  28
ENDBRANCH  26  27
ENDBRANCH   1  26
TORSDOF 20
ENDMDL
