MODEL 1
REMARK VINA RESULT:     -11.3      0.000      0.000
REMARK SMILES CC1(C)C(C(=O)N2CCOC[C@H]2C(=O)NCCCNC(=O)c2ccc(-c3c4nc(c(-c5cc(S(=O)(=O)[O-])ccc5F)c5ccc([nH]5)c(-c5cc(S(=O)(=O)[O-])ccc5F)c5nc(c(-c6cc(S(=O)(=O)[O-])ccc6F)c6ccc3[nH]6)C=C5)C=C4)cc2)C1(C)C
REMARK SMILES IDX 17 1 16 2 15 3 13 4 14 5 12 7 7 8 8 9 9 10 11 11 10 12 5 13
REMARK SMILES IDX 6 14 4 15 1 16 2 17 3 18 85 19 86 20 87 21 18 22 19 23 20 24
REMARK SMILES IDX 21 26 22 27 23 28 84 29 24 30 83 31 25 32 26 33 27 34 77 35
REMARK SMILES IDX 28 36 82 37 76 38 78 39 29 40 81 41 75 42 74 43 30 45 62 46
REMARK SMILES IDX 42 47 61 48 43 49 46 50 60 51 79 52 44 53 45 54 59 56 80 57
REMARK SMILES IDX 47 58 31 59 32 60 40 61 33 62 39 63 41 64 38 65 34 66 35 67
REMARK SMILES IDX 36 68 37 69 63 70 64 71 72 72 65 73 71 74 73 75 70 76 66 77
REMARK SMILES IDX 67 78 68 79 69 80 48 81 49 82 57 83 50 84 56 85 58 86 55 87
REMARK SMILES IDX 51 88 52 89 53 90 54 91
REMARK H PARENT 15 6 19 25 78 44 46 55
REMARK Flexibility Score: inf
ROOT
ATOM      1  C   UNL A   1      35.159  34.054  28.543  1.00  0.00     0.042 C 
ENDROOT
BRANCH   1   2
ATOM      2  C   UNL A   1      33.663  34.350  28.555  1.00  0.00     0.117 C 
BRANCH   2   3
ATOM      3  N   UNL A   1      33.374  35.707  28.986  1.00  0.00    -0.354 N 
ATOM      4  C   UNL A   1      33.072  36.290  30.176  1.00  0.00     0.245 C 
ATOM      5  O   UNL A   1      32.902  37.516  30.111  1.00  0.00    -0.273 OA
ATOM      6  H   UNL A   1      33.404  36.354  28.245  1.00  0.00     0.163 HD
BRANCH   4   7
ATOM      7  C   UNL A   1      32.880  35.563  31.538  1.00  0.00     0.200 C 
ATOM      8  N   UNL A   1      34.101  35.065  32.206  1.00  0.00    -0.326 N 
ATOM      9  C   UNL A   1      34.779  36.067  32.988  1.00  0.00     0.149 C 
ATOM     10  C   UNL A   1      33.825  36.716  34.000  1.00  0.00     0.181 C 
ATOM     11  C   UNL A   1      31.963  36.243  32.561  1.00  0.00     0.195 C 
ATOM     12  O   UNL A   1      32.622  37.208  33.392  1.00  0.00    -0.377 OA
BRANCH   8  13
ATOM     13  C   UNL A   1      34.402  33.713  32.126  1.00  0.00     0.227 C 
ATOM     14  O   UNL A   1      33.610  32.874  32.534  1.00  0.00    -0.275 OA
BRANCH  13  15
ATOM     15  C   UNL A   1      35.691  33.154  31.589  1.00  0.00     0.091 C 
ATOM     16  C   UNL A   1      37.938  32.684  30.445  1.00  0.00     0.012 C 
ATOM     17  C   UNL A   1      37.203  33.379  31.595  1.00  0.00    -0.017 C 
ATOM     18  C   UNL A   1      37.959  34.631  31.962  1.00  0.00     0.012 C 
ATOM     19  C   UNL A   1      36.581  32.522  32.695  1.00  0.00    -0.017 C 
ATOM     20  C   UNL A   1      36.801  31.029  32.703  1.00  0.00     0.012 C 
ATOM     21  C   UNL A   1      36.437  33.051  34.110  1.00  0.00     0.012 C 
ENDBRANCH  13  15
ENDBRANCH   8  13
ENDBRANCH   4   7
ENDBRANCH   2   3
ENDBRANCH   1   2
BRANCH   1  22
ATOM     22  C   UNL A   1      35.553  32.924  27.610  1.00  0.00     0.118 C 
BRANCH  22  23
ATOM     23  N   UNL A   1      34.604  31.822  27.650  1.00  0.00    -0.352 N 
ATOM     24  C   UNL A   1      34.809  30.475  27.833  1.00  0.00     0.251 C 
ATOM     25  H   UNL A   1      33.663  32.083  27.526  1.00  0.00     0.163 HD
ATOM     26  O   UNL A   1      33.874  29.704  27.631  1.00  0.00    -0.269 OA
BRANCH  24  27
ATOM     27  C   UNL A   1      36.136  29.945  28.235  1.00  0.00     0.039 A 
ATOM     28  C   UNL A   1      37.203  30.042  27.335  1.00  0.00     0.014 A 
ATOM     29  C   UNL A   1      36.335  29.328  29.471  1.00  0.00     0.014 A 
ATOM     30  C   UNL A   1      38.469  29.572  27.696  1.00  0.00     0.010 A 
ATOM     31  C   UNL A   1      37.617  28.962  29.873  1.00  0.00     0.010 A 
ATOM     32  C   UNL A   1      38.696  29.058  28.982  1.00  0.00    -0.014 A 
BRANCH  32  33
ATOM     33  C   UNL A   1      40.034  28.564  29.403  1.00  0.00     0.031 A 
ATOM     34  C   UNL A   1      40.770  29.267  30.516  1.00  0.00     0.074 A 
ATOM     35  C   UNL A   1      40.612  27.539  28.747  1.00  0.00     0.049 A 
ATOM     36  N   UNL A   1      41.986  29.073  30.959  1.00  0.00    -0.248 NA
ATOM     37  C   UNL A   1      40.056  30.362  31.188  1.00  0.00     0.031 C 
ATOM     38  C   UNL A   1      40.018  26.808  27.626  1.00  0.00     0.029 A 
ATOM     39  N   UNL A   1      41.834  26.939  28.921  1.00  0.00    -0.354 N 
ATOM     40  C   UNL A   1      42.189  30.037  31.942  1.00  0.00     0.074 A 
ATOM     41  C   UNL A   1      40.997  30.856  31.976  1.00  0.00     0.031 C 
ATOM     42  C   UNL A   1      40.862  25.842  27.232  1.00  0.00     0.029 A 
ATOM     43  C   UNL A   1      42.078  25.913  28.037  1.00  0.00     0.049 A 
ATOM     44  H   UNL A   1      42.476  27.216  29.613  1.00  0.00     0.167 HD
ATOM     45  C   UNL A   1      43.257  30.208  32.759  1.00  0.00     0.034 A 
ATOM     46  C   UNL A   1      43.163  25.128  27.883  1.00  0.00     0.034 A 
ATOM     47  C   UNL A   1      44.423  29.358  32.733  1.00  0.00     0.049 A 
ATOM     48  C   UNL A   1      44.342  25.336  28.801  1.00  0.00     0.074 A 
ATOM     49  C   UNL A   1      45.533  29.391  33.558  1.00  0.00     0.029 A 
ATOM     50  N   UNL A   1      44.628  28.322  31.830  1.00  0.00    -0.354 N 
ATOM     51  N   UNL A   1      44.497  26.222  29.759  1.00  0.00    -0.248 NA
ATOM     52  C   UNL A   1      45.486  24.433  28.622  1.00  0.00     0.031 C 
ATOM     53  C   UNL A   1      46.436  28.417  33.115  1.00  0.00     0.029 A 
ATOM     54  C   UNL A   1      45.860  27.728  32.059  1.00  0.00     0.049 A 
ATOM     55  H   UNL A   1      43.992  28.049  31.131  1.00  0.00     0.167 HD
ATOM     56  C   UNL A   1      45.749  25.966  30.311  1.00  0.00     0.074 A 
ATOM     57  C   UNL A   1      46.295  24.832  29.593  1.00  0.00     0.031 C 
ATOM     58  C   UNL A   1      46.391  26.608  31.321  1.00  0.00     0.034 A 
BRANCH  45  59
ATOM     59  C   UNL A   1      43.213  31.364  33.731  1.00  0.00     0.023 A 
ATOM     60  C   UNL A   1      42.647  31.232  35.012  1.00  0.00     0.031 A 
ATOM     61  C   UNL A   1      43.705  32.627  33.359  1.00  0.00     0.131 A 
ATOM     62  C   UNL A   1      42.506  32.359  35.837  1.00  0.00     0.055 A 
ATOM     63  C   UNL A   1      43.641  33.726  34.220  1.00  0.00     0.041 A 
ATOM     64  F   UNL A   1      44.239  32.823  32.143  1.00  0.00    -0.206 F 
ATOM     65  C   UNL A   1      43.023  33.600  35.461  1.00  0.00     0.022 A 
BRANCH  62  66
ATOM     66  S   UNL A   1      41.500  32.208  37.338  1.00  0.00     0.124 S 
ATOM     67  O   UNL A   1      42.282  31.255  38.122  1.00  0.00    -0.237 OA
ATOM     68  O   UNL A   1      41.473  33.577  37.840  1.00  0.00    -0.237 OA
ATOM     69  O   UNL A   1      40.222  31.698  36.845  1.00  0.00    -0.744 OA
ENDBRANCH  62  66
ENDBRANCH  45  59
BRANCH  46  70
ATOM     70  C   UNL A   1      43.198  24.082  26.823  1.00  0.00     0.023 A 
ATOM     71  C   UNL A   1      42.487  22.881  26.969  1.00  0.00     0.031 A 
ATOM     72  C   UNL A   1      43.974  24.251  25.661  1.00  0.00     0.131 A 
ATOM     73  C   UNL A   1      42.600  21.876  25.994  1.00  0.00     0.055 A 
ATOM     74  C   UNL A   1      44.043  23.270  24.671  1.00  0.00     0.041 A 
ATOM     75  F   UNL A   1      44.668  25.384  25.467  1.00  0.00    -0.206 F 
ATOM     76  C   UNL A   1      43.364  22.068  24.841  1.00  0.00     0.022 A 
BRANCH  73  77
ATOM     77  S   UNL A   1      41.793  20.280  26.294  1.00  0.00     0.124 S 
ATOM     78  O   UNL A   1      42.313  19.473  25.196  1.00  0.00    -0.237 OA
ATOM     79  O   UNL A   1      42.281  19.941  27.626  1.00  0.00    -0.237 OA
ATOM     80  O   UNL A   1      40.369  20.598  26.216  1.00  0.00    -0.744 OA
ENDBRANCH  73  77
ENDBRANCH  46  70
BRANCH  58  81
ATOM     81  C   UNL A   1      47.743  26.068  31.720  1.00  0.00     0.023 A 
ATOM     82  C   UNL A   1      47.882  25.124  32.752  1.00  0.00     0.031 A 
ATOM     83  C   UNL A   1      48.904  26.513  31.066  1.00  0.00     0.131 A 
ATOM     84  C   UNL A   1      49.160  24.697  33.138  1.00  0.00     0.055 A 
ATOM     85  C   UNL A   1      50.169  26.040  31.415  1.00  0.00     0.041 A 
ATOM     86  F   UNL A   1      48.828  27.415  30.075  1.00  0.00    -0.206 F 
ATOM     87  C   UNL A   1      50.304  25.136  32.466  1.00  0.00     0.022 A 
BRANCH  84  88
ATOM     88  S   UNL A   1      49.317  23.626  34.593  1.00  0.00     0.124 S 
ATOM     89  O   UNL A   1      50.491  24.185  35.255  1.00  0.00    -0.237 OA
ATOM     90  O   UNL A   1      48.042  23.832  35.273  1.00  0.00    -0.237 OA
ATOM     91  O   UNL A   1      49.505  22.294  34.020  1.00  0.00    -0.744 OA
ENDBRANCH  84  88
ENDBRANCH  58  81
ENDBRANCH  32  33
ENDBRANCH  24  27
ENDBRANCH  22  23
ENDBRANCH   1  22
TORSDOF 15
ENDMDL
MODEL 2
REMARK VINA RESULT:     -11.2      4.206     10.315
REMARK SMILES CC1(C)C(C(=O)N2CCOC[C@H]2C(=O)NCCCNC(=O)c2ccc(-c3c4nc(c(-c5cc(S(=O)(=O)[O-])ccc5F)c5ccc([nH]5)c(-c5cc(S(=O)(=O)[O-])ccc5F)c5nc(c(-c6cc(S(=O)(=O)[O-])ccc6F)c6ccc3[nH]6)C=C5)C=C4)cc2)C1(C)C
REMARK SMILES IDX 17 1 16 2 15 3 13 4 14 5 12 7 7 8 8 9 9 10 11 11 10 12 5 13
REMARK SMILES IDX 6 14 4 15 1 16 2 17 3 18 85 19 86 20 87 21 18 22 19 23 20 24
REMARK SMILES IDX 21 26 22 27 23 28 84 29 24 30 83 31 25 32 26 33 27 34 77 35
REMARK SMILES IDX 28 36 82 37 76 38 78 39 29 40 81 41 75 42 74 43 30 45 62 46
REMARK SMILES IDX 42 47 61 48 43 49 46 50 60 51 79 52 44 53 45 54 59 56 80 57
REMARK SMILES IDX 47 58 31 59 32 60 40 61 33 62 39 63 41 64 38 65 34 66 35 67
REMARK SMILES IDX 36 68 37 69 63 70 64 71 72 72 65 73 71 74 73 75 70 76 66 77
REMARK SMILES IDX 67 78 68 79 69 80 48 81 49 82 57 83 50 84 56 85 58 86 55 87
REMARK SMILES IDX 51 88 52 89 53 90 54 91
REMARK H PARENT 15 6 19 25 78 44 46 55
REMARK Flexibility Score: inf
ROOT
ATOM      1  C   UNL A   1      33.230  28.953  23.316  1.00  0.00     0.042 C 
ENDROOT
BRANCH   1   2
ATOM      2  C   UNL A   1      32.174  27.969  22.823  1.00  0.00     0.117 C 
BRANCH   2   3
ATOM      3  N   UNL A   1      32.669  27.123  21.750  1.00  0.00    -0.354 N 
ATOM      4  C   UNL A   1      32.798  25.782  21.572  1.00  0.00     0.245 C 
ATOM      5  O   UNL A   1      33.273  25.461  20.472  1.00  0.00    -0.273 OA
ATOM      6  H   UNL A   1      32.984  27.640  20.975  1.00  0.00     0.163 HD
BRANCH   4   7
ATOM      7  C   UNL A   1      32.460  24.675  22.611  1.00  0.00     0.200 C 
ATOM      8  N   UNL A   1      33.405  24.506  23.736  1.00  0.00    -0.326 N 
ATOM      9  C   UNL A   1      33.169  25.416  24.827  1.00  0.00     0.149 C 
ATOM     10  C   UNL A   1      31.716  25.330  25.313  1.00  0.00     0.181 C 
ATOM     11  C   UNL A   1      31.018  24.627  23.126  1.00  0.00     0.195 C 
ATOM     12  O   UNL A   1      30.765  25.484  24.249  1.00  0.00    -0.377 OA
BRANCH   8  13
ATOM     13  C   UNL A   1      34.310  23.455  23.695  1.00  0.00     0.227 C 
ATOM     14  O   UNL A   1      35.376  23.577  23.106  1.00  0.00    -0.275 OA
BRANCH  13  15
ATOM     15  C   UNL A   1      34.079  22.103  24.308  1.00  0.00     0.091 C 
ATOM     16  C   UNL A   1      34.027  19.626  24.977  1.00  0.00     0.012 C 
ATOM     17  C   UNL A   1      34.803  20.947  24.999  1.00  0.00    -0.017 C 
ATOM     18  C   UNL A   1      36.279  20.638  25.000  1.00  0.00     0.012 C 
ATOM     19  C   UNL A   1      34.272  22.097  25.850  1.00  0.00    -0.017 C 
ATOM     20  C   UNL A   1      33.074  21.885  26.744  1.00  0.00     0.012 C 
ATOM     21  C   UNL A   1      35.213  23.125  26.450  1.00  0.00     0.012 C 
ENDBRANCH  13  15
ENDBRANCH   8  13
ENDBRANCH   4   7
ENDBRANCH   2   3
ENDBRANCH   1   2
BRANCH   1  22
ATOM     22  C   UNL A   1      33.340  29.028  24.828  1.00  0.00     0.118 C 
BRANCH  22  23
ATOM     23  N   UNL A   1      32.642  30.181  25.373  1.00  0.00    -0.352 N 
ATOM     24  C   UNL A   1      32.867  30.899  26.524  1.00  0.00     0.251 C 
ATOM     25  H   UNL A   1      31.885  30.500  24.830  1.00  0.00     0.163 HD
ATOM     26  O   UNL A   1      32.023  31.716  26.883  1.00  0.00    -0.269 OA
BRANCH  24  27
ATOM     27  C   UNL A   1      34.085  30.679  27.343  1.00  0.00     0.039 A 
ATOM     28  C   UNL A   1      34.324  29.405  27.868  1.00  0.00     0.014 A 
ATOM     29  C   UNL A   1      34.975  31.716  27.626  1.00  0.00     0.014 A 
ATOM     30  C   UNL A   1      35.476  29.163  28.623  1.00  0.00     0.010 A 
ATOM     31  C   UNL A   1      36.174  31.450  28.283  1.00  0.00     0.010 A 
ATOM     32  C   UNL A   1      36.428  30.176  28.810  1.00  0.00    -0.014 A 
BRANCH  32  33
ATOM     33  C   UNL A   1      37.670  29.947  29.595  1.00  0.00     0.031 A 
ATOM     34  C   UNL A   1      38.743  29.042  29.044  1.00  0.00     0.074 A 
ATOM     35  C   UNL A   1      37.805  30.491  30.820  1.00  0.00     0.049 A 
ATOM     36  N   UNL A   1      39.845  28.619  29.609  1.00  0.00    -0.248 NA
ATOM     37  C   UNL A   1      38.523  28.508  27.691  1.00  0.00     0.031 C 
ATOM     38  C   UNL A   1      36.816  31.348  31.479  1.00  0.00     0.029 A 
ATOM     39  N   UNL A   1      38.822  30.397  31.736  1.00  0.00    -0.354 N 
ATOM     40  C   UNL A   1      40.432  27.752  28.693  1.00  0.00     0.074 A 
ATOM     41  C   UNL A   1      39.528  27.656  27.568  1.00  0.00     0.031 C 
ATOM     42  C   UNL A   1      37.288  31.723  32.679  1.00  0.00     0.029 A 
ATOM     43  C   UNL A   1      38.587  31.096  32.898  1.00  0.00     0.049 A 
ATOM     44  H   UNL A   1      39.643  29.878  31.578  1.00  0.00     0.167 HD
ATOM     45  C   UNL A   1      41.628  27.116  28.769  1.00  0.00     0.034 A 
ATOM     46  C   UNL A   1      39.330  31.209  34.018  1.00  0.00     0.034 A 
ATOM     47  C   UNL A   1      42.532  27.252  29.884  1.00  0.00     0.049 A 
ATOM     48  C   UNL A   1      40.655  30.491  34.083  1.00  0.00     0.074 A 
ATOM     49  C   UNL A   1      43.797  26.714  30.041  1.00  0.00     0.029 A 
ATOM     50  N   UNL A   1      42.264  27.979  31.038  1.00  0.00    -0.354 N 
ATOM     51  N   UNL A   1      41.218  29.714  33.186  1.00  0.00    -0.248 NA
ATOM     52  C   UNL A   1      41.446  30.674  35.306  1.00  0.00     0.031 C 
ATOM     53  C   UNL A   1      44.267  27.062  31.312  1.00  0.00     0.029 A 
ATOM     54  C   UNL A   1      43.327  27.878  31.922  1.00  0.00     0.049 A 
ATOM     55  H   UNL A   1      41.441  28.491  31.203  1.00  0.00     0.167 HD
ATOM     56  C   UNL A   1      42.441  29.334  33.730  1.00  0.00     0.074 A 
ATOM     57  C   UNL A   1      42.540  29.984  35.021  1.00  0.00     0.031 C 
ATOM     58  C   UNL A   1      43.399  28.522  33.212  1.00  0.00     0.034 A 
BRANCH  45  59
ATOM     59  C   UNL A   1      42.008  26.209  27.622  1.00  0.00     0.023 A 
ATOM     60  C   UNL A   1      41.603  24.863  27.577  1.00  0.00     0.031 A 
ATOM     61  C   UNL A   1      42.821  26.683  26.577  1.00  0.00     0.131 A 
ATOM     62  C   UNL A   1      42.082  24.018  26.565  1.00  0.00     0.055 A 
ATOM     63  C   UNL A   1      43.224  25.858  25.524  1.00  0.00     0.041 A 
ATOM     64  F   UNL A   1      43.258  27.952  26.572  1.00  0.00    -0.206 F 
ATOM     65  C   UNL A   1      42.869  24.512  25.523  1.00  0.00     0.022 A 
BRANCH  62  66
ATOM     66  S   UNL A   1      41.789  22.235  26.718  1.00  0.00     0.124 S 
ATOM     67  O   UNL A   1      42.656  21.890  27.843  1.00  0.00    -0.237 OA
ATOM     68  O   UNL A   1      40.355  22.170  26.973  1.00  0.00    -0.237 OA
ATOM     69  O   UNL A   1      42.218  21.705  25.425  1.00  0.00    -0.744 OA
ENDBRANCH  62  66
ENDBRANCH  45  59
BRANCH  46  70
ATOM     70  C   UNL A   1      38.846  32.021  35.170  1.00  0.00     0.023 A 
ATOM     71  C   UNL A   1      38.340  31.407  36.326  1.00  0.00     0.031 A 
ATOM     72  C   UNL A   1      38.846  33.427  35.118  1.00  0.00     0.131 A 
ATOM     73  C   UNL A   1      37.815  32.192  37.365  1.00  0.00     0.055 A 
ATOM     74  C   UNL A   1      38.369  34.205  36.175  1.00  0.00     0.041 A 
ATOM     75  F   UNL A   1      39.326  34.067  34.039  1.00  0.00    -0.206 F 
ATOM     76  C   UNL A   1      37.837  33.586  37.301  1.00  0.00     0.022 A 
BRANCH  73  77
ATOM     77  S   UNL A   1      37.029  31.359  38.771  1.00  0.00     0.124 S 
ATOM     78  O   UNL A   1      35.766  32.082  38.877  1.00  0.00    -0.237 OA
ATOM     79  O   UNL A   1      36.942  29.982  38.296  1.00  0.00    -0.237 OA
ATOM     80  O   UNL A   1      37.970  31.580  39.867  1.00  0.00    -0.744 OA
ENDBRANCH  73  77
ENDBRANCH  46  70
BRANCH  58  81
ATOM     81  C   UNL A   1      44.645  28.325  34.038  1.00  0.00     0.023 A 
ATOM     82  C   UNL A   1      44.757  27.272  34.962  1.00  0.00     0.031 A 
ATOM     83  C   UNL A   1      45.729  29.211  33.907  1.00  0.00     0.131 A 
ATOM     84  C   UNL A   1      45.905  27.162  35.759  1.00  0.00     0.055 A 
ATOM     85  C   UNL A   1      46.893  29.062  34.660  1.00  0.00     0.041 A 
ATOM     86  F   UNL A   1      45.674  30.235  33.040  1.00  0.00    -0.206 F 
ATOM     87  C   UNL A   1      46.981  28.040  35.603  1.00  0.00     0.022 A 
BRANCH  84  88
ATOM     88  S   UNL A   1      45.939  25.909  37.069  1.00  0.00     0.124 S 
ATOM     89  O   UNL A   1      44.703  25.174  36.816  1.00  0.00    -0.237 OA
ATOM     90  O   UNL A   1      47.177  25.191  36.783  1.00  0.00    -0.237 OA
ATOM     91  O   UNL A   1      45.950  26.698  38.300  1.00  0.00    -0.744 OA
ENDBRANCH  84  88
ENDBRANCH  58  81
ENDBRANCH  32  33
ENDBRANCH  24  27
ENDBRANCH  22  23
ENDBRANCH   1  22
TORSDOF 15
ENDMDL
MODEL 3
REMARK VINA RESULT:     -11.1      5.386     11.011
REMARK SMILES CC1(C)C(C(=O)N2CCOC[C@H]2C(=O)NCCCNC(=O)c2ccc(-c3c4nc(c(-c5cc(S(=O)(=O)[O-])ccc5F)c5ccc([nH]5)c(-c5cc(S(=O)(=O)[O-])ccc5F)c5nc(c(-c6cc(S(=O)(=O)[O-])ccc6F)c6ccc3[nH]6)C=C5)C=C4)cc2)C1(C)C
REMARK SMILES IDX 17 1 16 2 15 3 13 4 14 5 12 7 7 8 8 9 9 10 11 11 10 12 5 13
REMARK SMILES IDX 6 14 4 15 1 16 2 17 3 18 85 19 86 20 87 21 18 22 19 23 20 24
REMARK SMILES IDX 21 26 22 27 23 28 84 29 24 30 83 31 25 32 26 33 27 34 77 35
REMARK SMILES IDX 28 36 82 37 76 38 78 39 29 40 81 41 75 42 74 43 30 45 62 46
REMARK SMILES IDX 42 47 61 48 43 49 46 50 60 51 79 52 44 53 45 54 59 56 80 57
REMARK SMILES IDX 47 58 31 59 32 60 40 61 33 62 39 63 41 64 38 65 34 66 35 67
REMARK SMILES IDX 36 68 37 69 63 70 64 71 72 72 65 73 71 74 73 75 70 76 66 77
REMARK SMILES IDX 67 78 68 79 69 80 48 81 49 82 57 83 50 84 56 85 58 86 55 87
REMARK SMILES IDX 51 88 52 89 53 90 54 91
REMARK H PARENT 15 6 19 25 78 44 46 55
REMARK Flexibility Score: inf
ROOT
ATOM      1  C   UNL A   1      37.013  22.432  24.118  1.00  0.00     0.042 C 
ENDROOT
BRANCH   1   2
ATOM      2  C   UNL A   1      35.617  22.910  23.731  1.00  0.00     0.117 C 
BRANCH   2   3
ATOM      3  N   UNL A   1      34.578  22.005  24.192  1.00  0.00    -0.354 N 
ATOM      4  C   UNL A   1      33.525  22.111  25.044  1.00  0.00     0.245 C 
ATOM      5  O   UNL A   1      32.857  21.073  25.156  1.00  0.00    -0.273 OA
ATOM      6  H   UNL A   1      34.655  21.107  23.795  1.00  0.00     0.163 HD
BRANCH   4   7
ATOM      7  C   UNL A   1      33.145  23.360  25.891  1.00  0.00     0.200 C 
ATOM      8  N   UNL A   1      32.351  24.407  25.215  1.00  0.00    -0.326 N 
ATOM      9  C   UNL A   1      30.935  24.143  25.211  1.00  0.00     0.149 C 
ATOM     10  C   UNL A   1      30.417  23.894  26.634  1.00  0.00     0.181 C 
ATOM     11  C   UNL A   1      32.583  23.098  27.293  1.00  0.00     0.195 C 
ATOM     12  O   UNL A   1      31.165  22.886  27.328  1.00  0.00    -0.377 OA
BRANCH   8  13
ATOM     13  C   UNL A   1      32.996  25.555  24.776  1.00  0.00     0.227 C 
ATOM     14  O   UNL A   1      33.352  25.659  23.609  1.00  0.00    -0.275 OA
BRANCH  13  15
ATOM     15  C   UNL A   1      33.347  26.726  25.649  1.00  0.00     0.091 C 
ATOM     16  C   UNL A   1      34.345  28.797  26.788  1.00  0.00     0.012 C 
ATOM     17  C   UNL A   1      33.510  28.246  25.628  1.00  0.00    -0.017 C 
ATOM     18  C   UNL A   1      33.692  29.148  24.434  1.00  0.00     0.012 C 
ATOM     19  C   UNL A   1      32.135  27.657  25.927  1.00  0.00    -0.017 C 
ATOM     20  C   UNL A   1      31.568  27.735  27.324  1.00  0.00     0.012 C 
ATOM     21  C   UNL A   1      31.024  27.702  24.895  1.00  0.00     0.012 C 
ENDBRANCH  13  15
ENDBRANCH   8  13
ENDBRANCH   4   7
ENDBRANCH   2   3
ENDBRANCH   1   2
BRANCH   1  22
ATOM     22  C   UNL A   1      37.288  22.485  25.609  1.00  0.00     0.118 C 
BRANCH  22  23
ATOM     23  N   UNL A   1      38.393  21.621  25.995  1.00  0.00    -0.352 N 
ATOM     24  C   UNL A   1      39.640  21.933  26.484  1.00  0.00     0.251 C 
ATOM     25  H   UNL A   1      38.221  20.658  25.888  1.00  0.00     0.163 HD
ATOM     26  O   UNL A   1      40.485  21.043  26.554  1.00  0.00    -0.269 OA
BRANCH  24  27
ATOM     27  C   UNL A   1      39.983  23.317  26.893  1.00  0.00     0.039 A 
ATOM     28  C   UNL A   1      40.687  23.513  28.086  1.00  0.00     0.014 A 
ATOM     29  C   UNL A   1      39.593  24.424  26.137  1.00  0.00     0.014 A 
ATOM     30  C   UNL A   1      41.044  24.805  28.485  1.00  0.00     0.010 A 
ATOM     31  C   UNL A   1      40.043  25.697  26.476  1.00  0.00     0.010 A 
ATOM     32  C   UNL A   1      40.754  25.907  27.666  1.00  0.00    -0.014 A 
BRANCH  32  33
ATOM     33  C   UNL A   1      41.134  27.291  28.054  1.00  0.00     0.031 A 
ATOM     34  C   UNL A   1      42.583  27.706  28.011  1.00  0.00     0.074 A 
ATOM     35  C   UNL A   1      40.196  28.147  28.506  1.00  0.00     0.049 A 
ATOM     36  N   UNL A   1      43.141  28.819  28.412  1.00  0.00    -0.248 NA
ATOM     37  C   UNL A   1      43.535  26.715  27.485  1.00  0.00     0.031 C 
ATOM     38  C   UNL A   1      38.769  27.847  28.636  1.00  0.00     0.029 A 
ATOM     39  N   UNL A   1      40.303  29.441  28.951  1.00  0.00    -0.354 N 
ATOM     40  C   UNL A   1      44.508  28.652  28.211  1.00  0.00     0.074 A 
ATOM     41  C   UNL A   1      44.696  27.304  27.721  1.00  0.00     0.031 C 
ATOM     42  C   UNL A   1      38.130  28.934  29.099  1.00  0.00     0.029 A 
ATOM     43  C   UNL A   1      39.105  29.991  29.347  1.00  0.00     0.049 A 
ATOM     44  H   UNL A   1      41.156  29.930  28.984  1.00  0.00     0.167 HD
ATOM     45  C   UNL A   1      45.510  29.547  28.392  1.00  0.00     0.034 A 
ATOM     46  C   UNL A   1      38.827  31.205  29.863  1.00  0.00     0.034 A 
ATOM     47  C   UNL A   1      45.298  30.899  28.849  1.00  0.00     0.049 A 
ATOM     48  C   UNL A   1      39.957  32.184  30.058  1.00  0.00     0.074 A 
ATOM     49  C   UNL A   1      46.225  31.913  29.002  1.00  0.00     0.029 A 
ATOM     50  N   UNL A   1      44.069  31.422  29.229  1.00  0.00    -0.354 N 
ATOM     51  N   UNL A   1      41.239  32.026  29.817  1.00  0.00    -0.248 NA
ATOM     52  C   UNL A   1      39.601  33.507  30.588  1.00  0.00     0.031 C 
ATOM     53  C   UNL A   1      45.569  33.030  29.533  1.00  0.00     0.029 A 
ATOM     54  C   UNL A   1      44.219  32.737  29.644  1.00  0.00     0.049 A 
ATOM     55  H   UNL A   1      43.215  30.933  29.206  1.00  0.00     0.167 HD
ATOM     56  C   UNL A   1      41.837  33.239  30.144  1.00  0.00     0.074 A 
ATOM     57  C   UNL A   1      40.774  34.122  30.579  1.00  0.00     0.031 C 
ATOM     58  C   UNL A   1      43.147  33.594  30.090  1.00  0.00     0.034 A 
BRANCH  45  59
ATOM     59  C   UNL A   1      46.919  29.080  28.109  1.00  0.00     0.023 A 
ATOM     60  C   UNL A   1      47.360  28.807  26.803  1.00  0.00     0.031 A 
ATOM     61  C   UNL A   1      47.824  28.865  29.164  1.00  0.00     0.131 A 
ATOM     62  C   UNL A   1      48.632  28.251  26.591  1.00  0.00     0.055 A 
ATOM     63  C   UNL A   1      49.121  28.395  28.939  1.00  0.00     0.041 A 
ATOM     64  F   UNL A   1      47.458  29.088  30.436  1.00  0.00    -0.206 F 
ATOM     65  C   UNL A   1      49.525  28.068  27.648  1.00  0.00     0.022 A 
BRANCH  62  66
ATOM     66  S   UNL A   1      49.038  27.630  24.936  1.00  0.00     0.124 S 
ATOM     67  O   UNL A   1      49.168  26.196  25.185  1.00  0.00    -0.237 OA
ATOM     68  O   UNL A   1      47.881  28.041  24.150  1.00  0.00    -0.237 OA
ATOM     69  O   UNL A   1      50.289  28.314  24.612  1.00  0.00    -0.744 OA
ENDBRANCH  62  66
ENDBRANCH  45  59
BRANCH  46  70
ATOM     70  C   UNL A   1      37.431  31.566  30.239  1.00  0.00     0.023 A 
ATOM     71  C   UNL A   1      36.532  32.069  29.285  1.00  0.00     0.031 A 
ATOM     72  C   UNL A   1      36.983  31.449  31.567  1.00  0.00     0.131 A 
ATOM     73  C   UNL A   1      35.248  32.479  29.679  1.00  0.00     0.055 A 
ATOM     74  C   UNL A   1      35.689  31.811  31.945  1.00  0.00     0.041 A 
ATOM     75  F   UNL A   1      37.799  30.967  32.519  1.00  0.00    -0.206 F 
ATOM     76  C   UNL A   1      34.818  32.342  31.000  1.00  0.00     0.022 A 
BRANCH  73  77
ATOM     77  S   UNL A   1      34.173  33.269  28.450  1.00  0.00     0.124 S 
ATOM     78  O   UNL A   1      33.498  32.118  27.862  1.00  0.00    -0.237 OA
ATOM     79  O   UNL A   1      33.351  34.139  29.283  1.00  0.00    -0.237 OA
ATOM     80  O   UNL A   1      35.113  33.959  27.569  1.00  0.00    -0.744 OA
ENDBRANCH  73  77
ENDBRANCH  46  70
BRANCH  58  81
ATOM     81  C   UNL A   1      43.485  35.011  30.484  1.00  0.00     0.023 A 
ATOM     82  C   UNL A   1      43.447  36.062  29.552  1.00  0.00     0.031 A 
ATOM     83  C   UNL A   1      43.860  35.308  31.805  1.00  0.00     0.131 A 
ATOM     84  C   UNL A   1      43.833  37.353  29.941  1.00  0.00     0.055 A 
ATOM     85  C   UNL A   1      44.186  36.605  32.201  1.00  0.00     0.041 A 
ATOM     86  F   UNL A   1      43.914  34.340  32.734  1.00  0.00    -0.206 F 
ATOM     87  C   UNL A   1      44.186  37.635  31.264  1.00  0.00     0.022 A 
BRANCH  84  88
ATOM     88  S   UNL A   1      43.953  38.645  28.675  1.00  0.00     0.124 S 
ATOM     89  O   UNL A   1      43.175  39.726  29.270  1.00  0.00    -0.237 OA
ATOM     90  O   UNL A   1      45.393  38.867  28.591  1.00  0.00    -0.237 OA
ATOM     91  O   UNL A   1      43.352  38.026  27.494  1.00  0.00    -0.744 OA
ENDBRANCH  84  88
ENDBRANCH  58  81
ENDBRANCH  32  33
ENDBRANCH  24  27
ENDBRANCH  22  23
ENDBRANCH   1  22
TORSDOF 15
ENDMDL
