MODEL 1
REMARK VINA RESULT:     -12.7      0.000      0.000
REMARK SMILES CCc1c(Cl)ccc2c1C=C(C(=O)NCCCNC(=O)c1ccc(-c3c4nc(c(-c5cc(S(=O)(=O)[O-])ccc5F)c5ccc([nH]5)c(-c5cc(S(=O)(=O)[O-])ccc5F)c5nc(c(-c6cc(S(=O)(=O)[O-])ccc6F)c6ccc3[nH]6)C=C5)C=C4)cc1)[C@@H](C(F)(F)F)O2
REMARK SMILES IDX 17 1 16 2 15 3 14 4 12 5 13 6 11 8 3 9 4 10 9 11 5 12 6 13
REMARK SMILES IDX 8 14 10 15 7 16 89 17 84 18 2 19 1 20 85 21 86 22 87 23
REMARK SMILES IDX 88 24 18 25 19 26 20 28 21 29 22 30 83 31 23 32 82 33 24 34
REMARK SMILES IDX 25 35 26 36 76 37 27 38 81 39 75 40 77 41 28 42 80 43 74 44
REMARK SMILES IDX 73 45 29 47 61 48 41 49 60 50 42 51 45 52 59 53 78 54 43 55
REMARK SMILES IDX 44 56 58 58 79 59 46 60 30 61 31 62 39 63 32 64 38 65 40 66
REMARK SMILES IDX 37 67 33 68 34 69 35 70 36 71 62 72 63 73 71 74 64 75 70 76
REMARK SMILES IDX 72 77 69 78 65 79 66 80 67 81 68 82 47 83 48 84 56 85 49 86
REMARK SMILES IDX 55 87 57 88 54 89 50 90 51 91 52 92 53 93
REMARK H PARENT 14 7 18 27 77 46 45 57
REMARK Flexibility Score: inf
ROOT
ATOM      1  C   UNL A   1      31.887  30.528  26.769  1.00  0.00     0.118 C 
ENDROOT
BRANCH   1   2
ATOM      2  C   UNL A   1      32.141  30.003  25.361  1.00  0.00     0.042 C 
BRANCH   2   3
ATOM      3  C   UNL A   1      33.518  29.374  25.218  1.00  0.00     0.118 C 
BRANCH   3   4
ATOM      4  N   UNL A   1      33.749  28.874  23.870  1.00  0.00    -0.352 N 
ATOM      5  C   UNL A   1      33.606  27.705  23.205  1.00  0.00     0.251 C 
ATOM      6  O   UNL A   1      33.942  27.738  22.015  1.00  0.00    -0.270 OA
ATOM      7  H   UNL A   1      34.108  29.579  23.283  1.00  0.00     0.163 HD
BRANCH   5   8
ATOM      8  C   UNL A   1      33.076  26.437  23.786  1.00  0.00     0.067 C 
ATOM      9  C   UNL A   1      34.251  22.886  24.136  1.00  0.00    -0.019 A 
ATOM     10  C   UNL A   1      33.778  21.730  24.801  1.00  0.00     0.045 A 
ATOM     11  C   UNL A   1      33.500  24.088  24.312  1.00  0.00     0.022 A 
ATOM     12  Cl  UNL A   1      34.633  20.228  24.853  1.00  0.00    -0.084 Cl
ATOM     13  C   UNL A   1      32.580  21.744  25.529  1.00  0.00     0.024 A 
ATOM     14  C   UNL A   1      32.299  24.071  25.041  1.00  0.00     0.128 A 
ATOM     15  C   UNL A   1      33.938  25.403  23.818  1.00  0.00     0.026 C 
ATOM     16  C   UNL A   1      31.838  22.909  25.644  1.00  0.00     0.048 A 
ATOM     17  O   UNL A   1      31.532  25.182  25.255  1.00  0.00    -0.475 OA
ATOM     18  C   UNL A   1      31.679  26.259  24.294  1.00  0.00     0.314 C 
BRANCH   9  19
ATOM     19  C   UNL A   1      35.536  22.924  23.318  1.00  0.00     0.034 C 
ATOM     20  C   UNL A   1      36.883  22.994  24.031  1.00  0.00     0.009 C 
ENDBRANCH   9  19
BRANCH  18  21
ATOM     21  C   UNL A   1      30.645  26.088  23.165  1.00  0.00     0.429 C 
ATOM     22  F   UNL A   1      31.170  25.365  22.145  1.00  0.00    -0.167 F 
ATOM     23  F   UNL A   1      29.535  25.427  23.572  1.00  0.00    -0.167 F 
ATOM     24  F   UNL A   1      30.229  27.268  22.653  1.00  0.00    -0.167 F 
ENDBRANCH  18  21
ENDBRANCH   5   8
ENDBRANCH   3   4
ENDBRANCH   2   3
ENDBRANCH   1   2
BRANCH   1  25
ATOM     25  N   UNL A   1      31.911  31.988  26.826  1.00  0.00    -0.352 N 
ATOM     26  C   UNL A   1      32.812  32.843  27.418  1.00  0.00     0.251 C 
ATOM     27  H   UNL A   1      31.162  32.432  26.367  1.00  0.00     0.163 HD
ATOM     28  O   UNL A   1      32.523  34.031  27.547  1.00  0.00    -0.269 OA
BRANCH  26  29
ATOM     29  C   UNL A   1      34.104  32.329  27.918  1.00  0.00     0.039 A 
ATOM     30  C   UNL A   1      34.213  31.008  28.347  1.00  0.00     0.014 A 
ATOM     31  C   UNL A   1      35.215  33.175  27.969  1.00  0.00     0.014 A 
ATOM     32  C   UNL A   1      35.355  30.597  29.019  1.00  0.00     0.010 A 
ATOM     33  C   UNL A   1      36.408  32.719  28.539  1.00  0.00     0.010 A 
ATOM     34  C   UNL A   1      36.469  31.444  29.122  1.00  0.00    -0.014 A 
BRANCH  34  35
ATOM     35  C   UNL A   1      37.684  30.952  29.825  1.00  0.00     0.031 A 
ATOM     36  C   UNL A   1      37.953  31.310  31.260  1.00  0.00     0.074 A 
ATOM     37  C   UNL A   1      38.514  30.116  29.171  1.00  0.00     0.049 A 
ATOM     38  N   UNL A   1      38.925  30.907  32.036  1.00  0.00    -0.248 NA
ATOM     39  C   UNL A   1      37.023  32.248  31.907  1.00  0.00     0.031 C 
ATOM     40  C   UNL A   1      38.352  29.712  27.774  1.00  0.00     0.029 A 
ATOM     41  N   UNL A   1      39.627  29.431  29.588  1.00  0.00    -0.354 N 
ATOM     42  C   UNL A   1      38.748  31.565  33.247  1.00  0.00     0.074 A 
ATOM     43  C   UNL A   1      37.586  32.413  33.097  1.00  0.00     0.031 C 
ATOM     44  C   UNL A   1      39.278  28.795  27.472  1.00  0.00     0.029 A 
ATOM     45  C   UNL A   1      40.157  28.606  28.624  1.00  0.00     0.049 A 
ATOM     46  H   UNL A   1      40.010  29.523  30.491  1.00  0.00     0.167 HD
ATOM     47  C   UNL A   1      39.481  31.460  34.381  1.00  0.00     0.034 A 
ATOM     48  C   UNL A   1      41.234  27.795  28.648  1.00  0.00     0.034 A 
ATOM     49  C   UNL A   1      40.613  30.578  34.522  1.00  0.00     0.049 A 
ATOM     50  C   UNL A   1      42.028  27.687  29.921  1.00  0.00     0.074 A 
ATOM     51  C   UNL A   1      41.378  30.350  35.652  1.00  0.00     0.029 A 
ATOM     52  N   UNL A   1      41.145  29.787  33.513  1.00  0.00    -0.354 N 
ATOM     53  N   UNL A   1      41.807  28.269  31.076  1.00  0.00    -0.248 NA
ATOM     54  C   UNL A   1      43.214  26.821  29.900  1.00  0.00     0.031 C 
ATOM     55  C   UNL A   1      42.410  29.475  35.310  1.00  0.00     0.029 A 
ATOM     56  C   UNL A   1      42.250  29.097  33.986  1.00  0.00     0.049 A 
ATOM     57  H   UNL A   1      40.789  29.725  32.597  1.00  0.00     0.167 HD
ATOM     58  C   UNL A   1      42.826  27.842  31.922  1.00  0.00     0.074 A 
ATOM     59  C   UNL A   1      43.642  26.924  31.153  1.00  0.00     0.031 C 
ATOM     60  C   UNL A   1      43.064  28.188  33.212  1.00  0.00     0.034 A 
BRANCH  47  61
ATOM     61  C   UNL A   1      39.105  32.312  35.569  1.00  0.00     0.023 A 
ATOM     62  C   UNL A   1      39.592  33.630  35.665  1.00  0.00     0.031 A 
ATOM     63  C   UNL A   1      38.368  31.797  36.649  1.00  0.00     0.131 A 
ATOM     64  C   UNL A   1      39.356  34.379  36.824  1.00  0.00     0.055 A 
ATOM     65  C   UNL A   1      38.102  32.560  37.787  1.00  0.00     0.041 A 
ATOM     66  F   UNL A   1      37.882  30.545  36.608  1.00  0.00    -0.206 F 
ATOM     67  C   UNL A   1      38.607  33.854  37.882  1.00  0.00     0.022 A 
BRANCH  64  68
ATOM     68  S   UNL A   1      40.061  36.036  37.031  1.00  0.00     0.124 S 
ATOM     69  O   UNL A   1      39.276  36.556  38.149  1.00  0.00    -0.237 OA
ATOM     70  O   UNL A   1      41.458  35.739  37.336  1.00  0.00    -0.237 OA
ATOM     71  O   UNL A   1      39.821  36.685  35.747  1.00  0.00    -0.744 OA
ENDBRANCH  64  68
ENDBRANCH  47  61
BRANCH  48  72
ATOM     72  C   UNL A   1      41.557  27.006  27.425  1.00  0.00     0.023 A 
ATOM     73  C   UNL A   1      41.285  25.626  27.371  1.00  0.00     0.031 A 
ATOM     74  C   UNL A   1      42.298  27.576  26.376  1.00  0.00     0.131 A 
ATOM     75  C   UNL A   1      41.844  24.846  26.353  1.00  0.00     0.055 A 
ATOM     76  C   UNL A   1      42.782  26.806  25.316  1.00  0.00     0.041 A 
ATOM     77  F   UNL A   1      42.592  28.885  26.390  1.00  0.00    -0.206 F 
ATOM     78  C   UNL A   1      42.577  25.429  25.315  1.00  0.00     0.022 A 
BRANCH  75  79
ATOM     79  S   UNL A   1      41.789  23.033  26.440  1.00  0.00     0.124 S 
ATOM     80  O   UNL A   1      40.356  22.775  26.541  1.00  0.00    -0.237 OA
ATOM     81  O   UNL A   1      42.412  22.659  25.173  1.00  0.00    -0.237 OA
ATOM     82  O   UNL A   1      42.571  22.722  27.632  1.00  0.00    -0.744 OA
ENDBRANCH  75  79
ENDBRANCH  48  72
BRANCH  60  83
ATOM     83  C   UNL A   1      44.271  27.600  33.902  1.00  0.00     0.023 A 
ATOM     84  C   UNL A   1      44.153  26.398  34.627  1.00  0.00     0.031 A 
ATOM     85  C   UNL A   1      45.483  28.307  33.976  1.00  0.00     0.131 A 
ATOM     86  C   UNL A   1      45.212  25.965  35.433  1.00  0.00     0.055 A 
ATOM     87  C   UNL A   1      46.554  27.844  34.743  1.00  0.00     0.041 A 
ATOM     88  F   UNL A   1      45.641  29.462  33.310  1.00  0.00    -0.206 F 
ATOM     89  C   UNL A   1      46.415  26.677  35.489  1.00  0.00     0.022 A 
BRANCH  86  90
ATOM     90  S   UNL A   1      45.036  24.515  36.509  1.00  0.00     0.124 S 
ATOM     91  O   UNL A   1      44.317  25.075  37.652  1.00  0.00    -0.237 OA
ATOM     92  O   UNL A   1      44.263  23.602  35.673  1.00  0.00    -0.237 OA
ATOM     93  O   UNL A   1      46.411  24.108  36.779  1.00  0.00    -0.744 OA
ENDBRANCH  86  90
ENDBRANCH  60  83
ENDBRANCH  34  35
ENDBRANCH  26  29
ENDBRANCH   1  25
TORSDOF 15
ENDMDL
MODEL 2
REMARK VINA RESULT:     -12.5      1.383      1.609
REMARK SMILES CCc1c(Cl)ccc2c1C=C(C(=O)NCCCNC(=O)c1ccc(-c3c4nc(c(-c5cc(S(=O)(=O)[O-])ccc5F)c5ccc([nH]5)c(-c5cc(S(=O)(=O)[O-])ccc5F)c5nc(c(-c6cc(S(=O)(=O)[O-])ccc6F)c6ccc3[nH]6)C=C5)C=C4)cc1)[C@@H](C(F)(F)F)O2
REMARK SMILES IDX 17 1 16 2 15 3 14 4 12 5 13 6 11 8 3 9 4 10 9 11 5 12 6 13
REMARK SMILES IDX 8 14 10 15 7 16 89 17 84 18 2 19 1 20 85 21 86 22 87 23
REMARK SMILES IDX 88 24 18 25 19 26 20 28 21 29 22 30 83 31 23 32 82 33 24 34
REMARK SMILES IDX 25 35 26 36 76 37 27 38 81 39 75 40 77 41 28 42 80 43 74 44
REMARK SMILES IDX 73 45 29 47 61 48 41 49 60 50 42 51 45 52 59 53 78 54 43 55
REMARK SMILES IDX 44 56 58 58 79 59 46 60 30 61 31 62 39 63 32 64 38 65 40 66
REMARK SMILES IDX 37 67 33 68 34 69 35 70 36 71 62 72 63 73 71 74 64 75 70 76
REMARK SMILES IDX 72 77 69 78 65 79 66 80 67 81 68 82 47 83 48 84 56 85 49 86
REMARK SMILES IDX 55 87 57 88 54 89 50 90 51 91 52 92 53 93
REMARK H PARENT 14 7 18 27 77 46 45 57
REMARK Flexibility Score: inf
ROOT
ATOM      1  C   UNL A   1      32.028  30.455  26.820  1.00  0.00     0.118 C 
ENDROOT
BRANCH   1   2
ATOM      2  C   UNL A   1      32.238  29.955  25.396  1.00  0.00     0.042 C 
BRANCH   2   3
ATOM      3  C   UNL A   1      33.616  29.346  25.193  1.00  0.00     0.118 C 
BRANCH   3   4
ATOM      4  N   UNL A   1      33.791  28.836  23.841  1.00  0.00    -0.352 N 
ATOM      5  C   UNL A   1      33.612  27.666  23.187  1.00  0.00     0.251 C 
ATOM      6  O   UNL A   1      33.903  27.688  21.986  1.00  0.00    -0.270 OA
ATOM      7  H   UNL A   1      34.135  29.534  23.237  1.00  0.00     0.163 HD
BRANCH   5   8
ATOM      8  C   UNL A   1      33.090  26.406  23.795  1.00  0.00     0.067 C 
ATOM      9  C   UNL A   1      34.242  22.846  24.123  1.00  0.00    -0.019 A 
ATOM     10  C   UNL A   1      33.783  21.698  24.811  1.00  0.00     0.045 A 
ATOM     11  C   UNL A   1      33.510  24.056  24.319  1.00  0.00     0.022 A 
ATOM     12  Cl  UNL A   1      34.624  20.188  24.841  1.00  0.00    -0.084 Cl
ATOM     13  C   UNL A   1      32.613  21.728  25.583  1.00  0.00     0.024 A 
ATOM     14  C   UNL A   1      32.337  24.055  25.092  1.00  0.00     0.128 A 
ATOM     15  C   UNL A   1      33.943  25.364  23.802  1.00  0.00     0.026 C 
ATOM     16  C   UNL A   1      31.887  22.901  25.718  1.00  0.00     0.048 A 
ATOM     17  O   UNL A   1      31.589  25.174  25.327  1.00  0.00    -0.475 OA
ATOM     18  C   UNL A   1      31.711  26.245  24.355  1.00  0.00     0.314 C 
BRANCH   9  19
ATOM     19  C   UNL A   1      35.497  22.866  23.259  1.00  0.00     0.034 C 
ATOM     20  C   UNL A   1      36.869  22.741  23.915  1.00  0.00     0.009 C 
ENDBRANCH   9  19
BRANCH  18  21
ATOM     21  C   UNL A   1      30.635  26.078  23.266  1.00  0.00     0.429 C 
ATOM     22  F   UNL A   1      31.008  26.714  22.127  1.00  0.00    -0.167 F 
ATOM     23  F   UNL A   1      30.429  24.782  22.932  1.00  0.00    -0.167 F 
ATOM     24  F   UNL A   1      29.435  26.580  23.635  1.00  0.00    -0.167 F 
ENDBRANCH  18  21
ENDBRANCH   5   8
ENDBRANCH   3   4
ENDBRANCH   2   3
ENDBRANCH   1   2
BRANCH   1  25
ATOM     25  N   UNL A   1      32.052  31.914  26.901  1.00  0.00    -0.352 N 
ATOM     26  C   UNL A   1      32.956  32.759  27.501  1.00  0.00     0.251 C 
ATOM     27  H   UNL A   1      31.299  32.365  26.455  1.00  0.00     0.163 HD
ATOM     28  O   UNL A   1      32.668  33.945  27.652  1.00  0.00    -0.269 OA
BRANCH  26  29
ATOM     29  C   UNL A   1      34.252  32.238  27.983  1.00  0.00     0.039 A 
ATOM     30  C   UNL A   1      34.363  30.913  28.400  1.00  0.00     0.014 A 
ATOM     31  C   UNL A   1      35.367  33.080  28.027  1.00  0.00     0.014 A 
ATOM     32  C   UNL A   1      35.510  30.494  29.056  1.00  0.00     0.010 A 
ATOM     33  C   UNL A   1      36.565  32.617  28.580  1.00  0.00     0.010 A 
ATOM     34  C   UNL A   1      36.629  31.337  29.153  1.00  0.00    -0.014 A 
BRANCH  34  35
ATOM     35  C   UNL A   1      37.850  30.836  29.839  1.00  0.00     0.031 A 
ATOM     36  C   UNL A   1      38.130  31.173  31.276  1.00  0.00     0.074 A 
ATOM     37  C   UNL A   1      38.676  30.012  29.165  1.00  0.00     0.049 A 
ATOM     38  N   UNL A   1      39.109  30.759  32.038  1.00  0.00    -0.248 NA
ATOM     39  C   UNL A   1      37.204  32.099  31.945  1.00  0.00     0.031 C 
ATOM     40  C   UNL A   1      38.503  29.629  27.763  1.00  0.00     0.029 A 
ATOM     41  N   UNL A   1      39.793  29.322  29.563  1.00  0.00    -0.354 N 
ATOM     42  C   UNL A   1      38.940  31.399  33.261  1.00  0.00     0.074 A 
ATOM     43  C   UNL A   1      37.776  32.247  33.133  1.00  0.00     0.031 C 
ATOM     44  C   UNL A   1      39.427  28.717  27.440  1.00  0.00     0.029 A 
ATOM     45  C   UNL A   1      40.316  28.513  28.582  1.00  0.00     0.049 A 
ATOM     46  H   UNL A   1      40.183  29.400  30.464  1.00  0.00     0.167 HD
ATOM     47  C   UNL A   1      39.683  31.277  34.387  1.00  0.00     0.034 A 
ATOM     48  C   UNL A   1      41.394  27.703  28.585  1.00  0.00     0.034 A 
ATOM     49  C   UNL A   1      40.817  30.395  34.506  1.00  0.00     0.049 A 
ATOM     50  C   UNL A   1      42.199  27.577  29.850  1.00  0.00     0.074 A 
ATOM     51  C   UNL A   1      41.592  30.151  35.626  1.00  0.00     0.029 A 
ATOM     52  N   UNL A   1      41.342  29.621  33.480  1.00  0.00    -0.354 N 
ATOM     53  N   UNL A   1      41.987  28.141  31.015  1.00  0.00    -0.248 NA
ATOM     54  C   UNL A   1      43.385  26.713  29.806  1.00  0.00     0.031 C 
ATOM     55  C   UNL A   1      42.622  29.283  35.262  1.00  0.00     0.029 A 
ATOM     56  C   UNL A   1      42.452  28.925  33.933  1.00  0.00     0.049 A 
ATOM     57  H   UNL A   1      40.978  29.571  32.567  1.00  0.00     0.167 HD
ATOM     58  C   UNL A   1      43.013  27.702  31.846  1.00  0.00     0.074 A 
ATOM     59  C   UNL A   1      43.824  26.798  31.056  1.00  0.00     0.031 C 
ATOM     60  C   UNL A   1      43.261  28.029  33.139  1.00  0.00     0.034 A 
BRANCH  47  61
ATOM     61  C   UNL A   1      39.315  32.110  35.590  1.00  0.00     0.023 A 
ATOM     62  C   UNL A   1      38.558  31.538  36.631  1.00  0.00     0.031 A 
ATOM     63  C   UNL A   1      39.609  33.483  35.662  1.00  0.00     0.131 A 
ATOM     64  C   UNL A   1      38.103  32.339  37.686  1.00  0.00     0.055 A 
ATOM     65  C   UNL A   1      39.186  34.270  36.735  1.00  0.00     0.041 A 
ATOM     66  F   UNL A   1      40.327  34.078  34.695  1.00  0.00    -0.206 F 
ATOM     67  C   UNL A   1      38.419  33.700  37.746  1.00  0.00     0.022 A 
BRANCH  64  68
ATOM     68  S   UNL A   1      37.032  31.664  38.984  1.00  0.00     0.124 S 
ATOM     69  O   UNL A   1      35.873  32.550  38.905  1.00  0.00    -0.237 OA
ATOM     70  O   UNL A   1      36.806  30.299  38.516  1.00  0.00    -0.237 OA
ATOM     71  O   UNL A   1      37.831  31.789  40.199  1.00  0.00    -0.744 OA
ENDBRANCH  64  68
ENDBRANCH  47  61
BRANCH  48  72
ATOM     72  C   UNL A   1      41.709  26.933  27.347  1.00  0.00     0.023 A 
ATOM     73  C   UNL A   1      41.451  25.551  27.280  1.00  0.00     0.031 A 
ATOM     74  C   UNL A   1      42.428  27.525  26.295  1.00  0.00     0.131 A 
ATOM     75  C   UNL A   1      42.004  24.790  26.243  1.00  0.00     0.055 A 
ATOM     76  C   UNL A   1      42.905  26.774  25.219  1.00  0.00     0.041 A 
ATOM     77  F   UNL A   1      42.708  28.837  26.322  1.00  0.00    -0.206 F 
ATOM     78  C   UNL A   1      42.715  25.395  25.203  1.00  0.00     0.022 A 
BRANCH  75  79
ATOM     79  S   UNL A   1      41.971  22.976  26.308  1.00  0.00     0.124 S 
ATOM     80  O   UNL A   1      40.541  22.699  26.397  1.00  0.00    -0.237 OA
ATOM     81  O   UNL A   1      42.605  22.625  25.041  1.00  0.00    -0.237 OA
ATOM     82  O   UNL A   1      42.750  22.660  27.501  1.00  0.00    -0.744 OA
ENDBRANCH  75  79
ENDBRANCH  48  72
BRANCH  60  83
ATOM     83  C   UNL A   1      44.474  27.432  33.811  1.00  0.00     0.023 A 
ATOM     84  C   UNL A   1      44.343  26.276  34.604  1.00  0.00     0.031 A 
ATOM     85  C   UNL A   1      45.713  28.095  33.797  1.00  0.00     0.131 A 
ATOM     86  C   UNL A   1      45.420  25.845  35.388  1.00  0.00     0.055 A 
ATOM     87  C   UNL A   1      46.798  27.633  34.544  1.00  0.00     0.041 A 
ATOM     88  F   UNL A   1      45.884  29.207  33.063  1.00  0.00    -0.206 F 
ATOM     89  C   UNL A   1      46.649  26.513  35.356  1.00  0.00     0.022 A 
BRANCH  86  90
ATOM     90  S   UNL A   1      45.238  24.462  36.548  1.00  0.00     0.124 S 
ATOM     91  O   UNL A   1      46.592  24.338  37.084  1.00  0.00    -0.237 OA
ATOM     92  O   UNL A   1      44.240  24.974  37.484  1.00  0.00    -0.237 OA
ATOM     93  O   UNL A   1      44.798  23.354  35.708  1.00  0.00    -0.744 OA
ENDBRANCH  86  90
ENDBRANCH  60  83
ENDBRANCH  34  35
ENDBRANCH  26  29
ENDBRANCH   1  25
TORSDOF 15
ENDMDL
MODEL 3
REMARK VINA RESULT:     -12.4      1.994      7.835
REMARK SMILES CCc1c(Cl)ccc2c1C=C(C(=O)NCCCNC(=O)c1ccc(-c3c4nc(c(-c5cc(S(=O)(=O)[O-])ccc5F)c5ccc([nH]5)c(-c5cc(S(=O)(=O)[O-])ccc5F)c5nc(c(-c6cc(S(=O)(=O)[O-])ccc6F)c6ccc3[nH]6)C=C5)C=C4)cc1)[C@@H](C(F)(F)F)O2
REMARK SMILES IDX 17 1 16 2 15 3 14 4 12 5 13 6 11 8 3 9 4 10 9 11 5 12 6 13
REMARK SMILES IDX 8 14 10 15 7 16 89 17 84 18 2 19 1 20 85 21 86 22 87 23
REMARK SMILES IDX 88 24 18 25 19 26 20 28 21 29 22 30 83 31 23 32 82 33 24 34
REMARK SMILES IDX 25 35 26 36 76 37 27 38 81 39 75 40 77 41 28 42 80 43 74 44
REMARK SMILES IDX 73 45 29 47 61 48 41 49 60 50 42 51 45 52 59 53 78 54 43 55
REMARK SMILES IDX 44 56 58 58 79 59 46 60 30 61 31 62 39 63 32 64 38 65 40 66
REMARK SMILES IDX 37 67 33 68 34 69 35 70 36 71 62 72 63 73 71 74 64 75 70 76
REMARK SMILES IDX 72 77 69 78 65 79 66 80 67 81 68 82 47 83 48 84 56 85 49 86
REMARK SMILES IDX 55 87 57 88 54 89 50 90 51 91 52 92 53 93
REMARK H PARENT 14 7 18 27 77 46 45 57
REMARK Flexibility Score: inf
ROOT
ATOM      1  C   UNL A   1      32.950  32.562  27.250  1.00  0.00     0.118 C 
ENDROOT
BRANCH   1   2
ATOM      2  C   UNL A   1      31.662  31.892  26.791  1.00  0.00     0.042 C 
BRANCH   2   3
ATOM      3  C   UNL A   1      31.788  30.378  26.724  1.00  0.00     0.118 C 
BRANCH   3   4
ATOM      4  N   UNL A   1      32.563  29.948  25.569  1.00  0.00    -0.352 N 
ATOM      5  C   UNL A   1      32.899  28.780  24.976  1.00  0.00     0.251 C 
ATOM      6  O   UNL A   1      33.608  28.891  23.969  1.00  0.00    -0.270 OA
ATOM      7  H   UNL A   1      32.949  30.717  25.090  1.00  0.00     0.163 HD
BRANCH   5   8
ATOM      8  C   UNL A   1      32.473  27.424  25.430  1.00  0.00     0.067 C 
ATOM      9  C   UNL A   1      34.098  24.076  25.948  1.00  0.00    -0.019 A 
ATOM     10  C   UNL A   1      33.696  22.836  26.497  1.00  0.00     0.045 A 
ATOM     11  C   UNL A   1      33.151  25.145  25.996  1.00  0.00     0.022 A 
ATOM     12  Cl  UNL A   1      34.747  21.477  26.688  1.00  0.00    -0.084 Cl
ATOM     13  C   UNL A   1      32.397  22.641  26.987  1.00  0.00     0.024 A 
ATOM     14  C   UNL A   1      31.854  24.918  26.487  1.00  0.00     0.128 A 
ATOM     15  C   UNL A   1      33.464  26.529  25.610  1.00  0.00     0.026 C 
ATOM     16  C   UNL A   1      31.475  23.676  26.977  1.00  0.00     0.048 A 
ATOM     17  O   UNL A   1      30.899  25.892  26.568  1.00  0.00    -0.475 OA
ATOM     18  C   UNL A   1      31.052  27.018  25.665  1.00  0.00     0.314 C 
BRANCH   9  19
ATOM     19  C   UNL A   1      35.490  24.339  25.386  1.00  0.00     0.034 C 
ATOM     20  C   UNL A   1      35.924  23.657  24.093  1.00  0.00     0.009 C 
ENDBRANCH   9  19
BRANCH  18  21
ATOM     21  C   UNL A   1      30.281  26.742  24.360  1.00  0.00     0.429 C 
ATOM     22  F   UNL A   1      31.080  26.118  23.459  1.00  0.00    -0.167 F 
ATOM     23  F   UNL A   1      29.211  25.934  24.549  1.00  0.00    -0.167 F 
ATOM     24  F   UNL A   1      29.818  27.871  23.777  1.00  0.00    -0.167 F 
ENDBRANCH  18  21
ENDBRANCH   5   8
ENDBRANCH   3   4
ENDBRANCH   2   3
ENDBRANCH   1   2
BRANCH   1  25
ATOM     25  N   UNL A   1      32.741  33.957  27.633  1.00  0.00    -0.352 N 
ATOM     26  C   UNL A   1      33.244  34.676  28.693  1.00  0.00     0.251 C 
ATOM     27  H   UNL A   1      32.145  34.464  27.036  1.00  0.00     0.163 HD
ATOM     28  O   UNL A   1      32.760  35.773  28.962  1.00  0.00    -0.269 OA
BRANCH  26  29
ATOM     29  C   UNL A   1      34.339  34.119  29.514  1.00  0.00     0.039 A 
ATOM     30  C   UNL A   1      35.667  34.338  29.153  1.00  0.00     0.014 A 
ATOM     31  C   UNL A   1      34.038  33.363  30.651  1.00  0.00     0.014 A 
ATOM     32  C   UNL A   1      36.676  33.633  29.791  1.00  0.00     0.010 A 
ATOM     33  C   UNL A   1      35.070  32.749  31.368  1.00  0.00     0.010 A 
ATOM     34  C   UNL A   1      36.394  32.832  30.909  1.00  0.00    -0.014 A 
BRANCH  34  35
ATOM     35  C   UNL A   1      37.512  32.117  31.581  1.00  0.00     0.031 A 
ATOM     36  C   UNL A   1      38.272  31.026  30.881  1.00  0.00     0.074 A 
ATOM     37  C   UNL A   1      37.880  32.511  32.816  1.00  0.00     0.049 A 
ATOM     38  N   UNL A   1      39.314  30.356  31.300  1.00  0.00    -0.248 NA
ATOM     39  C   UNL A   1      37.802  30.625  29.546  1.00  0.00     0.031 C 
ATOM     40  C   UNL A   1      37.203  33.552  33.590  1.00  0.00     0.029 A 
ATOM     41  N   UNL A   1      38.919  32.121  33.621  1.00  0.00    -0.354 N 
ATOM     42  C   UNL A   1      39.603  29.433  30.301  1.00  0.00     0.074 A 
ATOM     43  C   UNL A   1      38.612  29.613  29.264  1.00  0.00     0.031 C 
ATOM     44  C   UNL A   1      37.886  33.773  34.719  1.00  0.00     0.029 A 
ATOM     45  C   UNL A   1      39.000  32.831  34.796  1.00  0.00     0.049 A 
ATOM     46  H   UNL A   1      39.547  31.400  33.381  1.00  0.00     0.167 HD
ATOM     47  C   UNL A   1      40.610  28.528  30.254  1.00  0.00     0.034 A 
ATOM     48  C   UNL A   1      39.861  32.737  35.830  1.00  0.00     0.034 A 
ATOM     49  C   UNL A   1      41.612  28.391  31.281  1.00  0.00     0.049 A 
ATOM     50  C   UNL A   1      40.977  31.731  35.750  1.00  0.00     0.074 A 
ATOM     51  C   UNL A   1      42.712  27.552  31.292  1.00  0.00     0.029 A 
ATOM     52  N   UNL A   1      41.639  29.100  32.475  1.00  0.00    -0.354 N 
ATOM     53  N   UNL A   1      41.272  30.910  34.770  1.00  0.00    -0.248 NA
ATOM     54  C   UNL A   1      41.874  31.632  36.909  1.00  0.00     0.031 C 
ATOM     55  C   UNL A   1      43.364  27.704  32.516  1.00  0.00     0.029 A 
ATOM     56  C   UNL A   1      42.717  28.691  33.244  1.00  0.00     0.049 A 
ATOM     57  H   UNL A   1      40.990  29.792  32.735  1.00  0.00     0.167 HD
ATOM     58  C   UNL A   1      42.389  30.195  35.192  1.00  0.00     0.074 A 
ATOM     59  C   UNL A   1      42.735  30.707  36.502  1.00  0.00     0.031 C 
ATOM     60  C   UNL A   1      43.055  29.201  34.553  1.00  0.00     0.034 A 
BRANCH  47  61
ATOM     61  C   UNL A   1      40.697  27.603  29.064  1.00  0.00     0.023 A 
ATOM     62  C   UNL A   1      41.614  27.877  28.031  1.00  0.00     0.031 A 
ATOM     63  C   UNL A   1      39.809  26.526  28.895  1.00  0.00     0.131 A 
ATOM     64  C   UNL A   1      41.607  27.099  26.867  1.00  0.00     0.055 A 
ATOM     65  C   UNL A   1      39.832  25.728  27.749  1.00  0.00     0.041 A 
ATOM     66  F   UNL A   1      38.914  26.223  29.850  1.00  0.00    -0.206 F 
ATOM     67  C   UNL A   1      40.726  26.022  26.724  1.00  0.00     0.022 A 
BRANCH  64  68
ATOM     68  S   UNL A   1      42.695  27.490  25.470  1.00  0.00     0.124 S 
ATOM     69  O   UNL A   1      43.952  27.796  26.148  1.00  0.00    -0.237 OA
ATOM     70  O   UNL A   1      42.684  26.240  24.714  1.00  0.00    -0.237 OA
ATOM     71  O   UNL A   1      42.043  28.623  24.823  1.00  0.00    -0.744 OA
ENDBRANCH  64  68
ENDBRANCH  47  61
BRANCH  48  72
ATOM     72  C   UNL A   1      39.693  33.668  36.982  1.00  0.00     0.023 A 
ATOM     73  C   UNL A   1      40.535  34.787  37.125  1.00  0.00     0.031 A 
ATOM     74  C   UNL A   1      38.820  33.357  38.037  1.00  0.00     0.131 A 
ATOM     75  C   UNL A   1      40.565  35.485  38.338  1.00  0.00     0.055 A 
ATOM     76  C   UNL A   1      38.793  34.109  39.214  1.00  0.00     0.041 A 
ATOM     77  F   UNL A   1      38.007  32.293  37.951  1.00  0.00    -0.206 F 
ATOM     78  C   UNL A   1      39.687  35.164  39.378  1.00  0.00     0.022 A 
BRANCH  75  79
ATOM     79  S   UNL A   1      41.862  36.710  38.669  1.00  0.00     0.124 S 
ATOM     80  O   UNL A   1      41.103  37.810  39.256  1.00  0.00    -0.237 OA
ATOM     81  O   UNL A   1      42.730  35.979  39.589  1.00  0.00    -0.237 OA
ATOM     82  O   UNL A   1      42.434  36.971  37.352  1.00  0.00    -0.744 OA
ENDBRANCH  75  79
ENDBRANCH  48  72
BRANCH  60  83
ATOM     83  C   UNL A   1      44.229  28.560  35.250  1.00  0.00     0.023 A 
ATOM     84  C   UNL A   1      44.017  27.533  36.190  1.00  0.00     0.031 A 
ATOM     85  C   UNL A   1      45.530  29.073  35.106  1.00  0.00     0.131 A 
ATOM     86  C   UNL A   1      45.080  27.084  36.983  1.00  0.00     0.055 A 
ATOM     87  C   UNL A   1      46.596  28.588  35.865  1.00  0.00     0.041 A 
ATOM     88  F   UNL A   1      45.781  30.058  34.229  1.00  0.00    -0.206 F 
ATOM     89  C   UNL A   1      46.370  27.601  36.820  1.00  0.00     0.022 A 
BRANCH  86  90
ATOM     90  S   UNL A   1      44.811  25.885  38.317  1.00  0.00     0.124 S 
ATOM     91  O   UNL A   1      43.790  26.553  39.122  1.00  0.00    -0.237 OA
ATOM     92  O   UNL A   1      44.355  24.706  37.585  1.00  0.00    -0.237 OA
ATOM     93  O   UNL A   1      46.119  25.762  38.950  1.00  0.00    -0.744 OA
ENDBRANCH  86  90
ENDBRANCH  60  83
ENDBRANCH  34  35
ENDBRANCH  26  29
ENDBRANCH   1  25
TORSDOF 15
ENDMDL
