MODEL 1
REMARK VINA RESULT:     -12.1      0.000      0.000
REMARK SMILES C=CCn1c(=S)[nH]c2cc(C(=O)NCCCNC(=O)c3ccc(-c4c5nc(c(-c6cc(S(=O)(=O)[O-])ccc6F)c6ccc([nH]6)c(-c6cc(S(=O)(=O)[O-])ccc6F)c6nc(c(-c7cc(S(=O)(=O)[O-])ccc7F)c7ccc4[nH]7)C=C6)C=C5)cc3)ccc2c1=O
REMARK SMILES IDX 15 1 14 2 13 3 11 4 12 5 10 7 4 8 5 9 86 10 6 11 7 12 85 13
REMARK SMILES IDX 87 14 8 15 84 17 9 18 83 19 3 20 2 21 1 22 16 23 17 24 18 25
REMARK SMILES IDX 19 27 20 28 21 29 82 30 22 31 81 32 23 33 24 34 25 35 75 36
REMARK SMILES IDX 26 37 80 38 74 39 76 40 27 41 79 42 73 43 72 44 28 46 60 47
REMARK SMILES IDX 40 48 59 49 41 50 44 51 58 52 77 53 42 54 43 55 57 57 78 58
REMARK SMILES IDX 45 59 29 60 30 61 38 62 31 63 37 64 39 65 36 66 32 67 33 68
REMARK SMILES IDX 34 69 35 70 61 71 62 72 70 73 63 74 69 75 71 76 68 77 64 78
REMARK SMILES IDX 65 79 66 80 67 81 46 82 47 83 55 84 48 85 54 86 56 87 53 88
REMARK SMILES IDX 49 89 50 90 51 91 52 92
REMARK H PARENT 13 6 7 16 17 26 76 45 44 56
REMARK Flexibility Score: inf
ROOT
ATOM      1  C   UNL A   1      31.042  30.428  25.362  1.00  0.00     0.042 C 
ENDROOT
BRANCH   1   2
ATOM      2  C   UNL A   1      31.432  29.152  24.622  1.00  0.00     0.118 C 
BRANCH   2   3
ATOM      3  N   UNL A   1      32.698  29.310  23.926  1.00  0.00    -0.352 N 
ATOM      4  C   UNL A   1      33.546  28.416  23.326  1.00  0.00     0.251 C 
ATOM      5  O   UNL A   1      34.538  28.871  22.754  1.00  0.00    -0.269 OA
ATOM      6  H   UNL A   1      33.008  30.244  23.877  1.00  0.00     0.163 HD
BRANCH   4   7
ATOM      7  C   UNL A   1      33.309  26.944  23.283  1.00  0.00     0.041 A 
ATOM      8  N   UNL A   1      33.056  22.062  24.656  1.00  0.00    -0.281 N 
ATOM      9  C   UNL A   1      33.367  22.786  25.818  1.00  0.00     0.180 A 
ATOM     10  C   UNL A   1      32.875  22.690  23.415  1.00  0.00     0.262 A 
ATOM     11  S   UNL A   1      33.522  22.185  27.382  1.00  0.00    -0.040 S 
ATOM     12  N   UNL A   1      33.565  24.135  25.686  1.00  0.00    -0.332 N 
ATOM     13  C   UNL A   1      32.993  24.155  23.368  1.00  0.00     0.064 A 
ATOM     14  O   UNL A   1      32.625  22.142  22.344  1.00  0.00    -0.269 OA
ATOM     15  C   UNL A   1      33.385  24.838  24.502  1.00  0.00     0.054 A 
ATOM     16  H   UNL A   1      33.853  24.638  26.483  1.00  0.00     0.169 HD
ATOM     17  C   UNL A   1      32.694  24.857  22.202  1.00  0.00     0.017 A 
ATOM     18  C   UNL A   1      33.563  26.223  24.466  1.00  0.00     0.040 A 
ATOM     19  C   UNL A   1      32.820  26.247  22.174  1.00  0.00     0.015 A 
BRANCH   8  20
ATOM     20  C   UNL A   1      32.836  20.605  24.790  1.00  0.00     0.155 C 
BRANCH  20  21
ATOM     21  C   UNL A   1      34.040  19.717  24.724  1.00  0.00    -0.013 C 
ATOM     22  C   UNL A   1      34.025  18.404  24.459  1.00  0.00     0.006 C 
ENDBRANCH  20  21
ENDBRANCH   8  20
ENDBRANCH   4   7
ENDBRANCH   2   3
ENDBRANCH   1   2
BRANCH   1  23
ATOM     23  C   UNL A   1      32.070  30.853  26.403  1.00  0.00     0.118 C 
BRANCH  23  24
ATOM     24  N   UNL A   1      32.010  32.281  26.682  1.00  0.00    -0.352 N 
ATOM     25  C   UNL A   1      32.839  33.057  27.460  1.00  0.00     0.251 C 
ATOM     26  H   UNL A   1      31.265  32.761  26.252  1.00  0.00     0.163 HD
ATOM     27  O   UNL A   1      32.508  34.201  27.739  1.00  0.00    -0.269 OA
BRANCH  25  28
ATOM     28  C   UNL A   1      34.108  32.491  27.975  1.00  0.00     0.039 A 
ATOM     29  C   UNL A   1      34.181  31.157  28.378  1.00  0.00     0.014 A 
ATOM     30  C   UNL A   1      35.235  33.313  28.062  1.00  0.00     0.014 A 
ATOM     31  C   UNL A   1      35.322  30.694  29.025  1.00  0.00     0.010 A 
ATOM     32  C   UNL A   1      36.412  32.818  28.630  1.00  0.00     0.010 A 
ATOM     33  C   UNL A   1      36.450  31.519  29.163  1.00  0.00    -0.014 A 
BRANCH  33  34
ATOM     34  C   UNL A   1      37.656  30.999  29.860  1.00  0.00     0.031 A 
ATOM     35  C   UNL A   1      37.958  31.403  31.277  1.00  0.00     0.074 A 
ATOM     36  C   UNL A   1      38.455  30.123  29.221  1.00  0.00     0.049 A 
ATOM     37  N   UNL A   1      38.948  31.025  32.046  1.00  0.00    -0.248 NA
ATOM     38  C   UNL A   1      37.035  32.354  31.918  1.00  0.00     0.031 C 
ATOM     39  C   UNL A   1      38.253  29.661  27.848  1.00  0.00     0.029 A 
ATOM     40  N   UNL A   1      39.575  29.449  29.637  1.00  0.00    -0.354 N 
ATOM     41  C   UNL A   1      38.778  31.702  33.249  1.00  0.00     0.074 A 
ATOM     42  C   UNL A   1      37.610  32.541  33.098  1.00  0.00     0.031 C 
ATOM     43  C   UNL A   1      39.183  28.743  27.552  1.00  0.00     0.029 A 
ATOM     44  C   UNL A   1      40.094  28.602  28.685  1.00  0.00     0.049 A 
ATOM     45  H   UNL A   1      39.970  29.560  30.532  1.00  0.00     0.167 HD
ATOM     46  C   UNL A   1      39.520  31.614  34.378  1.00  0.00     0.034 A 
ATOM     47  C   UNL A   1      41.188  27.811  28.708  1.00  0.00     0.034 A 
ATOM     48  C   UNL A   1      40.668  30.754  34.518  1.00  0.00     0.049 A 
ATOM     49  C   UNL A   1      42.013  27.754  29.967  1.00  0.00     0.074 A 
ATOM     50  C   UNL A   1      41.466  30.570  35.633  1.00  0.00     0.029 A 
ATOM     51  N   UNL A   1      41.182  29.937  33.521  1.00  0.00    -0.354 N 
ATOM     52  N   UNL A   1      41.809  28.363  31.111  1.00  0.00    -0.248 NA
ATOM     53  C   UNL A   1      43.212  26.907  29.945  1.00  0.00     0.031 C 
ATOM     54  C   UNL A   1      42.497  29.695  35.294  1.00  0.00     0.029 A 
ATOM     55  C   UNL A   1      42.304  29.270  33.989  1.00  0.00     0.049 A 
ATOM     56  H   UNL A   1      40.807  29.843  32.616  1.00  0.00     0.167 HD
ATOM     57  C   UNL A   1      42.844  27.961  31.950  1.00  0.00     0.074 A 
ATOM     58  C   UNL A   1      43.655  27.033  31.190  1.00  0.00     0.031 C 
ATOM     59  C   UNL A   1      43.100  28.335  33.229  1.00  0.00     0.034 A 
BRANCH  46  60
ATOM     60  C   UNL A   1      39.129  32.451  35.573  1.00  0.00     0.023 A 
ATOM     61  C   UNL A   1      39.616  33.765  35.700  1.00  0.00     0.031 A 
ATOM     62  C   UNL A   1      38.396  31.908  36.643  1.00  0.00     0.131 A 
ATOM     63  C   UNL A   1      39.396  34.479  36.885  1.00  0.00     0.055 A 
ATOM     64  C   UNL A   1      38.144  32.638  37.805  1.00  0.00     0.041 A 
ATOM     65  F   UNL A   1      37.910  30.657  36.572  1.00  0.00    -0.206 F 
ATOM     66  C   UNL A   1      38.657  33.925  37.935  1.00  0.00     0.022 A 
BRANCH  63  67
ATOM     67  S   UNL A   1      40.116  36.125  37.139  1.00  0.00     0.124 S 
ATOM     68  O   UNL A   1      39.859  36.765  35.851  1.00  0.00    -0.237 OA
ATOM     69  O   UNL A   1      39.328  36.633  38.257  1.00  0.00    -0.237 OA
ATOM     70  O   UNL A   1      41.520  35.852  37.426  1.00  0.00    -0.744 OA
ENDBRANCH  63  67
ENDBRANCH  46  60
BRANCH  47  71
ATOM     71  C   UNL A   1      41.514  26.992  27.504  1.00  0.00     0.023 A 
ATOM     72  C   UNL A   1      41.224  25.616  27.468  1.00  0.00     0.031 A 
ATOM     73  C   UNL A   1      42.232  27.542  26.430  1.00  0.00     0.131 A 
ATOM     74  C   UNL A   1      41.722  24.823  26.427  1.00  0.00     0.055 A 
ATOM     75  C   UNL A   1      42.658  26.762  25.352  1.00  0.00     0.041 A 
ATOM     76  F   UNL A   1      42.545  28.847  26.423  1.00  0.00    -0.206 F 
ATOM     77  C   UNL A   1      42.422  25.391  25.358  1.00  0.00     0.022 A 
BRANCH  74  78
ATOM     78  S   UNL A   1      41.613  23.013  26.504  1.00  0.00     0.124 S 
ATOM     79  O   UNL A   1      42.353  22.612  25.312  1.00  0.00    -0.237 OA
ATOM     80  O   UNL A   1      42.268  22.730  27.779  1.00  0.00    -0.237 OA
ATOM     81  O   UNL A   1      40.178  22.753  26.475  1.00  0.00    -0.744 OA
ENDBRANCH  74  78
ENDBRANCH  47  71
BRANCH  59  82
ATOM     82  C   UNL A   1      44.309  27.754  33.924  1.00  0.00     0.023 A 
ATOM     83  C   UNL A   1      44.182  26.579  34.692  1.00  0.00     0.031 A 
ATOM     84  C   UNL A   1      45.531  28.446  33.963  1.00  0.00     0.131 A 
ATOM     85  C   UNL A   1      45.241  26.161  35.505  1.00  0.00     0.055 A 
ATOM     86  C   UNL A   1      46.603  27.996  34.737  1.00  0.00     0.041 A 
ATOM     87  F   UNL A   1      45.698  29.576  33.258  1.00  0.00    -0.206 F 
ATOM     88  C   UNL A   1      46.454  26.858  35.526  1.00  0.00     0.022 A 
BRANCH  85  89
ATOM     89  S   UNL A   1      45.053  24.757  36.640  1.00  0.00     0.124 S 
ATOM     90  O   UNL A   1      43.933  25.190  37.472  1.00  0.00    -0.237 OA
ATOM     91  O   UNL A   1      44.764  23.659  35.723  1.00  0.00    -0.237 OA
ATOM     92  O   UNL A   1      46.341  24.683  37.324  1.00  0.00    -0.744 OA
ENDBRANCH  85  89
ENDBRANCH  59  82
ENDBRANCH  33  34
ENDBRANCH  25  28
ENDBRANCH  23  24
ENDBRANCH   1  23
TORSDOF 15
ENDMDL
MODEL 2
REMARK VINA RESULT:     -12.1      1.835      2.247
REMARK SMILES C=CCn1c(=S)[nH]c2cc(C(=O)NCCCNC(=O)c3ccc(-c4c5nc(c(-c6cc(S(=O)(=O)[O-])ccc6F)c6ccc([nH]6)c(-c6cc(S(=O)(=O)[O-])ccc6F)c6nc(c(-c7cc(S(=O)(=O)[O-])ccc7F)c7ccc4[nH]7)C=C6)C=C5)cc3)ccc2c1=O
REMARK SMILES IDX 15 1 14 2 13 3 11 4 12 5 10 7 4 8 5 9 86 10 6 11 7 12 85 13
REMARK SMILES IDX 87 14 8 15 84 17 9 18 83 19 3 20 2 21 1 22 16 23 17 24 18 25
REMARK SMILES IDX 19 27 20 28 21 29 82 30 22 31 81 32 23 33 24 34 25 35 75 36
REMARK SMILES IDX 26 37 80 38 74 39 76 40 27 41 79 42 73 43 72 44 28 46 60 47
REMARK SMILES IDX 40 48 59 49 41 50 44 51 58 52 77 53 42 54 43 55 57 57 78 58
REMARK SMILES IDX 45 59 29 60 30 61 38 62 31 63 37 64 39 65 36 66 32 67 33 68
REMARK SMILES IDX 34 69 35 70 61 71 62 72 70 73 63 74 69 75 71 76 68 77 64 78
REMARK SMILES IDX 65 79 66 80 67 81 46 82 47 83 55 84 48 85 54 86 56 87 53 88
REMARK SMILES IDX 49 89 50 90 51 91 52 92
REMARK H PARENT 13 6 7 16 17 26 76 45 44 56
REMARK Flexibility Score: inf
ROOT
ATOM      1  C   UNL A   1      31.449  32.116  26.869  1.00  0.00     0.042 C 
ENDROOT
BRANCH   1   2
ATOM      2  C   UNL A   1      31.750  30.620  26.809  1.00  0.00     0.118 C 
BRANCH   2   3
ATOM      3  N   UNL A   1      33.116  30.340  27.217  1.00  0.00    -0.352 N 
ATOM      4  C   UNL A   1      34.004  29.353  26.874  1.00  0.00     0.251 C 
ATOM      5  O   UNL A   1      35.137  29.418  27.354  1.00  0.00    -0.269 OA
ATOM      6  H   UNL A   1      33.475  30.987  27.867  1.00  0.00     0.163 HD
BRANCH   4   7
ATOM      7  C   UNL A   1      33.692  28.246  25.924  1.00  0.00     0.041 A 
ATOM      8  N   UNL A   1      32.108  23.795  24.063  1.00  0.00    -0.281 N 
ATOM      9  C   UNL A   1      31.689  23.838  25.403  1.00  0.00     0.180 A 
ATOM     10  C   UNL A   1      32.821  24.849  23.474  1.00  0.00     0.262 A 
ATOM     11  S   UNL A   1      30.756  22.698  26.215  1.00  0.00    -0.040 S 
ATOM     12  N   UNL A   1      32.068  24.923  26.148  1.00  0.00    -0.332 N 
ATOM     13  C   UNL A   1      33.098  26.033  24.301  1.00  0.00     0.064 A 
ATOM     14  O   UNL A   1      33.247  24.894  22.323  1.00  0.00    -0.269 OA
ATOM     15  C   UNL A   1      32.754  26.018  25.639  1.00  0.00     0.054 A 
ATOM     16  H   UNL A   1      31.840  24.926  27.106  1.00  0.00     0.169 HD
ATOM     17  C   UNL A   1      33.680  27.170  23.746  1.00  0.00     0.017 A 
ATOM     18  C   UNL A   1      33.062  27.106  26.458  1.00  0.00     0.040 A 
ATOM     19  C   UNL A   1      33.943  28.281  24.550  1.00  0.00     0.015 A 
BRANCH   8  20
ATOM     20  C   UNL A   1      31.699  22.629  23.250  1.00  0.00     0.155 C 
BRANCH  20  21
ATOM     21  C   UNL A   1      32.660  21.485  23.152  1.00  0.00    -0.013 C 
ATOM     22  C   UNL A   1      32.477  20.267  23.677  1.00  0.00     0.006 C 
ENDBRANCH  20  21
ENDBRANCH   8  20
ENDBRANCH   4   7
ENDBRANCH   2   3
ENDBRANCH   1   2
BRANCH   1  23
ATOM     23  C   UNL A   1      32.701  32.981  26.811  1.00  0.00     0.118 C 
BRANCH  23  24
ATOM     24  N   UNL A   1      32.577  34.180  27.628  1.00  0.00    -0.352 N 
ATOM     25  C   UNL A   1      33.269  34.543  28.761  1.00  0.00     0.251 C 
ATOM     26  H   UNL A   1      31.898  34.826  27.325  1.00  0.00     0.163 HD
ATOM     27  O   UNL A   1      32.882  35.494  29.426  1.00  0.00    -0.269 OA
BRANCH  25  28
ATOM     28  C   UNL A   1      34.455  33.761  29.182  1.00  0.00     0.039 A 
ATOM     29  C   UNL A   1      34.308  32.579  29.911  1.00  0.00     0.014 A 
ATOM     30  C   UNL A   1      35.731  34.224  28.848  1.00  0.00     0.014 A 
ATOM     31  C   UNL A   1      35.429  31.958  30.451  1.00  0.00     0.010 A 
ATOM     32  C   UNL A   1      36.859  33.545  29.316  1.00  0.00     0.010 A 
ATOM     33  C   UNL A   1      36.718  32.435  30.164  1.00  0.00    -0.014 A 
BRANCH  33  34
ATOM     34  C   UNL A   1      37.899  31.752  30.755  1.00  0.00     0.031 A 
ATOM     35  C   UNL A   1      38.330  32.048  32.166  1.00  0.00     0.074 A 
ATOM     36  C   UNL A   1      38.554  30.828  30.027  1.00  0.00     0.049 A 
ATOM     37  N   UNL A   1      39.317  31.526  32.849  1.00  0.00    -0.248 NA
ATOM     38  C   UNL A   1      37.560  33.059  32.908  1.00  0.00     0.031 C 
ATOM     39  C   UNL A   1      38.218  30.462  28.651  1.00  0.00     0.029 A 
ATOM     40  N   UNL A   1      39.616  30.016  30.337  1.00  0.00    -0.354 N 
ATOM     41  C   UNL A   1      39.298  32.154  34.090  1.00  0.00     0.074 A 
ATOM     42  C   UNL A   1      38.224  33.122  34.054  1.00  0.00     0.031 C 
ATOM     43  C   UNL A   1      39.020  29.465  28.254  1.00  0.00     0.029 A 
ATOM     44  C   UNL A   1      39.978  29.168  29.315  1.00  0.00     0.049 A 
ATOM     45  H   UNL A   1      40.075  30.037  31.208  1.00  0.00     0.167 HD
ATOM     46  C   UNL A   1      40.093  31.929  35.162  1.00  0.00     0.034 A 
ATOM     47  C   UNL A   1      40.976  28.263  29.231  1.00  0.00     0.034 A 
ATOM     48  C   UNL A   1      41.145  30.944  35.186  1.00  0.00     0.049 A 
ATOM     49  C   UNL A   1      41.865  28.052  30.428  1.00  0.00     0.074 A 
ATOM     50  C   UNL A   1      41.984  30.618  36.237  1.00  0.00     0.029 A 
ATOM     51  N   UNL A   1      41.503  30.128  34.122  1.00  0.00    -0.354 N 
ATOM     52  N   UNL A   1      41.801  28.621  31.610  1.00  0.00    -0.248 NA
ATOM     53  C   UNL A   1      42.959  27.083  30.290  1.00  0.00     0.031 C 
ATOM     54  C   UNL A   1      42.889  29.655  35.792  1.00  0.00     0.029 A 
ATOM     55  C   UNL A   1      42.569  29.320  34.485  1.00  0.00     0.049 A 
ATOM     56  H   UNL A   1      41.064  30.122  33.241  1.00  0.00     0.167 HD
ATOM     57  C   UNL A   1      42.834  28.067  32.359  1.00  0.00     0.074 A 
ATOM     58  C   UNL A   1      43.489  27.096  31.506  1.00  0.00     0.031 C 
ATOM     59  C   UNL A   1      43.209  28.344  33.634  1.00  0.00     0.034 A 
BRANCH  46  60
ATOM     60  C   UNL A   1      39.872  32.741  36.416  1.00  0.00     0.023 A 
ATOM     61  C   UNL A   1      38.953  32.301  37.386  1.00  0.00     0.031 A 
ATOM     62  C   UNL A   1      40.462  34.006  36.586  1.00  0.00     0.131 A 
ATOM     63  C   UNL A   1      38.620  33.134  38.462  1.00  0.00     0.055 A 
ATOM     64  C   UNL A   1      40.159  34.816  37.681  1.00  0.00     0.041 A 
ATOM     65  F   UNL A   1      41.346  34.473  35.688  1.00  0.00    -0.206 F 
ATOM     66  C   UNL A   1      39.223  34.386  38.618  1.00  0.00     0.022 A 
BRANCH  63  67
ATOM     67  S   UNL A   1      37.345  32.658  39.661  1.00  0.00     0.124 S 
ATOM     68  O   UNL A   1      37.415  33.755  40.623  1.00  0.00    -0.237 OA
ATOM     69  O   UNL A   1      36.143  32.630  38.833  1.00  0.00    -0.237 OA
ATOM     70  O   UNL A   1      37.799  31.365  40.161  1.00  0.00    -0.744 OA
ENDBRANCH  63  67
ENDBRANCH  46  60
BRANCH  47  71
ATOM     71  C   UNL A   1      41.134  27.476  27.973  1.00  0.00     0.023 A 
ATOM     72  C   UNL A   1      40.767  26.119  27.921  1.00  0.00     0.031 A 
ATOM     73  C   UNL A   1      41.770  28.031  26.850  1.00  0.00     0.131 A 
ATOM     74  C   UNL A   1      41.114  25.344  26.807  1.00  0.00     0.055 A 
ATOM     75  C   UNL A   1      42.043  27.273  25.709  1.00  0.00     0.041 A 
ATOM     76  F   UNL A   1      42.152  29.317  26.855  1.00  0.00    -0.206 F 
ATOM     77  C   UNL A   1      41.733  25.916  25.693  1.00  0.00     0.022 A 
BRANCH  74  78
ATOM     78  S   UNL A   1      40.915  23.539  26.834  1.00  0.00     0.124 S 
ATOM     79  O   UNL A   1      41.321  23.208  28.196  1.00  0.00    -0.237 OA
ATOM     80  O   UNL A   1      39.490  23.393  26.547  1.00  0.00    -0.237 OA
ATOM     81  O   UNL A   1      41.809  23.079  25.777  1.00  0.00    -0.744 OA
ENDBRANCH  74  78
ENDBRANCH  47  71
BRANCH  59  82
ATOM     82  C   UNL A   1      44.386  27.601  34.220  1.00  0.00     0.023 A 
ATOM     83  C   UNL A   1      44.192  26.343  34.825  1.00  0.00     0.031 A 
ATOM     84  C   UNL A   1      45.650  28.204  34.327  1.00  0.00     0.131 A 
ATOM     85  C   UNL A   1      45.231  25.754  35.554  1.00  0.00     0.055 A 
ATOM     86  C   UNL A   1      46.699  27.588  35.012  1.00  0.00     0.041 A 
ATOM     87  F   UNL A   1      45.880  29.407  33.777  1.00  0.00    -0.206 F 
ATOM     88  C   UNL A   1      46.487  26.365  35.643  1.00  0.00     0.022 A 
BRANCH  85  89
ATOM     89  S   UNL A   1      44.967  24.224  36.493  1.00  0.00     0.124 S 
ATOM     90  O   UNL A   1      43.795  23.660  35.827  1.00  0.00    -0.237 OA
ATOM     91  O   UNL A   1      46.218  23.506  36.269  1.00  0.00    -0.237 OA
ATOM     92  O   UNL A   1      44.742  24.685  37.860  1.00  0.00    -0.744 OA
ENDBRANCH  85  89
ENDBRANCH  59  82
ENDBRANCH  33  34
ENDBRANCH  25  28
ENDBRANCH  23  24
ENDBRANCH   1  23
TORSDOF 15
ENDMDL
MODEL 3
REMARK VINA RESULT:     -12.0      2.385      3.105
REMARK SMILES C=CCn1c(=S)[nH]c2cc(C(=O)NCCCNC(=O)c3ccc(-c4c5nc(c(-c6cc(S(=O)(=O)[O-])ccc6F)c6ccc([nH]6)c(-c6cc(S(=O)(=O)[O-])ccc6F)c6nc(c(-c7cc(S(=O)(=O)[O-])ccc7F)c7ccc4[nH]7)C=C6)C=C5)cc3)ccc2c1=O
REMARK SMILES IDX 15 1 14 2 13 3 11 4 12 5 10 7 4 8 5 9 86 10 6 11 7 12 85 13
REMARK SMILES IDX 87 14 8 15 84 17 9 18 83 19 3 20 2 21 1 22 16 23 17 24 18 25
REMARK SMILES IDX 19 27 20 28 21 29 82 30 22 31 81 32 23 33 24 34 25 35 75 36
REMARK SMILES IDX 26 37 80 38 74 39 76 40 27 41 79 42 73 43 72 44 28 46 60 47
REMARK SMILES IDX 40 48 59 49 41 50 44 51 58 52 77 53 42 54 43 55 57 57 78 58
REMARK SMILES IDX 45 59 29 60 30 61 38 62 31 63 37 64 39 65 36 66 32 67 33 68
REMARK SMILES IDX 34 69 35 70 61 71 62 72 70 73 63 74 69 75 71 76 68 77 64 78
REMARK SMILES IDX 65 79 66 80 67 81 46 82 47 83 55 84 48 85 54 86 56 87 53 88
REMARK SMILES IDX 49 89 50 90 51 91 52 92
REMARK H PARENT 13 6 7 16 17 26 76 45 44 56
REMARK Flexibility Score: inf
ROOT
ATOM      1  C   UNL A   1      31.743  32.203  26.899  1.00  0.00     0.042 C 
ENDROOT
BRANCH   1   2
ATOM      2  C   UNL A   1      32.053  30.772  26.468  1.00  0.00     0.118 C 
BRANCH   2   3
ATOM      3  N   UNL A   1      33.356  30.346  26.952  1.00  0.00    -0.352 N 
ATOM      4  C   UNL A   1      34.132  29.248  26.684  1.00  0.00     0.251 C 
ATOM      5  O   UNL A   1      35.241  29.195  27.217  1.00  0.00    -0.269 OA
ATOM      6  H   UNL A   1      33.760  30.969  27.598  1.00  0.00     0.163 HD
BRANCH   4   7
ATOM      7  C   UNL A   1      33.731  28.152  25.755  1.00  0.00     0.041 A 
ATOM      8  N   UNL A   1      31.905  23.754  23.993  1.00  0.00    -0.281 N 
ATOM      9  C   UNL A   1      31.565  23.809  25.355  1.00  0.00     0.180 A 
ATOM     10  C   UNL A   1      32.616  24.786  23.363  1.00  0.00     0.262 A 
ATOM     11  S   UNL A   1      30.645  22.698  26.221  1.00  0.00    -0.040 S 
ATOM     12  N   UNL A   1      32.020  24.881  26.076  1.00  0.00    -0.332 N 
ATOM     13  C   UNL A   1      32.977  25.959  24.172  1.00  0.00     0.064 A 
ATOM     14  O   UNL A   1      32.977  24.818  22.189  1.00  0.00    -0.269 OA
ATOM     15  C   UNL A   1      32.710  25.955  25.527  1.00  0.00     0.054 A 
ATOM     16  H   UNL A   1      31.847  24.891  27.045  1.00  0.00     0.169 HD
ATOM     17  C   UNL A   1      33.562  27.078  23.582  1.00  0.00     0.017 A 
ATOM     18  C   UNL A   1      33.097  27.032  26.326  1.00  0.00     0.040 A 
ATOM     19  C   UNL A   1      33.905  28.180  24.368  1.00  0.00     0.015 A 
BRANCH   8  20
ATOM     20  C   UNL A   1      31.414  22.601  23.207  1.00  0.00     0.155 C 
BRANCH  20  21
ATOM     21  C   UNL A   1      32.365  21.468  22.975  1.00  0.00    -0.013 C 
ATOM     22  C   UNL A   1      32.818  20.627  23.913  1.00  0.00     0.006 C 
ENDBRANCH  20  21
ENDBRANCH   8  20
ENDBRANCH   4   7
ENDBRANCH   2   3
ENDBRANCH   1   2
BRANCH   1  23
ATOM     23  C   UNL A   1      32.962  32.946  27.431  1.00  0.00     0.118 C 
BRANCH  23  24
ATOM     24  N   UNL A   1      32.637  34.299  27.857  1.00  0.00    -0.352 N 
ATOM     25  C   UNL A   1      33.143  35.032  28.907  1.00  0.00     0.251 C 
ATOM     26  H   UNL A   1      31.954  34.757  27.315  1.00  0.00     0.163 HD
ATOM     27  O   UNL A   1      32.597  36.078  29.230  1.00  0.00    -0.269 OA
BRANCH  25  28
ATOM     28  C   UNL A   1      34.322  34.534  29.652  1.00  0.00     0.039 A 
ATOM     29  C   UNL A   1      35.612  34.712  29.148  1.00  0.00     0.014 A 
ATOM     30  C   UNL A   1      34.130  33.872  30.868  1.00  0.00     0.014 A 
ATOM     31  C   UNL A   1      36.687  34.082  29.766  1.00  0.00     0.010 A 
ATOM     32  C   UNL A   1      35.226  33.317  31.536  1.00  0.00     0.010 A 
ATOM     33  C   UNL A   1      36.507  33.374  30.966  1.00  0.00    -0.014 A 
BRANCH  33  34
ATOM     34  C   UNL A   1      37.674  32.710  31.605  1.00  0.00     0.031 A 
ATOM     35  C   UNL A   1      38.148  33.136  32.967  1.00  0.00     0.074 A 
ATOM     36  C   UNL A   1      38.274  31.686  30.968  1.00  0.00     0.049 A 
ATOM     37  N   UNL A   1      39.129  32.649  33.684  1.00  0.00    -0.248 NA
ATOM     38  C   UNL A   1      37.437  34.252  33.610  1.00  0.00     0.031 C 
ATOM     39  C   UNL A   1      37.892  31.189  29.647  1.00  0.00     0.029 A 
ATOM     40  N   UNL A   1      39.310  30.868  31.345  1.00  0.00    -0.354 N 
ATOM     41  C   UNL A   1      39.164  33.407  34.850  1.00  0.00     0.074 A 
ATOM     42  C   UNL A   1      38.129  34.410  34.730  1.00  0.00     0.031 C 
ATOM     43  C   UNL A   1      38.644  30.123  29.344  1.00  0.00     0.029 A 
ATOM     44  C   UNL A   1      39.614  29.901  30.414  1.00  0.00     0.049 A 
ATOM     45  H   UNL A   1      39.789  30.963  32.199  1.00  0.00     0.167 HD
ATOM     46  C   UNL A   1      39.974  33.265  35.926  1.00  0.00     0.034 A 
ATOM     47  C   UNL A   1      40.573  28.952  30.409  1.00  0.00     0.034 A 
ATOM     48  C   UNL A   1      40.986  32.244  36.036  1.00  0.00     0.049 A 
ATOM     49  C   UNL A   1      41.481  28.833  31.605  1.00  0.00     0.074 A 
ATOM     50  C   UNL A   1      41.836  31.998  37.100  1.00  0.00     0.029 A 
ATOM     51  N   UNL A   1      41.287  31.305  35.060  1.00  0.00    -0.354 N 
ATOM     52  N   UNL A   1      41.466  29.527  32.719  1.00  0.00    -0.248 NA
ATOM     53  C   UNL A   1      42.531  27.809  31.551  1.00  0.00     0.031 C 
ATOM     54  C   UNL A   1      42.691  30.955  36.744  1.00  0.00     0.029 A 
ATOM     55  C   UNL A   1      42.328  30.496  35.487  1.00  0.00     0.049 A 
ATOM     56  H   UNL A   1      40.828  31.223  34.193  1.00  0.00     0.167 HD
ATOM     57  C   UNL A   1      42.494  29.013  33.504  1.00  0.00     0.074 A 
ATOM     58  C   UNL A   1      43.089  27.930  32.749  1.00  0.00     0.031 C 
ATOM     59  C   UNL A   1      42.909  29.409  34.734  1.00  0.00     0.034 A 
BRANCH  46  60
ATOM     60  C   UNL A   1      39.815  34.215  37.088  1.00  0.00     0.023 A 
ATOM     61  C   UNL A   1      39.229  33.767  38.287  1.00  0.00     0.031 A 
ATOM     62  C   UNL A   1      40.113  35.583  36.965  1.00  0.00     0.131 A 
ATOM     63  C   UNL A   1      38.924  34.685  39.300  1.00  0.00     0.055 A 
ATOM     64  C   UNL A   1      39.845  36.488  37.994  1.00  0.00     0.041 A 
ATOM     65  F   UNL A   1      40.673  36.062  35.841  1.00  0.00    -0.206 F 
ATOM     66  C   UNL A   1      39.235  36.041  39.163  1.00  0.00     0.022 A 
BRANCH  63  67
ATOM     67  S   UNL A   1      38.051  34.170  40.805  1.00  0.00     0.124 S 
ATOM     68  O   UNL A   1      36.885  33.484  40.253  1.00  0.00    -0.237 OA
ATOM     69  O   UNL A   1      39.037  33.306  41.448  1.00  0.00    -0.237 OA
ATOM     70  O   UNL A   1      37.766  35.425  41.492  1.00  0.00    -0.744 OA
ENDBRANCH  63  67
ENDBRANCH  46  60
BRANCH  47  71
ATOM     71  C   UNL A   1      40.671  28.029  29.240  1.00  0.00     0.023 A 
ATOM     72  C   UNL A   1      41.574  28.287  28.191  1.00  0.00     0.031 A 
ATOM     73  C   UNL A   1      39.780  26.953  29.093  1.00  0.00     0.131 A 
ATOM     74  C   UNL A   1      41.507  27.536  27.011  1.00  0.00     0.055 A 
ATOM     75  C   UNL A   1      39.771  26.155  27.946  1.00  0.00     0.041 A 
ATOM     76  F   UNL A   1      38.892  26.674  30.059  1.00  0.00    -0.206 F 
ATOM     77  C   UNL A   1      40.624  26.459  26.889  1.00  0.00     0.022 A 
BRANCH  74  78
ATOM     78  S   UNL A   1      42.452  28.029  25.542  1.00  0.00     0.124 S 
ATOM     79  O   UNL A   1      43.767  28.312  26.107  1.00  0.00    -0.237 OA
ATOM     80  O   UNL A   1      42.365  26.829  24.715  1.00  0.00    -0.237 OA
ATOM     81  O   UNL A   1      41.719  29.185  25.034  1.00  0.00    -0.744 OA
ENDBRANCH  74  78
ENDBRANCH  47  71
BRANCH  59  82
ATOM     82  C   UNL A   1      44.068  28.684  35.375  1.00  0.00     0.023 A 
ATOM     83  C   UNL A   1      43.828  27.582  36.220  1.00  0.00     0.031 A 
ATOM     84  C   UNL A   1      45.379  29.181  35.285  1.00  0.00     0.131 A 
ATOM     85  C   UNL A   1      44.874  27.047  36.980  1.00  0.00     0.055 A 
ATOM     86  C   UNL A   1      46.429  28.610  36.006  1.00  0.00     0.041 A 
ATOM     87  F   UNL A   1      45.656  30.235  34.502  1.00  0.00    -0.206 F 
ATOM     88  C   UNL A   1      46.175  27.548  36.871  1.00  0.00     0.022 A 
BRANCH  85  89
ATOM     89  S   UNL A   1      44.569  25.746  38.208  1.00  0.00     0.124 S 
ATOM     90  O   UNL A   1      45.896  25.153  38.355  1.00  0.00    -0.237 OA
ATOM     91  O   UNL A   1      44.097  26.514  39.357  1.00  0.00    -0.237 OA
ATOM     92  O   UNL A   1      43.573  24.888  37.573  1.00  0.00    -0.744 OA
ENDBRANCH  85  89
ENDBRANCH  59  82
ENDBRANCH  33  34
ENDBRANCH  25  28
ENDBRANCH  23  24
ENDBRANCH   1  23
TORSDOF 15
ENDMDL
