MODEL 1
REMARK VINA RESULT:     -11.7      0.000      0.000
REMARK SMILES CC[C@@H](C)[C@H](NC(=O)CCc1ccc(F)c(F)c1)C(=O)NCCCNC(=O)c1ccc(-c2c3nc(c(-c4cc(S(=O)(=O)[O-])ccc4F)c4ccc([nH]4)c(-c4cc(S(=O)(=O)[O-])ccc4F)c4nc(c(-c5cc(S(=O)(=O)[O-])ccc5F)c5ccc2[nH]5)C=C4)C=C3)cc1
REMARK SMILES IDX 22 1 21 2 19 3 20 4 5 6 3 7 4 8 2 9 1 10 6 11 7 12 8 14 9 15
REMARK SMILES IDX 10 16 11 17 12 18 18 19 13 20 16 21 14 22 17 23 15 24 23 25
REMARK SMILES IDX 24 26 25 27 26 28 27 30 28 31 29 32 90 33 30 34 89 35 31 36
REMARK SMILES IDX 32 37 33 38 83 39 34 40 88 41 82 42 84 43 35 44 87 45 81 46
REMARK SMILES IDX 80 47 36 49 68 50 48 51 67 52 49 53 52 54 66 55 85 56 50 57
REMARK SMILES IDX 51 58 65 60 86 61 53 62 37 63 38 64 46 65 39 66 45 67 47 68
REMARK SMILES IDX 44 69 40 70 41 71 42 72 43 73 69 74 70 75 78 76 71 77 77 78
REMARK SMILES IDX 79 79 76 80 72 81 73 82 74 83 75 84 54 85 55 86 63 87 56 88
REMARK SMILES IDX 62 89 64 90 61 91 57 92 58 93 59 94 60 95
REMARK H PARENT 21 5 6 13 25 29 84 48 52 59
REMARK Flexibility Score: inf
ROOT
ATOM      1  C   UNL A   1      32.490  26.827  25.938  1.00  0.00     0.117 C 
ENDROOT
BRANCH   1   2
ATOM      2  N   UNL A   1      31.789  25.776  26.635  1.00  0.00    -0.354 N 
ATOM      3  C   UNL A   1      31.844  24.436  26.494  1.00  0.00     0.242 C 
ATOM      4  O   UNL A   1      31.071  23.773  27.194  1.00  0.00    -0.273 OA
ATOM      5  H   UNL A   1      31.164  26.090  27.329  1.00  0.00     0.163 HD
BRANCH   3   6
ATOM      6  C   UNL A   1      32.884  23.747  25.594  1.00  0.00     0.174 C 
BRANCH   6   7
ATOM      7  C   UNL A   1      34.321  23.734  26.228  1.00  0.00     0.018 C 
ATOM      8  C   UNL A   1      35.334  24.492  25.352  1.00  0.00     0.010 C 
BRANCH   7   9
ATOM      9  C   UNL A   1      34.827  22.370  26.766  1.00  0.00     0.002 C 
ATOM     10  C   UNL A   1      33.886  21.612  27.692  1.00  0.00     0.004 C 
ENDBRANCH   7   9
ENDBRANCH   6   7
BRANCH   6  11
ATOM     11  N   UNL A   1      32.828  24.105  24.171  1.00  0.00    -0.344 N 
ATOM     12  C   UNL A   1      32.682  23.279  23.091  1.00  0.00     0.220 C 
ATOM     13  H   UNL A   1      32.905  25.065  23.969  1.00  0.00     0.164 HD
ATOM     14  O   UNL A   1      33.103  23.676  22.002  1.00  0.00    -0.275 OA
BRANCH  12  15
ATOM     15  C   UNL A   1      31.992  21.931  23.209  1.00  0.00     0.105 C 
BRANCH  15  16
ATOM     16  C   UNL A   1      32.393  21.116  24.442  1.00  0.00     0.045 C 
BRANCH  16  17
ATOM     17  C   UNL A   1      32.836  19.710  24.118  1.00  0.00    -0.044 A 
ATOM     18  C   UNL A   1      32.158  18.983  23.124  1.00  0.00     0.007 A 
ATOM     19  C   UNL A   1      33.990  19.164  24.701  1.00  0.00     0.046 A 
ATOM     20  C   UNL A   1      32.668  17.767  22.666  1.00  0.00     0.043 A 
ATOM     21  C   UNL A   1      34.486  17.944  24.244  1.00  0.00     0.159 A 
ATOM     22  C   UNL A   1      33.839  17.261  23.221  1.00  0.00     0.158 A 
ATOM     23  F   UNL A   1      35.622  17.457  24.762  1.00  0.00    -0.204 F 
ATOM     24  F   UNL A   1      34.359  16.127  22.730  1.00  0.00    -0.204 F 
ENDBRANCH  16  17
ENDBRANCH  15  16
ENDBRANCH  12  15
ENDBRANCH   6  11
ENDBRANCH   3   6
ENDBRANCH   1   2
BRANCH   1  25
ATOM     25  C   UNL A   1      32.761  28.026  26.830  1.00  0.00     0.042 C 
BRANCH  25  26
ATOM     26  C   UNL A   1      33.952  28.851  26.363  1.00  0.00     0.118 C 
BRANCH  26  27
ATOM     27  N   UNL A   1      33.791  30.268  26.680  1.00  0.00    -0.352 N 
ATOM     28  C   UNL A   1      34.421  31.031  27.622  1.00  0.00     0.251 C 
ATOM     29  H   UNL A   1      33.128  30.746  26.131  1.00  0.00     0.163 HD
ATOM     30  O   UNL A   1      33.920  32.100  27.974  1.00  0.00    -0.269 OA
BRANCH  28  31
ATOM     31  C   UNL A   1      35.677  30.550  28.212  1.00  0.00     0.039 A 
ATOM     32  C   UNL A   1      35.638  29.725  29.334  1.00  0.00     0.014 A 
ATOM     33  C   UNL A   1      36.896  30.912  27.633  1.00  0.00     0.014 A 
ATOM     34  C   UNL A   1      36.832  29.220  29.844  1.00  0.00     0.010 A 
ATOM     35  C   UNL A   1      38.065  30.308  28.061  1.00  0.00     0.010 A 
ATOM     36  C   UNL A   1      38.048  29.479  29.189  1.00  0.00    -0.014 A 
BRANCH  36  37
ATOM     37  C   UNL A   1      39.324  28.928  29.701  1.00  0.00     0.031 A 
ATOM     38  C   UNL A   1      39.976  29.558  30.903  1.00  0.00     0.074 A 
ATOM     39  C   UNL A   1      39.900  27.894  29.062  1.00  0.00     0.049 A 
ATOM     40  N   UNL A   1      41.103  29.247  31.487  1.00  0.00    -0.248 NA
ATOM     41  C   UNL A   1      39.292  30.717  31.500  1.00  0.00     0.031 C 
ATOM     42  C   UNL A   1      39.382  27.254  27.849  1.00  0.00     0.029 A 
ATOM     43  N   UNL A   1      41.046  27.195  29.339  1.00  0.00    -0.354 N 
ATOM     44  C   UNL A   1      41.261  30.172  32.514  1.00  0.00     0.074 A 
ATOM     45  C   UNL A   1      40.168  31.110  32.411  1.00  0.00     0.031 C 
ATOM     46  C   UNL A   1      40.181  26.229  27.516  1.00  0.00     0.029 A 
ATOM     47  C   UNL A   1      41.293  26.168  28.459  1.00  0.00     0.049 A 
ATOM     48  H   UNL A   1      41.635  27.408  30.098  1.00  0.00     0.167 HD
ATOM     49  C   UNL A   1      42.211  30.209  33.481  1.00  0.00     0.034 A 
ATOM     50  C   UNL A   1      42.305  25.280  28.419  1.00  0.00     0.034 A 
ATOM     51  C   UNL A   1      43.286  29.253  33.569  1.00  0.00     0.049 A 
ATOM     52  C   UNL A   1      43.356  25.347  29.498  1.00  0.00     0.074 A 
ATOM     53  C   UNL A   1      44.285  29.163  34.520  1.00  0.00     0.029 A 
ATOM     54  N   UNL A   1      43.502  28.220  32.664  1.00  0.00    -0.354 N 
ATOM     55  N   UNL A   1      43.460  26.192  30.499  1.00  0.00    -0.248 NA
ATOM     56  C   UNL A   1      44.411  24.329  29.454  1.00  0.00     0.031 C 
ATOM     57  C   UNL A   1      45.144  28.121  34.154  1.00  0.00     0.029 A 
ATOM     58  C   UNL A   1      44.634  27.505  33.021  1.00  0.00     0.049 A 
ATOM     59  H   UNL A   1      42.935  28.025  31.884  1.00  0.00     0.167 HD
ATOM     60  C   UNL A   1      44.581  25.789  31.219  1.00  0.00     0.074 A 
ATOM     61  C   UNL A   1      45.097  24.610  30.552  1.00  0.00     0.031 C 
ATOM     62  C   UNL A   1      45.138  26.339  32.330  1.00  0.00     0.034 A 
BRANCH  49  63
ATOM     63  C   UNL A   1      42.123  31.324  34.496  1.00  0.00     0.023 A 
ATOM     64  C   UNL A   1      41.118  31.346  35.482  1.00  0.00     0.031 A 
ATOM     65  C   UNL A   1      43.025  32.401  34.459  1.00  0.00     0.131 A 
ATOM     66  C   UNL A   1      40.989  32.455  36.330  1.00  0.00     0.055 A 
ATOM     67  C   UNL A   1      42.947  33.459  35.367  1.00  0.00     0.041 A 
ATOM     68  F   UNL A   1      43.991  32.453  33.528  1.00  0.00    -0.206 F 
ATOM     69  C   UNL A   1      41.913  33.500  36.299  1.00  0.00     0.022 A 
BRANCH  66  70
ATOM     70  S   UNL A   1      39.505  32.584  37.366  1.00  0.00     0.124 S 
ATOM     71  O   UNL A   1      38.846  31.308  37.096  1.00  0.00    -0.237 OA
ATOM     72  O   UNL A   1      40.064  32.745  38.702  1.00  0.00    -0.237 OA
ATOM     73  O   UNL A   1      38.816  33.757  36.831  1.00  0.00    -0.744 OA
ENDBRANCH  66  70
ENDBRANCH  49  63
BRANCH  50  74
ATOM     74  C   UNL A   1      42.376  24.260  27.333  1.00  0.00     0.023 A 
ATOM     75  C   UNL A   1      41.688  23.042  27.433  1.00  0.00     0.031 A 
ATOM     76  C   UNL A   1      43.168  24.477  26.191  1.00  0.00     0.131 A 
ATOM     77  C   UNL A   1      41.847  22.064  26.439  1.00  0.00     0.055 A 
ATOM     78  C   UNL A   1      43.276  23.524  25.176  1.00  0.00     0.041 A 
ATOM     79  F   UNL A   1      43.842  25.628  26.039  1.00  0.00    -0.206 F 
ATOM     80  C   UNL A   1      42.626  22.302  25.304  1.00  0.00     0.022 A 
BRANCH  77  81
ATOM     81  S   UNL A   1      41.098  20.431  26.698  1.00  0.00     0.124 S 
ATOM     82  O   UNL A   1      39.870  20.542  25.919  1.00  0.00    -0.237 OA
ATOM     83  O   UNL A   1      42.122  19.541  26.162  1.00  0.00    -0.237 OA
ATOM     84  O   UNL A   1      40.916  20.368  28.147  1.00  0.00    -0.744 OA
ENDBRANCH  77  81
ENDBRANCH  50  74
BRANCH  62  85
ATOM     85  C   UNL A   1      46.344  25.638  32.905  1.00  0.00     0.023 A 
ATOM     86  C   UNL A   1      46.217  24.613  33.858  1.00  0.00     0.031 A 
ATOM     87  C   UNL A   1      47.639  26.021  32.513  1.00  0.00     0.131 A 
ATOM     88  C   UNL A   1      47.365  24.057  34.441  1.00  0.00     0.055 A 
ATOM     89  C   UNL A   1      48.777  25.412  33.042  1.00  0.00     0.041 A 
ATOM     90  F   UNL A   1      47.820  26.996  31.608  1.00  0.00    -0.206 F 
ATOM     91  C   UNL A   1      48.644  24.436  34.026  1.00  0.00     0.022 A 
BRANCH  88  92
ATOM     92  S   UNL A   1      47.162  22.921  35.839  1.00  0.00     0.124 S 
ATOM     93  O   UNL A   1      46.037  23.517  36.553  1.00  0.00    -0.237 OA
ATOM     94  O   UNL A   1      46.894  21.651  35.173  1.00  0.00    -0.237 OA
ATOM     95  O   UNL A   1      48.447  22.998  36.533  1.00  0.00    -0.744 OA
ENDBRANCH  88  92
ENDBRANCH  62  85
ENDBRANCH  36  37
ENDBRANCH  28  31
ENDBRANCH  26  27
ENDBRANCH  25  26
ENDBRANCH   1  25
TORSDOF 19
ENDMDL
MODEL 2
REMARK VINA RESULT:     -11.5      2.480      3.349
REMARK SMILES CC[C@@H](C)[C@H](NC(=O)CCc1ccc(F)c(F)c1)C(=O)NCCCNC(=O)c1ccc(-c2c3nc(c(-c4cc(S(=O)(=O)[O-])ccc4F)c4ccc([nH]4)c(-c4cc(S(=O)(=O)[O-])ccc4F)c4nc(c(-c5cc(S(=O)(=O)[O-])ccc5F)c5ccc2[nH]5)C=C4)C=C3)cc1
REMARK SMILES IDX 22 1 21 2 19 3 20 4 5 6 3 7 4 8 2 9 1 10 6 11 7 12 8 14 9 15
REMARK SMILES IDX 10 16 11 17 12 18 18 19 13 20 16 21 14 22 17 23 15 24 23 25
REMARK SMILES IDX 24 26 25 27 26 28 27 30 28 31 29 32 90 33 30 34 89 35 31 36
REMARK SMILES IDX 32 37 33 38 83 39 34 40 88 41 82 42 84 43 35 44 87 45 81 46
REMARK SMILES IDX 80 47 36 49 68 50 48 51 67 52 49 53 52 54 66 55 85 56 50 57
REMARK SMILES IDX 51 58 65 60 86 61 53 62 37 63 38 64 46 65 39 66 45 67 47 68
REMARK SMILES IDX 44 69 40 70 41 71 42 72 43 73 69 74 70 75 78 76 71 77 77 78
REMARK SMILES IDX 79 79 76 80 72 81 73 82 74 83 75 84 54 85 55 86 63 87 56 88
REMARK SMILES IDX 62 89 64 90 61 91 57 92 58 93 59 94 60 95
REMARK H PARENT 21 5 6 13 25 29 84 48 52 59
REMARK Flexibility Score: inf
ROOT
ATOM      1  C   UNL A   1      32.022  29.377  24.862  1.00  0.00     0.117 C 
ENDROOT
BRANCH   1   2
ATOM      2  N   UNL A   1      31.274  29.110  23.656  1.00  0.00    -0.354 N 
ATOM      3  C   UNL A   1      30.937  27.944  23.069  1.00  0.00     0.242 C 
ATOM      4  O   UNL A   1      30.339  28.020  21.990  1.00  0.00    -0.273 OA
ATOM      5  H   UNL A   1      30.958  29.914  23.184  1.00  0.00     0.163 HD
BRANCH   3   6
ATOM      6  C   UNL A   1      31.181  26.583  23.744  1.00  0.00     0.174 C 
BRANCH   6   7
ATOM      7  C   UNL A   1      31.209  25.394  22.718  1.00  0.00     0.018 C 
ATOM      8  C   UNL A   1      30.448  24.167  23.252  1.00  0.00     0.010 C 
BRANCH   7   9
ATOM      9  C   UNL A   1      32.582  25.071  22.072  1.00  0.00     0.002 C 
ATOM     10  C   UNL A   1      33.803  25.724  22.705  1.00  0.00     0.004 C 
ENDBRANCH   7   9
ENDBRANCH   6   7
BRANCH   6  11
ATOM     11  N   UNL A   1      30.414  26.337  24.971  1.00  0.00    -0.344 N 
ATOM     12  C   UNL A   1      30.740  25.540  26.033  1.00  0.00     0.220 C 
ATOM     13  H   UNL A   1      29.552  26.808  25.038  1.00  0.00     0.164 HD
ATOM     14  O   UNL A   1      29.821  25.105  26.730  1.00  0.00    -0.275 OA
BRANCH  12  15
ATOM     15  C   UNL A   1      32.187  25.225  26.376  1.00  0.00     0.105 C 
BRANCH  15  16
ATOM     16  C   UNL A   1      32.504  23.732  26.488  1.00  0.00     0.045 C 
BRANCH  16  17
ATOM     17  C   UNL A   1      33.673  23.298  25.638  1.00  0.00    -0.044 A 
ATOM     18  C   UNL A   1      33.462  22.402  24.576  1.00  0.00     0.007 A 
ATOM     19  C   UNL A   1      34.943  23.871  25.810  1.00  0.00     0.046 A 
ATOM     20  C   UNL A   1      34.479  22.143  23.655  1.00  0.00     0.043 A 
ATOM     21  C   UNL A   1      35.956  23.599  24.892  1.00  0.00     0.159 A 
ATOM     22  C   UNL A   1      35.718  22.756  23.813  1.00  0.00     0.158 A 
ATOM     23  F   UNL A   1      37.147  24.197  25.027  1.00  0.00    -0.204 F 
ATOM     24  F   UNL A   1      36.668  22.556  22.889  1.00  0.00    -0.204 F 
ENDBRANCH  16  17
ENDBRANCH  15  16
ENDBRANCH  12  15
ENDBRANCH   6  11
ENDBRANCH   3   6
ENDBRANCH   1   2
BRANCH   1  25
ATOM     25  C   UNL A   1      33.386  28.711  24.851  1.00  0.00     0.042 C 
BRANCH  25  26
ATOM     26  C   UNL A   1      34.138  28.885  26.164  1.00  0.00     0.118 C 
BRANCH  26  27
ATOM     27  N   UNL A   1      34.078  30.263  26.647  1.00  0.00    -0.352 N 
ATOM     28  C   UNL A   1      34.793  30.873  27.638  1.00  0.00     0.251 C 
ATOM     29  H   UNL A   1      33.423  30.838  26.189  1.00  0.00     0.163 HD
ATOM     30  O   UNL A   1      34.374  31.921  28.134  1.00  0.00    -0.269 OA
BRANCH  28  31
ATOM     31  C   UNL A   1      36.040  30.258  28.107  1.00  0.00     0.039 A 
ATOM     32  C   UNL A   1      37.197  30.377  27.339  1.00  0.00     0.014 A 
ATOM     33  C   UNL A   1      36.059  29.572  29.324  1.00  0.00     0.014 A 
ATOM     34  C   UNL A   1      38.390  29.848  27.825  1.00  0.00     0.010 A 
ATOM     35  C   UNL A   1      37.266  29.162  29.863  1.00  0.00     0.010 A 
ATOM     36  C   UNL A   1      38.439  29.269  29.105  1.00  0.00    -0.014 A 
BRANCH  36  37
ATOM     37  C   UNL A   1      39.704  28.726  29.650  1.00  0.00     0.031 A 
ATOM     38  C   UNL A   1      40.380  29.425  30.799  1.00  0.00     0.074 A 
ATOM     39  C   UNL A   1      40.251  27.633  29.085  1.00  0.00     0.049 A 
ATOM     40  N   UNL A   1      41.502  29.130  31.399  1.00  0.00    -0.248 NA
ATOM     41  C   UNL A   1      39.728  30.641  31.313  1.00  0.00     0.031 C 
ATOM     42  C   UNL A   1      39.709  26.920  27.925  1.00  0.00     0.029 A 
ATOM     43  N   UNL A   1      41.381  26.929  29.407  1.00  0.00    -0.354 N 
ATOM     44  C   UNL A   1      41.690  30.123  32.354  1.00  0.00     0.074 A 
ATOM     45  C   UNL A   1      40.618  31.078  32.188  1.00  0.00     0.031 C 
ATOM     46  C   UNL A   1      40.481  25.853  27.664  1.00  0.00     0.029 A 
ATOM     47  C   UNL A   1      41.597  25.834  28.603  1.00  0.00     0.049 A 
ATOM     48  H   UNL A   1      41.981  27.182  30.146  1.00  0.00     0.167 HD
ATOM     49  C   UNL A   1      42.646  30.208  33.311  1.00  0.00     0.034 A 
ATOM     50  C   UNL A   1      42.588  24.921  28.624  1.00  0.00     0.034 A 
ATOM     51  C   UNL A   1      43.698  29.235  33.464  1.00  0.00     0.049 A 
ATOM     52  C   UNL A   1      43.647  25.041  29.690  1.00  0.00     0.074 A 
ATOM     53  C   UNL A   1      44.702  29.190  34.414  1.00  0.00     0.029 A 
ATOM     54  N   UNL A   1      43.884  28.134  32.636  1.00  0.00    -0.354 N 
ATOM     55  N   UNL A   1      43.778  25.955  30.626  1.00  0.00    -0.248 NA
ATOM     56  C   UNL A   1      44.677  23.997  29.716  1.00  0.00     0.031 C 
ATOM     57  C   UNL A   1      45.532  28.103  34.121  1.00  0.00     0.029 A 
ATOM     58  C   UNL A   1      45.000  27.418  33.040  1.00  0.00     0.049 A 
ATOM     59  H   UNL A   1      43.307  27.895  31.876  1.00  0.00     0.167 HD
ATOM     60  C   UNL A   1      44.894  25.577  31.368  1.00  0.00     0.074 A 
ATOM     61  C   UNL A   1      45.376  24.340  30.787  1.00  0.00     0.031 C 
ATOM     62  C   UNL A   1      45.471  26.193  32.433  1.00  0.00     0.034 A 
BRANCH  49  63
ATOM     63  C   UNL A   1      42.592  31.396  34.242  1.00  0.00     0.023 A 
ATOM     64  C   UNL A   1      41.724  31.425  35.352  1.00  0.00     0.031 A 
ATOM     65  C   UNL A   1      43.383  32.532  34.003  1.00  0.00     0.131 A 
ATOM     66  C   UNL A   1      41.609  32.590  36.124  1.00  0.00     0.055 A 
ATOM     67  C   UNL A   1      43.330  33.656  34.831  1.00  0.00     0.041 A 
ATOM     68  F   UNL A   1      44.212  32.578  32.948  1.00  0.00    -0.206 F 
ATOM     69  C   UNL A   1      42.426  33.696  35.888  1.00  0.00     0.022 A 
BRANCH  66  70
ATOM     70  S   UNL A   1      40.265  32.692  37.338  1.00  0.00     0.124 S 
ATOM     71  O   UNL A   1      40.988  32.503  38.594  1.00  0.00    -0.237 OA
ATOM     72  O   UNL A   1      39.729  34.027  37.105  1.00  0.00    -0.237 OA
ATOM     73  O   UNL A   1      39.381  31.589  36.964  1.00  0.00    -0.744 OA
ENDBRANCH  66  70
ENDBRANCH  49  63
BRANCH  50  74
ATOM     74  C   UNL A   1      42.627  23.823  27.615  1.00  0.00     0.023 A 
ATOM     75  C   UNL A   1      43.658  23.741  26.667  1.00  0.00     0.031 A 
ATOM     76  C   UNL A   1      41.605  22.858  27.561  1.00  0.00     0.131 A 
ATOM     77  C   UNL A   1      43.618  22.752  25.673  1.00  0.00     0.055 A 
ATOM     78  C   UNL A   1      41.601  21.839  26.606  1.00  0.00     0.041 A 
ATOM     79  F   UNL A   1      40.597  22.884  28.447  1.00  0.00    -0.206 F 
ATOM     80  C   UNL A   1      42.604  21.792  25.644  1.00  0.00     0.022 A 
BRANCH  77  81
ATOM     81  S   UNL A   1      44.862  22.797  24.352  1.00  0.00     0.124 S 
ATOM     82  O   UNL A   1      44.107  22.279  23.216  1.00  0.00    -0.237 OA
ATOM     83  O   UNL A   1      45.201  24.215  24.305  1.00  0.00    -0.237 OA
ATOM     84  O   UNL A   1      45.919  21.921  24.852  1.00  0.00    -0.744 OA
ENDBRANCH  77  81
ENDBRANCH  50  74
BRANCH  62  85
ATOM     85  C   UNL A   1      46.663  25.507  33.052  1.00  0.00     0.023 A 
ATOM     86  C   UNL A   1      47.966  25.704  32.560  1.00  0.00     0.031 A 
ATOM     87  C   UNL A   1      46.491  24.622  34.131  1.00  0.00     0.131 A 
ATOM     88  C   UNL A   1      49.033  24.970  33.098  1.00  0.00     0.055 A 
ATOM     89  C   UNL A   1      47.567  23.951  34.711  1.00  0.00     0.041 A 
ATOM     90  F   UNL A   1      45.269  24.393  34.639  1.00  0.00    -0.206 F 
ATOM     91  C   UNL A   1      48.845  24.110  34.183  1.00  0.00     0.022 A 
BRANCH  88  92
ATOM     92  S   UNL A   1      50.647  25.063  32.279  1.00  0.00     0.124 S 
ATOM     93  O   UNL A   1      50.274  25.017  30.868  1.00  0.00    -0.237 OA
ATOM     94  O   UNL A   1      51.168  26.338  32.760  1.00  0.00    -0.237 OA
ATOM     95  O   UNL A   1      51.351  23.881  32.772  1.00  0.00    -0.744 OA
ENDBRANCH  88  92
ENDBRANCH  62  85
ENDBRANCH  36  37
ENDBRANCH  28  31
ENDBRANCH  26  27
ENDBRANCH  25  26
ENDBRANCH   1  25
TORSDOF 19
ENDMDL
MODEL 3
REMARK VINA RESULT:     -11.4      4.746      9.434
REMARK SMILES CC[C@@H](C)[C@H](NC(=O)CCc1ccc(F)c(F)c1)C(=O)NCCCNC(=O)c1ccc(-c2c3nc(c(-c4cc(S(=O)(=O)[O-])ccc4F)c4ccc([nH]4)c(-c4cc(S(=O)(=O)[O-])ccc4F)c4nc(c(-c5cc(S(=O)(=O)[O-])ccc5F)c5ccc2[nH]5)C=C4)C=C3)cc1
REMARK SMILES IDX 22 1 21 2 19 3 20 4 5 6 3 7 4 8 2 9 1 10 6 11 7 12 8 14 9 15
REMARK SMILES IDX 10 16 11 17 12 18 18 19 13 20 16 21 14 22 17 23 15 24 23 25
REMARK SMILES IDX 24 26 25 27 26 28 27 30 28 31 29 32 90 33 30 34 89 35 31 36
REMARK SMILES IDX 32 37 33 38 83 39 34 40 88 41 82 42 84 43 35 44 87 45 81 46
REMARK SMILES IDX 80 47 36 49 68 50 48 51 67 52 49 53 52 54 66 55 85 56 50 57
REMARK SMILES IDX 51 58 65 60 86 61 53 62 37 63 38 64 46 65 39 66 45 67 47 68
REMARK SMILES IDX 44 69 40 70 41 71 42 72 43 73 69 74 70 75 78 76 71 77 77 78
REMARK SMILES IDX 79 79 76 80 72 81 73 82 74 83 75 84 54 85 55 86 63 87 56 88
REMARK SMILES IDX 62 89 64 90 61 91 57 92 58 93 59 94 60 95
REMARK H PARENT 21 5 6 13 25 29 84 48 52 59
REMARK Flexibility Score: inf
ROOT
ATOM      1  C   UNL A   1      35.207  23.657  23.705  1.00  0.00     0.117 C 
ENDROOT
BRANCH   1   2
ATOM      2  N   UNL A   1      34.938  24.607  24.757  1.00  0.00    -0.354 N 
ATOM      3  C   UNL A   1      33.779  25.160  25.170  1.00  0.00     0.242 C 
ATOM      4  O   UNL A   1      33.858  26.007  26.067  1.00  0.00    -0.273 OA
ATOM      5  H   UNL A   1      35.733  24.902  25.257  1.00  0.00     0.163 HD
BRANCH   3   6
ATOM      6  C   UNL A   1      32.412  24.695  24.639  1.00  0.00     0.174 C 
BRANCH   6   7
ATOM      7  C   UNL A   1      31.744  25.747  23.683  1.00  0.00     0.018 C 
ATOM      8  C   UNL A   1      32.693  26.162  22.544  1.00  0.00     0.010 C 
BRANCH   7   9
ATOM      9  C   UNL A   1      30.999  26.925  24.363  1.00  0.00     0.002 C 
ATOM     10  C   UNL A   1      31.326  28.322  23.854  1.00  0.00     0.004 C 
ENDBRANCH   7   9
ENDBRANCH   6   7
BRANCH   6  11
ATOM     11  N   UNL A   1      31.517  24.092  25.634  1.00  0.00    -0.344 N 
ATOM     12  C   UNL A   1      31.292  22.765  25.883  1.00  0.00     0.220 C 
ATOM     13  H   UNL A   1      31.013  24.724  26.195  1.00  0.00     0.164 HD
ATOM     14  O   UNL A   1      30.220  22.452  26.404  1.00  0.00    -0.275 OA
BRANCH  12  15
ATOM     15  C   UNL A   1      32.338  21.709  25.568  1.00  0.00     0.105 C 
BRANCH  15  16
ATOM     16  C   UNL A   1      32.358  21.250  24.108  1.00  0.00     0.045 C 
BRANCH  16  17
ATOM     17  C   UNL A   1      32.810  19.821  23.931  1.00  0.00    -0.044 A 
ATOM     18  C   UNL A   1      32.153  18.997  23.000  1.00  0.00     0.007 A 
ATOM     19  C   UNL A   1      33.954  19.339  24.586  1.00  0.00     0.046 A 
ATOM     20  C   UNL A   1      32.674  17.745  22.671  1.00  0.00     0.043 A 
ATOM     21  C   UNL A   1      34.461  18.082  24.259  1.00  0.00     0.159 A 
ATOM     22  C   UNL A   1      33.836  17.301  23.295  1.00  0.00     0.158 A 
ATOM     23  F   UNL A   1      35.588  17.653  24.843  1.00  0.00    -0.204 F 
ATOM     24  F   UNL A   1      34.368  16.127  22.927  1.00  0.00    -0.204 F 
ENDBRANCH  16  17
ENDBRANCH  15  16
ENDBRANCH  12  15
ENDBRANCH   6  11
ENDBRANCH   3   6
ENDBRANCH   1   2
BRANCH   1  25
ATOM     25  C   UNL A   1      35.993  22.456  24.204  1.00  0.00     0.042 C 
BRANCH  25  26
ATOM     26  C   UNL A   1      36.689  22.717  25.532  1.00  0.00     0.118 C 
BRANCH  26  27
ATOM     27  N   UNL A   1      37.577  21.619  25.907  1.00  0.00    -0.352 N 
ATOM     28  C   UNL A   1      38.910  21.637  26.209  1.00  0.00     0.251 C 
ATOM     29  H   UNL A   1      37.151  20.733  25.948  1.00  0.00     0.163 HD
ATOM     30  O   UNL A   1      39.558  20.590  26.162  1.00  0.00    -0.269 OA
BRANCH  28  31
ATOM     31  C   UNL A   1      39.548  22.910  26.566  1.00  0.00     0.039 A 
ATOM     32  C   UNL A   1      39.266  24.053  25.821  1.00  0.00     0.014 A 
ATOM     33  C   UNL A   1      40.418  22.965  27.658  1.00  0.00     0.014 A 
ATOM     34  C   UNL A   1      39.823  25.269  26.211  1.00  0.00     0.010 A 
ATOM     35  C   UNL A   1      40.865  24.191  28.117  1.00  0.00     0.010 A 
ATOM     36  C   UNL A   1      40.597  25.351  27.381  1.00  0.00    -0.014 A 
BRANCH  36  37
ATOM     37  C   UNL A   1      41.175  26.640  27.825  1.00  0.00     0.031 A 
ATOM     38  C   UNL A   1      42.615  26.955  27.517  1.00  0.00     0.074 A 
ATOM     39  C   UNL A   1      40.414  27.498  28.530  1.00  0.00     0.049 A 
ATOM     40  N   UNL A   1      43.317  28.009  27.841  1.00  0.00    -0.248 NA
ATOM     41  C   UNL A   1      43.377  25.930  26.785  1.00  0.00     0.031 C 
ATOM     42  C   UNL A   1      39.027  27.258  28.937  1.00  0.00     0.029 A 
ATOM     43  N   UNL A   1      40.694  28.742  29.029  1.00  0.00    -0.354 N 
ATOM     44  C   UNL A   1      44.598  27.770  27.356  1.00  0.00     0.074 A 
ATOM     45  C   UNL A   1      44.600  26.435  26.804  1.00  0.00     0.031 C 
ATOM     46  C   UNL A   1      38.564  28.341  29.582  1.00  0.00     0.029 A 
ATOM     47  C   UNL A   1      39.633  29.329  29.677  1.00  0.00     0.049 A 
ATOM     48  H   UNL A   1      41.572  29.176  28.932  1.00  0.00     0.167 HD
ATOM     49  C   UNL A   1      45.665  28.606  27.337  1.00  0.00     0.034 A 
ATOM     50  C   UNL A   1      39.537  30.529  30.282  1.00  0.00     0.034 A 
ATOM     51  C   UNL A   1      45.634  29.939  27.884  1.00  0.00     0.049 A 
ATOM     52  C   UNL A   1      40.739  31.439  30.256  1.00  0.00     0.074 A 
ATOM     53  C   UNL A   1      46.635  30.893  27.892  1.00  0.00     0.029 A 
ATOM     54  N   UNL A   1      44.539  30.505  28.527  1.00  0.00    -0.354 N 
ATOM     55  N   UNL A   1      41.929  31.222  29.741  1.00  0.00    -0.248 NA
ATOM     56  C   UNL A   1      40.580  32.759  30.874  1.00  0.00     0.031 C 
ATOM     57  C   UNL A   1      46.170  32.008  28.598  1.00  0.00     0.029 A 
ATOM     58  C   UNL A   1      44.850  31.785  28.958  1.00  0.00     0.049 A 
ATOM     59  H   UNL A   1      43.670  30.062  28.657  1.00  0.00     0.167 HD
ATOM     60  C   UNL A   1      42.651  32.394  29.952  1.00  0.00     0.074 A 
ATOM     61  C   UNL A   1      41.752  33.318  30.614  1.00  0.00     0.031 C 
ATOM     62  C   UNL A   1      43.939  32.684  29.630  1.00  0.00     0.034 A 
BRANCH  49  63
ATOM     63  C   UNL A   1      46.941  28.087  26.716  1.00  0.00     0.023 A 
ATOM     64  C   UNL A   1      47.191  28.207  25.334  1.00  0.00     0.031 A 
ATOM     65  C   UNL A   1      47.904  27.429  27.499  1.00  0.00     0.131 A 
ATOM     66  C   UNL A   1      48.326  27.607  24.771  1.00  0.00     0.055 A 
ATOM     67  C   UNL A   1      49.077  26.914  26.945  1.00  0.00     0.041 A 
ATOM     68  F   UNL A   1      47.714  27.260  28.817  1.00  0.00    -0.206 F 
ATOM     69  C   UNL A   1      49.286  26.985  25.570  1.00  0.00     0.022 A 
BRANCH  66  70
ATOM     70  S   UNL A   1      48.448  27.515  22.963  1.00  0.00     0.124 S 
ATOM     71  O   UNL A   1      47.253  28.247  22.550  1.00  0.00    -0.237 OA
ATOM     72  O   UNL A   1      49.723  28.172  22.699  1.00  0.00    -0.237 OA
ATOM     73  O   UNL A   1      48.416  26.079  22.691  1.00  0.00    -0.744 OA
ENDBRANCH  66  70
ENDBRANCH  49  63
BRANCH  50  74
ATOM     74  C   UNL A   1      38.271  30.940  30.954  1.00  0.00     0.023 A 
ATOM     75  C   UNL A   1      37.259  31.612  30.252  1.00  0.00     0.031 A 
ATOM     76  C   UNL A   1      38.071  30.699  32.325  1.00  0.00     0.131 A 
ATOM     77  C   UNL A   1      36.119  32.068  30.931  1.00  0.00     0.055 A 
ATOM     78  C   UNL A   1      36.908  31.102  32.984  1.00  0.00     0.041 A 
ATOM     79  F   UNL A   1      39.003  30.054  33.044  1.00  0.00    -0.206 F 
ATOM     80  C   UNL A   1      35.930  31.806  32.290  1.00  0.00     0.022 A 
BRANCH  77  81
ATOM     81  S   UNL A   1      34.926  33.099  30.033  1.00  0.00     0.124 S 
ATOM     82  O   UNL A   1      34.032  33.521  31.106  1.00  0.00    -0.237 OA
ATOM     83  O   UNL A   1      35.786  34.134  29.469  1.00  0.00    -0.237 OA
ATOM     84  O   UNL A   1      34.344  32.177  29.061  1.00  0.00    -0.744 OA
ENDBRANCH  77  81
ENDBRANCH  50  74
BRANCH  62  85
ATOM     85  C   UNL A   1      44.426  34.073  29.961  1.00  0.00     0.023 A 
ATOM     86  C   UNL A   1      44.265  35.144  29.065  1.00  0.00     0.031 A 
ATOM     87  C   UNL A   1      45.085  34.321  31.178  1.00  0.00     0.131 A 
ATOM     88  C   UNL A   1      44.822  36.395  29.367  1.00  0.00     0.055 A 
ATOM     89  C   UNL A   1      45.571  35.587  31.506  1.00  0.00     0.041 A 
ATOM     90  F   UNL A   1      45.269  33.335  32.071  1.00  0.00    -0.206 F 
ATOM     91  C   UNL A   1      45.457  36.629  30.590  1.00  0.00     0.022 A 
BRANCH  88  92
ATOM     92  S   UNL A   1      44.813  37.679  28.087  1.00  0.00     0.124 S 
ATOM     93  O   UNL A   1      46.179  38.188  28.159  1.00  0.00    -0.237 OA
ATOM     94  O   UNL A   1      44.478  36.920  26.887  1.00  0.00    -0.237 OA
ATOM     95  O   UNL A   1      43.780  38.608  28.540  1.00  0.00    -0.744 OA
ENDBRANCH  88  92
ENDBRANCH  62  85
ENDBRANCH  36  37
ENDBRANCH  28  31
ENDBRANCH  26  27
ENDBRANCH  25  26
ENDBRANCH   1  25
TORSDOF 19
ENDMDL
