MODEL 1
REMARK VINA RESULT:     -14.3      0.000      0.000
REMARK SMILES O=C(COc1ccccc1[C@@H]1C2=C(CCCC2=O)Nc2nc(SCc3ccccn3)nn21)NCCCNC(=O)c1ccc(-c2c3nc(c(-c4cc(S(=O)(=O)[O-])ccc4F)c4ccc([nH]4)c(-c4cc(S(=O)(=O)[O-])ccc4F)c4nc(c(-c5cc(S(=O)(=O)[O-])ccc5F)c5ccc2[nH]5)C=C4)C=C3)cc1
REMARK SMILES IDX 1 1 2 2 33 3 3 5 4 6 5 7 6 8 10 9 7 10 9 11 8 12 11 13 12 14
REMARK SMILES IDX 32 15 13 16 17 17 20 18 31 19 14 20 19 21 16 22 18 23 21 24
REMARK SMILES IDX 22 25 15 26 23 28 24 29 25 30 26 31 30 32 27 33 29 34 28 35
REMARK SMILES IDX 34 36 35 37 36 38 37 39 38 40 39 42 40 43 41 44 102 45 42 46
REMARK SMILES IDX 101 47 43 48 44 49 45 50 95 51 46 52 100 53 94 54 96 55
REMARK SMILES IDX 47 56 99 57 93 58 92 59 48 61 80 62 60 63 79 64 61 65 64 66
REMARK SMILES IDX 78 67 97 68 62 69 63 70 77 72 98 73 65 74 49 75 50 76 58 77
REMARK SMILES IDX 51 78 57 79 59 80 56 81 52 82 53 83 54 84 55 85 81 86 82 87
REMARK SMILES IDX 90 88 83 89 89 90 91 91 88 92 84 93 85 94 86 95 87 96 66 97
REMARK SMILES IDX 67 98 75 99 68 100 74 101 76 102 73 103 69 104 70 105 71 106
REMARK SMILES IDX 72 107
REMARK H PARENT 33 4 19 27 37 41 96 60 64 71
REMARK Flexibility Score: inf
ROOT
ATOM      1  O   UNL A   1      32.337  22.805  26.776  1.00  0.00    -0.271 OA
ATOM      2  C   UNL A   1      32.613  23.858  26.129  1.00  0.00     0.257 C 
ATOM      3  N   UNL A   1      34.012  23.574  25.778  1.00  0.00    -0.353 N 
ATOM      4  H   UNL A   1      34.474  24.222  25.200  1.00  0.00     0.163 HD
ENDROOT
BRANCH   2   5
ATOM      5  C   UNL A   1      31.330  25.626  25.814  1.00  0.00     0.329 C 
BRANCH   5   6
ATOM      6  O   UNL A   1      30.789  26.429  24.645  1.00  0.00    -0.483 OA
BRANCH   6   7
ATOM      7  C   UNL A   1      31.731  26.959  23.811  1.00  0.00     0.125 A 
ATOM      8  C   UNL A   1      32.706  26.160  23.238  1.00  0.00     0.047 A 
ATOM      9  C   UNL A   1      31.800  28.335  23.732  1.00  0.00     0.024 A 
ATOM     10  C   UNL A   1      33.777  26.771  22.580  1.00  0.00     0.004 A 
ATOM     11  C   UNL A   1      32.858  28.957  23.078  1.00  0.00     0.010 A 
ATOM     12  C   UNL A   1      33.854  28.166  22.505  1.00  0.00     0.001 A 
BRANCH   9  13
ATOM     13  C   UNL A   1      30.820  29.006  24.623  1.00  0.00     0.181 C 
ATOM     14  C   UNL A   1      29.607  30.040  23.453  1.00  0.00     0.044 C 
ATOM     15  N   UNL A   1      31.692  30.046  25.901  1.00  0.00    -0.218 N 
ATOM     16  C   UNL A   1      29.378  31.609  23.648  1.00  0.00     0.027 C 
ATOM     17  C   UNL A   1      28.812  29.290  22.468  1.00  0.00     0.163 C 
ATOM     18  C   UNL A   1      31.313  31.768  26.040  1.00  0.00     0.227 A 
ATOM     19  N   UNL A   1      32.843  29.889  26.584  1.00  0.00    -0.141 NA
ATOM     20  C   UNL A   1      28.504  32.382  22.719  1.00  0.00     0.055 C 
ATOM     21  N   UNL A   1      30.144  32.463  25.019  1.00  0.00    -0.328 N 
ATOM     22  C   UNL A   1      27.790  30.078  21.681  1.00  0.00     0.081 C 
ATOM     23  O   UNL A   1      28.858  28.064  22.463  1.00  0.00    -0.294 OA
ATOM     24  N   UNL A   1      32.146  32.169  26.957  1.00  0.00    -0.185 NA
ATOM     25  C   UNL A   1      33.001  31.080  27.208  1.00  0.00     0.210 A 
ATOM     26  C   UNL A   1      28.139  31.559  21.471  1.00  0.00     0.014 C 
ATOM     27  H   UNL A   1      29.873  33.393  25.193  1.00  0.00     0.169 HD
BRANCH  25  28
ATOM     28  S   UNL A   1      34.387  31.291  28.272  1.00  0.00    -0.078 SA
BRANCH  28  29
ATOM     29  C   UNL A   1      34.746  33.068  28.094  1.00  0.00     0.134 C 
BRANCH  29  30
ATOM     30  C   UNL A   1      34.224  33.937  29.219  1.00  0.00     0.051 A 
ATOM     31  C   UNL A   1      33.339  34.983  28.950  1.00  0.00     0.025 A 
ATOM     32  N   UNL A   1      34.667  33.681  30.476  1.00  0.00    -0.260 NA
ATOM     33  C   UNL A   1      32.985  35.861  29.968  1.00  0.00     0.003 A 
ATOM     34  C   UNL A   1      34.273  34.529  31.455  1.00  0.00     0.111 A 
ATOM     35  C   UNL A   1      33.462  35.633  31.248  1.00  0.00     0.020 A 
ENDBRANCH  29  30
ENDBRANCH  28  29
ENDBRANCH  25  28
ENDBRANCH   9  13
ENDBRANCH   6   7
ENDBRANCH   5   6
ENDBRANCH   2   5
BRANCH   3  36
ATOM     36  C   UNL A   1      34.780  22.396  26.221  1.00  0.00     0.117 C 
BRANCH  36  37
ATOM     37  C   UNL A   1      35.021  21.387  25.097  1.00  0.00     0.042 C 
BRANCH  37  38
ATOM     38  C   UNL A   1      36.441  21.378  24.543  1.00  0.00     0.118 C 
BRANCH  38  39
ATOM     39  N   UNL A   1      37.281  20.246  24.968  1.00  0.00    -0.352 N 
ATOM     40  C   UNL A   1      38.596  20.247  25.446  1.00  0.00     0.251 C 
ATOM     41  H   UNL A   1      36.856  19.360  24.908  1.00  0.00     0.163 HD
ATOM     42  O   UNL A   1      39.260  19.216  25.409  1.00  0.00    -0.269 OA
BRANCH  40  43
ATOM     43  C   UNL A   1      39.151  21.471  26.073  1.00  0.00     0.039 A 
ATOM     44  C   UNL A   1      38.578  22.746  26.079  1.00  0.00     0.014 A 
ATOM     45  C   UNL A   1      40.370  21.304  26.688  1.00  0.00     0.014 A 
ATOM     46  C   UNL A   1      39.294  23.816  26.659  1.00  0.00     0.010 A 
ATOM     47  C   UNL A   1      40.890  22.255  27.507  1.00  0.00     0.010 A 
ATOM     48  C   UNL A   1      40.499  23.561  27.328  1.00  0.00    -0.014 A 
BRANCH  48  49
ATOM     49  C   UNL A   1      41.305  24.512  28.095  1.00  0.00     0.031 A 
ATOM     50  C   UNL A   1      40.533  25.765  28.319  1.00  0.00     0.074 A 
ATOM     51  C   UNL A   1      42.413  24.159  28.806  1.00  0.00     0.049 A 
ATOM     52  N   UNL A   1      40.621  26.856  27.631  1.00  0.00    -0.248 NA
ATOM     53  C   UNL A   1      39.314  25.712  29.161  1.00  0.00     0.031 C 
ATOM     54  C   UNL A   1      43.095  22.861  28.887  1.00  0.00     0.029 A 
ATOM     55  N   UNL A   1      43.149  24.906  29.688  1.00  0.00    -0.354 N 
ATOM     56  C   UNL A   1      39.694  27.712  28.213  1.00  0.00     0.074 A 
ATOM     57  C   UNL A   1      38.720  26.857  28.819  1.00  0.00     0.031 C 
ATOM     58  C   UNL A   1      43.995  22.860  29.907  1.00  0.00     0.029 A 
ATOM     59  C   UNL A   1      44.064  24.189  30.488  1.00  0.00     0.049 A 
ATOM     60  H   UNL A   1      43.046  25.882  29.759  1.00  0.00     0.167 HD
ATOM     61  C   UNL A   1      40.025  28.999  28.516  1.00  0.00     0.034 A 
ATOM     62  C   UNL A   1      44.804  24.674  31.542  1.00  0.00     0.034 A 
ATOM     63  C   UNL A   1      41.259  29.362  27.848  1.00  0.00     0.049 A 
ATOM     64  C   UNL A   1      44.848  26.152  31.354  1.00  0.00     0.074 A 
ATOM     65  C   UNL A   1      41.682  29.359  26.532  1.00  0.00     0.029 A 
ATOM     66  N   UNL A   1      42.410  29.364  28.609  1.00  0.00    -0.354 N 
ATOM     67  N   UNL A   1      45.444  26.710  30.334  1.00  0.00    -0.248 NA
ATOM     68  C   UNL A   1      43.757  26.923  31.937  1.00  0.00     0.031 C 
ATOM     69  C   UNL A   1      43.009  28.837  26.579  1.00  0.00     0.029 A 
ATOM     70  C   UNL A   1      43.385  28.689  27.916  1.00  0.00     0.049 A 
ATOM     71  H   UNL A   1      42.515  29.779  29.496  1.00  0.00     0.167 HD
ATOM     72  C   UNL A   1      44.545  27.659  29.869  1.00  0.00     0.074 A 
ATOM     73  C   UNL A   1      43.536  27.773  30.927  1.00  0.00     0.031 C 
ATOM     74  C   UNL A   1      44.505  28.011  28.548  1.00  0.00     0.034 A 
BRANCH  61  75
ATOM     75  C   UNL A   1      39.518  29.767  29.726  1.00  0.00     0.023 A 
ATOM     76  C   UNL A   1      39.137  31.103  29.499  1.00  0.00     0.031 A 
ATOM     77  C   UNL A   1      39.634  29.394  31.087  1.00  0.00     0.131 A 
ATOM     78  C   UNL A   1      39.016  32.014  30.562  1.00  0.00     0.055 A 
ATOM     79  C   UNL A   1      39.449  30.290  32.144  1.00  0.00     0.041 A 
ATOM     80  F   UNL A   1      40.011  28.178  31.493  1.00  0.00    -0.206 F 
ATOM     81  C   UNL A   1      39.171  31.618  31.885  1.00  0.00     0.022 A 
BRANCH  78  82
ATOM     82  S   UNL A   1      38.830  33.768  30.164  1.00  0.00     0.124 S 
ATOM     83  O   UNL A   1      37.907  33.713  29.037  1.00  0.00    -0.237 OA
ATOM     84  O   UNL A   1      38.296  34.302  31.413  1.00  0.00    -0.237 OA
ATOM     85  O   UNL A   1      40.193  34.184  29.840  1.00  0.00    -0.744 OA
ENDBRANCH  78  82
ENDBRANCH  61  75
BRANCH  62  86
ATOM     86  C   UNL A   1      45.107  24.019  32.873  1.00  0.00     0.023 A 
ATOM     87  C   UNL A   1      46.196  24.352  33.732  1.00  0.00     0.031 A 
ATOM     88  C   UNL A   1      44.113  23.192  33.442  1.00  0.00     0.131 A 
ATOM     89  C   UNL A   1      46.247  23.857  35.071  1.00  0.00     0.055 A 
ATOM     90  C   UNL A   1      44.162  22.725  34.761  1.00  0.00     0.041 A 
ATOM     91  F   UNL A   1      43.002  22.877  32.758  1.00  0.00    -0.206 F 
ATOM     92  C   UNL A   1      45.223  23.060  35.583  1.00  0.00     0.022 A 
BRANCH  89  93
ATOM     93  S   UNL A   1      47.619  24.269  36.224  1.00  0.00     0.124 S 
ATOM     94  O   UNL A   1      47.043  25.339  37.029  1.00  0.00    -0.237 OA
ATOM     95  O   UNL A   1      47.858  23.000  36.902  1.00  0.00    -0.237 OA
ATOM     96  O   UNL A   1      48.702  24.694  35.333  1.00  0.00    -0.744 OA
ENDBRANCH  89  93
ENDBRANCH  62  86
BRANCH  74  97
ATOM     97  C   UNL A   1      45.627  27.551  27.633  1.00  0.00     0.023 A 
ATOM     98  C   UNL A   1      45.635  26.372  26.846  1.00  0.00     0.031 A 
ATOM     99  C   UNL A   1      46.694  28.450  27.464  1.00  0.00     0.131 A 
ATOM    100  C   UNL A   1      46.695  26.139  25.940  1.00  0.00     0.055 A 
ATOM    101  C   UNL A   1      47.719  28.231  26.548  1.00  0.00     0.041 A 
ATOM    102  F   UNL A   1      46.731  29.595  28.166  1.00  0.00    -0.206 F 
ATOM    103  C   UNL A   1      47.727  27.070  25.786  1.00  0.00     0.022 A 
BRANCH 100 104
ATOM    104  S   UNL A   1      46.779  24.600  24.960  1.00  0.00     0.124 S 
ATOM    105  O   UNL A   1      45.408  24.418  24.499  1.00  0.00    -0.237 OA
ATOM    106  O   UNL A   1      47.760  24.932  23.930  1.00  0.00    -0.237 OA
ATOM    107  O   UNL A   1      47.234  23.602  25.932  1.00  0.00    -0.744 OA
ENDBRANCH 100 104
ENDBRANCH  74  97
ENDBRANCH  48  49
ENDBRANCH  40  43
ENDBRANCH  38  39
ENDBRANCH  37  38
ENDBRANCH  36  37
ENDBRANCH   3  36
TORSDOF 19
ENDMDL
MODEL 2
REMARK VINA RESULT:     -13.5      1.962      2.226
REMARK SMILES O=C(COc1ccccc1[C@@H]1C2=C(CCCC2=O)Nc2nc(SCc3ccccn3)nn21)NCCCNC(=O)c1ccc(-c2c3nc(c(-c4cc(S(=O)(=O)[O-])ccc4F)c4ccc([nH]4)c(-c4cc(S(=O)(=O)[O-])ccc4F)c4nc(c(-c5cc(S(=O)(=O)[O-])ccc5F)c5ccc2[nH]5)C=C4)C=C3)cc1
REMARK SMILES IDX 1 1 2 2 33 3 3 5 4 6 5 7 6 8 10 9 7 10 9 11 8 12 11 13 12 14
REMARK SMILES IDX 32 15 13 16 17 17 20 18 31 19 14 20 19 21 16 22 18 23 21 24
REMARK SMILES IDX 22 25 15 26 23 28 24 29 25 30 26 31 30 32 27 33 29 34 28 35
REMARK SMILES IDX 34 36 35 37 36 38 37 39 38 40 39 42 40 43 41 44 102 45 42 46
REMARK SMILES IDX 101 47 43 48 44 49 45 50 95 51 46 52 100 53 94 54 96 55
REMARK SMILES IDX 47 56 99 57 93 58 92 59 48 61 80 62 60 63 79 64 61 65 64 66
REMARK SMILES IDX 78 67 97 68 62 69 63 70 77 72 98 73 65 74 49 75 50 76 58 77
REMARK SMILES IDX 51 78 57 79 59 80 56 81 52 82 53 83 54 84 55 85 81 86 82 87
REMARK SMILES IDX 90 88 83 89 89 90 91 91 88 92 84 93 85 94 86 95 87 96 66 97
REMARK SMILES IDX 67 98 75 99 68 100 74 101 76 102 73 103 69 104 70 105 71 106
REMARK SMILES IDX 72 107
REMARK H PARENT 33 4 19 27 37 41 96 60 64 71
REMARK Flexibility Score: inf
ROOT
ATOM      1  O   UNL A   1      33.115  22.707  26.660  1.00  0.00    -0.271 OA
ATOM      2  C   UNL A   1      33.158  23.821  26.060  1.00  0.00     0.257 C 
ATOM      3  N   UNL A   1      34.578  23.844  25.680  1.00  0.00    -0.353 N 
ATOM      4  H   UNL A   1      34.886  24.598  25.127  1.00  0.00     0.163 HD
ENDROOT
BRANCH   2   5
ATOM      5  C   UNL A   1      31.535  25.301  25.841  1.00  0.00     0.329 C 
BRANCH   5   6
ATOM      6  O   UNL A   1      30.895  26.112  24.729  1.00  0.00    -0.483 OA
BRANCH   6   7
ATOM      7  C   UNL A   1      31.761  26.649  23.820  1.00  0.00     0.125 A 
ATOM      8  C   UNL A   1      32.655  25.848  23.129  1.00  0.00     0.047 A 
ATOM      9  C   UNL A   1      31.855  28.024  23.775  1.00  0.00     0.024 A 
ATOM     10  C   UNL A   1      33.668  26.457  22.385  1.00  0.00     0.004 A 
ATOM     11  C   UNL A   1      32.857  28.645  23.037  1.00  0.00     0.010 A 
ATOM     12  C   UNL A   1      33.771  27.851  22.343  1.00  0.00     0.001 A 
BRANCH   9  13
ATOM     13  C   UNL A   1      30.985  28.688  24.779  1.00  0.00     0.181 C 
ATOM     14  C   UNL A   1      29.689  29.787  23.769  1.00  0.00     0.044 C 
ATOM     15  N   UNL A   1      32.006  29.664  25.996  1.00  0.00    -0.218 N 
ATOM     16  C   UNL A   1      29.521  31.353  24.035  1.00  0.00     0.027 C 
ATOM     17  C   UNL A   1      28.782  29.088  22.846  1.00  0.00     0.163 C 
ATOM     18  C   UNL A   1      31.687  31.389  26.226  1.00  0.00     0.227 A 
ATOM     19  N   UNL A   1      33.214  29.459  26.556  1.00  0.00    -0.141 NA
ATOM     20  C   UNL A   1      28.580  32.176  23.221  1.00  0.00     0.055 C 
ATOM     21  N   UNL A   1      30.441  32.144  25.348  1.00  0.00    -0.328 N 
ATOM     22  C   UNL A   1      27.708  29.924  22.189  1.00  0.00     0.081 C 
ATOM     23  O   UNL A   1      28.796  27.863  22.799  1.00  0.00    -0.294 OA
ATOM     24  N   UNL A   1      32.617  31.741  27.066  1.00  0.00    -0.185 NA
ATOM     25  C   UNL A   1      33.464  30.624  27.197  1.00  0.00     0.210 A 
ATOM     26  C   UNL A   1      28.072  31.403  21.991  1.00  0.00     0.014 C 
ATOM     27  H   UNL A   1      30.212  33.073  25.576  1.00  0.00     0.169 HD
BRANCH  25  28
ATOM     28  S   UNL A   1      34.954  30.769  28.123  1.00  0.00    -0.078 SA
BRANCH  28  29
ATOM     29  C   UNL A   1      35.118  32.573  28.315  1.00  0.00     0.134 C 
BRANCH  29  30
ATOM     30  C   UNL A   1      35.278  33.048  29.744  1.00  0.00     0.051 A 
ATOM     31  C   UNL A   1      36.384  33.817  30.113  1.00  0.00     0.025 A 
ATOM     32  N   UNL A   1      34.334  32.677  30.645  1.00  0.00    -0.260 NA
ATOM     33  C   UNL A   1      36.593  34.119  31.453  1.00  0.00     0.003 A 
ATOM     34  C   UNL A   1      34.543  33.022  31.938  1.00  0.00     0.111 A 
ATOM     35  C   UNL A   1      35.656  33.713  32.389  1.00  0.00     0.020 A 
ENDBRANCH  29  30
ENDBRANCH  28  29
ENDBRANCH  25  28
ENDBRANCH   9  13
ENDBRANCH   6   7
ENDBRANCH   5   6
ENDBRANCH   2   5
BRANCH   3  36
ATOM     36  C   UNL A   1      35.578  22.831  26.059  1.00  0.00     0.117 C 
BRANCH  36  37
ATOM     37  C   UNL A   1      35.705  21.706  25.030  1.00  0.00     0.042 C 
BRANCH  37  38
ATOM     38  C   UNL A   1      37.114  21.498  24.486  1.00  0.00     0.118 C 
BRANCH  38  39
ATOM     39  N   UNL A   1      37.845  20.348  25.044  1.00  0.00    -0.352 N 
ATOM     40  C   UNL A   1      39.117  20.302  25.624  1.00  0.00     0.251 C 
ATOM     41  H   UNL A   1      37.370  19.486  25.004  1.00  0.00     0.163 HD
ATOM     42  O   UNL A   1      39.715  19.233  25.703  1.00  0.00    -0.269 OA
BRANCH  40  43
ATOM     43  C   UNL A   1      39.701  21.529  26.220  1.00  0.00     0.039 A 
ATOM     44  C   UNL A   1      39.296  22.847  25.991  1.00  0.00     0.014 A 
ATOM     45  C   UNL A   1      40.765  21.313  27.064  1.00  0.00     0.014 A 
ATOM     46  C   UNL A   1      40.026  23.900  26.586  1.00  0.00     0.010 A 
ATOM     47  C   UNL A   1      41.247  22.297  27.867  1.00  0.00     0.010 A 
ATOM     48  C   UNL A   1      41.056  23.605  27.489  1.00  0.00    -0.014 A 
BRANCH  48  49
ATOM     49  C   UNL A   1      41.826  24.553  28.295  1.00  0.00     0.031 A 
ATOM     50  C   UNL A   1      41.077  25.834  28.424  1.00  0.00     0.074 A 
ATOM     51  C   UNL A   1      42.862  24.189  29.102  1.00  0.00     0.049 A 
ATOM     52  N   UNL A   1      41.255  26.902  27.717  1.00  0.00    -0.248 NA
ATOM     53  C   UNL A   1      39.794  25.839  29.164  1.00  0.00     0.031 C 
ATOM     54  C   UNL A   1      43.494  22.875  29.272  1.00  0.00     0.029 A 
ATOM     55  N   UNL A   1      43.547  24.939  30.022  1.00  0.00    -0.354 N 
ATOM     56  C   UNL A   1      40.311  27.800  28.199  1.00  0.00     0.074 A 
ATOM     57  C   UNL A   1      39.265  26.992  28.746  1.00  0.00     0.031 C 
ATOM     58  C   UNL A   1      44.309  22.876  30.361  1.00  0.00     0.029 A 
ATOM     59  C   UNL A   1      44.372  24.219  30.912  1.00  0.00     0.049 A 
ATOM     60  H   UNL A   1      43.469  25.919  30.059  1.00  0.00     0.167 HD
ATOM     61  C   UNL A   1      40.656  29.085  28.495  1.00  0.00     0.034 A 
ATOM     62  C   UNL A   1      45.040  24.712  32.010  1.00  0.00     0.034 A 
ATOM     63  C   UNL A   1      41.950  29.394  27.921  1.00  0.00     0.049 A 
ATOM     64  C   UNL A   1      45.144  26.182  31.788  1.00  0.00     0.074 A 
ATOM     65  C   UNL A   1      42.477  29.342  26.645  1.00  0.00     0.029 A 
ATOM     66  N   UNL A   1      43.036  29.384  28.772  1.00  0.00    -0.354 N 
ATOM     67  N   UNL A   1      45.837  26.694  30.806  1.00  0.00    -0.248 NA
ATOM     68  C   UNL A   1      44.035  27.000  32.260  1.00  0.00     0.031 C 
ATOM     69  C   UNL A   1      43.780  28.784  26.813  1.00  0.00     0.029 A 
ATOM     70  C   UNL A   1      44.042  28.662  28.179  1.00  0.00     0.049 A 
ATOM     71  H   UNL A   1      43.082  29.821  29.654  1.00  0.00     0.167 HD
ATOM     72  C   UNL A   1      45.008  27.654  30.245  1.00  0.00     0.074 A 
ATOM     73  C   UNL A   1      43.921  27.828  31.214  1.00  0.00     0.031 C 
ATOM     74  C   UNL A   1      45.086  27.971  28.917  1.00  0.00     0.034 A 
BRANCH  61  75
ATOM     75  C   UNL A   1      40.077  29.902  29.640  1.00  0.00     0.023 A 
ATOM     76  C   UNL A   1      40.620  29.656  30.915  1.00  0.00     0.031 A 
ATOM     77  C   UNL A   1      38.889  30.672  29.626  1.00  0.00     0.131 A 
ATOM     78  C   UNL A   1      39.940  30.049  32.081  1.00  0.00     0.055 A 
ATOM     79  C   UNL A   1      38.251  31.115  30.789  1.00  0.00     0.041 A 
ATOM     80  F   UNL A   1      38.218  30.981  28.512  1.00  0.00    -0.206 F 
ATOM     81  C   UNL A   1      38.757  30.775  32.028  1.00  0.00     0.022 A 
BRANCH  78  82
ATOM     82  S   UNL A   1      40.544  29.428  33.668  1.00  0.00     0.124 S 
ATOM     83  O   UNL A   1      39.364  29.591  34.510  1.00  0.00    -0.237 OA
ATOM     84  O   UNL A   1      40.914  28.058  33.331  1.00  0.00    -0.237 OA
ATOM     85  O   UNL A   1      41.660  30.320  33.974  1.00  0.00    -0.744 OA
ENDBRANCH  78  82
ENDBRANCH  61  75
BRANCH  62  86
ATOM     86  C   UNL A   1      45.214  24.085  33.377  1.00  0.00     0.023 A 
ATOM     87  C   UNL A   1      46.461  23.873  34.039  1.00  0.00     0.031 A 
ATOM     88  C   UNL A   1      44.064  23.923  34.179  1.00  0.00     0.131 A 
ATOM     89  C   UNL A   1      46.501  23.513  35.420  1.00  0.00     0.055 A 
ATOM     90  C   UNL A   1      44.112  23.587  35.537  1.00  0.00     0.041 A 
ATOM     91  F   UNL A   1      42.839  24.173  33.690  1.00  0.00    -0.206 F 
ATOM     92  C   UNL A   1      45.329  23.388  36.166  1.00  0.00     0.022 A 
BRANCH  89  93
ATOM     93  S   UNL A   1      48.080  23.244  36.324  1.00  0.00     0.124 S 
ATOM     94  O   UNL A   1      49.045  23.946  35.487  1.00  0.00    -0.237 OA
ATOM     95  O   UNL A   1      47.803  23.830  37.631  1.00  0.00    -0.237 OA
ATOM     96  O   UNL A   1      48.228  21.787  36.332  1.00  0.00    -0.744 OA
ENDBRANCH  89  93
ENDBRANCH  62  86
BRANCH  74  97
ATOM     97  C   UNL A   1      46.263  27.453  28.108  1.00  0.00     0.023 A 
ATOM     98  C   UNL A   1      47.576  27.986  28.105  1.00  0.00     0.031 A 
ATOM     99  C   UNL A   1      46.046  26.259  27.398  1.00  0.00     0.131 A 
ATOM    100  C   UNL A   1      48.604  27.319  27.400  1.00  0.00     0.055 A 
ATOM    101  C   UNL A   1      47.069  25.590  26.730  1.00  0.00     0.041 A 
ATOM    102  F   UNL A   1      44.828  25.694  27.380  1.00  0.00    -0.206 F 
ATOM    103  C   UNL A   1      48.352  26.121  26.724  1.00  0.00     0.022 A 
BRANCH 100 104
ATOM    104  S   UNL A   1      50.293  28.010  27.314  1.00  0.00     0.124 S 
ATOM    105  O   UNL A   1      50.359  28.886  28.478  1.00  0.00    -0.237 OA
ATOM    106  O   UNL A   1      51.129  26.813  27.368  1.00  0.00    -0.237 OA
ATOM    107  O   UNL A   1      50.311  28.705  26.024  1.00  0.00    -0.744 OA
ENDBRANCH 100 104
ENDBRANCH  74  97
ENDBRANCH  48  49
ENDBRANCH  40  43
ENDBRANCH  38  39
ENDBRANCH  37  38
ENDBRANCH  36  37
ENDBRANCH   3  36
TORSDOF 19
ENDMDL
MODEL 3
REMARK VINA RESULT:     -13.5      3.189      6.610
REMARK SMILES O=C(COc1ccccc1[C@@H]1C2=C(CCCC2=O)Nc2nc(SCc3ccccn3)nn21)NCCCNC(=O)c1ccc(-c2c3nc(c(-c4cc(S(=O)(=O)[O-])ccc4F)c4ccc([nH]4)c(-c4cc(S(=O)(=O)[O-])ccc4F)c4nc(c(-c5cc(S(=O)(=O)[O-])ccc5F)c5ccc2[nH]5)C=C4)C=C3)cc1
REMARK SMILES IDX 1 1 2 2 33 3 3 5 4 6 5 7 6 8 10 9 7 10 9 11 8 12 11 13 12 14
REMARK SMILES IDX 32 15 13 16 17 17 20 18 31 19 14 20 19 21 16 22 18 23 21 24
REMARK SMILES IDX 22 25 15 26 23 28 24 29 25 30 26 31 30 32 27 33 29 34 28 35
REMARK SMILES IDX 34 36 35 37 36 38 37 39 38 40 39 42 40 43 41 44 102 45 42 46
REMARK SMILES IDX 101 47 43 48 44 49 45 50 95 51 46 52 100 53 94 54 96 55
REMARK SMILES IDX 47 56 99 57 93 58 92 59 48 61 80 62 60 63 79 64 61 65 64 66
REMARK SMILES IDX 78 67 97 68 62 69 63 70 77 72 98 73 65 74 49 75 50 76 58 77
REMARK SMILES IDX 51 78 57 79 59 80 56 81 52 82 53 83 54 84 55 85 81 86 82 87
REMARK SMILES IDX 90 88 83 89 89 90 91 91 88 92 84 93 85 94 86 95 87 96 66 97
REMARK SMILES IDX 67 98 75 99 68 100 74 101 76 102 73 103 69 104 70 105 71 106
REMARK SMILES IDX 72 107
REMARK H PARENT 33 4 19 27 37 41 96 60 64 71
REMARK Flexibility Score: inf
ROOT
ATOM      1  O   UNL A   1      32.952  22.965  27.038  1.00  0.00    -0.271 OA
ATOM      2  C   UNL A   1      32.640  23.586  25.979  1.00  0.00     0.257 C 
ATOM      3  N   UNL A   1      33.859  23.359  25.190  1.00  0.00    -0.353 N 
ATOM      4  H   UNL A   1      33.867  23.691  24.264  1.00  0.00     0.163 HD
ENDROOT
BRANCH   2   5
ATOM      5  C   UNL A   1      30.818  24.770  25.594  1.00  0.00     0.329 C 
BRANCH   5   6
ATOM      6  O   UNL A   1      30.222  25.580  24.456  1.00  0.00    -0.483 OA
BRANCH   6   7
ATOM      7  C   UNL A   1      31.111  26.012  23.515  1.00  0.00     0.125 A 
ATOM      8  C   UNL A   1      31.802  25.111  22.721  1.00  0.00     0.047 A 
ATOM      9  C   UNL A   1      31.446  27.350  23.531  1.00  0.00     0.024 A 
ATOM     10  C   UNL A   1      32.859  25.578  21.936  1.00  0.00     0.004 A 
ATOM     11  C   UNL A   1      32.494  27.830  22.752  1.00  0.00     0.010 A 
ATOM     12  C   UNL A   1      33.206  26.933  21.955  1.00  0.00     0.001 A 
BRANCH   9  13
ATOM     13  C   UNL A   1      30.773  28.092  24.627  1.00  0.00     0.181 C 
ATOM     14  C   UNL A   1      29.595  29.427  23.769  1.00  0.00     0.044 C 
ATOM     15  N   UNL A   1      32.029  28.838  25.786  1.00  0.00    -0.218 N 
ATOM     16  C   UNL A   1      29.700  30.985  24.102  1.00  0.00     0.027 C 
ATOM     17  C   UNL A   1      28.518  28.923  22.902  1.00  0.00     0.163 C 
ATOM     18  C   UNL A   1      32.007  30.578  26.102  1.00  0.00     0.227 A 
ATOM     19  N   UNL A   1      33.229  28.420  26.235  1.00  0.00    -0.141 NA
ATOM     20  C   UNL A   1      28.841  31.983  23.400  1.00  0.00     0.055 C 
ATOM     21  N   UNL A   1      30.833  31.559  25.360  1.00  0.00    -0.328 N 
ATOM     22  C   UNL A   1      27.544  29.946  22.367  1.00  0.00     0.081 C 
ATOM     23  O   UNL A   1      28.333  27.714  22.811  1.00  0.00    -0.294 OA
ATOM     24  N   UNL A   1      33.044  30.740  26.874  1.00  0.00    -0.185 NA
ATOM     25  C   UNL A   1      33.710  29.500  26.893  1.00  0.00     0.210 A 
ATOM     26  C   UNL A   1      28.122  31.359  22.191  1.00  0.00     0.014 C 
ATOM     27  H   UNL A   1      30.773  32.501  25.639  1.00  0.00     0.169 HD
BRANCH  25  28
ATOM     28  S   UNL A   1      35.271  29.367  27.695  1.00  0.00    -0.078 SA
BRANCH  28  29
ATOM     29  C   UNL A   1      35.751  31.112  27.904  1.00  0.00     0.134 C 
BRANCH  29  30
ATOM     30  C   UNL A   1      37.050  31.328  28.652  1.00  0.00     0.051 A 
ATOM     31  C   UNL A   1      37.433  32.612  29.045  1.00  0.00     0.025 A 
ATOM     32  N   UNL A   1      37.829  30.244  28.895  1.00  0.00    -0.260 NA
ATOM     33  C   UNL A   1      38.692  32.813  29.597  1.00  0.00     0.003 A 
ATOM     34  C   UNL A   1      39.034  30.466  29.473  1.00  0.00     0.111 A 
ATOM     35  C   UNL A   1      39.514  31.719  29.815  1.00  0.00     0.020 A 
ENDBRANCH  29  30
ENDBRANCH  28  29
ENDBRANCH  25  28
ENDBRANCH   9  13
ENDBRANCH   6   7
ENDBRANCH   5   6
ENDBRANCH   2   5
BRANCH   3  36
ATOM     36  C   UNL A   1      35.072  22.673  25.673  1.00  0.00     0.117 C 
BRANCH  36  37
ATOM     37  C   UNL A   1      36.360  23.406  25.292  1.00  0.00     0.042 C 
BRANCH  37  38
ATOM     38  C   UNL A   1      37.316  23.658  26.453  1.00  0.00     0.118 C 
BRANCH  38  39
ATOM     39  N   UNL A   1      38.532  22.829  26.464  1.00  0.00    -0.352 N 
ATOM     40  C   UNL A   1      39.867  23.214  26.630  1.00  0.00     0.251 C 
ATOM     41  H   UNL A   1      38.386  21.863  26.337  1.00  0.00     0.163 HD
ATOM     42  O   UNL A   1      40.768  22.470  26.256  1.00  0.00    -0.269 OA
BRANCH  40  43
ATOM     43  C   UNL A   1      40.187  24.480  27.334  1.00  0.00     0.039 A 
ATOM     44  C   UNL A   1      39.357  25.595  27.475  1.00  0.00     0.014 A 
ATOM     45  C   UNL A   1      41.450  24.537  27.876  1.00  0.00     0.014 A 
ATOM     46  C   UNL A   1      39.864  26.750  28.112  1.00  0.00     0.010 A 
ATOM     47  C   UNL A   1      41.806  25.516  28.749  1.00  0.00     0.010 A 
ATOM     48  C   UNL A   1      41.135  26.714  28.701  1.00  0.00    -0.014 A 
BRANCH  48  49
ATOM     49  C   UNL A   1      41.766  27.758  29.509  1.00  0.00     0.031 A 
ATOM     50  C   UNL A   1      42.661  28.588  28.656  1.00  0.00     0.074 A 
ATOM     51  C   UNL A   1      41.313  28.138  30.737  1.00  0.00     0.049 A 
ATOM     52  N   UNL A   1      43.943  28.462  28.537  1.00  0.00    -0.248 NA
ATOM     53  C   UNL A   1      42.061  29.412  27.581  1.00  0.00     0.031 C 
ATOM     54  C   UNL A   1      40.230  27.568  31.549  1.00  0.00     0.029 A 
ATOM     55  N   UNL A   1      41.702  29.199  31.513  1.00  0.00    -0.354 N 
ATOM     56  C   UNL A   1      44.306  29.442  27.621  1.00  0.00     0.074 A 
ATOM     57  C   UNL A   1      43.135  29.676  26.834  1.00  0.00     0.031 C 
ATOM     58  C   UNL A   1      39.921  28.398  32.581  1.00  0.00     0.029 A 
ATOM     59  C   UNL A   1      40.857  29.510  32.599  1.00  0.00     0.049 A 
ATOM     60  H   UNL A   1      42.521  29.711  31.325  1.00  0.00     0.167 HD
ATOM     61  C   UNL A   1      45.365  30.265  27.863  1.00  0.00     0.034 A 
ATOM     62  C   UNL A   1      40.940  30.603  33.430  1.00  0.00     0.034 A 
ATOM     63  C   UNL A   1      46.167  29.733  28.947  1.00  0.00     0.049 A 
ATOM     64  C   UNL A   1      42.339  31.100  33.300  1.00  0.00     0.074 A 
ATOM     65  C   UNL A   1      46.804  28.528  29.175  1.00  0.00     0.029 A 
ATOM     66  N   UNL A   1      46.013  30.315  30.188  1.00  0.00    -0.354 N 
ATOM     67  N   UNL A   1      43.370  30.396  33.686  1.00  0.00    -0.248 NA
ATOM     68  C   UNL A   1      42.602  32.056  32.232  1.00  0.00     0.031 C 
ATOM     69  C   UNL A   1      46.523  28.224  30.541  1.00  0.00     0.029 A 
ATOM     70  C   UNL A   1      45.865  29.313  31.117  1.00  0.00     0.049 A 
ATOM     71  H   UNL A   1      46.010  31.281  30.377  1.00  0.00     0.167 HD
ATOM     72  C   UNL A   1      44.277  30.486  32.640  1.00  0.00     0.074 A 
ATOM     73  C   UNL A   1      43.762  31.562  31.785  1.00  0.00     0.031 C 
ATOM     74  C   UNL A   1      45.160  29.475  32.377  1.00  0.00     0.034 A 
BRANCH  61  75
ATOM     75  C   UNL A   1      45.441  31.729  27.459  1.00  0.00     0.023 A 
ATOM     76  C   UNL A   1      46.641  32.146  26.854  1.00  0.00     0.031 A 
ATOM     77  C   UNL A   1      44.569  32.772  27.856  1.00  0.00     0.131 A 
ATOM     78  C   UNL A   1      46.983  33.507  26.782  1.00  0.00     0.055 A 
ATOM     79  C   UNL A   1      44.887  34.127  27.723  1.00  0.00     0.041 A 
ATOM     80  F   UNL A   1      43.400  32.569  28.470  1.00  0.00    -0.206 F 
ATOM     81  C   UNL A   1      46.115  34.503  27.214  1.00  0.00     0.022 A 
BRANCH  78  82
ATOM     82  S   UNL A   1      48.665  33.937  26.277  1.00  0.00     0.124 S 
ATOM     83  O   UNL A   1      48.419  34.646  25.026  1.00  0.00    -0.237 OA
ATOM     84  O   UNL A   1      49.115  34.750  27.403  1.00  0.00    -0.237 OA
ATOM     85  O   UNL A   1      49.318  32.637  26.144  1.00  0.00    -0.744 OA
ENDBRANCH  78  82
ENDBRANCH  61  75
BRANCH  62  86
ATOM     86  C   UNL A   1      39.824  31.464  33.984  1.00  0.00     0.023 A 
ATOM     87  C   UNL A   1      39.078  32.430  33.244  1.00  0.00     0.031 A 
ATOM     88  C   UNL A   1      39.297  31.127  35.250  1.00  0.00     0.131 A 
ATOM     89  C   UNL A   1      37.887  33.003  33.786  1.00  0.00     0.055 A 
ATOM     90  C   UNL A   1      38.119  31.679  35.766  1.00  0.00     0.041 A 
ATOM     91  F   UNL A   1      39.866  30.172  36.003  1.00  0.00    -0.206 F 
ATOM     92  C   UNL A   1      37.405  32.613  35.036  1.00  0.00     0.022 A 
BRANCH  89  93
ATOM     93  S   UNL A   1      36.881  34.239  32.870  1.00  0.00     0.124 S 
ATOM     94  O   UNL A   1      35.967  33.398  32.108  1.00  0.00    -0.237 OA
ATOM     95  O   UNL A   1      36.295  35.033  33.943  1.00  0.00    -0.237 OA
ATOM     96  O   UNL A   1      37.869  34.953  32.058  1.00  0.00    -0.744 OA
ENDBRANCH  89  93
ENDBRANCH  62  86
BRANCH  74  97
ATOM     97  C   UNL A   1      45.323  28.361  33.397  1.00  0.00     0.023 A 
ATOM     98  C   UNL A   1      44.656  27.110  33.384  1.00  0.00     0.031 A 
ATOM     99  C   UNL A   1      46.324  28.553  34.365  1.00  0.00     0.131 A 
ATOM    100  C   UNL A   1      45.006  26.118  34.328  1.00  0.00     0.055 A 
ATOM    101  C   UNL A   1      46.685  27.560  35.273  1.00  0.00     0.041 A 
ATOM    102  F   UNL A   1      47.006  29.709  34.414  1.00  0.00    -0.206 F 
ATOM    103  C   UNL A   1      46.024  26.340  35.262  1.00  0.00     0.022 A 
BRANCH 100 104
ATOM    104  S   UNL A   1      44.123  24.520  34.390  1.00  0.00     0.124 S 
ATOM    105  O   UNL A   1      42.798  24.885  34.878  1.00  0.00    -0.237 OA
ATOM    106  O   UNL A   1      44.190  24.066  33.004  1.00  0.00    -0.237 OA
ATOM    107  O   UNL A   1      44.921  23.726  35.329  1.00  0.00    -0.744 OA
ENDBRANCH 100 104
ENDBRANCH  74  97
ENDBRANCH  48  49
ENDBRANCH  40  43
ENDBRANCH  38  39
ENDBRANCH  37  38
ENDBRANCH  36  37
ENDBRANCH   3  36
TORSDOF 19
ENDMDL
