MODEL 1
REMARK VINA RESULT:     -12.0      0.000      0.000
REMARK SMILES CCC1CCN(C(=O)NC[C@@H]2CC[C@H](C(=O)NCCCNC(=O)c3ccc(-c4c5nc(c(-c6cc(S(=O)(=O)[O-])ccc6F)c6ccc([nH]6)c(-c6cc(S(=O)(=O)[O-])ccc6F)c6nc(c(-c7cc(S(=O)(=O)[O-])ccc7F)c7ccc4[nH]7)C=C6)C=C5)cc3)O2)CC1
REMARK SMILES IDX 19 1 18 2 17 3 15 4 16 5 14 7 11 8 12 9 87 10 13 11 10 12
REMARK SMILES IDX 9 13 3 14 4 15 89 16 5 17 88 18 6 19 7 20 8 21 2 23 1 24
REMARK SMILES IDX 20 25 21 26 22 27 23 29 24 30 25 31 86 32 26 33 85 34 27 35
REMARK SMILES IDX 28 36 29 37 79 38 30 39 84 40 78 41 80 42 31 43 83 44 77 45
REMARK SMILES IDX 76 46 32 48 64 49 44 50 63 51 45 52 48 53 62 54 81 55 46 56
REMARK SMILES IDX 47 57 61 59 82 60 49 61 33 62 34 63 42 64 35 65 41 66 43 67
REMARK SMILES IDX 40 68 36 69 37 70 38 71 39 72 65 73 66 74 74 75 67 76 73 77
REMARK SMILES IDX 75 78 72 79 68 80 69 81 70 82 71 83 50 84 51 85 59 86 52 87
REMARK SMILES IDX 58 88 60 89 57 90 53 91 54 92 55 93 56 94
REMARK H PARENT 17 6 9 22 21 28 80 47 48 58
REMARK Flexibility Score: inf
ROOT
ATOM      1  C   UNL A   1      32.572  30.860  27.175  1.00  0.00     0.042 C 
ENDROOT
BRANCH   1   2
ATOM      2  C   UNL A   1      33.215  29.526  26.863  1.00  0.00     0.117 C 
BRANCH   2   3
ATOM      3  N   UNL A   1      33.655  29.375  25.493  1.00  0.00    -0.354 N 
ATOM      4  C   UNL A   1      32.878  29.144  24.392  1.00  0.00     0.249 C 
ATOM      5  O   UNL A   1      33.393  29.255  23.276  1.00  0.00    -0.272 OA
ATOM      6  H   UNL A   1      34.623  29.448  25.335  1.00  0.00     0.163 HD
BRANCH   4   7
ATOM      7  C   UNL A   1      31.410  28.703  24.548  1.00  0.00     0.207 C 
ATOM      8  C   UNL A   1      30.027  26.867  24.286  1.00  0.00     0.138 C 
ATOM      9  C   UNL A   1      29.913  27.640  22.979  1.00  0.00     0.037 C 
ATOM     10  O   UNL A   1      31.242  27.323  24.904  1.00  0.00    -0.363 OA
ATOM     11  C   UNL A   1      30.572  28.967  23.297  1.00  0.00     0.045 C 
BRANCH   8  12
ATOM     12  C   UNL A   1      29.983  25.329  24.197  1.00  0.00     0.149 C 
BRANCH  12  13
ATOM     13  N   UNL A   1      30.274  24.622  25.437  1.00  0.00    -0.335 N 
ATOM     14  C   UNL A   1      35.450  23.464  24.956  1.00  0.00    -0.008 C 
ATOM     15  C   UNL A   1      34.959  23.351  26.402  1.00  0.00     0.025 C 
ATOM     16  C   UNL A   1      34.570  24.474  24.225  1.00  0.00     0.025 C 
ATOM     17  C   UNL A   1      33.452  23.202  26.579  1.00  0.00     0.121 C 
ATOM     18  C   UNL A   1      33.073  24.201  24.333  1.00  0.00     0.121 C 
ATOM     19  N   UNL A   1      32.588  23.996  25.691  1.00  0.00    -0.325 N 
ATOM     20  C   UNL A   1      31.297  24.112  26.133  1.00  0.00     0.317 C 
ATOM     21  O   UNL A   1      30.956  23.704  27.251  1.00  0.00    -0.249 OA
ATOM     22  H   UNL A   1      29.436  24.466  25.929  1.00  0.00     0.165 HD
BRANCH  14  23
ATOM     23  C   UNL A   1      35.753  22.117  24.252  1.00  0.00     0.000 C 
ATOM     24  C   UNL A   1      36.147  20.907  25.082  1.00  0.00     0.004 C 
ENDBRANCH  14  23
ENDBRANCH  12  13
ENDBRANCH   8  12
ENDBRANCH   4   7
ENDBRANCH   2   3
ENDBRANCH   1   2
BRANCH   1  25
ATOM     25  C   UNL A   1      33.569  32.011  27.193  1.00  0.00     0.118 C 
BRANCH  25  26
ATOM     26  N   UNL A   1      33.014  33.263  27.706  1.00  0.00    -0.352 N 
ATOM     27  C   UNL A   1      33.399  34.045  28.766  1.00  0.00     0.251 C 
ATOM     28  H   UNL A   1      32.234  33.601  27.210  1.00  0.00     0.163 HD
ATOM     29  O   UNL A   1      32.754  35.036  29.093  1.00  0.00    -0.269 OA
BRANCH  27  30
ATOM     30  C   UNL A   1      34.576  33.678  29.542  1.00  0.00     0.039 A 
ATOM     31  C   UNL A   1      34.439  32.775  30.600  1.00  0.00     0.014 A 
ATOM     32  C   UNL A   1      35.810  34.221  29.192  1.00  0.00     0.014 A 
ATOM     33  C   UNL A   1      35.576  32.351  31.274  1.00  0.00     0.010 A 
ATOM     34  C   UNL A   1      36.945  33.723  29.794  1.00  0.00     0.010 A 
ATOM     35  C   UNL A   1      36.832  32.795  30.842  1.00  0.00    -0.014 A 
BRANCH  35  36
ATOM     36  C   UNL A   1      38.083  32.355  31.481  1.00  0.00     0.031 A 
ATOM     37  C   UNL A   1      38.857  31.258  30.818  1.00  0.00     0.074 A 
ATOM     38  C   UNL A   1      38.397  32.828  32.700  1.00  0.00     0.049 A 
ATOM     39  N   UNL A   1      39.796  30.496  31.302  1.00  0.00    -0.248 NA
ATOM     40  C   UNL A   1      38.466  30.935  29.434  1.00  0.00     0.031 C 
ATOM     41  C   UNL A   1      37.669  33.880  33.415  1.00  0.00     0.029 A 
ATOM     42  N   UNL A   1      39.386  32.456  33.569  1.00  0.00    -0.354 N 
ATOM     43  C   UNL A   1      40.078  29.573  30.302  1.00  0.00     0.074 A 
ATOM     44  C   UNL A   1      39.170  29.838  29.208  1.00  0.00     0.031 C 
ATOM     45  C   UNL A   1      38.237  34.067  34.617  1.00  0.00     0.029 A 
ATOM     46  C   UNL A   1      39.321  33.107  34.780  1.00  0.00     0.049 A 
ATOM     47  H   UNL A   1      40.075  31.788  33.351  1.00  0.00     0.167 HD
ATOM     48  C   UNL A   1      41.022  28.604  30.307  1.00  0.00     0.034 A 
ATOM     49  C   UNL A   1      40.038  32.911  35.901  1.00  0.00     0.034 A 
ATOM     50  C   UNL A   1      41.917  28.401  31.419  1.00  0.00     0.049 A 
ATOM     51  C   UNL A   1      41.082  31.825  35.884  1.00  0.00     0.074 A 
ATOM     52  C   UNL A   1      42.964  27.509  31.536  1.00  0.00     0.029 A 
ATOM     53  N   UNL A   1      41.860  29.111  32.615  1.00  0.00    -0.354 N 
ATOM     54  N   UNL A   1      41.376  30.979  34.922  1.00  0.00    -0.248 NA
ATOM     55  C   UNL A   1      41.892  31.667  37.096  1.00  0.00     0.031 C 
ATOM     56  C   UNL A   1      43.499  27.635  32.823  1.00  0.00     0.029 A 
ATOM     57  C   UNL A   1      42.834  28.656  33.486  1.00  0.00     0.049 A 
ATOM     58  H   UNL A   1      41.219  29.832  32.812  1.00  0.00     0.167 HD
ATOM     59  C   UNL A   1      42.421  30.201  35.405  1.00  0.00     0.074 A 
ATOM     60  C   UNL A   1      42.716  30.695  36.738  1.00  0.00     0.031 C 
ATOM     61  C   UNL A   1      43.082  29.172  34.812  1.00  0.00     0.034 A 
BRANCH  48  62
ATOM     62  C   UNL A   1      41.097  27.695  29.103  1.00  0.00     0.023 A 
ATOM     63  C   UNL A   1      42.093  27.845  28.121  1.00  0.00     0.031 A 
ATOM     64  C   UNL A   1      40.127  26.696  28.904  1.00  0.00     0.131 A 
ATOM     65  C   UNL A   1      42.046  27.075  26.949  1.00  0.00     0.055 A 
ATOM     66  C   UNL A   1      40.139  25.873  27.776  1.00  0.00     0.041 A 
ATOM     67  F   UNL A   1      39.135  26.520  29.790  1.00  0.00    -0.206 F 
ATOM     68  C   UNL A   1      41.092  26.071  26.782  1.00  0.00     0.022 A 
BRANCH  65  69
ATOM     69  S   UNL A   1      43.156  27.513  25.582  1.00  0.00     0.124 S 
ATOM     70  O   UNL A   1      44.116  28.387  26.250  1.00  0.00    -0.237 OA
ATOM     71  O   UNL A   1      43.664  26.213  25.160  1.00  0.00    -0.237 OA
ATOM     72  O   UNL A   1      42.276  28.180  24.625  1.00  0.00    -0.744 OA
ENDBRANCH  65  69
ENDBRANCH  48  62
BRANCH  49  73
ATOM     73  C   UNL A   1      39.784  33.735  37.116  1.00  0.00     0.023 A 
ATOM     74  C   UNL A   1      40.594  34.840  37.415  1.00  0.00     0.031 A 
ATOM     75  C   UNL A   1      38.733  33.432  38.001  1.00  0.00     0.131 A 
ATOM     76  C   UNL A   1      40.369  35.580  38.587  1.00  0.00     0.055 A 
ATOM     77  C   UNL A   1      38.480  34.202  39.139  1.00  0.00     0.041 A 
ATOM     78  F   UNL A   1      37.920  32.392  37.760  1.00  0.00    -0.206 F 
ATOM     79  C   UNL A   1      39.309  35.277  39.444  1.00  0.00     0.022 A 
BRANCH  76  80
ATOM     80  S   UNL A   1      41.535  36.901  39.014  1.00  0.00     0.124 S 
ATOM     81  O   UNL A   1      42.374  36.248  40.012  1.00  0.00    -0.237 OA
ATOM     82  O   UNL A   1      42.165  37.177  37.727  1.00  0.00    -0.237 OA
ATOM     83  O   UNL A   1      40.671  37.965  39.523  1.00  0.00    -0.744 OA
ENDBRANCH  76  80
ENDBRANCH  49  73
BRANCH  61  84
ATOM     84  C   UNL A   1      44.201  28.547  35.603  1.00  0.00     0.023 A 
ATOM     85  C   UNL A   1      43.973  27.457  36.458  1.00  0.00     0.031 A 
ATOM     86  C   UNL A   1      45.510  29.047  35.490  1.00  0.00     0.131 A 
ATOM     87  C   UNL A   1      45.032  26.930  37.207  1.00  0.00     0.055 A 
ATOM     88  C   UNL A   1      46.572  28.478  36.192  1.00  0.00     0.041 A 
ATOM     89  F   UNL A   1      45.777  30.090  34.687  1.00  0.00    -0.206 F 
ATOM     90  C   UNL A   1      46.333  27.420  37.066  1.00  0.00     0.022 A 
BRANCH  87  91
ATOM     91  S   UNL A   1      44.671  25.645  38.435  1.00  0.00     0.124 S 
ATOM     92  O   UNL A   1      43.688  24.827  37.734  1.00  0.00    -0.237 OA
ATOM     93  O   UNL A   1      45.979  25.033  38.641  1.00  0.00    -0.237 OA
ATOM     94  O   UNL A   1      44.153  26.399  39.576  1.00  0.00    -0.744 OA
ENDBRANCH  87  91
ENDBRANCH  61  84
ENDBRANCH  35  36
ENDBRANCH  27  30
ENDBRANCH  25  26
ENDBRANCH   1  25
TORSDOF 16
ENDMDL
MODEL 2
REMARK VINA RESULT:     -12.0      5.815     10.701
REMARK SMILES CCC1CCN(C(=O)NC[C@@H]2CC[C@H](C(=O)NCCCNC(=O)c3ccc(-c4c5nc(c(-c6cc(S(=O)(=O)[O-])ccc6F)c6ccc([nH]6)c(-c6cc(S(=O)(=O)[O-])ccc6F)c6nc(c(-c7cc(S(=O)(=O)[O-])ccc7F)c7ccc4[nH]7)C=C6)C=C5)cc3)O2)CC1
REMARK SMILES IDX 19 1 18 2 17 3 15 4 16 5 14 7 11 8 12 9 87 10 13 11 10 12
REMARK SMILES IDX 9 13 3 14 4 15 89 16 5 17 88 18 6 19 7 20 8 21 2 23 1 24
REMARK SMILES IDX 20 25 21 26 22 27 23 29 24 30 25 31 86 32 26 33 85 34 27 35
REMARK SMILES IDX 28 36 29 37 79 38 30 39 84 40 78 41 80 42 31 43 83 44 77 45
REMARK SMILES IDX 76 46 32 48 64 49 44 50 63 51 45 52 48 53 62 54 81 55 46 56
REMARK SMILES IDX 47 57 61 59 82 60 49 61 33 62 34 63 42 64 35 65 41 66 43 67
REMARK SMILES IDX 40 68 36 69 37 70 38 71 39 72 65 73 66 74 74 75 67 76 73 77
REMARK SMILES IDX 75 78 72 79 68 80 69 81 70 82 71 83 50 84 51 85 59 86 52 87
REMARK SMILES IDX 58 88 60 89 57 90 53 91 54 92 55 93 56 94
REMARK H PARENT 17 6 9 22 21 28 80 47 48 58
REMARK Flexibility Score: inf
ROOT
ATOM      1  C   UNL A   1      35.296  22.151  25.786  1.00  0.00     0.042 C 
ENDROOT
BRANCH   1   2
ATOM      2  C   UNL A   1      35.108  20.913  24.935  1.00  0.00     0.117 C 
BRANCH   2   3
ATOM      3  N   UNL A   1      34.333  19.864  25.562  1.00  0.00    -0.354 N 
ATOM      4  C   UNL A   1      33.014  19.568  25.352  1.00  0.00     0.249 C 
ATOM      5  O   UNL A   1      32.571  18.511  25.809  1.00  0.00    -0.272 OA
ATOM      6  H   UNL A   1      34.808  19.299  26.212  1.00  0.00     0.163 HD
BRANCH   4   7
ATOM      7  C   UNL A   1      32.097  20.558  24.611  1.00  0.00     0.207 C 
ATOM      8  C   UNL A   1      32.158  22.507  23.365  1.00  0.00     0.138 C 
ATOM      9  C   UNL A   1      31.900  22.958  24.797  1.00  0.00     0.037 C 
ATOM     10  O   UNL A   1      32.701  21.180  23.467  1.00  0.00    -0.363 OA
ATOM     11  C   UNL A   1      31.562  21.667  25.516  1.00  0.00     0.045 C 
BRANCH   8  12
ATOM     12  C   UNL A   1      33.048  23.415  22.494  1.00  0.00     0.149 C 
BRANCH  12  13
ATOM     13  N   UNL A   1      32.350  24.476  21.780  1.00  0.00    -0.335 N 
ATOM     14  C   UNL A   1      32.884  28.652  25.043  1.00  0.00    -0.008 C 
ATOM     15  C   UNL A   1      32.491  29.068  23.622  1.00  0.00     0.025 C 
ATOM     16  C   UNL A   1      33.639  27.328  24.965  1.00  0.00     0.025 C 
ATOM     17  C   UNL A   1      31.871  27.973  22.760  1.00  0.00     0.121 C 
ATOM     18  C   UNL A   1      32.912  26.230  24.197  1.00  0.00     0.121 C 
ATOM     19  N   UNL A   1      32.443  26.622  22.875  1.00  0.00    -0.325 N 
ATOM     20  C   UNL A   1      32.116  25.792  21.835  1.00  0.00     0.317 C 
ATOM     21  O   UNL A   1      31.519  26.211  20.834  1.00  0.00    -0.249 OA
ATOM     22  H   UNL A   1      31.900  24.097  20.991  1.00  0.00     0.165 HD
BRANCH  14  23
ATOM     23  C   UNL A   1      31.767  28.793  26.107  1.00  0.00     0.000 C 
ATOM     24  C   UNL A   1      31.930  28.124  27.461  1.00  0.00     0.004 C 
ENDBRANCH  14  23
ENDBRANCH  12  13
ENDBRANCH   8  12
ENDBRANCH   4   7
ENDBRANCH   2   3
ENDBRANCH   1   2
BRANCH   1  25
ATOM     25  C   UNL A   1      36.746  22.611  25.853  1.00  0.00     0.118 C 
BRANCH  25  26
ATOM     26  N   UNL A   1      37.715  21.517  25.786  1.00  0.00    -0.352 N 
ATOM     27  C   UNL A   1      39.040  21.471  26.138  1.00  0.00     0.251 C 
ATOM     28  H   UNL A   1      37.357  20.673  25.428  1.00  0.00     0.163 HD
ATOM     29  O   UNL A   1      39.719  20.470  25.935  1.00  0.00    -0.269 OA
BRANCH  27  30
ATOM     30  C   UNL A   1      39.668  22.644  26.733  1.00  0.00     0.039 A 
ATOM     31  C   UNL A   1      40.577  22.470  27.781  1.00  0.00     0.014 A 
ATOM     32  C   UNL A   1      39.362  23.904  26.225  1.00  0.00     0.014 A 
ATOM     33  C   UNL A   1      41.249  23.579  28.279  1.00  0.00     0.010 A 
ATOM     34  C   UNL A   1      40.101  24.985  26.651  1.00  0.00     0.010 A 
ATOM     35  C   UNL A   1      41.040  24.829  27.685  1.00  0.00    -0.014 A 
BRANCH  35  36
ATOM     36  C   UNL A   1      41.747  26.040  28.132  1.00  0.00     0.031 A 
ATOM     37  C   UNL A   1      40.953  27.086  28.852  1.00  0.00     0.074 A 
ATOM     38  C   UNL A   1      43.019  26.237  27.744  1.00  0.00     0.049 A 
ATOM     39  N   UNL A   1      41.242  28.336  29.079  1.00  0.00    -0.248 NA
ATOM     40  C   UNL A   1      39.617  26.677  29.319  1.00  0.00     0.031 C 
ATOM     41  C   UNL A   1      43.843  25.267  27.017  1.00  0.00     0.029 A 
ATOM     42  N   UNL A   1      43.827  27.333  27.870  1.00  0.00    -0.354 N 
ATOM     43  C   UNL A   1      40.108  28.876  29.674  1.00  0.00     0.074 A 
ATOM     44  C   UNL A   1      39.110  27.832  29.719  1.00  0.00     0.031 C 
ATOM     45  C   UNL A   1      45.041  25.815  26.760  1.00  0.00     0.029 A 
ATOM     46  C   UNL A   1      45.043  27.189  27.244  1.00  0.00     0.049 A 
ATOM     47  H   UNL A   1      43.563  28.145  28.359  1.00  0.00     0.167 HD
ATOM     48  C   UNL A   1      39.936  30.133  30.146  1.00  0.00     0.034 A 
ATOM     49  C   UNL A   1      46.025  28.090  27.054  1.00  0.00     0.034 A 
ATOM     50  C   UNL A   1      40.977  31.128  30.094  1.00  0.00     0.049 A 
ATOM     51  C   UNL A   1      45.810  29.483  27.587  1.00  0.00     0.074 A 
ATOM     52  C   UNL A   1      40.970  32.416  30.595  1.00  0.00     0.029 A 
ATOM     53  N   UNL A   1      42.220  30.937  29.497  1.00  0.00    -0.354 N 
ATOM     54  N   UNL A   1      44.752  29.982  28.186  1.00  0.00    -0.248 NA
ATOM     55  C   UNL A   1      46.916  30.432  27.421  1.00  0.00     0.031 C 
ATOM     56  C   UNL A   1      42.182  33.022  30.246  1.00  0.00     0.029 A 
ATOM     57  C   UNL A   1      42.976  32.092  29.591  1.00  0.00     0.049 A 
ATOM     58  H   UNL A   1      42.518  30.101  29.071  1.00  0.00     0.167 HD
ATOM     59  C   UNL A   1      45.073  31.300  28.490  1.00  0.00     0.074 A 
ATOM     60  C   UNL A   1      46.432  31.508  28.023  1.00  0.00     0.031 C 
ATOM     61  C   UNL A   1      44.324  32.256  29.097  1.00  0.00     0.034 A 
BRANCH  48  62
ATOM     62  C   UNL A   1      38.581  30.487  30.712  1.00  0.00     0.023 A 
ATOM     63  C   UNL A   1      37.609  31.155  29.946  1.00  0.00     0.031 A 
ATOM     64  C   UNL A   1      38.273  30.201  32.054  1.00  0.00     0.131 A 
ATOM     65  C   UNL A   1      36.418  31.592  30.547  1.00  0.00     0.055 A 
ATOM     66  C   UNL A   1      37.049  30.560  32.622  1.00  0.00     0.041 A 
ATOM     67  F   UNL A   1      39.168  29.590  32.846  1.00  0.00    -0.206 F 
ATOM     68  C   UNL A   1      36.120  31.275  31.872  1.00  0.00     0.022 A 
BRANCH  65  69
ATOM     69  S   UNL A   1      35.339  32.712  29.613  1.00  0.00     0.124 S 
ATOM     70  O   UNL A   1      35.183  31.989  28.353  1.00  0.00    -0.237 OA
ATOM     71  O   UNL A   1      34.152  32.783  30.458  1.00  0.00    -0.237 OA
ATOM     72  O   UNL A   1      36.118  33.945  29.525  1.00  0.00    -0.744 OA
ENDBRANCH  65  69
ENDBRANCH  48  62
BRANCH  49  73
ATOM     73  C   UNL A   1      47.268  27.712  26.325  1.00  0.00     0.023 A 
ATOM     74  C   UNL A   1      47.355  27.859  24.932  1.00  0.00     0.031 A 
ATOM     75  C   UNL A   1      48.387  27.195  27.003  1.00  0.00     0.131 A 
ATOM     76  C   UNL A   1      48.517  27.456  24.255  1.00  0.00     0.055 A 
ATOM     77  C   UNL A   1      49.561  26.844  26.331  1.00  0.00     0.041 A 
ATOM     78  F   UNL A   1      48.363  27.041  28.336  1.00  0.00    -0.206 F 
ATOM     79  C   UNL A   1      49.626  26.963  24.946  1.00  0.00     0.022 A 
BRANCH  76  80
ATOM     80  S   UNL A   1      48.528  27.517  22.443  1.00  0.00     0.124 S 
ATOM     81  O   UNL A   1      48.490  26.101  22.097  1.00  0.00    -0.237 OA
ATOM     82  O   UNL A   1      47.318  28.280  22.159  1.00  0.00    -0.237 OA
ATOM     83  O   UNL A   1      49.782  28.202  22.134  1.00  0.00    -0.744 OA
ENDBRANCH  76  80
ENDBRANCH  49  73
BRANCH  61  84
ATOM     84  C   UNL A   1      44.983  33.594  29.307  1.00  0.00     0.023 A 
ATOM     85  C   UNL A   1      44.875  34.621  28.355  1.00  0.00     0.031 A 
ATOM     86  C   UNL A   1      45.718  33.843  30.479  1.00  0.00     0.131 A 
ATOM     87  C   UNL A   1      45.537  35.836  28.569  1.00  0.00     0.055 A 
ATOM     88  C   UNL A   1      46.323  35.077  30.714  1.00  0.00     0.041 A 
ATOM     89  F   UNL A   1      45.851  32.891  31.418  1.00  0.00    -0.206 F 
ATOM     90  C   UNL A   1      46.244  36.078  29.750  1.00  0.00     0.022 A 
BRANCH  87  91
ATOM     91  S   UNL A   1      45.531  37.071  27.241  1.00  0.00     0.124 S 
ATOM     92  O   UNL A   1      46.202  38.200  27.876  1.00  0.00    -0.237 OA
ATOM     93  O   UNL A   1      46.277  36.398  26.183  1.00  0.00    -0.237 OA
ATOM     94  O   UNL A   1      44.108  37.268  26.965  1.00  0.00    -0.744 OA
ENDBRANCH  87  91
ENDBRANCH  61  84
ENDBRANCH  35  36
ENDBRANCH  27  30
ENDBRANCH  25  26
ENDBRANCH   1  25
TORSDOF 16
ENDMDL
MODEL 3
REMARK VINA RESULT:     -11.9      5.847     11.515
REMARK SMILES CCC1CCN(C(=O)NC[C@@H]2CC[C@H](C(=O)NCCCNC(=O)c3ccc(-c4c5nc(c(-c6cc(S(=O)(=O)[O-])ccc6F)c6ccc([nH]6)c(-c6cc(S(=O)(=O)[O-])ccc6F)c6nc(c(-c7cc(S(=O)(=O)[O-])ccc7F)c7ccc4[nH]7)C=C6)C=C5)cc3)O2)CC1
REMARK SMILES IDX 19 1 18 2 17 3 15 4 16 5 14 7 11 8 12 9 87 10 13 11 10 12
REMARK SMILES IDX 9 13 3 14 4 15 89 16 5 17 88 18 6 19 7 20 8 21 2 23 1 24
REMARK SMILES IDX 20 25 21 26 22 27 23 29 24 30 25 31 86 32 26 33 85 34 27 35
REMARK SMILES IDX 28 36 29 37 79 38 30 39 84 40 78 41 80 42 31 43 83 44 77 45
REMARK SMILES IDX 76 46 32 48 64 49 44 50 63 51 45 52 48 53 62 54 81 55 46 56
REMARK SMILES IDX 47 57 61 59 82 60 49 61 33 62 34 63 42 64 35 65 41 66 43 67
REMARK SMILES IDX 40 68 36 69 37 70 38 71 39 72 65 73 66 74 74 75 67 76 73 77
REMARK SMILES IDX 75 78 72 79 68 80 69 81 70 82 71 83 50 84 51 85 59 86 52 87
REMARK SMILES IDX 58 88 60 89 57 90 53 91 54 92 55 93 56 94
REMARK H PARENT 17 6 9 22 21 28 80 47 48 58
REMARK Flexibility Score: inf
ROOT
ATOM      1  C   UNL A   1      38.124  20.874  25.231  1.00  0.00     0.042 C 
ENDROOT
BRANCH   1   2
ATOM      2  C   UNL A   1      37.305  22.145  25.292  1.00  0.00     0.117 C 
BRANCH   2   3
ATOM      3  N   UNL A   1      36.267  22.145  26.301  1.00  0.00    -0.354 N 
ATOM      4  C   UNL A   1      34.950  21.819  26.136  1.00  0.00     0.249 C 
ATOM      5  O   UNL A   1      34.252  21.666  27.143  1.00  0.00    -0.272 OA
ATOM      6  H   UNL A   1      36.541  22.407  27.208  1.00  0.00     0.163 HD
BRANCH   4   7
ATOM      7  C   UNL A   1      34.343  21.700  24.725  1.00  0.00     0.207 C 
ATOM      8  C   UNL A   1      32.459  22.259  23.505  1.00  0.00     0.138 C 
ATOM      9  C   UNL A   1      32.205  20.842  24.001  1.00  0.00     0.037 C 
ATOM     10  O   UNL A   1      33.488  22.791  24.355  1.00  0.00    -0.363 OA
ATOM     11  C   UNL A   1      33.560  20.403  24.521  1.00  0.00     0.045 C 
BRANCH   8  12
ATOM     12  C   UNL A   1      31.244  23.204  23.431  1.00  0.00     0.149 C 
BRANCH  12  13
ATOM     13  N   UNL A   1      31.405  24.364  22.564  1.00  0.00    -0.335 N 
ATOM     14  C   UNL A   1      33.688  27.942  25.782  1.00  0.00    -0.008 C 
ATOM     15  C   UNL A   1      33.840  28.307  24.302  1.00  0.00     0.025 C 
ATOM     16  C   UNL A   1      33.552  26.426  25.893  1.00  0.00     0.025 C 
ATOM     17  C   UNL A   1      32.858  27.634  23.351  1.00  0.00     0.121 C 
ATOM     18  C   UNL A   1      32.465  25.822  25.009  1.00  0.00     0.121 C 
ATOM     19  N   UNL A   1      32.526  26.224  23.610  1.00  0.00    -0.325 N 
ATOM     20  C   UNL A   1      31.959  25.582  22.541  1.00  0.00     0.317 C 
ATOM     21  O   UNL A   1      31.882  26.120  21.429  1.00  0.00    -0.249 OA
ATOM     22  H   UNL A   1      30.956  24.195  21.704  1.00  0.00     0.165 HD
BRANCH  14  23
ATOM     23  C   UNL A   1      32.696  28.823  26.582  1.00  0.00     0.000 C 
ATOM     24  C   UNL A   1      31.746  28.175  27.575  1.00  0.00     0.004 C 
ENDBRANCH  14  23
ENDBRANCH  12  13
ENDBRANCH   8  12
ENDBRANCH   4   7
ENDBRANCH   2   3
ENDBRANCH   1   2
BRANCH   1  25
ATOM     25  C   UNL A   1      39.321  20.892  26.171  1.00  0.00     0.118 C 
BRANCH  25  26
ATOM     26  N   UNL A   1      40.281  19.815  25.923  1.00  0.00    -0.352 N 
ATOM     27  C   UNL A   1      41.653  19.817  25.941  1.00  0.00     0.251 C 
ATOM     28  H   UNL A   1      39.876  18.945  25.706  1.00  0.00     0.163 HD
ATOM     29  O   UNL A   1      42.295  18.820  25.628  1.00  0.00    -0.269 OA
BRANCH  27  30
ATOM     30  C   UNL A   1      42.367  21.034  26.306  1.00  0.00     0.039 A 
ATOM     31  C   UNL A   1      42.717  21.944  25.303  1.00  0.00     0.014 A 
ATOM     32  C   UNL A   1      42.661  21.267  27.646  1.00  0.00     0.014 A 
ATOM     33  C   UNL A   1      43.308  23.147  25.664  1.00  0.00     0.010 A 
ATOM     34  C   UNL A   1      43.154  22.501  28.010  1.00  0.00     0.010 A 
ATOM     35  C   UNL A   1      43.487  23.441  27.021  1.00  0.00    -0.014 A 
BRANCH  35  36
ATOM     36  C   UNL A   1      44.068  24.714  27.479  1.00  0.00     0.031 A 
ATOM     37  C   UNL A   1      43.134  25.753  28.017  1.00  0.00     0.074 A 
ATOM     38  C   UNL A   1      45.370  24.959  27.250  1.00  0.00     0.049 A 
ATOM     39  N   UNL A   1      43.330  27.029  28.198  1.00  0.00    -0.248 NA
ATOM     40  C   UNL A   1      41.768  25.298  28.328  1.00  0.00     0.031 C 
ATOM     41  C   UNL A   1      46.332  23.996  26.704  1.00  0.00     0.029 A 
ATOM     42  N   UNL A   1      46.100  26.104  27.411  1.00  0.00    -0.354 N 
ATOM     43  C   UNL A   1      42.101  27.538  28.602  1.00  0.00     0.074 A 
ATOM     44  C   UNL A   1      41.157  26.443  28.582  1.00  0.00     0.031 C 
ATOM     45  C   UNL A   1      47.526  24.595  26.573  1.00  0.00     0.029 A 
ATOM     46  C   UNL A   1      47.396  25.993  26.963  1.00  0.00     0.049 A 
ATOM     47  H   UNL A   1      45.734  26.928  27.807  1.00  0.00     0.167 HD
ATOM     48  C   UNL A   1      41.806  28.808  28.964  1.00  0.00     0.034 A 
ATOM     49  C   UNL A   1      48.351  26.935  26.847  1.00  0.00     0.034 A 
ATOM     50  C   UNL A   1      42.796  29.856  28.987  1.00  0.00     0.049 A 
ATOM     51  C   UNL A   1      47.999  28.342  27.255  1.00  0.00     0.074 A 
ATOM     52  C   UNL A   1      42.660  31.167  29.397  1.00  0.00     0.029 A 
ATOM     53  N   UNL A   1      44.117  29.701  28.574  1.00  0.00    -0.354 N 
ATOM     54  N   UNL A   1      46.846  28.815  27.676  1.00  0.00    -0.248 NA
ATOM     55  C   UNL A   1      49.070  29.340  27.177  1.00  0.00     0.031 C 
ATOM     56  C   UNL A   1      43.877  31.820  29.174  1.00  0.00     0.029 A 
ATOM     57  C   UNL A   1      44.796  30.900  28.692  1.00  0.00     0.049 A 
ATOM     58  H   UNL A   1      44.509  28.860  28.246  1.00  0.00     0.167 HD
ATOM     59  C   UNL A   1      47.060  30.164  27.933  1.00  0.00     0.074 A 
ATOM     60  C   UNL A   1      48.458  30.421  27.638  1.00  0.00     0.031 C 
ATOM     61  C   UNL A   1      46.190  31.110  28.372  1.00  0.00     0.034 A 
BRANCH  48  62
ATOM     62  C   UNL A   1      40.372  29.118  29.321  1.00  0.00     0.023 A 
ATOM     63  C   UNL A   1      39.922  29.115  30.654  1.00  0.00     0.031 A 
ATOM     64  C   UNL A   1      39.425  29.368  28.312  1.00  0.00     0.131 A 
ATOM     65  C   UNL A   1      38.556  29.267  30.935  1.00  0.00     0.055 A 
ATOM     66  C   UNL A   1      38.081  29.608  28.606  1.00  0.00     0.041 A 
ATOM     67  F   UNL A   1      39.784  29.358  27.018  1.00  0.00    -0.206 F 
ATOM     68  C   UNL A   1      37.636  29.541  29.922  1.00  0.00     0.022 A 
BRANCH  65  69
ATOM     69  S   UNL A   1      37.980  28.948  32.626  1.00  0.00     0.124 S 
ATOM     70  O   UNL A   1      36.604  29.434  32.566  1.00  0.00    -0.237 OA
ATOM     71  O   UNL A   1      38.141  27.504  32.746  1.00  0.00    -0.237 OA
ATOM     72  O   UNL A   1      38.882  29.748  33.452  1.00  0.00    -0.744 OA
ENDBRANCH  65  69
ENDBRANCH  48  62
BRANCH  49  73
ATOM     73  C   UNL A   1      49.698  26.586  26.316  1.00  0.00     0.023 A 
ATOM     74  C   UNL A   1      50.108  27.035  25.052  1.00  0.00     0.031 A 
ATOM     75  C   UNL A   1      50.596  25.796  27.056  1.00  0.00     0.131 A 
ATOM     76  C   UNL A   1      51.364  26.661  24.547  1.00  0.00     0.055 A 
ATOM     77  C   UNL A   1      51.864  25.469  26.572  1.00  0.00     0.041 A 
ATOM     78  F   UNL A   1      50.260  25.346  28.275  1.00  0.00    -0.206 F 
ATOM     79  C   UNL A   1      52.250  25.892  25.304  1.00  0.00     0.022 A 
BRANCH  76  80
ATOM     80  S   UNL A   1      51.789  27.132  22.848  1.00  0.00     0.124 S 
ATOM     81  O   UNL A   1      50.522  26.925  22.156  1.00  0.00    -0.237 OA
ATOM     82  O   UNL A   1      52.210  28.518  23.015  1.00  0.00    -0.237 OA
ATOM     83  O   UNL A   1      52.855  26.197  22.493  1.00  0.00    -0.744 OA
ENDBRANCH  76  80
ENDBRANCH  49  73
BRANCH  61  84
ATOM     84  C   UNL A   1      46.749  32.493  28.580  1.00  0.00     0.023 A 
ATOM     85  C   UNL A   1      46.649  33.481  27.588  1.00  0.00     0.031 A 
ATOM     86  C   UNL A   1      47.381  32.824  29.792  1.00  0.00     0.131 A 
ATOM     87  C   UNL A   1      47.219  34.742  27.804  1.00  0.00     0.055 A 
ATOM     88  C   UNL A   1      47.891  34.100  30.025  1.00  0.00     0.041 A 
ATOM     89  F   UNL A   1      47.503  31.912  30.771  1.00  0.00    -0.206 F 
ATOM     90  C   UNL A   1      47.821  35.064  29.023  1.00  0.00     0.022 A 
BRANCH  87  91
ATOM     91  S   UNL A   1      47.233  35.932  26.437  1.00  0.00     0.124 S 
ATOM     92  O   UNL A   1      46.620  37.104  27.051  1.00  0.00    -0.237 OA
ATOM     93  O   UNL A   1      48.656  36.043  26.133  1.00  0.00    -0.237 OA
ATOM     94  O   UNL A   1      46.429  35.278  25.406  1.00  0.00    -0.744 OA
ENDBRANCH  87  91
ENDBRANCH  61  84
ENDBRANCH  35  36
ENDBRANCH  27  30
ENDBRANCH  25  26
ENDBRANCH   1  25
TORSDOF 16
ENDMDL
