MODEL 1
REMARK VINA RESULT:     -13.1      0.000      0.000
REMARK SMILES Cc1cc(Cl)cc2c1O[C@H](C(F)(F)F)C(C(=O)NCCCNC(=O)c1ccc(-c3c4nc(c(-c5cc(S(=O)(=O)[O-])ccc5F)c5ccc([nH]5)c(-c5cc(S(=O)(=O)[O-])ccc5F)c5nc(c(-c6cc(S(=O)(=O)[O-])ccc6F)c6ccc3[nH]6)C=C5)C=C4)cc1)=C2
REMARK SMILES IDX 21 1 20 2 19 3 18 4 16 5 17 6 15 8 1 9 2 10 3 11 8 12 4 13
REMARK SMILES IDX 7 14 9 15 5 16 6 17 88 18 10 19 11 20 12 21 13 22 14 23
REMARK SMILES IDX 22 24 23 25 24 27 25 28 26 29 87 30 27 31 86 32 28 33 29 34
REMARK SMILES IDX 30 35 80 36 31 37 85 38 79 39 81 40 32 41 84 42 78 43 77 44
REMARK SMILES IDX 33 46 65 47 45 48 64 49 46 50 49 51 63 52 82 53 47 54 48 55
REMARK SMILES IDX 62 57 83 58 50 59 34 60 35 61 43 62 36 63 42 64 44 65 41 66
REMARK SMILES IDX 37 67 38 68 39 69 40 70 66 71 67 72 75 73 68 74 74 75 76 76
REMARK SMILES IDX 73 77 69 78 70 79 71 80 72 81 51 82 52 83 60 84 53 85 59 86
REMARK SMILES IDX 61 87 58 88 54 89 55 90 56 91 57 92
REMARK H PARENT 18 7 22 26 81 45 49 56
REMARK Flexibility Score: inf
ROOT
ATOM      1  C   UNL A   1      33.140  29.024  25.126  1.00  0.00     0.118 C 
ENDROOT
BRANCH   1   2
ATOM      2  C   UNL A   1      33.133  28.940  23.605  1.00  0.00     0.042 C 
BRANCH   2   3
ATOM      3  C   UNL A   1      32.002  28.067  23.081  1.00  0.00     0.118 C 
BRANCH   3   4
ATOM      4  N   UNL A   1      32.442  27.189  22.006  1.00  0.00    -0.352 N 
ATOM      5  C   UNL A   1      32.931  25.934  21.888  1.00  0.00     0.251 C 
ATOM      6  O   UNL A   1      33.161  25.563  20.732  1.00  0.00    -0.270 OA
ATOM      7  H   UNL A   1      32.361  27.628  21.128  1.00  0.00     0.163 HD
BRANCH   5   8
ATOM      8  C   UNL A   1      33.195  25.005  23.024  1.00  0.00     0.067 C 
ATOM      9  C   UNL A   1      33.345  22.529  27.541  1.00  0.00     0.048 C 
ATOM     10  C   UNL A   1      34.167  22.533  26.283  1.00  0.00    -0.007 A 
ATOM     11  C   UNL A   1      35.274  21.680  26.181  1.00  0.00     0.027 A 
ATOM     12  C   UNL A   1      33.886  23.399  25.219  1.00  0.00     0.131 A 
ATOM     13  C   UNL A   1      36.067  21.692  25.033  1.00  0.00     0.042 A 
ATOM     14  C   UNL A   1      34.684  23.416  24.068  1.00  0.00     0.019 A 
ATOM     15  O   UNL A   1      32.833  24.258  25.367  1.00  0.00    -0.475 OA
ATOM     16  Cl  UNL A   1      37.421  20.634  24.924  1.00  0.00    -0.084 Cl
ATOM     17  C   UNL A   1      35.781  22.556  23.976  1.00  0.00     0.032 A 
ATOM     18  C   UNL A   1      34.376  24.359  22.998  1.00  0.00     0.025 C 
ATOM     19  C   UNL A   1      32.226  24.743  24.141  1.00  0.00     0.314 C 
BRANCH  19  20
ATOM     20  C   UNL A   1      31.085  23.795  23.720  1.00  0.00     0.429 C 
ATOM     21  F   UNL A   1      30.590  23.138  24.797  1.00  0.00    -0.167 F 
ATOM     22  F   UNL A   1      30.041  24.452  23.159  1.00  0.00    -0.167 F 
ATOM     23  F   UNL A   1      31.481  22.863  22.824  1.00  0.00    -0.167 F 
ENDBRANCH  19  20
ENDBRANCH   5   8
ENDBRANCH   3   4
ENDBRANCH   2   3
ENDBRANCH   1   2
BRANCH   1  24
ATOM     24  N   UNL A   1      32.610  30.301  25.599  1.00  0.00    -0.352 N 
ATOM     25  C   UNL A   1      32.956  31.051  26.695  1.00  0.00     0.251 C 
ATOM     26  H   UNL A   1      31.891  30.683  25.045  1.00  0.00     0.163 HD
ATOM     27  O   UNL A   1      32.199  31.938  27.083  1.00  0.00    -0.269 OA
BRANCH  25  28
ATOM     28  C   UNL A   1      34.225  30.783  27.401  1.00  0.00     0.039 A 
ATOM     29  C   UNL A   1      35.052  31.851  27.756  1.00  0.00     0.014 A 
ATOM     30  C   UNL A   1      34.604  29.471  27.693  1.00  0.00     0.014 A 
ATOM     31  C   UNL A   1      36.224  31.603  28.472  1.00  0.00     0.010 A 
ATOM     32  C   UNL A   1      35.718  29.233  28.486  1.00  0.00     0.010 A 
ATOM     33  C   UNL A   1      36.545  30.295  28.876  1.00  0.00    -0.014 A 
BRANCH  33  34
ATOM     34  C   UNL A   1      37.757  30.009  29.682  1.00  0.00     0.031 A 
ATOM     35  C   UNL A   1      38.844  29.139  29.111  1.00  0.00     0.074 A 
ATOM     36  C   UNL A   1      37.851  30.490  30.938  1.00  0.00     0.049 A 
ATOM     37  N   UNL A   1      39.934  28.702  29.683  1.00  0.00    -0.248 NA
ATOM     38  C   UNL A   1      38.667  28.678  27.724  1.00  0.00     0.031 C 
ATOM     39  C   UNL A   1      36.845  31.322  31.604  1.00  0.00     0.029 A 
ATOM     40  N   UNL A   1      38.842  30.357  31.877  1.00  0.00    -0.354 N 
ATOM     41  C   UNL A   1      40.570  27.914  28.730  1.00  0.00     0.074 A 
ATOM     42  C   UNL A   1      39.711  27.877  27.568  1.00  0.00     0.031 C 
ATOM     43  C   UNL A   1      37.291  31.663  32.822  1.00  0.00     0.029 A 
ATOM     44  C   UNL A   1      38.590  31.036  33.047  1.00  0.00     0.049 A 
ATOM     45  H   UNL A   1      39.657  29.826  31.728  1.00  0.00     0.167 HD
ATOM     46  C   UNL A   1      41.777  27.305  28.806  1.00  0.00     0.034 A 
ATOM     47  C   UNL A   1      39.323  31.138  34.173  1.00  0.00     0.034 A 
ATOM     48  C   UNL A   1      42.636  27.376  29.957  1.00  0.00     0.049 A 
ATOM     49  C   UNL A   1      40.647  30.421  34.245  1.00  0.00     0.074 A 
ATOM     50  C   UNL A   1      43.892  26.823  30.127  1.00  0.00     0.029 A 
ATOM     51  N   UNL A   1      42.334  28.051  31.132  1.00  0.00    -0.354 N 
ATOM     52  N   UNL A   1      41.230  29.680  33.332  1.00  0.00    -0.248 NA
ATOM     53  C   UNL A   1      41.408  30.553  35.494  1.00  0.00     0.031 C 
ATOM     54  C   UNL A   1      44.328  27.119  31.421  1.00  0.00     0.029 A 
ATOM     55  C   UNL A   1      43.372  27.911  32.036  1.00  0.00     0.049 A 
ATOM     56  H   UNL A   1      41.504  28.554  31.296  1.00  0.00     0.167 HD
ATOM     57  C   UNL A   1      42.440  29.278  33.889  1.00  0.00     0.074 A 
ATOM     58  C   UNL A   1      42.506  29.862  35.212  1.00  0.00     0.031 C 
ATOM     59  C   UNL A   1      43.412  28.499  33.352  1.00  0.00     0.034 A 
BRANCH  46  60
ATOM     60  C   UNL A   1      42.242  26.520  27.609  1.00  0.00     0.023 A 
ATOM     61  C   UNL A   1      41.929  25.158  27.465  1.00  0.00     0.031 A 
ATOM     62  C   UNL A   1      42.981  27.143  26.589  1.00  0.00     0.131 A 
ATOM     63  C   UNL A   1      42.388  24.451  26.344  1.00  0.00     0.055 A 
ATOM     64  C   UNL A   1      43.380  26.450  25.445  1.00  0.00     0.041 A 
ATOM     65  F   UNL A   1      43.323  28.437  26.686  1.00  0.00    -0.206 F 
ATOM     66  C   UNL A   1      43.088  25.094  25.321  1.00  0.00     0.022 A 
BRANCH  63  67
ATOM     67  S   UNL A   1      42.113  22.661  26.275  1.00  0.00     0.124 S 
ATOM     68  O   UNL A   1      40.654  22.587  26.312  1.00  0.00    -0.237 OA
ATOM     69  O   UNL A   1      42.738  22.291  25.011  1.00  0.00    -0.237 OA
ATOM     70  O   UNL A   1      42.789  22.165  27.472  1.00  0.00    -0.744 OA
ENDBRANCH  63  67
ENDBRANCH  46  60
BRANCH  47  71
ATOM     71  C   UNL A   1      38.834  31.955  35.318  1.00  0.00     0.023 A 
ATOM     72  C   UNL A   1      38.269  31.342  36.447  1.00  0.00     0.031 A 
ATOM     73  C   UNL A   1      38.913  33.359  35.298  1.00  0.00     0.131 A 
ATOM     74  C   UNL A   1      37.776  32.131  37.498  1.00  0.00     0.055 A 
ATOM     75  C   UNL A   1      38.460  34.138  36.364  1.00  0.00     0.041 A 
ATOM     76  F   UNL A   1      39.454  33.993  34.246  1.00  0.00    -0.206 F 
ATOM     77  C   UNL A   1      37.879  33.524  37.470  1.00  0.00     0.022 A 
BRANCH  74  78
ATOM     78  S   UNL A   1      36.954  31.309  38.890  1.00  0.00     0.124 S 
ATOM     79  O   UNL A   1      37.925  31.498  39.962  1.00  0.00    -0.237 OA
ATOM     80  O   UNL A   1      35.715  32.072  39.003  1.00  0.00    -0.237 OA
ATOM     81  O   UNL A   1      36.794  29.933  38.426  1.00  0.00    -0.744 OA
ENDBRANCH  74  78
ENDBRANCH  47  71
BRANCH  59  82
ATOM     82  C   UNL A   1      44.644  28.258  34.181  1.00  0.00     0.023 A 
ATOM     83  C   UNL A   1      44.748  27.143  35.028  1.00  0.00     0.031 A 
ATOM     84  C   UNL A   1      45.747  29.122  34.072  1.00  0.00     0.131 A 
ATOM     85  C   UNL A   1      45.927  26.933  35.756  1.00  0.00     0.055 A 
ATOM     86  C   UNL A   1      46.934  28.883  34.764  1.00  0.00     0.041 A 
ATOM     87  F   UNL A   1      45.695  30.198  33.270  1.00  0.00    -0.206 F 
ATOM     88  C   UNL A   1      47.026  27.785  35.616  1.00  0.00     0.022 A 
BRANCH  85  89
ATOM     89  S   UNL A   1      45.997  25.541  36.915  1.00  0.00     0.124 S 
ATOM     90  O   UNL A   1      45.805  24.399  36.028  1.00  0.00    -0.237 OA
ATOM     91  O   UNL A   1      47.330  25.680  37.495  1.00  0.00    -0.237 OA
ATOM     92  O   UNL A   1      44.893  25.805  37.836  1.00  0.00    -0.744 OA
ENDBRANCH  85  89
ENDBRANCH  59  82
ENDBRANCH  33  34
ENDBRANCH  25  28
ENDBRANCH   1  24
TORSDOF 14
ENDMDL
MODEL 2
REMARK VINA RESULT:     -12.9      5.231     10.086
REMARK SMILES Cc1cc(Cl)cc2c1O[C@H](C(F)(F)F)C(C(=O)NCCCNC(=O)c1ccc(-c3c4nc(c(-c5cc(S(=O)(=O)[O-])ccc5F)c5ccc([nH]5)c(-c5cc(S(=O)(=O)[O-])ccc5F)c5nc(c(-c6cc(S(=O)(=O)[O-])ccc6F)c6ccc3[nH]6)C=C5)C=C4)cc1)=C2
REMARK SMILES IDX 21 1 20 2 19 3 18 4 16 5 17 6 15 8 1 9 2 10 3 11 8 12 4 13
REMARK SMILES IDX 7 14 9 15 5 16 6 17 88 18 10 19 11 20 12 21 13 22 14 23
REMARK SMILES IDX 22 24 23 25 24 27 25 28 26 29 87 30 27 31 86 32 28 33 29 34
REMARK SMILES IDX 30 35 80 36 31 37 85 38 79 39 81 40 32 41 84 42 78 43 77 44
REMARK SMILES IDX 33 46 65 47 45 48 64 49 46 50 49 51 63 52 82 53 47 54 48 55
REMARK SMILES IDX 62 57 83 58 50 59 34 60 35 61 43 62 36 63 42 64 44 65 41 66
REMARK SMILES IDX 37 67 38 68 39 69 40 70 66 71 67 72 75 73 68 74 74 75 76 76
REMARK SMILES IDX 73 77 69 78 70 79 71 80 72 81 51 82 52 83 60 84 53 85 59 86
REMARK SMILES IDX 61 87 58 88 54 89 55 90 56 91 57 92
REMARK H PARENT 18 7 22 26 81 45 49 56
REMARK Flexibility Score: inf
ROOT
ATOM      1  C   UNL A   1      35.839  22.363  26.019  1.00  0.00     0.118 C 
ENDROOT
BRANCH   1   2
ATOM      2  C   UNL A   1      34.438  21.819  26.270  1.00  0.00     0.042 C 
BRANCH   2   3
ATOM      3  C   UNL A   1      33.835  22.353  27.561  1.00  0.00     0.118 C 
BRANCH   3   4
ATOM      4  N   UNL A   1      32.392  22.521  27.462  1.00  0.00    -0.352 N 
ATOM      5  C   UNL A   1      31.533  23.393  26.887  1.00  0.00     0.251 C 
ATOM      6  O   UNL A   1      30.335  23.133  27.043  1.00  0.00    -0.270 OA
ATOM      7  H   UNL A   1      31.913  21.807  27.942  1.00  0.00     0.163 HD
BRANCH   5   8
ATOM      8  C   UNL A   1      31.928  24.598  26.104  1.00  0.00     0.067 C 
ATOM      9  C   UNL A   1      34.020  27.981  22.826  1.00  0.00     0.048 C 
ATOM     10  C   UNL A   1      33.224  28.059  24.098  1.00  0.00    -0.007 A 
ATOM     11  C   UNL A   1      32.885  29.314  24.623  1.00  0.00     0.027 A 
ATOM     12  C   UNL A   1      32.843  26.911  24.805  1.00  0.00     0.131 A 
ATOM     13  C   UNL A   1      32.172  29.407  25.819  1.00  0.00     0.042 A 
ATOM     14  C   UNL A   1      32.132  27.003  26.008  1.00  0.00     0.019 A 
ATOM     15  O   UNL A   1      33.232  25.702  24.299  1.00  0.00    -0.475 OA
ATOM     16  Cl  UNL A   1      31.762  30.957  26.445  1.00  0.00    -0.084 Cl
ATOM     17  C   UNL A   1      31.796  28.260  26.517  1.00  0.00     0.032 A 
ATOM     18  C   UNL A   1      31.787  25.783  26.730  1.00  0.00     0.025 C 
ATOM     19  C   UNL A   1      32.430  24.557  24.690  1.00  0.00     0.314 C 
BRANCH  19  20
ATOM     20  C   UNL A   1      31.295  24.350  23.668  1.00  0.00     0.429 C 
ATOM     21  F   UNL A   1      31.063  23.028  23.476  1.00  0.00    -0.167 F 
ATOM     22  F   UNL A   1      30.121  24.891  24.074  1.00  0.00    -0.167 F 
ATOM     23  F   UNL A   1      31.572  24.891  22.460  1.00  0.00    -0.167 F 
ENDBRANCH  19  20
ENDBRANCH   5   8
ENDBRANCH   3   4
ENDBRANCH   2   3
ENDBRANCH   1   2
BRANCH   1  24
ATOM     24  N   UNL A   1      36.816  21.288  25.863  1.00  0.00    -0.352 N 
ATOM     25  C   UNL A   1      38.186  21.341  25.804  1.00  0.00     0.251 C 
ATOM     26  H   UNL A   1      36.432  20.385  25.788  1.00  0.00     0.163 HD
ATOM     27  O   UNL A   1      38.810  20.372  25.376  1.00  0.00    -0.269 OA
BRANCH  25  28
ATOM     28  C   UNL A   1      38.898  22.558  26.244  1.00  0.00     0.039 A 
ATOM     29  C   UNL A   1      40.009  22.439  27.081  1.00  0.00     0.014 A 
ATOM     30  C   UNL A   1      38.451  23.818  25.840  1.00  0.00     0.014 A 
ATOM     31  C   UNL A   1      40.714  23.584  27.453  1.00  0.00     0.010 A 
ATOM     32  C   UNL A   1      39.207  24.945  26.131  1.00  0.00     0.010 A 
ATOM     33  C   UNL A   1      40.341  24.842  26.948  1.00  0.00    -0.014 A 
BRANCH  33  34
ATOM     34  C   UNL A   1      41.104  26.069  27.284  1.00  0.00     0.031 A 
ATOM     35  C   UNL A   1      40.473  27.126  28.147  1.00  0.00     0.074 A 
ATOM     36  C   UNL A   1      42.338  26.247  26.771  1.00  0.00     0.049 A 
ATOM     37  N   UNL A   1      40.935  28.301  28.481  1.00  0.00    -0.248 NA
ATOM     38  C   UNL A   1      39.131  26.836  28.682  1.00  0.00     0.031 C 
ATOM     39  C   UNL A   1      43.039  25.300  25.900  1.00  0.00     0.029 A 
ATOM     40  N   UNL A   1      43.227  27.282  26.913  1.00  0.00    -0.354 N 
ATOM     41  C   UNL A   1      39.946  28.890  29.260  1.00  0.00     0.074 A 
ATOM     42  C   UNL A   1      38.829  27.972  29.292  1.00  0.00     0.031 C 
ATOM     43  C   UNL A   1      44.263  25.776  25.625  1.00  0.00     0.029 A 
ATOM     44  C   UNL A   1      44.420  27.082  26.257  1.00  0.00     0.049 A 
ATOM     45  H   UNL A   1      43.030  28.093  27.436  1.00  0.00     0.167 HD
ATOM     46  C   UNL A   1      39.979  30.072  29.917  1.00  0.00     0.034 A 
ATOM     47  C   UNL A   1      45.514  27.864  26.174  1.00  0.00     0.034 A 
ATOM     48  C   UNL A   1      41.109  30.962  29.904  1.00  0.00     0.049 A 
ATOM     49  C   UNL A   1      45.511  29.193  26.886  1.00  0.00     0.074 A 
ATOM     50  C   UNL A   1      41.260  32.171  30.560  1.00  0.00     0.029 A 
ATOM     51  N   UNL A   1      42.288  30.736  29.206  1.00  0.00    -0.354 N 
ATOM     52  N   UNL A   1      44.563  29.731  27.617  1.00  0.00    -0.248 NA
ATOM     53  C   UNL A   1      46.721  30.017  26.761  1.00  0.00     0.031 C 
ATOM     54  C   UNL A   1      42.507  32.699  30.219  1.00  0.00     0.029 A 
ATOM     55  C   UNL A   1      43.161  31.792  29.402  1.00  0.00     0.049 A 
ATOM     56  H   UNL A   1      42.473  29.942  28.654  1.00  0.00     0.167 HD
ATOM     57  C   UNL A   1      45.074  30.948  28.061  1.00  0.00     0.074 A 
ATOM     58  C   UNL A   1      46.413  31.061  27.521  1.00  0.00     0.031 C 
ATOM     59  C   UNL A   1      44.489  31.884  28.848  1.00  0.00     0.034 A 
BRANCH  46  60
ATOM     60  C   UNL A   1      38.764  30.466  30.714  1.00  0.00     0.023 A 
ATOM     61  C   UNL A   1      37.703  31.172  30.122  1.00  0.00     0.031 A 
ATOM     62  C   UNL A   1      38.651  30.111  32.069  1.00  0.00     0.131 A 
ATOM     63  C   UNL A   1      36.590  31.535  30.893  1.00  0.00     0.055 A 
ATOM     64  C   UNL A   1      37.513  30.420  32.815  1.00  0.00     0.041 A 
ATOM     65  F   UNL A   1      39.645  29.454  32.687  1.00  0.00    -0.206 F 
ATOM     66  C   UNL A   1      36.476  31.141  32.229  1.00  0.00     0.022 A 
BRANCH  63  67
ATOM     67  S   UNL A   1      35.321  32.590  30.144  1.00  0.00     0.124 S 
ATOM     68  O   UNL A   1      36.115  33.737  29.707  1.00  0.00    -0.237 OA
ATOM     69  O   UNL A   1      34.787  31.743  29.084  1.00  0.00    -0.237 OA
ATOM     70  O   UNL A   1      34.403  32.858  31.249  1.00  0.00    -0.744 OA
ENDBRANCH  63  67
ENDBRANCH  46  60
BRANCH  47  71
ATOM     71  C   UNL A   1      46.704  27.414  25.401  1.00  0.00     0.023 A 
ATOM     72  C   UNL A   1      46.898  27.831  24.075  1.00  0.00     0.031 A 
ATOM     73  C   UNL A   1      47.660  26.554  25.970  1.00  0.00     0.131 A 
ATOM     74  C   UNL A   1      48.004  27.364  23.349  1.00  0.00     0.055 A 
ATOM     75  C   UNL A   1      48.781  26.124  25.258  1.00  0.00     0.041 A 
ATOM     76  F   UNL A   1      47.526  26.134  27.238  1.00  0.00    -0.206 F 
ATOM     77  C   UNL A   1      48.954  26.523  23.935  1.00  0.00     0.022 A 
BRANCH  74  78
ATOM     78  S   UNL A   1      48.163  27.835  21.605  1.00  0.00     0.124 S 
ATOM     79  O   UNL A   1      46.892  28.509  21.364  1.00  0.00    -0.237 OA
ATOM     80  O   UNL A   1      49.348  28.685  21.627  1.00  0.00    -0.237 OA
ATOM     81  O   UNL A   1      48.331  26.554  20.922  1.00  0.00    -0.744 OA
ENDBRANCH  74  78
ENDBRANCH  47  71
BRANCH  59  82
ATOM     82  C   UNL A   1      45.303  33.099  29.200  1.00  0.00     0.023 A 
ATOM     83  C   UNL A   1      45.241  34.269  28.426  1.00  0.00     0.031 A 
ATOM     84  C   UNL A   1      46.100  33.103  30.357  1.00  0.00     0.131 A 
ATOM     85  C   UNL A   1      45.986  35.394  28.808  1.00  0.00     0.055 A 
ATOM     86  C   UNL A   1      46.803  34.240  30.757  1.00  0.00     0.041 A 
ATOM     87  F   UNL A   1      46.185  32.009  31.131  1.00  0.00    -0.206 F 
ATOM     88  C   UNL A   1      46.752  35.392  29.977  1.00  0.00     0.022 A 
BRANCH  85  89
ATOM     89  S   UNL A   1      45.964  36.856  27.738  1.00  0.00     0.124 S 
ATOM     90  O   UNL A   1      47.119  37.604  28.224  1.00  0.00    -0.237 OA
ATOM     91  O   UNL A   1      46.097  36.275  26.405  1.00  0.00    -0.237 OA
ATOM     92  O   UNL A   1      44.666  37.467  28.018  1.00  0.00    -0.744 OA
ENDBRANCH  85  89
ENDBRANCH  59  82
ENDBRANCH  33  34
ENDBRANCH  25  28
ENDBRANCH   1  24
TORSDOF 14
ENDMDL
MODEL 3
REMARK VINA RESULT:     -12.9      2.447      3.288
REMARK SMILES Cc1cc(Cl)cc2c1O[C@H](C(F)(F)F)C(C(=O)NCCCNC(=O)c1ccc(-c3c4nc(c(-c5cc(S(=O)(=O)[O-])ccc5F)c5ccc([nH]5)c(-c5cc(S(=O)(=O)[O-])ccc5F)c5nc(c(-c6cc(S(=O)(=O)[O-])ccc6F)c6ccc3[nH]6)C=C5)C=C4)cc1)=C2
REMARK SMILES IDX 21 1 20 2 19 3 18 4 16 5 17 6 15 8 1 9 2 10 3 11 8 12 4 13
REMARK SMILES IDX 7 14 9 15 5 16 6 17 88 18 10 19 11 20 12 21 13 22 14 23
REMARK SMILES IDX 22 24 23 25 24 27 25 28 26 29 87 30 27 31 86 32 28 33 29 34
REMARK SMILES IDX 30 35 80 36 31 37 85 38 79 39 81 40 32 41 84 42 78 43 77 44
REMARK SMILES IDX 33 46 65 47 45 48 64 49 46 50 49 51 63 52 82 53 47 54 48 55
REMARK SMILES IDX 62 57 83 58 50 59 34 60 35 61 43 62 36 63 42 64 44 65 41 66
REMARK SMILES IDX 37 67 38 68 39 69 40 70 66 71 67 72 75 73 68 74 74 75 76 76
REMARK SMILES IDX 73 77 69 78 70 79 71 80 72 81 51 82 52 83 60 84 53 85 59 86
REMARK SMILES IDX 61 87 58 88 54 89 55 90 56 91 57 92
REMARK H PARENT 18 7 22 26 81 45 49 56
REMARK Flexibility Score: inf
ROOT
ATOM      1  C   UNL A   1      32.688  32.594  27.271  1.00  0.00     0.118 C 
ENDROOT
BRANCH   1   2
ATOM      2  C   UNL A   1      31.432  32.020  26.625  1.00  0.00     0.042 C 
BRANCH   2   3
ATOM      3  C   UNL A   1      31.523  30.515  26.425  1.00  0.00     0.118 C 
BRANCH   3   4
ATOM      4  N   UNL A   1      32.198  30.169  25.182  1.00  0.00    -0.352 N 
ATOM      5  C   UNL A   1      32.517  29.040  24.508  1.00  0.00     0.251 C 
ATOM      6  O   UNL A   1      33.098  29.215  23.431  1.00  0.00    -0.270 OA
ATOM      7  H   UNL A   1      32.505  30.972  24.703  1.00  0.00     0.163 HD
BRANCH   5   8
ATOM      8  C   UNL A   1      32.217  27.653  24.965  1.00  0.00     0.067 C 
ATOM      9  C   UNL A   1      30.122  23.349  26.873  1.00  0.00     0.048 C 
ATOM     10  C   UNL A   1      31.502  23.801  26.491  1.00  0.00    -0.007 A 
ATOM     11  C   UNL A   1      32.580  22.915  26.625  1.00  0.00     0.027 A 
ATOM     12  C   UNL A   1      31.757  25.103  26.041  1.00  0.00     0.131 A 
ATOM     13  C   UNL A   1      33.874  23.326  26.304  1.00  0.00     0.042 A 
ATOM     14  C   UNL A   1      33.056  25.520  25.724  1.00  0.00     0.019 A 
ATOM     15  O   UNL A   1      30.697  25.963  25.970  1.00  0.00    -0.475 OA
ATOM     16  Cl  UNL A   1      35.183  22.222  26.473  1.00  0.00    -0.084 Cl
ATOM     17  C   UNL A   1      34.119  24.624  25.857  1.00  0.00     0.032 A 
ATOM     18  C   UNL A   1      33.281  26.895  25.293  1.00  0.00     0.025 C 
ATOM     19  C   UNL A   1      30.835  27.073  25.045  1.00  0.00     0.314 C 
BRANCH  19  20
ATOM     20  C   UNL A   1      30.287  26.663  23.663  1.00  0.00     0.429 C 
ATOM     21  F   UNL A   1      29.113  25.998  23.793  1.00  0.00    -0.167 F 
ATOM     22  F   UNL A   1      30.039  27.727  22.863  1.00  0.00    -0.167 F 
ATOM     23  F   UNL A   1      31.134  25.858  22.982  1.00  0.00    -0.167 F 
ENDBRANCH  19  20
ENDBRANCH   5   8
ENDBRANCH   3   4
ENDBRANCH   2   3
ENDBRANCH   1   2
BRANCH   1  24
ATOM     24  N   UNL A   1      32.525  34.006  27.608  1.00  0.00    -0.352 N 
ATOM     25  C   UNL A   1      33.049  34.733  28.648  1.00  0.00     0.251 C 
ATOM     26  H   UNL A   1      31.949  34.517  26.993  1.00  0.00     0.163 HD
ATOM     27  O   UNL A   1      32.562  35.827  28.925  1.00  0.00    -0.269 OA
BRANCH  25  28
ATOM     28  C   UNL A   1      34.183  34.195  29.426  1.00  0.00     0.039 A 
ATOM     29  C   UNL A   1      33.932  33.436  30.570  1.00  0.00     0.014 A 
ATOM     30  C   UNL A   1      35.496  34.461  29.030  1.00  0.00     0.014 A 
ATOM     31  C   UNL A   1      35.002  32.882  31.275  1.00  0.00     0.010 A 
ATOM     32  C   UNL A   1      36.553  33.833  29.675  1.00  0.00     0.010 A 
ATOM     33  C   UNL A   1      36.318  33.044  30.809  1.00  0.00    -0.014 A 
BRANCH  33  34
ATOM     34  C   UNL A   1      37.469  32.423  31.508  1.00  0.00     0.031 A 
ATOM     35  C   UNL A   1      38.210  31.286  30.859  1.00  0.00     0.074 A 
ATOM     36  C   UNL A   1      37.809  32.850  32.740  1.00  0.00     0.049 A 
ATOM     37  N   UNL A   1      39.181  30.555  31.339  1.00  0.00    -0.248 NA
ATOM     38  C   UNL A   1      37.785  30.902  29.503  1.00  0.00     0.031 C 
ATOM     39  C   UNL A   1      37.143  33.927  33.478  1.00  0.00     0.029 A 
ATOM     40  N   UNL A   1      38.804  32.437  33.590  1.00  0.00    -0.354 N 
ATOM     41  C   UNL A   1      39.480  29.626  30.349  1.00  0.00     0.074 A 
ATOM     42  C   UNL A   1      38.542  29.841  29.269  1.00  0.00     0.031 C 
ATOM     43  C   UNL A   1      37.777  34.120  34.645  1.00  0.00     0.029 A 
ATOM     44  C   UNL A   1      38.862  33.151  34.764  1.00  0.00     0.049 A 
ATOM     45  H   UNL A   1      39.420  31.698  33.378  1.00  0.00     0.167 HD
ATOM     46  C   UNL A   1      40.469  28.702  30.327  1.00  0.00     0.034 A 
ATOM     47  C   UNL A   1      39.694  33.036  35.818  1.00  0.00     0.034 A 
ATOM     48  C   UNL A   1      41.415  28.520  31.395  1.00  0.00     0.049 A 
ATOM     49  C   UNL A   1      40.764  31.975  35.784  1.00  0.00     0.074 A 
ATOM     50  C   UNL A   1      42.475  27.634  31.462  1.00  0.00     0.029 A 
ATOM     51  N   UNL A   1      41.424  29.245  32.579  1.00  0.00    -0.354 N 
ATOM     52  N   UNL A   1      41.029  31.105  34.837  1.00  0.00    -0.248 NA
ATOM     53  C   UNL A   1      41.643  31.878  36.957  1.00  0.00     0.031 C 
ATOM     54  C   UNL A   1      43.093  27.788  32.706  1.00  0.00     0.029 A 
ATOM     55  C   UNL A   1      42.459  28.813  33.389  1.00  0.00     0.049 A 
ATOM     56  H   UNL A   1      40.787  29.961  32.807  1.00  0.00     0.167 HD
ATOM     57  C   UNL A   1      42.123  30.374  35.291  1.00  0.00     0.074 A 
ATOM     58  C   UNL A   1      42.471  30.908  36.591  1.00  0.00     0.031 C 
ATOM     59  C   UNL A   1      42.783  29.357  34.684  1.00  0.00     0.034 A 
BRANCH  46  60
ATOM     60  C   UNL A   1      40.582  27.826  29.109  1.00  0.00     0.023 A 
ATOM     61  C   UNL A   1      41.490  28.126  28.079  1.00  0.00     0.031 A 
ATOM     62  C   UNL A   1      39.797  26.667  28.986  1.00  0.00     0.131 A 
ATOM     63  C   UNL A   1      41.563  27.296  26.950  1.00  0.00     0.055 A 
ATOM     64  C   UNL A   1      39.920  25.811  27.891  1.00  0.00     0.041 A 
ATOM     65  F   UNL A   1      38.901  26.346  29.932  1.00  0.00    -0.206 F 
ATOM     66  C   UNL A   1      40.804  26.127  26.862  1.00  0.00     0.022 A 
BRANCH  63  67
ATOM     67  S   UNL A   1      42.618  27.804  25.567  1.00  0.00     0.124 S 
ATOM     68  O   UNL A   1      43.867  28.125  26.254  1.00  0.00    -0.237 OA
ATOM     69  O   UNL A   1      42.640  26.612  24.728  1.00  0.00    -0.237 OA
ATOM     70  O   UNL A   1      41.912  28.952  25.002  1.00  0.00    -0.744 OA
ENDBRANCH  63  67
ENDBRANCH  46  60
BRANCH  47  71
ATOM     71  C   UNL A   1      39.562  33.950  36.985  1.00  0.00     0.023 A 
ATOM     72  C   UNL A   1      38.978  33.505  38.182  1.00  0.00     0.031 A 
ATOM     73  C   UNL A   1      40.006  35.283  36.922  1.00  0.00     0.131 A 
ATOM     74  C   UNL A   1      38.825  34.393  39.258  1.00  0.00     0.055 A 
ATOM     75  C   UNL A   1      39.889  36.151  38.008  1.00  0.00     0.041 A 
ATOM     76  F   UNL A   1      40.580  35.754  35.804  1.00  0.00    -0.206 F 
ATOM     77  C   UNL A   1      39.287  35.710  39.184  1.00  0.00     0.022 A 
BRANCH  74  78
ATOM     78  S   UNL A   1      37.967  33.815  40.747  1.00  0.00     0.124 S 
ATOM     79  O   UNL A   1      37.616  35.073  41.395  1.00  0.00    -0.237 OA
ATOM     80  O   UNL A   1      36.859  33.051  40.182  1.00  0.00    -0.237 OA
ATOM     81  O   UNL A   1      38.981  33.019  41.436  1.00  0.00    -0.744 OA
ENDBRANCH  74  78
ENDBRANCH  47  71
BRANCH  59  82
ATOM     82  C   UNL A   1      43.968  28.773  35.404  1.00  0.00     0.023 A 
ATOM     83  C   UNL A   1      43.822  27.711  36.310  1.00  0.00     0.031 A 
ATOM     84  C   UNL A   1      45.263  29.248  35.130  1.00  0.00     0.131 A 
ATOM     85  C   UNL A   1      44.955  27.170  36.932  1.00  0.00     0.055 A 
ATOM     86  C   UNL A   1      46.391  28.675  35.718  1.00  0.00     0.041 A 
ATOM     87  F   UNL A   1      45.451  30.258  34.266  1.00  0.00    -0.206 F 
ATOM     88  C   UNL A   1      46.239  27.632  36.629  1.00  0.00     0.022 A 
BRANCH  85  89
ATOM     89  S   UNL A   1      44.728  25.866  38.171  1.00  0.00     0.124 S 
ATOM     90  O   UNL A   1      44.176  24.780  37.367  1.00  0.00    -0.237 OA
ATOM     91  O   UNL A   1      46.086  25.662  38.668  1.00  0.00    -0.237 OA
ATOM     92  O   UNL A   1      43.802  26.461  39.131  1.00  0.00    -0.744 OA
ENDBRANCH  85  89
ENDBRANCH  59  82
ENDBRANCH  33  34
ENDBRANCH  25  28
ENDBRANCH   1  24
TORSDOF 14
ENDMDL
