MODEL 1
REMARK VINA RESULT:     -12.6      0.000      0.000
REMARK SMILES O=C(NCCCNC(=O)[C@H]1[NH2+]CC[C@H]1c1cccc(Oc2ccccc2)c1)c1ccc(-c2c3nc(c(-c4cc(S(=O)(=O)[O-])ccc4F)c4ccc([nH]4)c(-c4cc(S(=O)(=O)[O-])ccc4F)c4nc(c(-c5cc(S(=O)(=O)[O-])ccc5F)c5ccc2[nH]5)C=C4)C=C3)cc1
REMARK SMILES IDX 5 1 4 2 3 3 1 4 2 5 28 7 29 8 90 9 30 10 89 11 31 12 32 13
REMARK SMILES IDX 33 14 83 15 34 16 88 17 82 18 84 19 35 20 87 21 81 22 80 23
REMARK SMILES IDX 36 25 68 26 48 27 67 28 49 29 52 30 66 31 85 32 50 33 51 34
REMARK SMILES IDX 65 36 86 37 53 38 37 39 38 40 46 41 39 42 45 43 47 44 44 45
REMARK SMILES IDX 40 46 41 47 42 48 43 49 69 50 70 51 78 52 71 53 77 54 79 55
REMARK SMILES IDX 76 56 72 57 73 58 74 59 75 60 54 61 55 62 63 63 56 64 62 65
REMARK SMILES IDX 64 66 61 67 57 68 58 69 59 70 60 71 6 72 7 73 8 74 9 76
REMARK SMILES IDX 10 77 11 78 14 79 12 80 13 83 15 84 16 85 27 86 17 87 19 88
REMARK SMILES IDX 18 89 20 90 21 91 22 92 26 93 23 94 25 95 24 96
REMARK H PARENT 3 6 84 24 52 35 7 75 11 81 11 82
REMARK Flexibility Score: inf
ROOT
ATOM      1  C   UNL A   1      31.618  32.237  26.956  1.00  0.00     0.042 C 
ENDROOT
BRANCH   1   2
ATOM      2  C   UNL A   1      32.927  32.800  27.498  1.00  0.00     0.118 C 
BRANCH   2   3
ATOM      3  N   UNL A   1      32.785  34.182  27.938  1.00  0.00    -0.352 N 
ATOM      4  O   UNL A   1      32.999  35.930  29.341  1.00  0.00    -0.269 OA
ATOM      5  C   UNL A   1      33.414  34.832  28.969  1.00  0.00     0.251 C 
ATOM      6  H   UNL A   1      32.147  34.727  27.422  1.00  0.00     0.163 HD
BRANCH   5   7
ATOM      7  C   UNL A   1      34.580  34.214  29.634  1.00  0.00     0.039 A 
ATOM      8  C   UNL A   1      34.415  33.439  30.786  1.00  0.00     0.014 A 
ATOM      9  C   UNL A   1      35.850  34.388  29.080  1.00  0.00     0.014 A 
ATOM     10  C   UNL A   1      35.530  32.930  31.447  1.00  0.00     0.010 A 
ATOM     11  C   UNL A   1      36.960  33.815  29.704  1.00  0.00     0.010 A 
ATOM     12  C   UNL A   1      36.811  33.099  30.904  1.00  0.00    -0.014 A 
BRANCH  12  13
ATOM     13  C   UNL A   1      37.991  32.488  31.565  1.00  0.00     0.031 A 
ATOM     14  C   UNL A   1      38.748  31.377  30.897  1.00  0.00     0.074 A 
ATOM     15  C   UNL A   1      38.354  32.918  32.787  1.00  0.00     0.049 A 
ATOM     16  N   UNL A   1      39.726  30.643  31.362  1.00  0.00    -0.248 NA
ATOM     17  C   UNL A   1      38.336  31.036  29.528  1.00  0.00     0.031 C 
ATOM     18  C   UNL A   1      37.698  33.999  33.528  1.00  0.00     0.029 A 
ATOM     19  N   UNL A   1      39.351  32.495  33.630  1.00  0.00    -0.354 N 
ATOM     20  C   UNL A   1      40.037  29.738  30.353  1.00  0.00     0.074 A 
ATOM     21  C   UNL A   1      39.113  29.995  29.267  1.00  0.00     0.031 C 
ATOM     22  C   UNL A   1      38.310  34.155  34.710  1.00  0.00     0.029 A 
ATOM     23  C   UNL A   1      39.353  33.143  34.842  1.00  0.00     0.049 A 
ATOM     24  H   UNL A   1      40.000  31.795  33.390  1.00  0.00     0.167 HD
ATOM     25  C   UNL A   1      41.006  28.787  30.338  1.00  0.00     0.034 A 
ATOM     26  C   UNL A   1      40.077  32.921  35.955  1.00  0.00     0.034 A 
ATOM     27  C   UNL A   1      41.906  28.546  31.443  1.00  0.00     0.049 A 
ATOM     28  C   UNL A   1      41.101  31.819  35.948  1.00  0.00     0.074 A 
ATOM     29  C   UNL A   1      42.941  27.632  31.530  1.00  0.00     0.029 A 
ATOM     30  N   UNL A   1      41.866  29.213  32.663  1.00  0.00    -0.354 N 
ATOM     31  N   UNL A   1      41.393  30.974  34.985  1.00  0.00    -0.248 NA
ATOM     32  C   UNL A   1      41.895  31.642  37.168  1.00  0.00     0.031 C 
ATOM     33  C   UNL A   1      43.472  27.691  32.823  1.00  0.00     0.029 A 
ATOM     34  C   UNL A   1      42.833  28.705  33.519  1.00  0.00     0.049 A 
ATOM     35  H   UNL A   1      41.242  29.941  32.887  1.00  0.00     0.167 HD
ATOM     36  C   UNL A   1      42.429  30.185  35.475  1.00  0.00     0.074 A 
ATOM     37  C   UNL A   1      42.708  30.654  36.817  1.00  0.00     0.031 C 
ATOM     38  C   UNL A   1      43.097  29.175  34.860  1.00  0.00     0.034 A 
BRANCH  25  39
ATOM     39  C   UNL A   1      41.091  27.904  29.113  1.00  0.00     0.023 A 
ATOM     40  C   UNL A   1      42.111  28.058  28.156  1.00  0.00     0.031 A 
ATOM     41  C   UNL A   1      40.105  26.932  28.866  1.00  0.00     0.131 A 
ATOM     42  C   UNL A   1      42.065  27.330  26.958  1.00  0.00     0.055 A 
ATOM     43  C   UNL A   1      40.120  26.141  27.715  1.00  0.00     0.041 A 
ATOM     44  F   UNL A   1      39.093  26.747  29.729  1.00  0.00    -0.206 F 
ATOM     45  C   UNL A   1      41.091  26.353  26.742  1.00  0.00     0.022 A 
BRANCH  42  46
ATOM     46  S   UNL A   1      43.181  27.813  25.610  1.00  0.00     0.124 S 
ATOM     47  O   UNL A   1      43.973  28.865  26.245  1.00  0.00    -0.237 OA
ATOM     48  O   UNL A   1      43.883  26.570  25.321  1.00  0.00    -0.237 OA
ATOM     49  O   UNL A   1      42.272  28.278  24.563  1.00  0.00    -0.744 OA
ENDBRANCH  42  46
ENDBRANCH  25  39
BRANCH  26  50
ATOM     50  C   UNL A   1      39.818  33.735  37.174  1.00  0.00     0.023 A 
ATOM     51  C   UNL A   1      40.597  34.861  37.479  1.00  0.00     0.031 A 
ATOM     52  C   UNL A   1      38.762  33.405  38.045  1.00  0.00     0.131 A 
ATOM     53  C   UNL A   1      40.321  35.607  38.635  1.00  0.00     0.055 A 
ATOM     54  C   UNL A   1      38.462  34.177  39.167  1.00  0.00     0.041 A 
ATOM     55  F   UNL A   1      37.982  32.342  37.792  1.00  0.00    -0.206 F 
ATOM     56  C   UNL A   1      39.250  35.281  39.472  1.00  0.00     0.022 A 
BRANCH  53  57
ATOM     57  S   UNL A   1      41.415  36.989  39.059  1.00  0.00     0.124 S 
ATOM     58  O   UNL A   1      42.072  36.490  40.262  1.00  0.00    -0.237 OA
ATOM     59  O   UNL A   1      42.249  37.093  37.867  1.00  0.00    -0.237 OA
ATOM     60  O   UNL A   1      40.491  38.102  39.269  1.00  0.00    -0.744 OA
ENDBRANCH  53  57
ENDBRANCH  26  50
BRANCH  38  61
ATOM     61  C   UNL A   1      44.246  28.550  35.612  1.00  0.00     0.023 A 
ATOM     62  C   UNL A   1      44.058  27.506  36.535  1.00  0.00     0.031 A 
ATOM     63  C   UNL A   1      45.558  28.998  35.377  1.00  0.00     0.131 A 
ATOM     64  C   UNL A   1      45.163  26.969  37.214  1.00  0.00     0.055 A 
ATOM     65  C   UNL A   1      46.657  28.424  36.014  1.00  0.00     0.041 A 
ATOM     66  F   UNL A   1      45.792  29.997  34.509  1.00  0.00    -0.206 F 
ATOM     67  C   UNL A   1      46.463  27.408  36.944  1.00  0.00     0.022 A 
BRANCH  64  68
ATOM     68  S   UNL A   1      44.881  25.724  38.503  1.00  0.00     0.124 S 
ATOM     69  O   UNL A   1      43.964  26.421  39.399  1.00  0.00    -0.237 OA
ATOM     70  O   UNL A   1      44.314  24.612  37.747  1.00  0.00    -0.237 OA
ATOM     71  O   UNL A   1      46.217  25.485  39.047  1.00  0.00    -0.744 OA
ENDBRANCH  64  68
ENDBRANCH  38  61
ENDBRANCH  12  13
ENDBRANCH   5   7
ENDBRANCH   2   3
ENDBRANCH   1   2
BRANCH   1  72
ATOM     72  C   UNL A   1      31.814  30.974  26.128  1.00  0.00     0.118 C 
BRANCH  72  73
ATOM     73  N   UNL A   1      31.601  29.784  26.932  1.00  0.00    -0.351 N 
ATOM     74  C   UNL A   1      32.058  28.512  26.799  1.00  0.00     0.278 C 
ATOM     75  H   UNL A   1      31.021  29.925  27.714  1.00  0.00     0.163 HD
ATOM     76  O   UNL A   1      31.758  27.717  27.697  1.00  0.00    -0.268 OA
BRANCH  74  77
ATOM     77  C   UNL A   1      32.970  28.063  25.653  1.00  0.00     0.280 C 
ATOM     78  N   UNL A   1      33.841  26.905  25.975  1.00  0.00    -0.335 N 
ATOM     79  C   UNL A   1      32.365  27.843  24.247  1.00  0.00     0.093 C 
ATOM     80  C   UNL A   1      33.842  26.025  24.809  1.00  0.00     0.262 C 
ATOM     81  H   UNL A   1      33.475  26.408  26.787  1.00  0.00     0.346 HD
ATOM     82  H   UNL A   1      34.787  27.215  26.194  1.00  0.00     0.346 HD
ATOM     83  C   UNL A   1      33.421  26.908  23.645  1.00  0.00     0.076 C 
BRANCH  79  84
ATOM     84  C   UNL A   1      30.910  27.392  24.158  1.00  0.00    -0.034 A 
ATOM     85  C   UNL A   1      30.421  26.197  24.704  1.00  0.00     0.004 A 
ATOM     86  C   UNL A   1      30.000  28.208  23.455  1.00  0.00     0.051 A 
ATOM     87  C   UNL A   1      29.073  25.848  24.573  1.00  0.00     0.004 A 
ATOM     88  C   UNL A   1      28.643  27.883  23.344  1.00  0.00     0.127 A 
ATOM     89  C   UNL A   1      28.188  26.690  23.902  1.00  0.00     0.047 A 
BRANCH  88  90
ATOM     90  O   UNL A   1      27.674  28.642  22.719  1.00  0.00    -0.457 OA
BRANCH  90  91
ATOM     91  C   UNL A   1      27.921  29.975  22.498  1.00  0.00     0.127 A 
ATOM     92  C   UNL A   1      27.882  30.850  23.583  1.00  0.00     0.047 A 
ATOM     93  C   UNL A   1      28.119  30.463  21.204  1.00  0.00     0.047 A 
ATOM     94  C   UNL A   1      28.109  32.212  23.382  1.00  0.00     0.004 A 
ATOM     95  C   UNL A   1      28.371  31.820  21.008  1.00  0.00     0.004 A 
ATOM     96  C   UNL A   1      28.369  32.693  22.097  1.00  0.00     0.000 A 
ENDBRANCH  90  91
ENDBRANCH  88  90
ENDBRANCH  79  84
ENDBRANCH  74  77
ENDBRANCH  72  73
ENDBRANCH   1  72
TORSDOF 16
ENDMDL
MODEL 2
REMARK VINA RESULT:     -12.5      0.573      7.483
REMARK SMILES O=C(NCCCNC(=O)[C@H]1[NH2+]CC[C@H]1c1cccc(Oc2ccccc2)c1)c1ccc(-c2c3nc(c(-c4cc(S(=O)(=O)[O-])ccc4F)c4ccc([nH]4)c(-c4cc(S(=O)(=O)[O-])ccc4F)c4nc(c(-c5cc(S(=O)(=O)[O-])ccc5F)c5ccc2[nH]5)C=C4)C=C3)cc1
REMARK SMILES IDX 5 1 4 2 3 3 1 4 2 5 28 7 29 8 90 9 30 10 89 11 31 12 32 13
REMARK SMILES IDX 33 14 83 15 34 16 88 17 82 18 84 19 35 20 87 21 81 22 80 23
REMARK SMILES IDX 36 25 68 26 48 27 67 28 49 29 52 30 66 31 85 32 50 33 51 34
REMARK SMILES IDX 65 36 86 37 53 38 37 39 38 40 46 41 39 42 45 43 47 44 44 45
REMARK SMILES IDX 40 46 41 47 42 48 43 49 69 50 70 51 78 52 71 53 77 54 79 55
REMARK SMILES IDX 76 56 72 57 73 58 74 59 75 60 54 61 55 62 63 63 56 64 62 65
REMARK SMILES IDX 64 66 61 67 57 68 58 69 59 70 60 71 6 72 7 73 8 74 9 76
REMARK SMILES IDX 10 77 11 78 14 79 12 80 13 83 15 84 16 85 27 86 17 87 19 88
REMARK SMILES IDX 18 89 20 90 21 91 22 92 26 93 23 94 25 95 24 96
REMARK H PARENT 3 6 84 24 52 35 7 75 11 81 11 82
REMARK Flexibility Score: inf
ROOT
ATOM      1  C   UNL A   1      31.572  32.276  26.958  1.00  0.00     0.042 C 
ENDROOT
BRANCH   1   2
ATOM      2  C   UNL A   1      32.927  32.897  27.278  1.00  0.00     0.118 C 
BRANCH   2   3
ATOM      3  N   UNL A   1      32.793  34.224  27.866  1.00  0.00    -0.352 N 
ATOM      4  O   UNL A   1      32.969  35.795  29.470  1.00  0.00    -0.269 OA
ATOM      5  C   UNL A   1      33.379  34.734  28.996  1.00  0.00     0.251 C 
ATOM      6  H   UNL A   1      32.199  34.843  27.382  1.00  0.00     0.163 HD
BRANCH   5   7
ATOM      7  C   UNL A   1      34.490  34.011  29.647  1.00  0.00     0.039 A 
ATOM      8  C   UNL A   1      35.817  34.264  29.281  1.00  0.00     0.014 A 
ATOM      9  C   UNL A   1      34.204  33.091  30.657  1.00  0.00     0.014 A 
ATOM     10  C   UNL A   1      36.847  33.518  29.845  1.00  0.00     0.010 A 
ATOM     11  C   UNL A   1      35.246  32.396  31.275  1.00  0.00     0.010 A 
ATOM     12  C   UNL A   1      36.574  32.589  30.859  1.00  0.00    -0.014 A 
BRANCH  12  13
ATOM     13  C   UNL A   1      37.682  31.852  31.518  1.00  0.00     0.031 A 
ATOM     14  C   UNL A   1      38.154  32.251  32.886  1.00  0.00     0.074 A 
ATOM     15  C   UNL A   1      38.282  30.843  30.858  1.00  0.00     0.049 A 
ATOM     16  N   UNL A   1      39.176  31.807  33.572  1.00  0.00    -0.248 NA
ATOM     17  C   UNL A   1      37.382  33.301  33.563  1.00  0.00     0.031 C 
ATOM     18  C   UNL A   1      37.900  30.363  29.528  1.00  0.00     0.029 A 
ATOM     19  N   UNL A   1      39.346  30.049  31.206  1.00  0.00    -0.354 N 
ATOM     20  C   UNL A   1      39.185  32.536  34.756  1.00  0.00     0.074 A 
ATOM     21  C   UNL A   1      38.086  33.477  34.672  1.00  0.00     0.031 C 
ATOM     22  C   UNL A   1      38.713  29.358  29.175  1.00  0.00     0.029 A 
ATOM     23  C   UNL A   1      39.716  29.169  30.218  1.00  0.00     0.049 A 
ATOM     24  H   UNL A   1      39.799  30.106  32.078  1.00  0.00     0.167 HD
ATOM     25  C   UNL A   1      40.030  32.424  35.813  1.00  0.00     0.034 A 
ATOM     26  C   UNL A   1      40.771  28.336  30.134  1.00  0.00     0.034 A 
ATOM     27  C   UNL A   1      41.126  31.483  35.862  1.00  0.00     0.049 A 
ATOM     28  C   UNL A   1      41.739  28.272  31.284  1.00  0.00     0.074 A 
ATOM     29  C   UNL A   1      42.028  31.261  36.888  1.00  0.00     0.029 A 
ATOM     30  N   UNL A   1      41.481  30.618  34.833  1.00  0.00    -0.354 N 
ATOM     31  N   UNL A   1      41.733  28.960  32.403  1.00  0.00    -0.248 NA
ATOM     32  C   UNL A   1      42.848  27.319  31.165  1.00  0.00     0.031 C 
ATOM     33  C   UNL A   1      42.970  30.324  36.451  1.00  0.00     0.029 A 
ATOM     34  C   UNL A   1      42.608  29.889  35.186  1.00  0.00     0.049 A 
ATOM     35  H   UNL A   1      41.002  30.534  33.977  1.00  0.00     0.167 HD
ATOM     36  C   UNL A   1      42.822  28.499  33.136  1.00  0.00     0.074 A 
ATOM     37  C   UNL A   1      43.460  27.476  32.332  1.00  0.00     0.031 C 
ATOM     38  C   UNL A   1      43.241  28.877  34.371  1.00  0.00     0.034 A 
BRANCH  25  39
ATOM     39  C   UNL A   1      39.834  33.387  36.962  1.00  0.00     0.023 A 
ATOM     40  C   UNL A   1      40.623  34.543  37.106  1.00  0.00     0.031 A 
ATOM     41  C   UNL A   1      38.884  33.116  37.963  1.00  0.00     0.131 A 
ATOM     42  C   UNL A   1      40.519  35.324  38.267  1.00  0.00     0.055 A 
ATOM     43  C   UNL A   1      38.718  33.952  39.070  1.00  0.00     0.041 A 
ATOM     44  F   UNL A   1      38.112  32.019  37.897  1.00  0.00    -0.206 F 
ATOM     45  C   UNL A   1      39.553  35.051  39.239  1.00  0.00     0.022 A 
BRANCH  42  46
ATOM     46  S   UNL A   1      41.790  36.582  38.578  1.00  0.00     0.124 S 
ATOM     47  O   UNL A   1      42.673  35.886  39.512  1.00  0.00    -0.237 OA
ATOM     48  O   UNL A   1      42.329  36.821  37.246  1.00  0.00    -0.237 OA
ATOM     49  O   UNL A   1      41.037  37.693  39.159  1.00  0.00    -0.744 OA
ENDBRANCH  42  46
ENDBRANCH  25  39
BRANCH  26  50
ATOM     50  C   UNL A   1      40.979  27.538  28.895  1.00  0.00     0.023 A 
ATOM     51  C   UNL A   1      41.989  27.865  27.978  1.00  0.00     0.031 A 
ATOM     52  C   UNL A   1      40.176  26.414  28.623  1.00  0.00     0.131 A 
ATOM     53  C   UNL A   1      42.159  27.087  26.822  1.00  0.00     0.055 A 
ATOM     54  C   UNL A   1      40.379  25.616  27.497  1.00  0.00     0.041 A 
ATOM     55  F   UNL A   1      39.202  26.055  29.475  1.00  0.00    -0.206 F 
ATOM     56  C   UNL A   1      41.371  25.957  26.584  1.00  0.00     0.022 A 
BRANCH  53  57
ATOM     57  S   UNL A   1      43.399  27.600  25.604  1.00  0.00     0.124 S 
ATOM     58  O   UNL A   1      42.583  27.788  24.410  1.00  0.00    -0.237 OA
ATOM     59  O   UNL A   1      43.938  28.812  26.211  1.00  0.00    -0.237 OA
ATOM     60  O   UNL A   1      44.321  26.467  25.557  1.00  0.00    -0.744 OA
ENDBRANCH  53  57
ENDBRANCH  26  50
BRANCH  38  61
ATOM     61  C   UNL A   1      44.415  28.133  34.959  1.00  0.00     0.023 A 
ATOM     62  C   UNL A   1      44.251  27.016  35.796  1.00  0.00     0.031 A 
ATOM     63  C   UNL A   1      45.725  28.544  34.651  1.00  0.00     0.131 A 
ATOM     64  C   UNL A   1      45.381  26.369  36.324  1.00  0.00     0.055 A 
ATOM     65  C   UNL A   1      46.842  27.865  35.134  1.00  0.00     0.041 A 
ATOM     66  F   UNL A   1      45.937  29.609  33.859  1.00  0.00    -0.206 F 
ATOM     67  C   UNL A   1      46.674  26.775  35.982  1.00  0.00     0.022 A 
BRANCH  64  68
ATOM     68  S   UNL A   1      45.143  25.021  37.514  1.00  0.00     0.124 S 
ATOM     69  O   UNL A   1      44.222  25.624  38.473  1.00  0.00    -0.237 OA
ATOM     70  O   UNL A   1      44.591  23.959  36.680  1.00  0.00    -0.237 OA
ATOM     71  O   UNL A   1      46.490  24.772  38.023  1.00  0.00    -0.744 OA
ENDBRANCH  64  68
ENDBRANCH  38  61
ENDBRANCH  12  13
ENDBRANCH   5   7
ENDBRANCH   2   3
ENDBRANCH   1   2
BRANCH   1  72
ATOM     72  C   UNL A   1      31.683  31.007  26.126  1.00  0.00     0.118 C 
BRANCH  72  73
ATOM     73  N   UNL A   1      31.538  29.824  26.954  1.00  0.00    -0.351 N 
ATOM     74  C   UNL A   1      32.057  28.574  26.842  1.00  0.00     0.278 C 
ATOM     75  H   UNL A   1      30.957  29.951  27.739  1.00  0.00     0.163 HD
ATOM     76  O   UNL A   1      31.806  27.783  27.759  1.00  0.00    -0.268 OA
BRANCH  74  77
ATOM     77  C   UNL A   1      32.982  28.149  25.697  1.00  0.00     0.280 C 
ATOM     78  N   UNL A   1      33.872  27.004  26.015  1.00  0.00    -0.335 N 
ATOM     79  C   UNL A   1      32.387  27.929  24.287  1.00  0.00     0.093 C 
ATOM     80  C   UNL A   1      33.893  26.132  24.843  1.00  0.00     0.262 C 
ATOM     81  H   UNL A   1      33.512  26.495  26.822  1.00  0.00     0.346 HD
ATOM     82  H   UNL A   1      34.812  27.329  26.240  1.00  0.00     0.346 HD
ATOM     83  C   UNL A   1      33.462  27.016  23.683  1.00  0.00     0.076 C 
BRANCH  79  84
ATOM     84  C   UNL A   1      30.941  27.453  24.189  1.00  0.00    -0.034 A 
ATOM     85  C   UNL A   1      30.473  26.240  24.713  1.00  0.00     0.004 A 
ATOM     86  C   UNL A   1      30.016  28.265  23.499  1.00  0.00     0.051 A 
ATOM     87  C   UNL A   1      29.132  25.868  24.575  1.00  0.00     0.004 A 
ATOM     88  C   UNL A   1      28.666  27.916  23.380  1.00  0.00     0.127 A 
ATOM     89  C   UNL A   1      28.233  26.706  23.917  1.00  0.00     0.047 A 
BRANCH  88  90
ATOM     90  O   UNL A   1      27.684  28.669  22.769  1.00  0.00    -0.457 OA
BRANCH  90  91
ATOM     91  C   UNL A   1      27.933  29.995  22.511  1.00  0.00     0.127 A 
ATOM     92  C   UNL A   1      27.886  30.901  23.571  1.00  0.00     0.047 A 
ATOM     93  C   UNL A   1      28.140  30.447  21.206  1.00  0.00     0.047 A 
ATOM     94  C   UNL A   1      28.115  32.256  23.333  1.00  0.00     0.004 A 
ATOM     95  C   UNL A   1      28.394  31.798  20.974  1.00  0.00     0.004 A 
ATOM     96  C   UNL A   1      28.384  32.701  22.037  1.00  0.00     0.000 A 
ENDBRANCH  90  91
ENDBRANCH  88  90
ENDBRANCH  79  84
ENDBRANCH  74  77
ENDBRANCH  72  73
ENDBRANCH   1  72
TORSDOF 16
ENDMDL
MODEL 3
REMARK VINA RESULT:     -12.3      2.160      3.553
REMARK SMILES O=C(NCCCNC(=O)[C@H]1[NH2+]CC[C@H]1c1cccc(Oc2ccccc2)c1)c1ccc(-c2c3nc(c(-c4cc(S(=O)(=O)[O-])ccc4F)c4ccc([nH]4)c(-c4cc(S(=O)(=O)[O-])ccc4F)c4nc(c(-c5cc(S(=O)(=O)[O-])ccc5F)c5ccc2[nH]5)C=C4)C=C3)cc1
REMARK SMILES IDX 5 1 4 2 3 3 1 4 2 5 28 7 29 8 90 9 30 10 89 11 31 12 32 13
REMARK SMILES IDX 33 14 83 15 34 16 88 17 82 18 84 19 35 20 87 21 81 22 80 23
REMARK SMILES IDX 36 25 68 26 48 27 67 28 49 29 52 30 66 31 85 32 50 33 51 34
REMARK SMILES IDX 65 36 86 37 53 38 37 39 38 40 46 41 39 42 45 43 47 44 44 45
REMARK SMILES IDX 40 46 41 47 42 48 43 49 69 50 70 51 78 52 71 53 77 54 79 55
REMARK SMILES IDX 76 56 72 57 73 58 74 59 75 60 54 61 55 62 63 63 56 64 62 65
REMARK SMILES IDX 64 66 61 67 57 68 58 69 59 70 60 71 6 72 7 73 8 74 9 76
REMARK SMILES IDX 10 77 11 78 14 79 12 80 13 83 15 84 16 85 27 86 17 87 19 88
REMARK SMILES IDX 18 89 20 90 21 91 22 92 26 93 23 94 25 95 24 96
REMARK H PARENT 3 6 84 24 52 35 7 75 11 81 11 82
REMARK Flexibility Score: inf
ROOT
ATOM      1  C   UNL A   1      31.557  31.965  26.515  1.00  0.00     0.042 C 
ENDROOT
BRANCH   1   2
ATOM      2  C   UNL A   1      32.761  32.482  27.295  1.00  0.00     0.118 C 
BRANCH   2   3
ATOM      3  N   UNL A   1      32.597  33.876  27.689  1.00  0.00    -0.352 N 
ATOM      4  O   UNL A   1      32.784  35.673  29.033  1.00  0.00    -0.269 OA
ATOM      5  C   UNL A   1      33.217  34.569  28.696  1.00  0.00     0.251 C 
ATOM      6  H   UNL A   1      31.951  34.393  27.155  1.00  0.00     0.163 HD
BRANCH   5   7
ATOM      7  C   UNL A   1      34.392  33.993  29.380  1.00  0.00     0.039 A 
ATOM      8  C   UNL A   1      34.232  33.153  30.488  1.00  0.00     0.014 A 
ATOM      9  C   UNL A   1      35.669  34.270  28.888  1.00  0.00     0.014 A 
ATOM     10  C   UNL A   1      35.350  32.683  31.170  1.00  0.00     0.010 A 
ATOM     11  C   UNL A   1      36.789  33.736  29.531  1.00  0.00     0.010 A 
ATOM     12  C   UNL A   1      36.638  32.956  30.689  1.00  0.00    -0.014 A 
BRANCH  12  13
ATOM     13  C   UNL A   1      37.828  32.387  31.370  1.00  0.00     0.031 A 
ATOM     14  C   UNL A   1      38.591  31.252  30.749  1.00  0.00     0.074 A 
ATOM     15  C   UNL A   1      38.195  32.876  32.569  1.00  0.00     0.049 A 
ATOM     16  N   UNL A   1      39.579  30.550  31.241  1.00  0.00    -0.248 NA
ATOM     17  C   UNL A   1      38.174  30.845  29.400  1.00  0.00     0.031 C 
ATOM     18  C   UNL A   1      37.533  33.984  33.263  1.00  0.00     0.029 A 
ATOM     19  N   UNL A   1      39.201  32.502  33.424  1.00  0.00    -0.354 N 
ATOM     20  C   UNL A   1      39.892  29.602  30.273  1.00  0.00     0.074 A 
ATOM     21  C   UNL A   1      38.959  29.800  29.183  1.00  0.00     0.031 C 
ATOM     22  C   UNL A   1      38.152  34.200  34.433  1.00  0.00     0.029 A 
ATOM     23  C   UNL A   1      39.205  33.205  34.604  1.00  0.00     0.049 A 
ATOM     24  H   UNL A   1      39.855  31.797  33.211  1.00  0.00     0.167 HD
ATOM     25  C   UNL A   1      40.869  28.660  30.295  1.00  0.00     0.034 A 
ATOM     26  C   UNL A   1      39.938  33.041  35.722  1.00  0.00     0.034 A 
ATOM     27  C   UNL A   1      41.779  28.479  31.404  1.00  0.00     0.049 A 
ATOM     28  C   UNL A   1      40.972  31.949  35.758  1.00  0.00     0.074 A 
ATOM     29  C   UNL A   1      42.823  27.579  31.527  1.00  0.00     0.029 A 
ATOM     30  N   UNL A   1      41.740  29.201  32.593  1.00  0.00    -0.354 N 
ATOM     31  N   UNL A   1      41.265  31.063  34.834  1.00  0.00    -0.248 NA
ATOM     32  C   UNL A   1      41.775  31.836  36.980  1.00  0.00     0.031 C 
ATOM     33  C   UNL A   1      43.361  27.702  32.812  1.00  0.00     0.029 A 
ATOM     34  C   UNL A   1      42.718  28.741  33.464  1.00  0.00     0.049 A 
ATOM     35  H   UNL A   1      41.111  29.932  32.787  1.00  0.00     0.167 HD
ATOM     36  C   UNL A   1      42.311  30.307  35.352  1.00  0.00     0.074 A 
ATOM     37  C   UNL A   1      42.595  30.840  36.670  1.00  0.00     0.031 C 
ATOM     38  C   UNL A   1      42.985  29.276  34.780  1.00  0.00     0.034 A 
BRANCH  25  39
ATOM     39  C   UNL A   1      40.955  27.722  29.113  1.00  0.00     0.023 A 
ATOM     40  C   UNL A   1      41.963  27.845  28.139  1.00  0.00     0.031 A 
ATOM     41  C   UNL A   1      39.981  26.726  28.921  1.00  0.00     0.131 A 
ATOM     42  C   UNL A   1      41.917  27.060  26.976  1.00  0.00     0.055 A 
ATOM     43  C   UNL A   1      39.995  25.882  27.808  1.00  0.00     0.041 A 
ATOM     44  F   UNL A   1      38.980  26.569  29.802  1.00  0.00    -0.206 F 
ATOM     45  C   UNL A   1      40.954  26.061  26.816  1.00  0.00     0.022 A 
BRANCH  42  46
ATOM     46  S   UNL A   1      43.012  27.496  25.597  1.00  0.00     0.124 S 
ATOM     47  O   UNL A   1      44.042  28.281  26.273  1.00  0.00    -0.237 OA
ATOM     48  O   UNL A   1      43.427  26.190  25.100  1.00  0.00    -0.237 OA
ATOM     49  O   UNL A   1      42.147  28.262  24.700  1.00  0.00    -0.744 OA
ENDBRANCH  42  46
ENDBRANCH  25  39
BRANCH  26  50
ATOM     50  C   UNL A   1      39.679  33.908  36.903  1.00  0.00     0.023 A 
ATOM     51  C   UNL A   1      39.037  33.411  38.047  1.00  0.00     0.031 A 
ATOM     52  C   UNL A   1      40.096  35.253  36.910  1.00  0.00     0.131 A 
ATOM     53  C   UNL A   1      38.813  34.257  39.144  1.00  0.00     0.055 A 
ATOM     54  C   UNL A   1      39.913  36.077  38.021  1.00  0.00     0.041 A 
ATOM     55  F   UNL A   1      40.722  35.774  35.843  1.00  0.00    -0.206 F 
ATOM     56  C   UNL A   1      39.261  35.581  39.144  1.00  0.00     0.022 A 
BRANCH  53  57
ATOM     57  S   UNL A   1      37.883  33.614  40.561  1.00  0.00     0.124 S 
ATOM     58  O   UNL A   1      38.790  32.594  41.074  1.00  0.00    -0.237 OA
ATOM     59  O   UNL A   1      37.725  34.806  41.387  1.00  0.00    -0.237 OA
ATOM     60  O   UNL A   1      36.651  33.108  39.960  1.00  0.00    -0.744 OA
ENDBRANCH  53  57
ENDBRANCH  26  50
BRANCH  38  61
ATOM     61  C   UNL A   1      44.145  28.696  35.553  1.00  0.00     0.023 A 
ATOM     62  C   UNL A   1      43.979  27.657  36.486  1.00  0.00     0.031 A 
ATOM     63  C   UNL A   1      45.444  29.185  35.328  1.00  0.00     0.131 A 
ATOM     64  C   UNL A   1      45.093  27.164  37.184  1.00  0.00     0.055 A 
ATOM     65  C   UNL A   1      46.554  28.654  35.985  1.00  0.00     0.041 A 
ATOM     66  F   UNL A   1      45.657  30.181  34.452  1.00  0.00    -0.206 F 
ATOM     67  C   UNL A   1      46.381  27.642  36.924  1.00  0.00     0.022 A 
BRANCH  64  68
ATOM     68  S   UNL A   1      44.835  25.924  38.483  1.00  0.00     0.124 S 
ATOM     69  O   UNL A   1      44.161  26.705  39.515  1.00  0.00    -0.237 OA
ATOM     70  O   UNL A   1      44.020  24.923  37.804  1.00  0.00    -0.237 OA
ATOM     71  O   UNL A   1      46.191  25.493  38.820  1.00  0.00    -0.744 OA
ENDBRANCH  64  68
ENDBRANCH  38  61
ENDBRANCH  12  13
ENDBRANCH   5   7
ENDBRANCH   2   3
ENDBRANCH   1   2
BRANCH   1  72
ATOM     72  C   UNL A   1      31.393  30.455  26.611  1.00  0.00     0.118 C 
BRANCH  72  73
ATOM     73  N   UNL A   1      32.682  29.794  26.698  1.00  0.00    -0.351 N 
ATOM     74  C   UNL A   1      33.464  29.213  25.752  1.00  0.00     0.278 C 
ATOM     75  H   UNL A   1      33.056  29.759  27.607  1.00  0.00     0.163 HD
ATOM     76  O   UNL A   1      34.563  28.786  26.124  1.00  0.00    -0.268 OA
BRANCH  74  77
ATOM     77  C   UNL A   1      33.079  29.144  24.270  1.00  0.00     0.280 C 
ATOM     78  N   UNL A   1      34.227  29.002  23.340  1.00  0.00    -0.335 N 
ATOM     79  C   UNL A   1      31.964  28.170  23.824  1.00  0.00     0.093 C 
ATOM     80  C   UNL A   1      33.838  28.034  22.317  1.00  0.00     0.262 C 
ATOM     81  H   UNL A   1      35.046  28.665  23.845  1.00  0.00     0.346 HD
ATOM     82  H   UNL A   1      34.463  29.899  22.918  1.00  0.00     0.346 HD
ATOM     83  C   UNL A   1      32.318  28.021  22.339  1.00  0.00     0.076 C 
BRANCH  79  84
ATOM     84  C   UNL A   1      31.778  26.884  24.622  1.00  0.00    -0.034 A 
ATOM     85  C   UNL A   1      30.940  26.764  25.740  1.00  0.00     0.004 A 
ATOM     86  C   UNL A   1      32.519  25.747  24.238  1.00  0.00     0.051 A 
ATOM     87  C   UNL A   1      30.829  25.551  26.426  1.00  0.00     0.004 A 
ATOM     88  C   UNL A   1      32.393  24.520  24.900  1.00  0.00     0.127 A 
ATOM     89  C   UNL A   1      31.547  24.433  26.004  1.00  0.00     0.047 A 
BRANCH  88  90
ATOM     90  O   UNL A   1      33.038  23.346  24.565  1.00  0.00    -0.457 OA
BRANCH  90  91
ATOM     91  C   UNL A   1      34.411  23.329  24.551  1.00  0.00     0.127 A 
ATOM     92  C   UNL A   1      35.095  23.672  25.718  1.00  0.00     0.047 A 
ATOM     93  C   UNL A   1      35.115  23.061  23.375  1.00  0.00     0.047 A 
ATOM     94  C   UNL A   1      36.490  23.681  25.725  1.00  0.00     0.004 A 
ATOM     95  C   UNL A   1      36.509  23.046  23.390  1.00  0.00     0.004 A 
ATOM     96  C   UNL A   1      37.195  23.353  24.566  1.00  0.00     0.000 A 
ENDBRANCH  90  91
ENDBRANCH  88  90
ENDBRANCH  79  84
ENDBRANCH  74  77
ENDBRANCH  72  73
ENDBRANCH   1  72
TORSDOF 16
ENDMDL
