MODEL 1
REMARK VINA RESULT:     -12.6      0.000      0.000
REMARK SMILES CN(C(=O)N1Cc2nc[nH]c2C[C@@H]1C(=O)NCCCNC(=O)c1ccc(-c2c3nc(c(-c4cc(S(=O)(=O)[O-])ccc4F)c4ccc([nH]4)c(-c4cc(S(=O)(=O)[O-])ccc4F)c4nc(c(-c5cc(S(=O)(=O)[O-])ccc5F)c5ccc2[nH]5)C=C4)C=C3)cc1)C1CC1
REMARK SMILES IDX 18 1 17 2 16 3 14 4 15 5 13 7 5 8 6 9 7 10 12 11 8 12 11 13
REMARK SMILES IDX 9 14 10 15 3 17 4 18 2 19 1 20 86 21 87 22 88 23 19 24 20 25
REMARK SMILES IDX 21 26 22 28 23 29 24 30 85 31 25 32 84 33 26 34 27 35 28 36
REMARK SMILES IDX 78 37 29 38 83 39 77 40 79 41 30 42 82 43 76 44 75 45 31 47
REMARK SMILES IDX 63 48 43 49 62 50 44 51 47 52 61 53 80 54 45 55 46 56 60 58
REMARK SMILES IDX 81 59 48 60 32 61 33 62 41 63 34 64 40 65 42 66 39 67 35 68
REMARK SMILES IDX 36 69 37 70 38 71 64 72 65 73 73 74 66 75 72 76 74 77 71 78
REMARK SMILES IDX 67 79 68 80 69 81 70 82 49 83 50 84 58 85 51 86 57 87 59 88
REMARK SMILES IDX 56 89 52 90 53 91 54 92 55 93
REMARK H PARENT 16 6 10 16 20 27 79 46 47 57
REMARK Flexibility Score: inf
ROOT
ATOM      1  C   UNL A   1      32.334  29.599  27.026  1.00  0.00     0.042 C 
ENDROOT
BRANCH   1   2
ATOM      2  C   UNL A   1      31.666  28.471  27.836  1.00  0.00     0.117 C 
BRANCH   2   3
ATOM      3  N   UNL A   1      31.372  27.382  26.942  1.00  0.00    -0.354 N 
ATOM      4  C   UNL A   1      32.261  26.722  26.098  1.00  0.00     0.243 C 
ATOM      5  O   UNL A   1      33.314  26.234  26.407  1.00  0.00    -0.273 OA
ATOM      6  H   UNL A   1      30.437  27.070  26.924  1.00  0.00     0.163 HD
BRANCH   4   7
ATOM      7  C   UNL A   1      31.773  26.956  24.656  1.00  0.00     0.182 C 
ATOM      8  N   UNL A   1      30.780  25.986  24.097  1.00  0.00    -0.306 N 
ATOM      9  C   UNL A   1      29.571  26.707  23.602  1.00  0.00     0.180 C 
ATOM     10  C   UNL A   1      30.047  27.895  22.797  1.00  0.00     0.081 A 
ATOM     11  C   UNL A   1      32.512  27.633  23.478  1.00  0.00     0.091 C 
ATOM     12  N   UNL A   1      29.223  28.874  22.311  1.00  0.00    -0.240 NA
ATOM     13  C   UNL A   1      31.379  28.293  22.712  1.00  0.00     0.042 A 
ATOM     14  C   UNL A   1      30.035  29.813  21.877  1.00  0.00     0.197 A 
ATOM     15  N   UNL A   1      31.357  29.477  22.037  1.00  0.00    -0.348 N 
ATOM     16  H   UNL A   1      32.137  29.991  21.727  1.00  0.00     0.167 HD
BRANCH   8  17
ATOM     17  C   UNL A   1      30.941  24.701  23.636  1.00  0.00     0.321 C 
ATOM     18  O   UNL A   1      30.028  24.226  22.944  1.00  0.00    -0.248 OA
BRANCH  17  19
ATOM     19  N   UNL A   1      31.992  23.871  23.996  1.00  0.00    -0.325 N 
ATOM     20  C   UNL A   1      32.199  22.833  25.021  1.00  0.00     0.149 C 
BRANCH  19  21
ATOM     21  C   UNL A   1      33.124  23.935  23.074  1.00  0.00     0.086 C 
ATOM     22  C   UNL A   1      34.476  24.446  23.480  1.00  0.00     0.027 C 
ATOM     23  C   UNL A   1      34.297  23.005  23.128  1.00  0.00     0.027 C 
ENDBRANCH  19  21
ENDBRANCH  17  19
ENDBRANCH   8  17
ENDBRANCH   4   7
ENDBRANCH   2   3
ENDBRANCH   1   2
BRANCH   1  24
ATOM     24  C   UNL A   1      33.860  29.753  27.202  1.00  0.00     0.118 C 
BRANCH  24  25
ATOM     25  N   UNL A   1      34.322  31.126  27.212  1.00  0.00    -0.352 N 
ATOM     26  C   UNL A   1      35.480  31.710  27.690  1.00  0.00     0.251 C 
ATOM     27  H   UNL A   1      33.694  31.762  26.800  1.00  0.00     0.163 HD
ATOM     28  O   UNL A   1      35.547  32.938  27.603  1.00  0.00    -0.269 OA
BRANCH  26  29
ATOM     29  C   UNL A   1      36.650  30.956  28.244  1.00  0.00     0.039 A 
ATOM     30  C   UNL A   1      37.575  31.653  29.048  1.00  0.00     0.014 A 
ATOM     31  C   UNL A   1      36.895  29.611  28.007  1.00  0.00     0.014 A 
ATOM     32  C   UNL A   1      38.771  31.053  29.491  1.00  0.00     0.010 A 
ATOM     33  C   UNL A   1      38.086  29.025  28.435  1.00  0.00     0.010 A 
ATOM     34  C   UNL A   1      39.059  29.738  29.140  1.00  0.00    -0.014 A 
BRANCH  34  35
ATOM     35  C   UNL A   1      40.325  29.067  29.501  1.00  0.00     0.031 A 
ATOM     36  C   UNL A   1      40.588  28.809  30.951  1.00  0.00     0.074 A 
ATOM     37  C   UNL A   1      41.123  28.425  28.614  1.00  0.00     0.049 A 
ATOM     38  N   UNL A   1      41.563  29.275  31.665  1.00  0.00    -0.248 NA
ATOM     39  C   UNL A   1      39.656  27.971  31.720  1.00  0.00     0.031 C 
ATOM     40  C   UNL A   1      40.922  28.252  27.174  1.00  0.00     0.029 A 
ATOM     41  N   UNL A   1      42.212  27.628  28.860  1.00  0.00    -0.354 N 
ATOM     42  C   UNL A   1      41.463  28.670  32.916  1.00  0.00     0.074 A 
ATOM     43  C   UNL A   1      40.172  28.041  32.947  1.00  0.00     0.031 C 
ATOM     44  C   UNL A   1      41.656  27.198  26.743  1.00  0.00     0.029 A 
ATOM     45  C   UNL A   1      42.515  26.745  27.825  1.00  0.00     0.049 A 
ATOM     46  H   UNL A   1      42.733  27.675  29.694  1.00  0.00     0.167 HD
ATOM     47  C   UNL A   1      42.519  28.550  33.771  1.00  0.00     0.034 A 
ATOM     48  C   UNL A   1      43.375  25.690  27.860  1.00  0.00     0.034 A 
ATOM     49  C   UNL A   1      43.634  29.367  33.360  1.00  0.00     0.049 A 
ATOM     50  C   UNL A   1      44.364  25.976  28.925  1.00  0.00     0.074 A 
ATOM     51  C   UNL A   1      43.806  30.708  33.075  1.00  0.00     0.029 A 
ATOM     52  N   UNL A   1      44.742  28.744  32.833  1.00  0.00    -0.354 N 
ATOM     53  N   UNL A   1      45.196  26.980  28.877  1.00  0.00    -0.248 NA
ATOM     54  C   UNL A   1      44.162  25.407  30.248  1.00  0.00     0.031 C 
ATOM     55  C   UNL A   1      44.692  30.733  31.957  1.00  0.00     0.029 A 
ATOM     56  C   UNL A   1      45.040  29.412  31.671  1.00  0.00     0.049 A 
ATOM     57  H   UNL A   1      45.225  27.974  33.213  1.00  0.00     0.167 HD
ATOM     58  C   UNL A   1      45.264  27.448  30.179  1.00  0.00     0.074 A 
ATOM     59  C   UNL A   1      44.717  26.365  30.994  1.00  0.00     0.031 C 
ATOM     60  C   UNL A   1      45.482  28.769  30.450  1.00  0.00     0.034 A 
BRANCH  47  61
ATOM     61  C   UNL A   1      42.665  27.491  34.843  1.00  0.00     0.023 A 
ATOM     62  C   UNL A   1      43.402  26.333  34.527  1.00  0.00     0.031 A 
ATOM     63  C   UNL A   1      41.936  27.440  36.053  1.00  0.00     0.131 A 
ATOM     64  C   UNL A   1      43.357  25.195  35.352  1.00  0.00     0.055 A 
ATOM     65  C   UNL A   1      41.968  26.340  36.917  1.00  0.00     0.041 A 
ATOM     66  F   UNL A   1      41.075  28.398  36.415  1.00  0.00    -0.206 F 
ATOM     67  C   UNL A   1      42.662  25.198  36.558  1.00  0.00     0.022 A 
BRANCH  64  68
ATOM     68  S   UNL A   1      44.061  23.645  34.728  1.00  0.00     0.124 S 
ATOM     69  O   UNL A   1      42.901  23.023  34.097  1.00  0.00    -0.237 OA
ATOM     70  O   UNL A   1      45.102  24.129  33.827  1.00  0.00    -0.237 OA
ATOM     71  O   UNL A   1      44.541  22.980  35.937  1.00  0.00    -0.744 OA
ENDBRANCH  64  68
ENDBRANCH  47  61
BRANCH  48  72
ATOM     72  C   UNL A   1      43.224  24.360  27.202  1.00  0.00     0.023 A 
ATOM     73  C   UNL A   1      44.087  23.893  26.188  1.00  0.00     0.031 A 
ATOM     74  C   UNL A   1      42.332  23.409  27.750  1.00  0.00     0.131 A 
ATOM     75  C   UNL A   1      44.023  22.545  25.756  1.00  0.00     0.055 A 
ATOM     76  C   UNL A   1      42.266  22.083  27.315  1.00  0.00     0.041 A 
ATOM     77  F   UNL A   1      41.549  23.721  28.792  1.00  0.00    -0.206 F 
ATOM     78  C   UNL A   1      43.116  21.642  26.316  1.00  0.00     0.022 A 
BRANCH  75  79
ATOM     79  S   UNL A   1      45.202  21.910  24.517  1.00  0.00     0.124 S 
ATOM     80  O   UNL A   1      45.277  23.014  23.567  1.00  0.00    -0.237 OA
ATOM     81  O   UNL A   1      46.395  21.660  25.319  1.00  0.00    -0.237 OA
ATOM     82  O   UNL A   1      44.547  20.705  24.008  1.00  0.00    -0.744 OA
ENDBRANCH  75  79
ENDBRANCH  48  72
BRANCH  60  83
ATOM     83  C   UNL A   1      45.933  29.685  29.329  1.00  0.00     0.023 A 
ATOM     84  C   UNL A   1      45.054  30.354  28.450  1.00  0.00     0.031 A 
ATOM     85  C   UNL A   1      47.298  30.017  29.261  1.00  0.00     0.131 A 
ATOM     86  C   UNL A   1      45.550  31.311  27.543  1.00  0.00     0.055 A 
ATOM     87  C   UNL A   1      47.784  30.979  28.377  1.00  0.00     0.041 A 
ATOM     88  F   UNL A   1      48.181  29.442  30.095  1.00  0.00    -0.206 F 
ATOM     89  C   UNL A   1      46.911  31.629  27.510  1.00  0.00     0.022 A 
BRANCH  86  90
ATOM     90  S   UNL A   1      44.417  32.169  26.404  1.00  0.00     0.124 S 
ATOM     91  O   UNL A   1      43.420  31.152  26.089  1.00  0.00    -0.237 OA
ATOM     92  O   UNL A   1      43.950  33.297  27.205  1.00  0.00    -0.237 OA
ATOM     93  O   UNL A   1      45.280  32.541  25.281  1.00  0.00    -0.744 OA
ENDBRANCH  86  90
ENDBRANCH  60  83
ENDBRANCH  34  35
ENDBRANCH  26  29
ENDBRANCH  24  25
ENDBRANCH   1  24
TORSDOF 16
ENDMDL
MODEL 2
REMARK VINA RESULT:     -12.3      3.424      9.374
REMARK SMILES CN(C(=O)N1Cc2nc[nH]c2C[C@@H]1C(=O)NCCCNC(=O)c1ccc(-c2c3nc(c(-c4cc(S(=O)(=O)[O-])ccc4F)c4ccc([nH]4)c(-c4cc(S(=O)(=O)[O-])ccc4F)c4nc(c(-c5cc(S(=O)(=O)[O-])ccc5F)c5ccc2[nH]5)C=C4)C=C3)cc1)C1CC1
REMARK SMILES IDX 18 1 17 2 16 3 14 4 15 5 13 7 5 8 6 9 7 10 12 11 8 12 11 13
REMARK SMILES IDX 9 14 10 15 3 17 4 18 2 19 1 20 86 21 87 22 88 23 19 24 20 25
REMARK SMILES IDX 21 26 22 28 23 29 24 30 85 31 25 32 84 33 26 34 27 35 28 36
REMARK SMILES IDX 78 37 29 38 83 39 77 40 79 41 30 42 82 43 76 44 75 45 31 47
REMARK SMILES IDX 63 48 43 49 62 50 44 51 47 52 61 53 80 54 45 55 46 56 60 58
REMARK SMILES IDX 81 59 48 60 32 61 33 62 41 63 34 64 40 65 42 66 39 67 35 68
REMARK SMILES IDX 36 69 37 70 38 71 64 72 65 73 73 74 66 75 72 76 74 77 71 78
REMARK SMILES IDX 67 79 68 80 69 81 70 82 49 83 50 84 58 85 51 86 57 87 59 88
REMARK SMILES IDX 56 89 52 90 53 91 54 92 55 93
REMARK H PARENT 16 6 10 16 20 27 79 46 47 57
REMARK Flexibility Score: inf
ROOT
ATOM      1  C   UNL A   1      37.181  21.829  24.758  1.00  0.00     0.042 C 
ENDROOT
BRANCH   1   2
ATOM      2  C   UNL A   1      36.916  22.607  23.454  1.00  0.00     0.117 C 
BRANCH   2   3
ATOM      3  N   UNL A   1      35.507  22.891  23.373  1.00  0.00    -0.354 N 
ATOM      4  C   UNL A   1      34.716  23.508  24.337  1.00  0.00     0.243 C 
ATOM      5  O   UNL A   1      34.934  24.557  24.879  1.00  0.00    -0.273 OA
ATOM      6  H   UNL A   1      35.052  22.617  22.543  1.00  0.00     0.163 HD
BRANCH   4   7
ATOM      7  C   UNL A   1      33.648  22.485  24.768  1.00  0.00     0.182 C 
ATOM      8  N   UNL A   1      32.340  22.505  24.042  1.00  0.00    -0.306 N 
ATOM      9  C   UNL A   1      32.032  21.155  23.489  1.00  0.00     0.180 C 
ATOM     10  C   UNL A   1      32.311  20.143  24.576  1.00  0.00     0.081 A 
ATOM     11  C   UNL A   1      33.428  21.836  26.154  1.00  0.00     0.091 C 
ATOM     12  N   UNL A   1      32.286  18.787  24.388  1.00  0.00    -0.240 NA
ATOM     13  C   UNL A   1      32.909  20.455  25.794  1.00  0.00     0.042 A 
ATOM     14  C   UNL A   1      32.792  18.284  25.493  1.00  0.00     0.197 A 
ATOM     15  N   UNL A   1      33.124  19.256  26.406  1.00  0.00    -0.348 N 
ATOM     16  H   UNL A   1      33.453  19.114  27.323  1.00  0.00     0.167 HD
BRANCH   8  17
ATOM     17  C   UNL A   1      31.277  23.373  24.130  1.00  0.00     0.321 C 
ATOM     18  O   UNL A   1      30.624  23.580  23.096  1.00  0.00    -0.248 OA
BRANCH  17  19
ATOM     19  N   UNL A   1      30.970  24.116  25.260  1.00  0.00    -0.325 N 
ATOM     20  C   UNL A   1      30.447  23.807  26.603  1.00  0.00     0.149 C 
BRANCH  19  21
ATOM     21  C   UNL A   1      31.373  25.517  25.162  1.00  0.00     0.086 C 
ATOM     22  C   UNL A   1      30.413  26.616  24.809  1.00  0.00     0.027 C 
ATOM     23  C   UNL A   1      31.017  26.560  26.175  1.00  0.00     0.027 C 
ENDBRANCH  19  21
ENDBRANCH  17  19
ENDBRANCH   8  17
ENDBRANCH   4   7
ENDBRANCH   2   3
ENDBRANCH   1   2
BRANCH   1  24
ATOM     24  C   UNL A   1      37.851  22.621  25.900  1.00  0.00     0.118 C 
BRANCH  24  25
ATOM     25  N   UNL A   1      38.989  21.953  26.499  1.00  0.00    -0.352 N 
ATOM     26  C   UNL A   1      40.102  22.435  27.162  1.00  0.00     0.251 C 
ATOM     27  H   UNL A   1      38.966  20.973  26.418  1.00  0.00     0.163 HD
ATOM     28  O   UNL A   1      40.939  21.596  27.502  1.00  0.00    -0.269 OA
BRANCH  26  29
ATOM     29  C   UNL A   1      40.320  23.870  27.532  1.00  0.00     0.039 A 
ATOM     30  C   UNL A   1      41.519  24.218  28.189  1.00  0.00     0.014 A 
ATOM     31  C   UNL A   1      39.410  24.888  27.282  1.00  0.00     0.014 A 
ATOM     32  C   UNL A   1      41.738  25.515  28.692  1.00  0.00     0.010 A 
ATOM     33  C   UNL A   1      39.625  26.168  27.794  1.00  0.00     0.010 A 
ATOM     34  C   UNL A   1      40.760  26.493  28.539  1.00  0.00    -0.014 A 
BRANCH  34  35
ATOM     35  C   UNL A   1      40.886  27.852  29.106  1.00  0.00     0.031 A 
ATOM     36  C   UNL A   1      41.889  28.775  28.489  1.00  0.00     0.074 A 
ATOM     37  C   UNL A   1      39.980  28.412  29.944  1.00  0.00     0.049 A 
ATOM     38  N   UNL A   1      42.920  29.308  29.064  1.00  0.00    -0.248 NA
ATOM     39  C   UNL A   1      41.772  29.128  27.066  1.00  0.00     0.031 C 
ATOM     40  C   UNL A   1      38.733  27.832  30.448  1.00  0.00     0.029 A 
ATOM     41  N   UNL A   1      39.903  29.709  30.384  1.00  0.00    -0.354 N 
ATOM     42  C   UNL A   1      43.484  30.181  28.135  1.00  0.00     0.074 A 
ATOM     43  C   UNL A   1      42.857  29.879  26.879  1.00  0.00     0.031 C 
ATOM     44  C   UNL A   1      37.910  28.827  30.856  1.00  0.00     0.029 A 
ATOM     45  C   UNL A   1      38.635  30.086  30.820  1.00  0.00     0.049 A 
ATOM     46  H   UNL A   1      40.676  30.319  30.389  1.00  0.00     0.167 HD
ATOM     47  C   UNL A   1      44.280  31.230  28.490  1.00  0.00     0.034 A 
ATOM     48  C   UNL A   1      38.193  31.345  31.092  1.00  0.00     0.034 A 
ATOM     49  C   UNL A   1      44.696  31.143  29.868  1.00  0.00     0.049 A 
ATOM     50  C   UNL A   1      39.385  32.155  31.436  1.00  0.00     0.074 A 
ATOM     51  C   UNL A   1      45.335  30.187  30.634  1.00  0.00     0.029 A 
ATOM     52  N   UNL A   1      44.140  32.017  30.775  1.00  0.00    -0.354 N 
ATOM     53  N   UNL A   1      40.134  31.918  32.479  1.00  0.00    -0.248 NA
ATOM     54  C   UNL A   1      40.004  32.972  30.405  1.00  0.00     0.031 C 
ATOM     55  C   UNL A   1      44.679  30.236  31.900  1.00  0.00     0.029 A 
ATOM     56  C   UNL A   1      43.723  31.252  31.836  1.00  0.00     0.049 A 
ATOM     57  H   UNL A   1      44.059  32.994  30.682  1.00  0.00     0.167 HD
ATOM     58  C   UNL A   1      41.428  32.157  32.047  1.00  0.00     0.074 A 
ATOM     59  C   UNL A   1      41.275  32.927  30.814  1.00  0.00     0.031 C 
ATOM     60  C   UNL A   1      42.488  31.467  32.563  1.00  0.00     0.034 A 
BRANCH  47  61
ATOM     61  C   UNL A   1      44.481  32.493  27.680  1.00  0.00     0.023 A 
ATOM     62  C   UNL A   1      43.816  33.660  28.105  1.00  0.00     0.031 A 
ATOM     63  C   UNL A   1      45.079  32.564  26.401  1.00  0.00     0.131 A 
ATOM     64  C   UNL A   1      43.724  34.789  27.272  1.00  0.00     0.055 A 
ATOM     65  C   UNL A   1      45.065  33.720  25.614  1.00  0.00     0.041 A 
ATOM     66  F   UNL A   1      45.616  31.496  25.798  1.00  0.00    -0.206 F 
ATOM     67  C   UNL A   1      44.364  34.836  26.037  1.00  0.00     0.022 A 
BRANCH  64  68
ATOM     68  S   UNL A   1      42.591  36.123  27.746  1.00  0.00     0.124 S 
ATOM     69  O   UNL A   1      41.392  35.378  28.116  1.00  0.00    -0.237 OA
ATOM     70  O   UNL A   1      43.317  36.761  28.838  1.00  0.00    -0.237 OA
ATOM     71  O   UNL A   1      42.475  36.918  26.525  1.00  0.00    -0.744 OA
ENDBRANCH  64  68
ENDBRANCH  47  61
BRANCH  48  72
ATOM     72  C   UNL A   1      36.845  31.924  30.821  1.00  0.00     0.023 A 
ATOM     73  C   UNL A   1      36.040  32.518  31.817  1.00  0.00     0.031 A 
ATOM     74  C   UNL A   1      36.423  32.108  29.484  1.00  0.00     0.131 A 
ATOM     75  C   UNL A   1      34.872  33.237  31.460  1.00  0.00     0.055 A 
ATOM     76  C   UNL A   1      35.265  32.809  29.137  1.00  0.00     0.041 A 
ATOM     77  F   UNL A   1      37.173  31.679  28.460  1.00  0.00    -0.206 F 
ATOM     78  C   UNL A   1      34.484  33.382  30.125  1.00  0.00     0.022 A 
BRANCH  75  79
ATOM     79  S   UNL A   1      33.884  34.091  32.733  1.00  0.00     0.124 S 
ATOM     80  O   UNL A   1      33.101  33.000  33.302  1.00  0.00    -0.237 OA
ATOM     81  O   UNL A   1      34.911  34.672  33.590  1.00  0.00    -0.237 OA
ATOM     82  O   UNL A   1      33.108  35.067  31.965  1.00  0.00    -0.744 OA
ENDBRANCH  75  79
ENDBRANCH  48  72
BRANCH  60  83
ATOM     83  C   UNL A   1      42.286  30.635  33.813  1.00  0.00     0.023 A 
ATOM     84  C   UNL A   1      42.211  29.225  33.824  1.00  0.00     0.031 A 
ATOM     85  C   UNL A   1      42.338  31.293  35.056  1.00  0.00     0.131 A 
ATOM     86  C   UNL A   1      42.185  28.525  35.046  1.00  0.00     0.055 A 
ATOM     87  C   UNL A   1      42.333  30.596  36.264  1.00  0.00     0.041 A 
ATOM     88  F   UNL A   1      42.447  32.631  35.114  1.00  0.00    -0.206 F 
ATOM     89  C   UNL A   1      42.253  29.207  36.264  1.00  0.00     0.022 A 
BRANCH  86  90
ATOM     90  S   UNL A   1      42.081  26.707  35.059  1.00  0.00     0.124 S 
ATOM     91  O   UNL A   1      43.062  26.305  34.058  1.00  0.00    -0.237 OA
ATOM     92  O   UNL A   1      42.405  26.377  36.444  1.00  0.00    -0.237 OA
ATOM     93  O   UNL A   1      40.690  26.443  34.685  1.00  0.00    -0.744 OA
ENDBRANCH  86  90
ENDBRANCH  60  83
ENDBRANCH  34  35
ENDBRANCH  26  29
ENDBRANCH  24  25
ENDBRANCH   1  24
TORSDOF 16
ENDMDL
MODEL 3
REMARK VINA RESULT:     -12.3      3.385      9.190
REMARK SMILES CN(C(=O)N1Cc2nc[nH]c2C[C@@H]1C(=O)NCCCNC(=O)c1ccc(-c2c3nc(c(-c4cc(S(=O)(=O)[O-])ccc4F)c4ccc([nH]4)c(-c4cc(S(=O)(=O)[O-])ccc4F)c4nc(c(-c5cc(S(=O)(=O)[O-])ccc5F)c5ccc2[nH]5)C=C4)C=C3)cc1)C1CC1
REMARK SMILES IDX 18 1 17 2 16 3 14 4 15 5 13 7 5 8 6 9 7 10 12 11 8 12 11 13
REMARK SMILES IDX 9 14 10 15 3 17 4 18 2 19 1 20 86 21 87 22 88 23 19 24 20 25
REMARK SMILES IDX 21 26 22 28 23 29 24 30 85 31 25 32 84 33 26 34 27 35 28 36
REMARK SMILES IDX 78 37 29 38 83 39 77 40 79 41 30 42 82 43 76 44 75 45 31 47
REMARK SMILES IDX 63 48 43 49 62 50 44 51 47 52 61 53 80 54 45 55 46 56 60 58
REMARK SMILES IDX 81 59 48 60 32 61 33 62 41 63 34 64 40 65 42 66 39 67 35 68
REMARK SMILES IDX 36 69 37 70 38 71 64 72 65 73 73 74 66 75 72 76 74 77 71 78
REMARK SMILES IDX 67 79 68 80 69 81 70 82 49 83 50 84 58 85 51 86 57 87 59 88
REMARK SMILES IDX 56 89 52 90 53 91 54 92 55 93
REMARK H PARENT 16 6 10 16 20 27 79 46 47 57
REMARK Flexibility Score: inf
ROOT
ATOM      1  C   UNL A   1      36.975  21.902  24.857  1.00  0.00     0.042 C 
ENDROOT
BRANCH   1   2
ATOM      2  C   UNL A   1      35.460  21.849  25.136  1.00  0.00     0.117 C 
BRANCH   2   3
ATOM      3  N   UNL A   1      35.018  23.170  25.499  1.00  0.00    -0.354 N 
ATOM      4  C   UNL A   1      33.779  23.528  26.021  1.00  0.00     0.243 C 
ATOM      5  O   UNL A   1      33.235  23.044  26.976  1.00  0.00    -0.273 OA
ATOM      6  H   UNL A   1      35.664  23.900  25.361  1.00  0.00     0.163 HD
BRANCH   4   7
ATOM      7  C   UNL A   1      33.119  24.480  25.005  1.00  0.00     0.182 C 
ATOM      8  N   UNL A   1      33.197  25.948  25.281  1.00  0.00    -0.306 N 
ATOM      9  C   UNL A   1      33.793  26.665  24.116  1.00  0.00     0.180 C 
ATOM     10  C   UNL A   1      33.127  26.136  22.867  1.00  0.00     0.081 A 
ATOM     11  C   UNL A   1      31.910  24.221  24.075  1.00  0.00     0.091 C 
ATOM     12  N   UNL A   1      33.521  26.450  21.594  1.00  0.00    -0.240 NA
ATOM     13  C   UNL A   1      32.250  25.055  22.852  1.00  0.00     0.042 A 
ATOM     14  C   UNL A   1      32.847  25.628  20.820  1.00  0.00     0.197 A 
ATOM     15  N   UNL A   1      32.010  24.805  21.533  1.00  0.00    -0.348 N 
ATOM     16  H   UNL A   1      31.364  24.161  21.165  1.00  0.00     0.167 HD
BRANCH   8  17
ATOM     17  C   UNL A   1      32.511  26.731  26.179  1.00  0.00     0.321 C 
ATOM     18  O   UNL A   1      31.854  26.149  27.055  1.00  0.00    -0.248 OA
BRANCH  17  19
ATOM     19  N   UNL A   1      32.411  28.111  26.091  1.00  0.00    -0.325 N 
ATOM     20  C   UNL A   1      31.647  29.051  25.252  1.00  0.00     0.149 C 
BRANCH  19  21
ATOM     21  C   UNL A   1      33.123  28.814  27.157  1.00  0.00     0.086 C 
ATOM     22  C   UNL A   1      34.614  28.986  27.162  1.00  0.00     0.027 C 
ATOM     23  C   UNL A   1      33.725  30.176  26.999  1.00  0.00     0.027 C 
ENDBRANCH  19  21
ENDBRANCH  17  19
ENDBRANCH   8  17
ENDBRANCH   4   7
ENDBRANCH   2   3
ENDBRANCH   1   2
BRANCH   1  24
ATOM     24  C   UNL A   1      37.808  22.808  25.788  1.00  0.00     0.118 C 
BRANCH  24  25
ATOM     25  N   UNL A   1      38.896  22.128  26.462  1.00  0.00    -0.352 N 
ATOM     26  C   UNL A   1      39.979  22.599  27.179  1.00  0.00     0.251 C 
ATOM     27  H   UNL A   1      38.855  21.147  26.398  1.00  0.00     0.163 HD
ATOM     28  O   UNL A   1      40.777  21.750  27.581  1.00  0.00    -0.269 OA
BRANCH  26  29
ATOM     29  C   UNL A   1      40.208  24.036  27.535  1.00  0.00     0.039 A 
ATOM     30  C   UNL A   1      41.386  24.374  28.232  1.00  0.00     0.014 A 
ATOM     31  C   UNL A   1      39.326  25.065  27.234  1.00  0.00     0.014 A 
ATOM     32  C   UNL A   1      41.608  25.676  28.723  1.00  0.00     0.010 A 
ATOM     33  C   UNL A   1      39.543  26.349  27.734  1.00  0.00     0.010 A 
ATOM     34  C   UNL A   1      40.654  26.668  28.518  1.00  0.00    -0.014 A 
BRANCH  34  35
ATOM     35  C   UNL A   1      40.781  28.033  29.068  1.00  0.00     0.031 A 
ATOM     36  C   UNL A   1      41.801  28.940  28.454  1.00  0.00     0.074 A 
ATOM     37  C   UNL A   1      39.867  28.611  29.883  1.00  0.00     0.049 A 
ATOM     38  N   UNL A   1      42.828  29.473  29.038  1.00  0.00    -0.248 NA
ATOM     39  C   UNL A   1      41.710  29.274  27.025  1.00  0.00     0.031 C 
ATOM     40  C   UNL A   1      38.607  28.048  30.374  1.00  0.00     0.029 A 
ATOM     41  N   UNL A   1      39.793  29.915  30.304  1.00  0.00    -0.354 N 
ATOM     42  C   UNL A   1      43.413  30.329  28.107  1.00  0.00     0.074 A 
ATOM     43  C   UNL A   1      42.804  30.014  26.845  1.00  0.00     0.031 C 
ATOM     44  C   UNL A   1      37.785  29.055  30.756  1.00  0.00     0.029 A 
ATOM     45  C   UNL A   1      38.521  30.308  30.714  1.00  0.00     0.049 A 
ATOM     46  H   UNL A   1      40.570  30.519  30.313  1.00  0.00     0.167 HD
ATOM     47  C   UNL A   1      44.211  31.376  28.460  1.00  0.00     0.034 A 
ATOM     48  C   UNL A   1      38.084  31.574  30.962  1.00  0.00     0.034 A 
ATOM     49  C   UNL A   1      44.604  31.306  29.845  1.00  0.00     0.049 A 
ATOM     50  C   UNL A   1      39.277  32.379  31.314  1.00  0.00     0.074 A 
ATOM     51  C   UNL A   1      45.224  30.356  30.635  1.00  0.00     0.029 A 
ATOM     52  N   UNL A   1      44.041  32.196  30.731  1.00  0.00    -0.354 N 
ATOM     53  N   UNL A   1      40.007  32.151  32.372  1.00  0.00    -0.248 NA
ATOM     54  C   UNL A   1      39.919  33.177  30.282  1.00  0.00     0.031 C 
ATOM     55  C   UNL A   1      44.548  30.427  31.889  1.00  0.00     0.029 A 
ATOM     56  C   UNL A   1      43.601  31.449  31.796  1.00  0.00     0.049 A 
ATOM     57  H   UNL A   1      43.969  33.172  30.624  1.00  0.00     0.167 HD
ATOM     58  C   UNL A   1      41.310  32.374  31.957  1.00  0.00     0.074 A 
ATOM     59  C   UNL A   1      41.183  33.128  30.712  1.00  0.00     0.031 C 
ATOM     60  C   UNL A   1      42.356  31.684  32.500  1.00  0.00     0.034 A 
BRANCH  47  61
ATOM     61  C   UNL A   1      44.434  32.627  27.636  1.00  0.00     0.023 A 
ATOM     62  C   UNL A   1      43.773  33.805  28.035  1.00  0.00     0.031 A 
ATOM     63  C   UNL A   1      45.053  32.675  26.366  1.00  0.00     0.131 A 
ATOM     64  C   UNL A   1      43.703  34.923  27.185  1.00  0.00     0.055 A 
ATOM     65  C   UNL A   1      45.061  33.821  25.563  1.00  0.00     0.041 A 
ATOM     66  F   UNL A   1      45.591  31.595  25.785  1.00  0.00    -0.206 F 
ATOM     67  C   UNL A   1      44.362  34.948  25.960  1.00  0.00     0.022 A 
BRANCH  64  68
ATOM     68  S   UNL A   1      42.574  36.273  27.623  1.00  0.00     0.124 S 
ATOM     69  O   UNL A   1      41.322  35.555  27.839  1.00  0.00    -0.237 OA
ATOM     70  O   UNL A   1      43.213  36.826  28.812  1.00  0.00    -0.237 OA
ATOM     71  O   UNL A   1      42.600  37.133  26.443  1.00  0.00    -0.744 OA
ENDBRANCH  64  68
ENDBRANCH  47  61
BRANCH  48  72
ATOM     72  C   UNL A   1      36.745  32.159  30.662  1.00  0.00     0.023 A 
ATOM     73  C   UNL A   1      35.951  32.817  31.625  1.00  0.00     0.031 A 
ATOM     74  C   UNL A   1      36.325  32.279  29.317  1.00  0.00     0.131 A 
ATOM     75  C   UNL A   1      34.794  33.534  31.231  1.00  0.00     0.055 A 
ATOM     76  C   UNL A   1      35.178  32.980  28.934  1.00  0.00     0.041 A 
ATOM     77  F   UNL A   1      37.067  31.786  28.316  1.00  0.00    -0.206 F 
ATOM     78  C   UNL A   1      34.407  33.616  29.891  1.00  0.00     0.022 A 
BRANCH  75  79
ATOM     79  S   UNL A   1      33.821  34.470  32.458  1.00  0.00     0.124 S 
ATOM     80  O   UNL A   1      34.833  35.321  33.073  1.00  0.00    -0.237 OA
ATOM     81  O   UNL A   1      32.827  35.139  31.626  1.00  0.00    -0.237 OA
ATOM     82  O   UNL A   1      33.282  33.428  33.333  1.00  0.00    -0.744 OA
ENDBRANCH  75  79
ENDBRANCH  48  72
BRANCH  60  83
ATOM     83  C   UNL A   1      42.128  30.870  33.758  1.00  0.00     0.023 A 
ATOM     84  C   UNL A   1      41.895  29.477  33.771  1.00  0.00     0.031 A 
ATOM     85  C   UNL A   1      42.319  31.509  34.997  1.00  0.00     0.131 A 
ATOM     86  C   UNL A   1      41.855  28.776  34.991  1.00  0.00     0.055 A 
ATOM     87  C   UNL A   1      42.299  30.809  36.203  1.00  0.00     0.041 A 
ATOM     88  F   UNL A   1      42.580  32.826  35.051  1.00  0.00    -0.206 F 
ATOM     89  C   UNL A   1      42.063  29.437  36.205  1.00  0.00     0.022 A 
BRANCH  86  90
ATOM     90  S   UNL A   1      41.547  26.981  35.008  1.00  0.00     0.124 S 
ATOM     91  O   UNL A   1      41.223  26.706  36.403  1.00  0.00    -0.237 OA
ATOM     92  O   UNL A   1      40.451  26.834  34.053  1.00  0.00    -0.237 OA
ATOM     93  O   UNL A   1      42.821  26.414  34.558  1.00  0.00    -0.744 OA
ENDBRANCH  86  90
ENDBRANCH  60  83
ENDBRANCH  34  35
ENDBRANCH  26  29
ENDBRANCH  24  25
ENDBRANCH   1  24
TORSDOF 16
ENDMDL
