MODEL 1
REMARK VINA RESULT:     -12.1      0.000      0.000
REMARK SMILES O=C(NCCCNC(=O)c1ccn(-c2cc(-c3ccncc3)nc(-c3ccccc3F)n2)n1)c1ccc(-c2c3nc(c(-c4cc(S(=O)(=O)[O-])ccc4F)c4ccc([nH]4)c(-c4cc(S(=O)(=O)[O-])ccc4F)c4nc(c(-c5cc(S(=O)(=O)[O-])ccc5F)c5ccc2[nH]5)C=C4)C=C3)cc1
REMARK SMILES IDX 4 1 3 2 1 3 2 4 34 6 35 7 96 8 36 9 95 10 37 11 38 12 39 13
REMARK SMILES IDX 89 14 40 15 94 16 88 17 90 18 41 19 93 20 87 21 86 22 42 24
REMARK SMILES IDX 74 25 54 26 73 27 55 28 58 29 72 30 91 31 56 32 57 33 71 35
REMARK SMILES IDX 92 36 59 37 43 38 44 39 52 40 45 41 51 42 53 43 50 44 46 45
REMARK SMILES IDX 47 46 48 47 49 48 75 49 76 50 84 51 77 52 83 53 85 54 82 55
REMARK SMILES IDX 78 56 79 57 80 58 81 59 60 60 61 61 69 62 62 63 68 64 70 65
REMARK SMILES IDX 67 66 63 67 64 68 65 69 66 70 5 71 6 72 7 73 8 74 9 76 10 77
REMARK SMILES IDX 11 78 33 79 12 80 13 81 14 82 15 83 32 84 16 85 24 86 23 87
REMARK SMILES IDX 17 88 18 89 22 90 19 91 21 92 20 93 25 94 26 95 30 96 27 97
REMARK SMILES IDX 29 98 31 99 28 100
REMARK H PARENT 3 5 90 23 58 34 7 75
REMARK Flexibility Score: inf
ROOT
ATOM      1  C   UNL A   1      35.421  33.619  29.359  1.00  0.00     0.118 C 
ENDROOT
BRANCH   1   2
ATOM      2  N   UNL A   1      34.861  32.688  28.399  1.00  0.00    -0.352 N 
ATOM      3  O   UNL A   1      34.323  30.857  27.289  1.00  0.00    -0.269 OA
ATOM      4  C   UNL A   1      35.139  31.396  28.041  1.00  0.00     0.251 C 
ATOM      5  H   UNL A   1      34.113  33.073  27.888  1.00  0.00     0.163 HD
BRANCH   4   6
ATOM      6  C   UNL A   1      36.359  30.643  28.440  1.00  0.00     0.039 A 
ATOM      7  C   UNL A   1      36.391  29.313  28.861  1.00  0.00     0.014 A 
ATOM      8  C   UNL A   1      37.571  31.356  28.375  1.00  0.00     0.014 A 
ATOM      9  C   UNL A   1      37.588  28.732  29.278  1.00  0.00     0.010 A 
ATOM     10  C   UNL A   1      38.773  30.775  28.768  1.00  0.00     0.010 A 
ATOM     11  C   UNL A   1      38.777  29.463  29.237  1.00  0.00    -0.014 A 
BRANCH  11  12
ATOM     12  C   UNL A   1      40.035  28.746  29.460  1.00  0.00     0.031 A 
ATOM     13  C   UNL A   1      40.464  28.687  30.889  1.00  0.00     0.074 A 
ATOM     14  C   UNL A   1      40.678  28.015  28.527  1.00  0.00     0.049 A 
ATOM     15  N   UNL A   1      41.570  29.098  31.418  1.00  0.00    -0.248 NA
ATOM     16  C   UNL A   1      39.485  28.187  31.870  1.00  0.00     0.031 C 
ATOM     17  C   UNL A   1      40.230  27.730  27.164  1.00  0.00     0.029 A 
ATOM     18  N   UNL A   1      41.819  27.269  28.642  1.00  0.00    -0.354 N 
ATOM     19  C   UNL A   1      41.523  28.703  32.753  1.00  0.00     0.074 A 
ATOM     20  C   UNL A   1      40.165  28.304  33.010  1.00  0.00     0.031 C 
ATOM     21  C   UNL A   1      40.966  26.716  26.658  1.00  0.00     0.029 A 
ATOM     22  C   UNL A   1      42.001  26.350  27.611  1.00  0.00     0.049 A 
ATOM     23  H   UNL A   1      42.454  27.372  29.388  1.00  0.00     0.167 HD
ATOM     24  C   UNL A   1      42.652  28.503  33.485  1.00  0.00     0.034 A 
ATOM     25  C   UNL A   1      42.891  25.320  27.573  1.00  0.00     0.034 A 
ATOM     26  C   UNL A   1      43.780  29.210  32.934  1.00  0.00     0.049 A 
ATOM     27  C   UNL A   1      43.983  25.661  28.521  1.00  0.00     0.074 A 
ATOM     28  C   UNL A   1      44.025  30.531  32.600  1.00  0.00     0.029 A 
ATOM     29  N   UNL A   1      44.772  28.490  32.313  1.00  0.00    -0.354 N 
ATOM     30  N   UNL A   1      44.798  26.669  28.366  1.00  0.00    -0.248 NA
ATOM     31  C   UNL A   1      43.922  25.109  29.864  1.00  0.00     0.031 C 
ATOM     32  C   UNL A   1      44.803  30.470  31.408  1.00  0.00     0.029 A 
ATOM     33  C   UNL A   1      45.036  29.122  31.126  1.00  0.00     0.049 A 
ATOM     34  H   UNL A   1      45.209  27.676  32.656  1.00  0.00     0.167 HD
ATOM     35  C   UNL A   1      45.036  27.134  29.649  1.00  0.00     0.074 A 
ATOM     36  C   UNL A   1      44.553  26.077  30.532  1.00  0.00     0.031 C 
ATOM     37  C   UNL A   1      45.350  28.440  29.888  1.00  0.00     0.034 A 
BRANCH  24  38
ATOM     38  C   UNL A   1      42.807  27.381  34.488  1.00  0.00     0.023 A 
ATOM     39  C   UNL A   1      43.569  26.258  34.117  1.00  0.00     0.031 A 
ATOM     40  C   UNL A   1      42.014  27.229  35.651  1.00  0.00     0.131 A 
ATOM     41  C   UNL A   1      43.467  25.050  34.830  1.00  0.00     0.055 A 
ATOM     42  C   UNL A   1      41.974  26.050  36.398  1.00  0.00     0.041 A 
ATOM     43  F   UNL A   1      41.162  28.171  36.072  1.00  0.00    -0.206 F 
ATOM     44  C   UNL A   1      42.680  24.940  35.974  1.00  0.00     0.022 A 
BRANCH  41  45
ATOM     45  S   UNL A   1      44.249  23.569  34.137  1.00  0.00     0.124 S 
ATOM     46  O   UNL A   1      44.708  22.890  35.343  1.00  0.00    -0.237 OA
ATOM     47  O   UNL A   1      43.136  22.944  33.430  1.00  0.00    -0.237 OA
ATOM     48  O   UNL A   1      45.302  24.110  33.283  1.00  0.00    -0.744 OA
ENDBRANCH  41  45
ENDBRANCH  24  38
BRANCH  25  49
ATOM     49  C   UNL A   1      42.717  23.957  26.983  1.00  0.00     0.023 A 
ATOM     50  C   UNL A   1      43.719  23.356  26.186  1.00  0.00     0.031 A 
ATOM     51  C   UNL A   1      41.663  23.113  27.396  1.00  0.00     0.131 A 
ATOM     52  C   UNL A   1      43.643  21.983  25.847  1.00  0.00     0.055 A 
ATOM     53  C   UNL A   1      41.584  21.762  27.044  1.00  0.00     0.041 A 
ATOM     54  F   UNL A   1      40.709  23.539  28.236  1.00  0.00    -0.206 F 
ATOM     55  C   UNL A   1      42.582  21.187  26.278  1.00  0.00     0.022 A 
BRANCH  52  56
ATOM     56  S   UNL A   1      45.005  21.167  24.951  1.00  0.00     0.124 S 
ATOM     57  O   UNL A   1      46.178  21.820  25.522  1.00  0.00    -0.237 OA
ATOM     58  O   UNL A   1      44.815  19.761  25.286  1.00  0.00    -0.237 OA
ATOM     59  O   UNL A   1      44.733  21.503  23.552  1.00  0.00    -0.744 OA
ENDBRANCH  52  56
ENDBRANCH  25  49
BRANCH  37  60
ATOM     60  C   UNL A   1      45.832  29.309  28.752  1.00  0.00     0.023 A 
ATOM     61  C   UNL A   1      45.087  30.347  28.153  1.00  0.00     0.031 A 
ATOM     62  C   UNL A   1      47.186  29.177  28.396  1.00  0.00     0.131 A 
ATOM     63  C   UNL A   1      45.714  31.214  27.235  1.00  0.00     0.055 A 
ATOM     64  C   UNL A   1      47.805  30.046  27.501  1.00  0.00     0.041 A 
ATOM     65  F   UNL A   1      47.949  28.227  28.963  1.00  0.00    -0.206 F 
ATOM     66  C   UNL A   1      47.071  31.070  26.917  1.00  0.00     0.022 A 
BRANCH  63  67
ATOM     67  S   UNL A   1      44.787  32.589  26.477  1.00  0.00     0.124 S 
ATOM     68  O   UNL A   1      44.227  33.286  27.628  1.00  0.00    -0.237 OA
ATOM     69  O   UNL A   1      45.817  33.305  25.728  1.00  0.00    -0.237 OA
ATOM     70  O   UNL A   1      43.796  31.913  25.635  1.00  0.00    -0.744 OA
ENDBRANCH  63  67
ENDBRANCH  37  60
ENDBRANCH  11  12
ENDBRANCH   4   6
ENDBRANCH   1   2
BRANCH   1  71
ATOM     71  C   UNL A   1      34.983  35.076  29.206  1.00  0.00     0.042 C 
BRANCH  71  72
ATOM     72  C   UNL A   1      33.530  35.352  29.594  1.00  0.00     0.118 C 
BRANCH  72  73
ATOM     73  N   UNL A   1      33.401  36.575  30.365  1.00  0.00    -0.351 N 
ATOM     74  C   UNL A   1      33.447  36.759  31.725  1.00  0.00     0.271 C 
ATOM     75  H   UNL A   1      33.259  37.392  29.835  1.00  0.00     0.163 HD
ATOM     76  O   UNL A   1      33.077  37.844  32.174  1.00  0.00    -0.267 OA
BRANCH  74  77
ATOM     77  C   UNL A   1      34.000  35.702  32.581  1.00  0.00     0.150 A 
ATOM     78  C   UNL A   1      33.405  34.447  32.873  1.00  0.00     0.056 A 
ATOM     79  N   UNL A   1      35.233  35.787  33.114  1.00  0.00    -0.161 NA
ATOM     80  C   UNL A   1      34.391  33.719  33.491  1.00  0.00     0.118 A 
ATOM     81  N   UNL A   1      35.485  34.543  33.598  1.00  0.00    -0.222 N 
BRANCH  81  82
ATOM     82  C   UNL A   1      36.769  34.167  34.083  1.00  0.00     0.158 A 
ATOM     83  C   UNL A   1      36.957  34.049  35.445  1.00  0.00     0.078 A 
ATOM     84  N   UNL A   1      37.750  33.950  33.178  1.00  0.00    -0.209 NA
ATOM     85  C   UNL A   1      38.212  33.642  35.847  1.00  0.00     0.077 A 
ATOM     86  C   UNL A   1      38.956  33.635  33.678  1.00  0.00     0.165 A 
ATOM     87  N   UNL A   1      39.235  33.483  34.982  1.00  0.00    -0.228 NA
BRANCH  85  88
ATOM     88  C   UNL A   1      38.511  33.304  37.242  1.00  0.00     0.003 A 
ATOM     89  C   UNL A   1      37.501  32.853  38.102  1.00  0.00     0.030 A 
ATOM     90  C   UNL A   1      39.812  33.384  37.746  1.00  0.00     0.030 A 
ATOM     91  C   UNL A   1      37.828  32.518  39.406  1.00  0.00     0.111 A 
ATOM     92  C   UNL A   1      40.039  33.036  39.069  1.00  0.00     0.111 A 
ATOM     93  N   UNL A   1      39.076  32.609  39.912  1.00  0.00    -0.265 NA
ENDBRANCH  85  88
BRANCH  86  94
ATOM     94  C   UNL A   1      40.071  33.590  32.742  1.00  0.00     0.055 A 
ATOM     95  C   UNL A   1      41.042  34.609  32.728  1.00  0.00     0.015 A 
ATOM     96  C   UNL A   1      40.217  32.536  31.838  1.00  0.00     0.134 A 
ATOM     97  C   UNL A   1      42.124  34.562  31.843  1.00  0.00     0.001 A 
ATOM     98  C   UNL A   1      41.288  32.487  30.944  1.00  0.00     0.040 A 
ATOM     99  F   UNL A   1      39.311  31.548  31.796  1.00  0.00    -0.206 F 
ATOM    100  C   UNL A   1      42.245  33.499  30.950  1.00  0.00     0.003 A 
ENDBRANCH  86  94
ENDBRANCH  81  82
ENDBRANCH  74  77
ENDBRANCH  72  73
ENDBRANCH  71  72
ENDBRANCH   1  71
TORSDOF 16
ENDMDL
MODEL 2
REMARK VINA RESULT:     -12.1      1.654      2.069
REMARK SMILES O=C(NCCCNC(=O)c1ccn(-c2cc(-c3ccncc3)nc(-c3ccccc3F)n2)n1)c1ccc(-c2c3nc(c(-c4cc(S(=O)(=O)[O-])ccc4F)c4ccc([nH]4)c(-c4cc(S(=O)(=O)[O-])ccc4F)c4nc(c(-c5cc(S(=O)(=O)[O-])ccc5F)c5ccc2[nH]5)C=C4)C=C3)cc1
REMARK SMILES IDX 4 1 3 2 1 3 2 4 34 6 35 7 96 8 36 9 95 10 37 11 38 12 39 13
REMARK SMILES IDX 89 14 40 15 94 16 88 17 90 18 41 19 93 20 87 21 86 22 42 24
REMARK SMILES IDX 74 25 54 26 73 27 55 28 58 29 72 30 91 31 56 32 57 33 71 35
REMARK SMILES IDX 92 36 59 37 43 38 44 39 52 40 45 41 51 42 53 43 50 44 46 45
REMARK SMILES IDX 47 46 48 47 49 48 75 49 76 50 84 51 77 52 83 53 85 54 82 55
REMARK SMILES IDX 78 56 79 57 80 58 81 59 60 60 61 61 69 62 62 63 68 64 70 65
REMARK SMILES IDX 67 66 63 67 64 68 65 69 66 70 5 71 6 72 7 73 8 74 9 76 10 77
REMARK SMILES IDX 11 78 33 79 12 80 13 81 14 82 15 83 32 84 16 85 24 86 23 87
REMARK SMILES IDX 17 88 18 89 22 90 19 91 21 92 20 93 25 94 26 95 30 96 27 97
REMARK SMILES IDX 29 98 31 99 28 100
REMARK H PARENT 3 5 90 23 58 34 7 75
REMARK Flexibility Score: inf
ROOT
ATOM      1  C   UNL A   1      35.063  34.354  28.377  1.00  0.00     0.118 C 
ENDROOT
BRANCH   1   2
ATOM      2  N   UNL A   1      34.288  33.172  28.054  1.00  0.00    -0.352 N 
ATOM      3  O   UNL A   1      33.513  31.107  27.960  1.00  0.00    -0.269 OA
ATOM      4  C   UNL A   1      34.488  31.826  28.196  1.00  0.00     0.251 C 
ATOM      5  H   UNL A   1      33.422  33.387  27.636  1.00  0.00     0.163 HD
BRANCH   4   6
ATOM      6  C   UNL A   1      35.786  31.188  28.545  1.00  0.00     0.039 A 
ATOM      7  C   UNL A   1      36.065  29.823  28.475  1.00  0.00     0.014 A 
ATOM      8  C   UNL A   1      36.804  32.060  28.978  1.00  0.00     0.014 A 
ATOM      9  C   UNL A   1      37.299  29.330  28.896  1.00  0.00     0.010 A 
ATOM     10  C   UNL A   1      38.046  31.577  29.378  1.00  0.00     0.010 A 
ATOM     11  C   UNL A   1      38.288  30.205  29.353  1.00  0.00    -0.014 A 
BRANCH  11  12
ATOM     12  C   UNL A   1      39.636  29.673  29.562  1.00  0.00     0.031 A 
ATOM     13  C   UNL A   1      40.045  29.580  30.995  1.00  0.00     0.074 A 
ATOM     14  C   UNL A   1      40.399  29.115  28.600  1.00  0.00     0.049 A 
ATOM     15  N   UNL A   1      41.066  30.115  31.580  1.00  0.00    -0.248 NA
ATOM     16  C   UNL A   1      39.138  28.869  31.914  1.00  0.00     0.031 C 
ATOM     17  C   UNL A   1      40.023  28.862  27.210  1.00  0.00     0.029 A 
ATOM     18  N   UNL A   1      41.638  28.545  28.697  1.00  0.00    -0.354 N 
ATOM     19  C   UNL A   1      41.057  29.625  32.884  1.00  0.00     0.074 A 
ATOM     20  C   UNL A   1      39.772  29.007  33.077  1.00  0.00     0.031 C 
ATOM     21  C   UNL A   1      40.914  28.009  26.657  1.00  0.00     0.029 A 
ATOM     22  C   UNL A   1      41.977  27.738  27.612  1.00  0.00     0.049 A 
ATOM     23  H   UNL A   1      42.238  28.690  29.464  1.00  0.00     0.167 HD
ATOM     24  C   UNL A   1      42.191  29.547  33.632  1.00  0.00     0.034 A 
ATOM     25  C   UNL A   1      43.015  26.861  27.530  1.00  0.00     0.034 A 
ATOM     26  C   UNL A   1      43.207  30.454  33.161  1.00  0.00     0.049 A 
ATOM     27  C   UNL A   1      44.025  27.295  28.527  1.00  0.00     0.074 A 
ATOM     28  C   UNL A   1      43.253  31.817  32.923  1.00  0.00     0.029 A 
ATOM     29  N   UNL A   1      44.308  29.937  32.521  1.00  0.00    -0.354 N 
ATOM     30  N   UNL A   1      44.678  28.423  28.463  1.00  0.00    -0.248 NA
ATOM     31  C   UNL A   1      44.027  26.648  29.828  1.00  0.00     0.031 C 
ATOM     32  C   UNL A   1      44.051  31.958  31.751  1.00  0.00     0.029 A 
ATOM     33  C   UNL A   1      44.492  30.684  31.386  1.00  0.00     0.049 A 
ATOM     34  H   UNL A   1      44.859  29.177  32.820  1.00  0.00     0.167 HD
ATOM     35  C   UNL A   1      44.821  28.828  29.780  1.00  0.00     0.074 A 
ATOM     36  C   UNL A   1      44.491  27.650  30.577  1.00  0.00     0.031 C 
ATOM     37  C   UNL A   1      44.928  30.147  30.114  1.00  0.00     0.034 A 
BRANCH  24  38
ATOM     38  C   UNL A   1      42.499  28.394  34.562  1.00  0.00     0.023 A 
ATOM     39  C   UNL A   1      43.387  27.398  34.114  1.00  0.00     0.031 A 
ATOM     40  C   UNL A   1      41.750  28.075  35.720  1.00  0.00     0.131 A 
ATOM     41  C   UNL A   1      43.445  26.145  34.752  1.00  0.00     0.055 A 
ATOM     42  C   UNL A   1      41.867  26.856  36.392  1.00  0.00     0.041 A 
ATOM     43  F   UNL A   1      40.796  28.878  36.207  1.00  0.00    -0.206 F 
ATOM     44  C   UNL A   1      42.697  25.871  35.893  1.00  0.00     0.022 A 
BRANCH  41  45
ATOM     45  S   UNL A   1      44.391  24.817  33.961  1.00  0.00     0.124 S 
ATOM     46  O   UNL A   1      45.761  25.267  34.177  1.00  0.00    -0.237 OA
ATOM     47  O   UNL A   1      43.967  23.649  34.726  1.00  0.00    -0.237 OA
ATOM     48  O   UNL A   1      43.931  24.852  32.575  1.00  0.00    -0.744 OA
ENDBRANCH  41  45
ENDBRANCH  24  38
BRANCH  25  49
ATOM     49  C   UNL A   1      43.061  25.532  26.845  1.00  0.00     0.023 A 
ATOM     50  C   UNL A   1      44.128  25.170  25.989  1.00  0.00     0.031 A 
ATOM     51  C   UNL A   1      42.182  24.490  27.214  1.00  0.00     0.131 A 
ATOM     52  C   UNL A   1      44.280  23.832  25.552  1.00  0.00     0.055 A 
ATOM     53  C   UNL A   1      42.326  23.174  26.766  1.00  0.00     0.041 A 
ATOM     54  F   UNL A   1      41.193  24.685  28.099  1.00  0.00    -0.206 F 
ATOM     55  C   UNL A   1      43.386  22.835  25.943  1.00  0.00     0.022 A 
BRANCH  52  56
ATOM     56  S   UNL A   1      45.735  23.330  24.575  1.00  0.00     0.124 S 
ATOM     57  O   UNL A   1      46.438  24.596  24.405  1.00  0.00    -0.237 OA
ATOM     58  O   UNL A   1      46.374  22.341  25.435  1.00  0.00    -0.237 OA
ATOM     59  O   UNL A   1      45.143  22.784  23.352  1.00  0.00    -0.744 OA
ENDBRANCH  52  56
ENDBRANCH  25  49
BRANCH  37  60
ATOM     60  C   UNL A   1      45.290  31.156  29.053  1.00  0.00     0.023 A 
ATOM     61  C   UNL A   1      46.605  31.453  28.632  1.00  0.00     0.031 A 
ATOM     62  C   UNL A   1      44.222  31.702  28.319  1.00  0.00     0.131 A 
ATOM     63  C   UNL A   1      46.805  32.269  27.499  1.00  0.00     0.055 A 
ATOM     64  C   UNL A   1      44.426  32.494  27.192  1.00  0.00     0.041 A 
ATOM     65  F   UNL A   1      42.952  31.422  28.657  1.00  0.00    -0.206 F 
ATOM     66  C   UNL A   1      45.720  32.780  26.777  1.00  0.00     0.022 A 
BRANCH  63  67
ATOM     67  S   UNL A   1      48.491  32.635  26.909  1.00  0.00     0.124 S 
ATOM     68  O   UNL A   1      49.032  31.315  26.610  1.00  0.00    -0.237 OA
ATOM     69  O   UNL A   1      48.253  33.509  25.762  1.00  0.00    -0.237 OA
ATOM     70  O   UNL A   1      49.118  33.304  28.052  1.00  0.00    -0.744 OA
ENDBRANCH  63  67
ENDBRANCH  37  60
ENDBRANCH  11  12
ENDBRANCH   4   6
ENDBRANCH   1   2
BRANCH   1  71
ATOM     71  C   UNL A   1      34.254  35.612  28.696  1.00  0.00     0.042 C 
BRANCH  71  72
ATOM     72  C   UNL A   1      33.058  35.386  29.620  1.00  0.00     0.118 C 
BRANCH  72  73
ATOM     73  N   UNL A   1      32.859  36.502  30.528  1.00  0.00    -0.351 N 
ATOM     74  C   UNL A   1      33.106  36.585  31.876  1.00  0.00     0.271 C 
ATOM     75  H   UNL A   1      32.493  37.318  30.117  1.00  0.00     0.163 HD
ATOM     76  O   UNL A   1      32.642  37.545  32.491  1.00  0.00    -0.267 OA
BRANCH  74  77
ATOM     77  C   UNL A   1      33.967  35.584  32.519  1.00  0.00     0.150 A 
ATOM     78  C   UNL A   1      33.599  34.268  32.905  1.00  0.00     0.056 A 
ATOM     79  N   UNL A   1      35.282  35.795  32.718  1.00  0.00    -0.161 NA
ATOM     80  C   UNL A   1      34.780  33.644  33.218  1.00  0.00     0.118 A 
ATOM     81  N   UNL A   1      35.775  34.580  33.072  1.00  0.00    -0.222 N 
BRANCH  81  82
ATOM     82  C   UNL A   1      37.172  34.339  33.193  1.00  0.00     0.158 A 
ATOM     83  C   UNL A   1      37.689  34.037  34.437  1.00  0.00     0.078 A 
ATOM     84  N   UNL A   1      37.931  34.425  32.076  1.00  0.00    -0.209 NA
ATOM     85  C   UNL A   1      39.043  33.775  34.479  1.00  0.00     0.077 A 
ATOM     86  C   UNL A   1      39.249  34.230  32.240  1.00  0.00     0.165 A 
ATOM     87  N   UNL A   1      39.844  33.918  33.403  1.00  0.00    -0.228 NA
BRANCH  85  88
ATOM     88  C   UNL A   1      39.700  33.271  35.689  1.00  0.00     0.003 A 
ATOM     89  C   UNL A   1      40.817  32.430  35.600  1.00  0.00     0.030 A 
ATOM     90  C   UNL A   1      39.260  33.642  36.962  1.00  0.00     0.030 A 
ATOM     91  C   UNL A   1      41.427  31.997  36.767  1.00  0.00     0.111 A 
ATOM     92  C   UNL A   1      39.930  33.149  38.071  1.00  0.00     0.111 A 
ATOM     93  N   UNL A   1      41.000  32.330  38.003  1.00  0.00    -0.265 NA
ENDBRANCH  85  88
BRANCH  86  94
ATOM     94  C   UNL A   1      40.109  34.510  31.099  1.00  0.00     0.055 A 
ATOM     95  C   UNL A   1      41.510  34.444  31.219  1.00  0.00     0.015 A 
ATOM     96  C   UNL A   1      39.575  34.845  29.853  1.00  0.00     0.134 A 
ATOM     97  C   UNL A   1      42.340  34.696  30.121  1.00  0.00     0.001 A 
ATOM     98  C   UNL A   1      40.397  35.108  28.756  1.00  0.00     0.040 A 
ATOM     99  F   UNL A   1      38.247  34.940  29.687  1.00  0.00    -0.206 F 
ATOM    100  C   UNL A   1      41.781  35.029  28.890  1.00  0.00     0.003 A 
ENDBRANCH  86  94
ENDBRANCH  81  82
ENDBRANCH  74  77
ENDBRANCH  72  73
ENDBRANCH  71  72
ENDBRANCH   1  71
TORSDOF 16
ENDMDL
MODEL 3
REMARK VINA RESULT:     -11.9      4.052      7.577
REMARK SMILES O=C(NCCCNC(=O)c1ccn(-c2cc(-c3ccncc3)nc(-c3ccccc3F)n2)n1)c1ccc(-c2c3nc(c(-c4cc(S(=O)(=O)[O-])ccc4F)c4ccc([nH]4)c(-c4cc(S(=O)(=O)[O-])ccc4F)c4nc(c(-c5cc(S(=O)(=O)[O-])ccc5F)c5ccc2[nH]5)C=C4)C=C3)cc1
REMARK SMILES IDX 4 1 3 2 1 3 2 4 34 6 35 7 96 8 36 9 95 10 37 11 38 12 39 13
REMARK SMILES IDX 89 14 40 15 94 16 88 17 90 18 41 19 93 20 87 21 86 22 42 24
REMARK SMILES IDX 74 25 54 26 73 27 55 28 58 29 72 30 91 31 56 32 57 33 71 35
REMARK SMILES IDX 92 36 59 37 43 38 44 39 52 40 45 41 51 42 53 43 50 44 46 45
REMARK SMILES IDX 47 46 48 47 49 48 75 49 76 50 84 51 77 52 83 53 85 54 82 55
REMARK SMILES IDX 78 56 79 57 80 58 81 59 60 60 61 61 69 62 62 63 68 64 70 65
REMARK SMILES IDX 67 66 63 67 64 68 65 69 66 70 5 71 6 72 7 73 8 74 9 76 10 77
REMARK SMILES IDX 11 78 33 79 12 80 13 81 14 82 15 83 32 84 16 85 24 86 23 87
REMARK SMILES IDX 17 88 18 89 22 90 19 91 21 92 20 93 25 94 26 95 30 96 27 97
REMARK SMILES IDX 29 98 31 99 28 100
REMARK H PARENT 3 5 90 23 58 34 7 75
REMARK Flexibility Score: inf
ROOT
ATOM      1  C   UNL A   1      37.149  33.009  32.526  1.00  0.00     0.118 C 
ENDROOT
BRANCH   1   2
ATOM      2  N   UNL A   1      37.685  33.549  31.292  1.00  0.00    -0.352 N 
ATOM      3  O   UNL A   1      38.570  33.761  29.280  1.00  0.00    -0.269 OA
ATOM      4  C   UNL A   1      38.451  33.043  30.277  1.00  0.00     0.251 C 
ATOM      5  H   UNL A   1      37.443  34.493  31.153  1.00  0.00     0.163 HD
BRANCH   4   6
ATOM      6  C   UNL A   1      39.180  31.746  30.322  1.00  0.00     0.039 A 
ATOM      7  C   UNL A   1      38.589  30.484  30.389  1.00  0.00     0.014 A 
ATOM      8  C   UNL A   1      40.585  31.829  30.289  1.00  0.00     0.014 A 
ATOM      9  C   UNL A   1      39.378  29.339  30.497  1.00  0.00     0.010 A 
ATOM     10  C   UNL A   1      41.378  30.688  30.374  1.00  0.00     0.010 A 
ATOM     11  C   UNL A   1      40.770  29.441  30.495  1.00  0.00    -0.014 A 
BRANCH  11  12
ATOM     12  C   UNL A   1      41.551  28.207  30.376  1.00  0.00     0.031 A 
ATOM     13  C   UNL A   1      42.240  27.791  31.634  1.00  0.00     0.074 A 
ATOM     14  C   UNL A   1      41.519  27.378  29.313  1.00  0.00     0.049 A 
ATOM     15  N   UNL A   1      43.500  27.585  31.834  1.00  0.00    -0.248 NA
ATOM     16  C   UNL A   1      41.418  27.683  32.853  1.00  0.00     0.031 C 
ATOM     17  C   UNL A   1      40.669  27.492  28.129  1.00  0.00     0.029 A 
ATOM     18  N   UNL A   1      42.161  26.185  29.123  1.00  0.00    -0.354 N 
ATOM     19  C   UNL A   1      43.604  27.102  33.137  1.00  0.00     0.074 A 
ATOM     20  C   UNL A   1      42.330  27.341  33.762  1.00  0.00     0.031 C 
ATOM     21  C   UNL A   1      40.687  26.320  27.455  1.00  0.00     0.029 A 
ATOM     22  C   UNL A   1      41.626  25.412  28.094  1.00  0.00     0.049 A 
ATOM     23  H   UNL A   1      42.931  25.898  29.664  1.00  0.00     0.167 HD
ATOM     24  C   UNL A   1      44.646  26.323  33.535  1.00  0.00     0.034 A 
ATOM     25  C   UNL A   1      41.884  24.102  27.829  1.00  0.00     0.034 A 
ATOM     26  C   UNL A   1      45.798  26.495  32.687  1.00  0.00     0.049 A 
ATOM     27  C   UNL A   1      43.202  23.791  28.437  1.00  0.00     0.074 A 
ATOM     28  C   UNL A   1      46.546  27.586  32.281  1.00  0.00     0.029 A 
ATOM     29  N   UNL A   1      46.144  25.478  31.829  1.00  0.00    -0.354 N 
ATOM     30  N   UNL A   1      44.329  24.325  28.051  1.00  0.00    -0.248 NA
ATOM     31  C   UNL A   1      43.223  23.175  29.753  1.00  0.00     0.031 C 
ATOM     32  C   UNL A   1      46.881  27.316  30.923  1.00  0.00     0.029 A 
ATOM     33  C   UNL A   1      46.372  26.055  30.606  1.00  0.00     0.049 A 
ATOM     34  H   UNL A   1      46.214  24.521  32.051  1.00  0.00     0.167 HD
ATOM     35  C   UNL A   1      45.068  24.476  29.214  1.00  0.00     0.074 A 
ATOM     36  C   UNL A   1      44.379  23.661  30.210  1.00  0.00     0.031 C 
ATOM     37  C   UNL A   1      46.010  25.455  29.339  1.00  0.00     0.034 A 
BRANCH  24  38
ATOM     38  C   UNL A   1      44.496  25.146  34.474  1.00  0.00     0.023 A 
ATOM     39  C   UNL A   1      45.208  25.168  35.687  1.00  0.00     0.031 A 
ATOM     40  C   UNL A   1      43.937  23.896  34.111  1.00  0.00     0.131 A 
ATOM     41  C   UNL A   1      45.403  23.990  36.430  1.00  0.00     0.055 A 
ATOM     42  C   UNL A   1      44.072  22.746  34.891  1.00  0.00     0.041 A 
ATOM     43  F   UNL A   1      43.319  23.694  32.941  1.00  0.00    -0.206 F 
ATOM     44  C   UNL A   1      44.833  22.780  36.044  1.00  0.00     0.022 A 
BRANCH  41  45
ATOM     45  S   UNL A   1      46.563  24.029  37.822  1.00  0.00     0.124 S 
ATOM     46  O   UNL A   1      45.891  23.164  38.785  1.00  0.00    -0.237 OA
ATOM     47  O   UNL A   1      47.779  23.497  37.217  1.00  0.00    -0.237 OA
ATOM     48  O   UNL A   1      46.614  25.444  38.181  1.00  0.00    -0.744 OA
ENDBRANCH  41  45
ENDBRANCH  24  38
BRANCH  25  49
ATOM     49  C   UNL A   1      40.947  23.049  27.328  1.00  0.00     0.023 A 
ATOM     50  C   UNL A   1      39.619  23.352  26.944  1.00  0.00     0.031 A 
ATOM     51  C   UNL A   1      41.414  21.762  26.980  1.00  0.00     0.131 A 
ATOM     52  C   UNL A   1      38.836  22.402  26.247  1.00  0.00     0.055 A 
ATOM     53  C   UNL A   1      40.630  20.821  26.307  1.00  0.00     0.041 A 
ATOM     54  F   UNL A   1      42.685  21.393  27.200  1.00  0.00    -0.206 F 
ATOM     55  C   UNL A   1      39.340  21.142  25.924  1.00  0.00     0.022 A 
BRANCH  52  56
ATOM     56  S   UNL A   1      37.182  22.839  25.616  1.00  0.00     0.124 S 
ATOM     57  O   UNL A   1      37.416  22.913  24.178  1.00  0.00    -0.237 OA
ATOM     58  O   UNL A   1      36.356  21.733  26.084  1.00  0.00    -0.237 OA
ATOM     59  O   UNL A   1      36.907  24.124  26.263  1.00  0.00    -0.744 OA
ENDBRANCH  52  56
ENDBRANCH  25  49
BRANCH  37  60
ATOM     60  C   UNL A   1      46.547  26.133  28.103  1.00  0.00     0.023 A 
ATOM     61  C   UNL A   1      46.125  27.391  27.620  1.00  0.00     0.031 A 
ATOM     62  C   UNL A   1      47.669  25.536  27.501  1.00  0.00     0.131 A 
ATOM     63  C   UNL A   1      46.836  28.007  26.570  1.00  0.00     0.055 A 
ATOM     64  C   UNL A   1      48.377  26.157  26.475  1.00  0.00     0.041 A 
ATOM     65  F   UNL A   1      48.132  24.356  27.946  1.00  0.00    -0.206 F 
ATOM     66  C   UNL A   1      47.963  27.397  26.005  1.00  0.00     0.022 A 
BRANCH  63  67
ATOM     67  S   UNL A   1      46.339  29.650  25.954  1.00  0.00     0.124 S 
ATOM     68  O   UNL A   1      44.957  29.768  26.403  1.00  0.00    -0.237 OA
ATOM     69  O   UNL A   1      47.302  30.544  26.592  1.00  0.00    -0.237 OA
ATOM     70  O   UNL A   1      46.497  29.535  24.502  1.00  0.00    -0.744 OA
ENDBRANCH  63  67
ENDBRANCH  37  60
ENDBRANCH  11  12
ENDBRANCH   4   6
ENDBRANCH   1   2
BRANCH   1  71
ATOM     71  C   UNL A   1      35.633  32.808  32.561  1.00  0.00     0.042 C 
BRANCH  71  72
ATOM     72  C   UNL A   1      35.029  32.274  31.262  1.00  0.00     0.118 C 
BRANCH  72  73
ATOM     73  N   UNL A   1      34.441  33.336  30.464  1.00  0.00    -0.351 N 
ATOM     74  C   UNL A   1      34.269  33.412  29.104  1.00  0.00     0.271 C 
ATOM     75  H   UNL A   1      34.119  34.114  30.973  1.00  0.00     0.163 HD
ATOM     76  O   UNL A   1      33.966  34.503  28.620  1.00  0.00    -0.267 OA
BRANCH  74  77
ATOM     77  C   UNL A   1      34.373  32.194  28.291  1.00  0.00     0.150 A 
ATOM     78  C   UNL A   1      35.411  31.226  28.338  1.00  0.00     0.056 A 
ATOM     79  N   UNL A   1      33.392  31.808  27.453  1.00  0.00    -0.161 NA
ATOM     80  C   UNL A   1      34.948  30.169  27.595  1.00  0.00     0.118 A 
ATOM     81  N   UNL A   1      33.722  30.539  27.098  1.00  0.00    -0.222 N 
BRANCH  81  82
ATOM     82  C   UNL A   1      32.836  29.708  26.358  1.00  0.00     0.158 A 
ATOM     83  C   UNL A   1      31.836  30.299  25.612  1.00  0.00     0.078 A 
ATOM     84  N   UNL A   1      33.015  28.368  26.429  1.00  0.00    -0.209 NA
ATOM     85  C   UNL A   1      31.037  29.439  24.886  1.00  0.00     0.077 A 
ATOM     86  C   UNL A   1      32.134  27.618  25.748  1.00  0.00     0.165 A 
ATOM     87  N   UNL A   1      31.139  28.097  24.984  1.00  0.00    -0.228 NA
BRANCH  85  88
ATOM     88  C   UNL A   1      30.052  29.926  23.916  1.00  0.00     0.003 A 
ATOM     89  C   UNL A   1      29.494  31.205  24.041  1.00  0.00     0.030 A 
ATOM     90  C   UNL A   1      29.670  29.149  22.819  1.00  0.00     0.030 A 
ATOM     91  C   UNL A   1      28.586  31.639  23.089  1.00  0.00     0.111 A 
ATOM     92  C   UNL A   1      28.746  29.667  21.923  1.00  0.00     0.111 A 
ATOM     93  N   UNL A   1      28.192  30.892  22.036  1.00  0.00    -0.265 NA
ENDBRANCH  85  88
BRANCH  86  94
ATOM     94  C   UNL A   1      32.182  26.179  25.963  1.00  0.00     0.055 A 
ATOM     95  C   UNL A   1      31.006  25.450  26.224  1.00  0.00     0.015 A 
ATOM     96  C   UNL A   1      33.388  25.477  25.912  1.00  0.00     0.134 A 
ATOM     97  C   UNL A   1      31.044  24.064  26.415  1.00  0.00     0.001 A 
ATOM     98  C   UNL A   1      33.436  24.096  26.113  1.00  0.00     0.040 A 
ATOM     99  F   UNL A   1      34.541  26.124  25.686  1.00  0.00    -0.206 F 
ATOM    100  C   UNL A   1      32.261  23.389  26.361  1.00  0.00     0.003 A 
ENDBRANCH  86  94
ENDBRANCH  81  82
ENDBRANCH  74  77
ENDBRANCH  72  73
ENDBRANCH  71  72
ENDBRANCH   1  71
TORSDOF 16
ENDMDL
