MODEL 1
REMARK VINA RESULT:     -12.2      0.000      0.000
REMARK SMILES C[C@H](NC(=O)[C@@H]1CCCN(S(=O)(=O)c2ccc(Cl)cc2)C1)C(=O)NCCCNC(=O)c1ccc(-c2c3nc(c(-c4cc(S(=O)(=O)[O-])ccc4F)c4ccc([nH]4)c(-c4cc(S(=O)(=O)[O-])ccc4F)c4nc(c(-c5cc(S(=O)(=O)[O-])ccc5F)c5ccc2[nH]5)C=C4)C=C3)cc1
REMARK SMILES IDX 25 1 24 2 22 3 23 4 2 6 1 7 3 8 4 9 5 11 6 12 7 13 21 14
REMARK SMILES IDX 8 15 10 16 9 17 11 18 12 19 13 20 14 21 15 22 20 23 16 24
REMARK SMILES IDX 19 25 17 26 18 27 26 28 27 29 28 30 29 31 30 33 31 34 32 35
REMARK SMILES IDX 93 36 33 37 92 38 34 39 35 40 36 41 86 42 37 43 91 44 85 45
REMARK SMILES IDX 87 46 38 47 90 48 84 49 83 50 39 52 71 53 51 54 70 55 52 56
REMARK SMILES IDX 55 57 69 58 88 59 53 60 54 61 68 63 89 64 56 65 40 66 41 67
REMARK SMILES IDX 49 68 42 69 48 70 50 71 47 72 43 73 44 74 45 75 46 76 72 77
REMARK SMILES IDX 73 78 81 79 74 80 80 81 82 82 79 83 75 84 76 85 77 86 78 87
REMARK SMILES IDX 57 88 58 89 66 90 59 91 65 92 67 93 64 94 60 95 61 96 62 97
REMARK SMILES IDX 63 98
REMARK H PARENT 24 5 3 10 28 32 87 51 55 62
REMARK Flexibility Score: inf
ROOT
ATOM      1  C   UNL A   1      37.709  21.061  24.929  1.00  0.00     0.117 C 
ENDROOT
BRANCH   1   2
ATOM      2  N   UNL A   1      38.282  22.244  25.522  1.00  0.00    -0.354 N 
ATOM      3  C   UNL A   1      37.679  23.421  25.837  1.00  0.00     0.242 C 
ATOM      4  O   UNL A   1      38.367  24.277  26.402  1.00  0.00    -0.273 OA
ATOM      5  H   UNL A   1      39.244  22.192  25.726  1.00  0.00     0.163 HD
BRANCH   3   6
ATOM      6  C   UNL A   1      36.158  23.630  25.661  1.00  0.00     0.168 C 
ATOM      7  C   UNL A   1      35.408  22.941  26.776  1.00  0.00     0.041 C 
BRANCH   6   8
ATOM      8  N   UNL A   1      35.639  23.534  24.286  1.00  0.00    -0.344 N 
ATOM      9  C   UNL A   1      34.603  23.161  23.521  1.00  0.00     0.225 C 
ATOM     10  H   UNL A   1      36.334  23.888  23.686  1.00  0.00     0.164 HD
ATOM     11  O   UNL A   1      34.851  23.321  22.314  1.00  0.00    -0.275 OA
BRANCH   9  12
ATOM     12  C   UNL A   1      33.277  22.484  23.912  1.00  0.00     0.094 C 
ATOM     13  C   UNL A   1      32.344  22.424  22.678  1.00  0.00     0.016 C 
ATOM     14  C   UNL A   1      32.437  23.035  25.053  1.00  0.00     0.116 C 
ATOM     15  C   UNL A   1      31.798  23.812  22.351  1.00  0.00     0.018 C 
ATOM     16  N   UNL A   1      31.939  24.416  24.781  1.00  0.00    -0.197 NA
ATOM     17  C   UNL A   1      31.094  24.449  23.543  1.00  0.00     0.102 C 
BRANCH  16  18
ATOM     18  S   UNL A   1      31.147  25.082  26.172  1.00  0.00     0.243 S 
ATOM     19  O   UNL A   1      29.812  25.483  25.772  1.00  0.00    -0.207 OA
ATOM     20  O   UNL A   1      31.337  24.179  27.282  1.00  0.00    -0.207 OA
BRANCH  18  21
ATOM     21  C   UNL A   1      32.080  26.555  26.520  1.00  0.00     0.082 A 
ATOM     22  C   UNL A   1      33.391  26.670  26.047  1.00  0.00     0.023 A 
ATOM     23  C   UNL A   1      31.466  27.626  27.182  1.00  0.00     0.023 A 
ATOM     24  C   UNL A   1      34.114  27.837  26.292  1.00  0.00     0.022 A 
ATOM     25  C   UNL A   1      32.189  28.802  27.404  1.00  0.00     0.022 A 
ATOM     26  C   UNL A   1      33.511  28.898  26.967  1.00  0.00     0.041 A 
ATOM     27  Cl  UNL A   1      34.401  30.343  27.249  1.00  0.00    -0.084 Cl
ENDBRANCH  18  21
ENDBRANCH  16  18
ENDBRANCH   9  12
ENDBRANCH   6   8
ENDBRANCH   3   6
ENDBRANCH   1   2
BRANCH   1  28
ATOM     28  C   UNL A   1      38.576  19.832  25.170  1.00  0.00     0.042 C 
BRANCH  28  29
ATOM     29  C   UNL A   1      39.730  20.107  26.124  1.00  0.00     0.118 C 
BRANCH  29  30
ATOM     30  N   UNL A   1      40.787  19.108  26.011  1.00  0.00    -0.352 N 
ATOM     31  C   UNL A   1      42.146  19.294  25.929  1.00  0.00     0.251 C 
ATOM     32  H   UNL A   1      40.485  18.171  25.989  1.00  0.00     0.163 HD
ATOM     33  O   UNL A   1      42.876  18.350  25.651  1.00  0.00    -0.269 OA
BRANCH  31  34
ATOM     34  C   UNL A   1      42.703  20.644  26.150  1.00  0.00     0.039 A 
ATOM     35  C   UNL A   1      43.079  21.415  25.048  1.00  0.00     0.014 A 
ATOM     36  C   UNL A   1      42.812  21.156  27.445  1.00  0.00     0.014 A 
ATOM     37  C   UNL A   1      43.493  22.734  25.242  1.00  0.00     0.010 A 
ATOM     38  C   UNL A   1      43.146  22.491  27.628  1.00  0.00     0.010 A 
ATOM     39  C   UNL A   1      43.488  23.295  26.530  1.00  0.00    -0.014 A 
BRANCH  39  40
ATOM     40  C   UNL A   1      43.842  24.716  26.770  1.00  0.00     0.031 A 
ATOM     41  C   UNL A   1      45.267  25.162  26.592  1.00  0.00     0.074 A 
ATOM     42  C   UNL A   1      42.913  25.570  27.244  1.00  0.00     0.049 A 
ATOM     43  N   UNL A   1      45.828  26.297  26.914  1.00  0.00    -0.248 NA
ATOM     44  C   UNL A   1      46.193  24.176  26.011  1.00  0.00     0.031 C 
ATOM     45  C   UNL A   1      41.507  25.240  27.485  1.00  0.00     0.029 A 
ATOM     46  N   UNL A   1      43.016  26.883  27.630  1.00  0.00    -0.354 N 
ATOM     47  C   UNL A   1      47.176  26.156  26.600  1.00  0.00     0.074 A 
ATOM     48  C   UNL A   1      47.354  24.802  26.119  1.00  0.00     0.031 C 
ATOM     49  C   UNL A   1      40.877  26.325  27.964  1.00  0.00     0.029 A 
ATOM     50  C   UNL A   1      41.843  27.409  28.119  1.00  0.00     0.049 A 
ATOM     51  H   UNL A   1      43.852  27.399  27.564  1.00  0.00     0.167 HD
ATOM     52  C   UNL A   1      48.166  27.076  26.687  1.00  0.00     0.034 A 
ATOM     53  C   UNL A   1      41.581  28.618  28.653  1.00  0.00     0.034 A 
ATOM     54  C   UNL A   1      47.960  28.426  27.151  1.00  0.00     0.049 A 
ATOM     55  C   UNL A   1      42.703  29.621  28.762  1.00  0.00     0.074 A 
ATOM     56  C   UNL A   1      48.876  29.459  27.234  1.00  0.00     0.029 A 
ATOM     57  N   UNL A   1      46.750  28.930  27.615  1.00  0.00    -0.354 N 
ATOM     58  N   UNL A   1      43.967  29.484  28.432  1.00  0.00    -0.248 NA
ATOM     59  C   UNL A   1      42.364  30.942  29.308  1.00  0.00     0.031 C 
ATOM     60  C   UNL A   1      48.240  30.565  27.807  1.00  0.00     0.029 A 
ATOM     61  C   UNL A   1      46.905  30.250  28.008  1.00  0.00     0.049 A 
ATOM     62  H   UNL A   1      45.908  28.422  27.659  1.00  0.00     0.167 HD
ATOM     63  C   UNL A   1      44.562  30.715  28.691  1.00  0.00     0.074 A 
ATOM     64  C   UNL A   1      43.521  31.580  29.204  1.00  0.00     0.031 C 
ATOM     65  C   UNL A   1      45.851  31.099  28.511  1.00  0.00     0.034 A 
BRANCH  52  66
ATOM     66  C   UNL A   1      49.559  26.640  26.297  1.00  0.00     0.023 A 
ATOM     67  C   UNL A   1      50.169  27.089  25.113  1.00  0.00     0.031 A 
ATOM     68  C   UNL A   1      50.274  25.735  27.100  1.00  0.00     0.131 A 
ATOM     69  C   UNL A   1      51.413  26.571  24.724  1.00  0.00     0.055 A 
ATOM     70  C   UNL A   1      51.552  25.290  26.753  1.00  0.00     0.041 A 
ATOM     71  F   UNL A   1      49.736  25.251  28.232  1.00  0.00    -0.206 F 
ATOM     72  C   UNL A   1      52.122  25.695  25.550  1.00  0.00     0.022 A 
BRANCH  69  73
ATOM     73  S   UNL A   1      52.019  26.940  23.055  1.00  0.00     0.124 S 
ATOM     74  O   UNL A   1      52.542  28.294  23.225  1.00  0.00    -0.237 OA
ATOM     75  O   UNL A   1      53.012  25.894  22.841  1.00  0.00    -0.237 OA
ATOM     76  O   UNL A   1      50.820  26.842  22.226  1.00  0.00    -0.744 OA
ENDBRANCH  69  73
ENDBRANCH  52  66
BRANCH  53  77
ATOM     77  C   UNL A   1      40.211  28.950  29.138  1.00  0.00     0.023 A 
ATOM     78  C   UNL A   1      39.876  28.826  30.495  1.00  0.00     0.031 A 
ATOM     79  C   UNL A   1      39.204  29.363  28.248  1.00  0.00     0.131 A 
ATOM     80  C   UNL A   1      38.559  29.064  30.917  1.00  0.00     0.055 A 
ATOM     81  C   UNL A   1      37.908  29.653  28.681  1.00  0.00     0.041 A 
ATOM     82  F   UNL A   1      39.470  29.505  26.940  1.00  0.00    -0.206 F 
ATOM     83  C   UNL A   1      37.577  29.491  30.022  1.00  0.00     0.022 A 
BRANCH  80  84
ATOM     84  S   UNL A   1      38.128  28.725  32.647  1.00  0.00     0.124 S 
ATOM     85  O   UNL A   1      36.798  29.315  32.742  1.00  0.00    -0.237 OA
ATOM     86  O   UNL A   1      38.191  27.268  32.695  1.00  0.00    -0.237 OA
ATOM     87  O   UNL A   1      39.174  29.417  33.399  1.00  0.00    -0.744 OA
ENDBRANCH  80  84
ENDBRANCH  53  77
BRANCH  65  88
ATOM     88  C   UNL A   1      46.191  32.540  28.801  1.00  0.00     0.023 A 
ATOM     89  C   UNL A   1      46.028  33.554  27.843  1.00  0.00     0.031 A 
ATOM     90  C   UNL A   1      46.667  32.900  30.075  1.00  0.00     0.131 A 
ATOM     91  C   UNL A   1      46.373  34.875  28.162  1.00  0.00     0.055 A 
ATOM     92  C   UNL A   1      46.958  34.223  30.404  1.00  0.00     0.041 A 
ATOM     93  F   UNL A   1      46.843  31.968  31.026  1.00  0.00    -0.206 F 
ATOM     94  C   UNL A   1      46.821  35.219  29.442  1.00  0.00     0.022 A 
BRANCH  91  95
ATOM     95  S   UNL A   1      46.293  36.138  26.862  1.00  0.00     0.124 S 
ATOM     96  O   UNL A   1      44.855  36.362  26.746  1.00  0.00    -0.237 OA
ATOM     97  O   UNL A   1      47.063  37.234  27.443  1.00  0.00    -0.237 OA
ATOM     98  O   UNL A   1      46.915  35.487  25.712  1.00  0.00    -0.744 OA
ENDBRANCH  91  95
ENDBRANCH  65  88
ENDBRANCH  39  40
ENDBRANCH  31  34
ENDBRANCH  29  30
ENDBRANCH  28  29
ENDBRANCH   1  28
TORSDOF 17
ENDMDL
MODEL 2
REMARK VINA RESULT:     -12.1      1.001      7.673
REMARK SMILES C[C@H](NC(=O)[C@@H]1CCCN(S(=O)(=O)c2ccc(Cl)cc2)C1)C(=O)NCCCNC(=O)c1ccc(-c2c3nc(c(-c4cc(S(=O)(=O)[O-])ccc4F)c4ccc([nH]4)c(-c4cc(S(=O)(=O)[O-])ccc4F)c4nc(c(-c5cc(S(=O)(=O)[O-])ccc5F)c5ccc2[nH]5)C=C4)C=C3)cc1
REMARK SMILES IDX 25 1 24 2 22 3 23 4 2 6 1 7 3 8 4 9 5 11 6 12 7 13 21 14
REMARK SMILES IDX 8 15 10 16 9 17 11 18 12 19 13 20 14 21 15 22 20 23 16 24
REMARK SMILES IDX 19 25 17 26 18 27 26 28 27 29 28 30 29 31 30 33 31 34 32 35
REMARK SMILES IDX 93 36 33 37 92 38 34 39 35 40 36 41 86 42 37 43 91 44 85 45
REMARK SMILES IDX 87 46 38 47 90 48 84 49 83 50 39 52 71 53 51 54 70 55 52 56
REMARK SMILES IDX 55 57 69 58 88 59 53 60 54 61 68 63 89 64 56 65 40 66 41 67
REMARK SMILES IDX 49 68 42 69 48 70 50 71 47 72 43 73 44 74 45 75 46 76 72 77
REMARK SMILES IDX 73 78 81 79 74 80 80 81 82 82 79 83 75 84 76 85 77 86 78 87
REMARK SMILES IDX 57 88 58 89 66 90 59 91 65 92 67 93 64 94 60 95 61 96 62 97
REMARK SMILES IDX 63 98
REMARK H PARENT 24 5 3 10 28 32 87 51 55 62
REMARK Flexibility Score: inf
ROOT
ATOM      1  C   UNL A   1      36.840  21.869  25.265  1.00  0.00     0.117 C 
ENDROOT
BRANCH   1   2
ATOM      2  N   UNL A   1      35.999  21.742  26.430  1.00  0.00    -0.354 N 
ATOM      3  C   UNL A   1      34.647  21.619  26.498  1.00  0.00     0.242 C 
ATOM      4  O   UNL A   1      34.149  21.458  27.617  1.00  0.00    -0.273 OA
ATOM      5  H   UNL A   1      36.469  21.744  27.294  1.00  0.00     0.163 HD
BRANCH   3   6
ATOM      6  C   UNL A   1      33.773  21.509  25.229  1.00  0.00     0.168 C 
ATOM      7  C   UNL A   1      33.312  20.084  25.038  1.00  0.00     0.041 C 
BRANCH   6   8
ATOM      8  N   UNL A   1      34.223  22.277  24.056  1.00  0.00    -0.344 N 
ATOM      9  C   UNL A   1      33.861  23.142  23.097  1.00  0.00     0.225 C 
ATOM     10  H   UNL A   1      35.176  22.072  23.920  1.00  0.00     0.164 HD
ATOM     11  O   UNL A   1      34.801  23.373  22.317  1.00  0.00    -0.275 OA
BRANCH   9  12
ATOM     12  C   UNL A   1      32.483  23.750  22.781  1.00  0.00     0.094 C 
ATOM     13  C   UNL A   1      32.635  24.839  21.692  1.00  0.00     0.016 C 
ATOM     14  C   UNL A   1      31.642  24.369  23.886  1.00  0.00     0.116 C 
ATOM     15  C   UNL A   1      33.303  26.085  22.271  1.00  0.00     0.018 C 
ATOM     16  N   UNL A   1      32.300  25.556  24.508  1.00  0.00    -0.197 NA
ATOM     17  C   UNL A   1      32.559  26.623  23.487  1.00  0.00     0.102 C 
BRANCH  16  18
ATOM     18  S   UNL A   1      31.406  26.121  25.882  1.00  0.00     0.243 S 
ATOM     19  O   UNL A   1      30.102  26.553  25.415  1.00  0.00    -0.207 OA
ATOM     20  O   UNL A   1      31.517  25.138  26.934  1.00  0.00    -0.207 OA
BRANCH  18  21
ATOM     21  C   UNL A   1      32.306  27.563  26.404  1.00  0.00     0.082 A 
ATOM     22  C   UNL A   1      33.704  27.535  26.423  1.00  0.00     0.023 A 
ATOM     23  C   UNL A   1      31.614  28.743  26.703  1.00  0.00     0.023 A 
ATOM     24  C   UNL A   1      34.413  28.674  26.802  1.00  0.00     0.022 A 
ATOM     25  C   UNL A   1      32.332  29.888  27.060  1.00  0.00     0.022 A 
ATOM     26  C   UNL A   1      33.725  29.846  27.117  1.00  0.00     0.041 A 
ATOM     27  Cl  UNL A   1      34.606  31.255  27.565  1.00  0.00    -0.084 Cl
ENDBRANCH  18  21
ENDBRANCH  16  18
ENDBRANCH   9  12
ENDBRANCH   6   8
ENDBRANCH   3   6
ENDBRANCH   1   2
BRANCH   1  28
ATOM     28  C   UNL A   1      37.835  20.721  25.158  1.00  0.00     0.042 C 
BRANCH  28  29
ATOM     29  C   UNL A   1      39.033  20.897  26.082  1.00  0.00     0.118 C 
BRANCH  29  30
ATOM     30  N   UNL A   1      39.938  19.755  26.030  1.00  0.00    -0.352 N 
ATOM     31  C   UNL A   1      41.312  19.738  26.070  1.00  0.00     0.251 C 
ATOM     32  H   UNL A   1      39.506  18.873  25.957  1.00  0.00     0.163 HD
ATOM     33  O   UNL A   1      41.918  18.700  25.828  1.00  0.00    -0.269 OA
BRANCH  31  34
ATOM     34  C   UNL A   1      42.038  20.987  26.374  1.00  0.00     0.039 A 
ATOM     35  C   UNL A   1      42.360  21.860  25.333  1.00  0.00     0.014 A 
ATOM     36  C   UNL A   1      42.362  21.308  27.695  1.00  0.00     0.014 A 
ATOM     37  C   UNL A   1      42.940  23.096  25.627  1.00  0.00     0.010 A 
ATOM     38  C   UNL A   1      42.863  22.568  27.991  1.00  0.00     0.010 A 
ATOM     39  C   UNL A   1      43.155  23.476  26.962  1.00  0.00    -0.014 A 
BRANCH  39  40
ATOM     40  C   UNL A   1      43.693  24.812  27.322  1.00  0.00     0.031 A 
ATOM     41  C   UNL A   1      42.758  25.865  27.850  1.00  0.00     0.074 A 
ATOM     42  C   UNL A   1      44.984  25.105  27.076  1.00  0.00     0.049 A 
ATOM     43  N   UNL A   1      42.975  27.138  28.057  1.00  0.00    -0.248 NA
ATOM     44  C   UNL A   1      41.383  25.432  28.144  1.00  0.00     0.031 C 
ATOM     45  C   UNL A   1      45.975  24.172  26.535  1.00  0.00     0.029 A 
ATOM     46  N   UNL A   1      45.682  26.278  27.227  1.00  0.00    -0.354 N 
ATOM     47  C   UNL A   1      41.758  27.663  28.481  1.00  0.00     0.074 A 
ATOM     48  C   UNL A   1      40.797  26.581  28.441  1.00  0.00     0.031 C 
ATOM     49  C   UNL A   1      47.154  24.804  26.413  1.00  0.00     0.029 A 
ATOM     50  C   UNL A   1      46.991  26.199  26.811  1.00  0.00     0.049 A 
ATOM     51  H   UNL A   1      45.283  27.097  27.596  1.00  0.00     0.167 HD
ATOM     52  C   UNL A   1      41.476  28.926  28.883  1.00  0.00     0.034 A 
ATOM     53  C   UNL A   1      47.945  27.149  26.736  1.00  0.00     0.034 A 
ATOM     54  C   UNL A   1      42.456  29.984  28.932  1.00  0.00     0.049 A 
ATOM     55  C   UNL A   1      47.604  28.554  27.166  1.00  0.00     0.074 A 
ATOM     56  C   UNL A   1      42.298  31.286  29.370  1.00  0.00     0.029 A 
ATOM     57  N   UNL A   1      43.779  29.859  28.525  1.00  0.00    -0.354 N 
ATOM     58  N   UNL A   1      46.457  29.030  27.595  1.00  0.00    -0.248 NA
ATOM     59  C   UNL A   1      48.685  29.548  27.111  1.00  0.00     0.031 C 
ATOM     60  C   UNL A   1      43.504  31.966  29.168  1.00  0.00     0.029 A 
ATOM     61  C   UNL A   1      44.440  31.067  28.680  1.00  0.00     0.049 A 
ATOM     62  H   UNL A   1      44.187  29.033  28.178  1.00  0.00     0.167 HD
ATOM     63  C   UNL A   1      46.692  30.368  27.900  1.00  0.00     0.074 A 
ATOM     64  C   UNL A   1      48.087  30.622  27.606  1.00  0.00     0.031 C 
ATOM     65  C   UNL A   1      45.834  31.299  28.389  1.00  0.00     0.034 A 
BRANCH  52  66
ATOM     66  C   UNL A   1      40.049  29.231  29.272  1.00  0.00     0.023 A 
ATOM     67  C   UNL A   1      39.644  29.277  30.617  1.00  0.00     0.031 A 
ATOM     68  C   UNL A   1      39.070  29.443  28.285  1.00  0.00     0.131 A 
ATOM     69  C   UNL A   1      38.289  29.445  30.938  1.00  0.00     0.055 A 
ATOM     70  C   UNL A   1      37.736  29.699  28.612  1.00  0.00     0.041 A 
ATOM     71  F   UNL A   1      39.389  29.389  26.982  1.00  0.00    -0.206 F 
ATOM     72  C   UNL A   1      37.336  29.684  29.945  1.00  0.00     0.022 A 
BRANCH  69  73
ATOM     73  S   UNL A   1      37.770  29.193  32.657  1.00  0.00     0.124 S 
ATOM     74  O   UNL A   1      38.814  29.910  33.387  1.00  0.00    -0.237 OA
ATOM     75  O   UNL A   1      36.444  29.800  32.679  1.00  0.00    -0.237 OA
ATOM     76  O   UNL A   1      37.795  27.741  32.813  1.00  0.00    -0.744 OA
ENDBRANCH  69  73
ENDBRANCH  52  66
BRANCH  53  77
ATOM     77  C   UNL A   1      49.305  26.817  26.223  1.00  0.00     0.023 A 
ATOM     78  C   UNL A   1      49.764  27.339  25.004  1.00  0.00     0.031 A 
ATOM     79  C   UNL A   1      50.154  25.944  26.926  1.00  0.00     0.131 A 
ATOM     80  C   UNL A   1      51.014  26.948  24.500  1.00  0.00     0.055 A 
ATOM     81  C   UNL A   1      51.421  25.601  26.448  1.00  0.00     0.041 A 
ATOM     82  F   UNL A   1      49.769  25.420  28.100  1.00  0.00    -0.206 F 
ATOM     83  C   UNL A   1      51.851  26.094  25.220  1.00  0.00     0.022 A 
BRANCH  80  84
ATOM     84  S   UNL A   1      51.495  27.509  22.843  1.00  0.00     0.124 S 
ATOM     85  O   UNL A   1      52.936  27.285  22.861  1.00  0.00    -0.237 OA
ATOM     86  O   UNL A   1      50.717  26.621  21.985  1.00  0.00    -0.237 OA
ATOM     87  O   UNL A   1      51.080  28.910  22.825  1.00  0.00    -0.744 OA
ENDBRANCH  80  84
ENDBRANCH  53  77
BRANCH  65  88
ATOM     88  C   UNL A   1      46.400  32.661  28.707  1.00  0.00     0.023 A 
ATOM     89  C   UNL A   1      46.389  33.711  27.775  1.00  0.00     0.031 A 
ATOM     90  C   UNL A   1      46.940  32.909  29.982  1.00  0.00     0.131 A 
ATOM     91  C   UNL A   1      46.942  34.953  28.119  1.00  0.00     0.055 A 
ATOM     92  C   UNL A   1      47.440  34.162  30.337  1.00  0.00     0.041 A 
ATOM     93  F   UNL A   1      46.976  31.938  30.910  1.00  0.00    -0.206 F 
ATOM     94  C   UNL A   1      47.451  35.190  29.400  1.00  0.00     0.022 A 
BRANCH  91  95
ATOM     95  S   UNL A   1      47.049  36.245  26.850  1.00  0.00     0.124 S 
ATOM     96  O   UNL A   1      45.650  36.630  26.691  1.00  0.00    -0.237 OA
ATOM     97  O   UNL A   1      47.914  37.236  27.484  1.00  0.00    -0.237 OA
ATOM     98  O   UNL A   1      47.638  35.553  25.705  1.00  0.00    -0.744 OA
ENDBRANCH  91  95
ENDBRANCH  65  88
ENDBRANCH  39  40
ENDBRANCH  31  34
ENDBRANCH  29  30
ENDBRANCH  28  29
ENDBRANCH   1  28
TORSDOF 17
ENDMDL
MODEL 3
REMARK VINA RESULT:     -12.0      2.364      3.243
REMARK SMILES C[C@H](NC(=O)[C@@H]1CCCN(S(=O)(=O)c2ccc(Cl)cc2)C1)C(=O)NCCCNC(=O)c1ccc(-c2c3nc(c(-c4cc(S(=O)(=O)[O-])ccc4F)c4ccc([nH]4)c(-c4cc(S(=O)(=O)[O-])ccc4F)c4nc(c(-c5cc(S(=O)(=O)[O-])ccc5F)c5ccc2[nH]5)C=C4)C=C3)cc1
REMARK SMILES IDX 25 1 24 2 22 3 23 4 2 6 1 7 3 8 4 9 5 11 6 12 7 13 21 14
REMARK SMILES IDX 8 15 10 16 9 17 11 18 12 19 13 20 14 21 15 22 20 23 16 24
REMARK SMILES IDX 19 25 17 26 18 27 26 28 27 29 28 30 29 31 30 33 31 34 32 35
REMARK SMILES IDX 93 36 33 37 92 38 34 39 35 40 36 41 86 42 37 43 91 44 85 45
REMARK SMILES IDX 87 46 38 47 90 48 84 49 83 50 39 52 71 53 51 54 70 55 52 56
REMARK SMILES IDX 55 57 69 58 88 59 53 60 54 61 68 63 89 64 56 65 40 66 41 67
REMARK SMILES IDX 49 68 42 69 48 70 50 71 47 72 43 73 44 74 45 75 46 76 72 77
REMARK SMILES IDX 73 78 81 79 74 80 80 81 82 82 79 83 75 84 76 85 77 86 78 87
REMARK SMILES IDX 57 88 58 89 66 90 59 91 65 92 67 93 64 94 60 95 61 96 62 97
REMARK SMILES IDX 63 98
REMARK H PARENT 24 5 3 10 28 32 87 51 55 62
REMARK Flexibility Score: inf
ROOT
ATOM      1  C   UNL A   1      35.190  22.862  26.009  1.00  0.00     0.117 C 
ENDROOT
BRANCH   1   2
ATOM      2  N   UNL A   1      34.496  22.637  27.253  1.00  0.00    -0.354 N 
ATOM      3  C   UNL A   1      33.159  22.639  27.499  1.00  0.00     0.242 C 
ATOM      4  O   UNL A   1      32.793  22.356  28.644  1.00  0.00    -0.273 OA
ATOM      5  H   UNL A   1      35.071  22.458  28.032  1.00  0.00     0.163 HD
BRANCH   3   6
ATOM      6  C   UNL A   1      32.123  22.816  26.367  1.00  0.00     0.168 C 
ATOM      7  C   UNL A   1      30.739  22.968  26.951  1.00  0.00     0.041 C 
BRANCH   6   8
ATOM      8  N   UNL A   1      32.305  21.972  25.174  1.00  0.00    -0.344 N 
ATOM      9  C   UNL A   1      32.246  21.926  23.835  1.00  0.00     0.225 C 
ATOM     10  H   UNL A   1      32.582  21.081  25.485  1.00  0.00     0.164 HD
ATOM     11  O   UNL A   1      32.501  20.786  23.409  1.00  0.00    -0.275 OA
BRANCH   9  12
ATOM     12  C   UNL A   1      31.808  23.003  22.825  1.00  0.00     0.094 C 
ATOM     13  C   UNL A   1      33.059  23.700  22.237  1.00  0.00     0.016 C 
ATOM     14  C   UNL A   1      30.861  24.115  23.246  1.00  0.00     0.116 C 
ATOM     15  C   UNL A   1      33.700  24.616  23.278  1.00  0.00     0.018 C 
ATOM     16  N   UNL A   1      31.443  24.991  24.306  1.00  0.00    -0.197 NA
ATOM     17  C   UNL A   1      32.712  25.635  23.833  1.00  0.00     0.102 C 
BRANCH  16  18
ATOM     18  S   UNL A   1      30.272  26.127  24.893  1.00  0.00     0.243 S 
ATOM     19  O   UNL A   1      29.545  26.645  23.750  1.00  0.00    -0.207 OA
ATOM     20  O   UNL A   1      29.564  25.524  25.998  1.00  0.00    -0.207 OA
BRANCH  18  21
ATOM     21  C   UNL A   1      31.264  27.446  25.554  1.00  0.00     0.082 A 
ATOM     22  C   UNL A   1      31.333  28.666  24.872  1.00  0.00     0.023 A 
ATOM     23  C   UNL A   1      31.892  27.289  26.796  1.00  0.00     0.023 A 
ATOM     24  C   UNL A   1      32.085  29.713  25.404  1.00  0.00     0.022 A 
ATOM     25  C   UNL A   1      32.624  28.351  27.334  1.00  0.00     0.022 A 
ATOM     26  C   UNL A   1      32.726  29.553  26.632  1.00  0.00     0.041 A 
ATOM     27  Cl  UNL A   1      33.635  30.855  27.293  1.00  0.00    -0.084 Cl
ENDBRANCH  18  21
ENDBRANCH  16  18
ENDBRANCH   9  12
ENDBRANCH   6   8
ENDBRANCH   3   6
ENDBRANCH   1   2
BRANCH   1  28
ATOM     28  C   UNL A   1      35.823  21.583  25.476  1.00  0.00     0.042 C 
BRANCH  28  29
ATOM     29  C   UNL A   1      37.253  21.792  24.997  1.00  0.00     0.118 C 
BRANCH  29  30
ATOM     30  N   UNL A   1      38.155  20.760  25.493  1.00  0.00    -0.352 N 
ATOM     31  C   UNL A   1      39.364  20.902  26.130  1.00  0.00     0.251 C 
ATOM     32  H   UNL A   1      37.857  19.831  25.351  1.00  0.00     0.163 HD
ATOM     33  O   UNL A   1      40.078  19.922  26.312  1.00  0.00    -0.269 OA
BRANCH  31  34
ATOM     34  C   UNL A   1      39.798  22.247  26.558  1.00  0.00     0.039 A 
ATOM     35  C   UNL A   1      40.892  22.369  27.417  1.00  0.00     0.014 A 
ATOM     36  C   UNL A   1      39.146  23.384  26.075  1.00  0.00     0.014 A 
ATOM     37  C   UNL A   1      41.382  23.639  27.729  1.00  0.00     0.010 A 
ATOM     38  C   UNL A   1      39.682  24.640  26.321  1.00  0.00     0.010 A 
ATOM     39  C   UNL A   1      40.807  24.781  27.149  1.00  0.00    -0.014 A 
BRANCH  39  40
ATOM     40  C   UNL A   1      41.347  26.143  27.391  1.00  0.00     0.031 A 
ATOM     41  C   UNL A   1      42.709  26.500  26.864  1.00  0.00     0.074 A 
ATOM     42  C   UNL A   1      40.664  27.009  28.164  1.00  0.00     0.049 A 
ATOM     43  N   UNL A   1      43.442  27.555  27.106  1.00  0.00    -0.248 NA
ATOM     44  C   UNL A   1      43.348  25.512  25.979  1.00  0.00     0.031 C 
ATOM     45  C   UNL A   1      39.347  26.760  28.755  1.00  0.00     0.029 A 
ATOM     46  N   UNL A   1      40.991  28.267  28.605  1.00  0.00    -0.354 N 
ATOM     47  C   UNL A   1      44.638  27.348  26.425  1.00  0.00     0.074 A 
ATOM     48  C   UNL A   1      44.551  26.040  25.813  1.00  0.00     0.031 C 
ATOM     49  C   UNL A   1      38.975  27.834  29.469  1.00  0.00     0.029 A 
ATOM     50  C   UNL A   1      40.046  28.825  29.435  1.00  0.00     0.049 A 
ATOM     51  H   UNL A   1      41.825  28.726  28.353  1.00  0.00     0.167 HD
ATOM     52  C   UNL A   1      45.699  28.182  26.308  1.00  0.00     0.034 A 
ATOM     53  C   UNL A   1      40.053  29.991  30.111  1.00  0.00     0.034 A 
ATOM     54  C   UNL A   1      45.754  29.491  26.912  1.00  0.00     0.049 A 
ATOM     55  C   UNL A   1      41.255  30.895  29.985  1.00  0.00     0.074 A 
ATOM     56  C   UNL A   1      46.754  30.442  26.820  1.00  0.00     0.029 A 
ATOM     57  N   UNL A   1      44.766  30.032  27.726  1.00  0.00    -0.354 N 
ATOM     58  N   UNL A   1      42.366  30.700  29.312  1.00  0.00    -0.248 NA
ATOM     59  C   UNL A   1      41.201  32.176  30.702  1.00  0.00     0.031 C 
ATOM     60  C   UNL A   1      46.402  31.529  27.628  1.00  0.00     0.029 A 
ATOM     61  C   UNL A   1      45.145  31.292  28.161  1.00  0.00     0.049 A 
ATOM     62  H   UNL A   1      43.921  29.584  27.960  1.00  0.00     0.167 HD
ATOM     63  C   UNL A   1      43.124  31.854  29.491  1.00  0.00     0.074 A 
ATOM     64  C   UNL A   1      42.345  32.737  30.334  1.00  0.00     0.031 C 
ATOM     65  C   UNL A   1      44.350  32.161  28.995  1.00  0.00     0.034 A 
BRANCH  52  66
ATOM     66  C   UNL A   1      46.889  27.688  25.520  1.00  0.00     0.023 A 
ATOM     67  C   UNL A   1      47.108  28.081  24.188  1.00  0.00     0.031 A 
ATOM     68  C   UNL A   1      47.799  26.783  26.095  1.00  0.00     0.131 A 
ATOM     69  C   UNL A   1      48.156  27.510  23.451  1.00  0.00     0.055 A 
ATOM     70  C   UNL A   1      48.894  26.286  25.384  1.00  0.00     0.041 A 
ATOM     71  F   UNL A   1      47.632  26.352  27.356  1.00  0.00    -0.206 F 
ATOM     72  C   UNL A   1      49.068  26.635  24.048  1.00  0.00     0.022 A 
BRANCH  69  73
ATOM     73  S   UNL A   1      48.217  27.808  21.664  1.00  0.00     0.124 S 
ATOM     74  O   UNL A   1      48.475  26.464  21.150  1.00  0.00    -0.237 OA
ATOM     75  O   UNL A   1      46.894  28.354  21.389  1.00  0.00    -0.237 OA
ATOM     76  O   UNL A   1      49.325  28.749  21.511  1.00  0.00    -0.744 OA
ENDBRANCH  69  73
ENDBRANCH  52  66
BRANCH  53  77
ATOM     77  C   UNL A   1      38.900  30.371  30.976  1.00  0.00     0.023 A 
ATOM     78  C   UNL A   1      37.885  31.214  30.497  1.00  0.00     0.031 A 
ATOM     79  C   UNL A   1      38.812  29.927  32.307  1.00  0.00     0.131 A 
ATOM     80  C   UNL A   1      36.853  31.625  31.354  1.00  0.00     0.055 A 
ATOM     81  C   UNL A   1      37.753  30.294  33.140  1.00  0.00     0.041 A 
ATOM     82  F   UNL A   1      39.752  29.114  32.816  1.00  0.00    -0.206 F 
ATOM     83  C   UNL A   1      36.772  31.160  32.668  1.00  0.00     0.022 A 
BRANCH  80  84
ATOM     84  S   UNL A   1      35.659  32.850  30.748  1.00  0.00     0.124 S 
ATOM     85  O   UNL A   1      36.268  34.100  31.188  1.00  0.00    -0.237 OA
ATOM     86  O   UNL A   1      35.671  32.599  29.311  1.00  0.00    -0.237 OA
ATOM     87  O   UNL A   1      34.420  32.484  31.433  1.00  0.00    -0.744 OA
ENDBRANCH  80  84
ENDBRANCH  53  77
BRANCH  65  88
ATOM     88  C   UNL A   1      44.891  33.537  29.290  1.00  0.00     0.023 A 
ATOM     89  C   UNL A   1      44.626  34.638  28.459  1.00  0.00     0.031 A 
ATOM     90  C   UNL A   1      45.670  33.747  30.443  1.00  0.00     0.131 A 
ATOM     91  C   UNL A   1      45.167  35.894  28.773  1.00  0.00     0.055 A 
ATOM     92  C   UNL A   1      46.160  35.008  30.779  1.00  0.00     0.041 A 
ATOM     93  F   UNL A   1      45.954  32.727  31.270  1.00  0.00    -0.206 F 
ATOM     94  C   UNL A   1      45.918  36.089  29.937  1.00  0.00     0.022 A 
BRANCH  91  95
ATOM     95  S   UNL A   1      44.934  37.263  27.607  1.00  0.00     0.124 S 
ATOM     96  O   UNL A   1      46.079  37.101  26.716  1.00  0.00    -0.237 OA
ATOM     97  O   UNL A   1      43.628  36.962  27.028  1.00  0.00    -0.237 OA
ATOM     98  O   UNL A   1      44.973  38.450  28.459  1.00  0.00    -0.744 OA
ENDBRANCH  91  95
ENDBRANCH  65  88
ENDBRANCH  39  40
ENDBRANCH  31  34
ENDBRANCH  29  30
ENDBRANCH  28  29
ENDBRANCH   1  28
TORSDOF 17
ENDMDL
