MODEL 1
REMARK VINA RESULT:     -10.5      0.000      0.000
REMARK SMILES C[NH2+][C@](C)(CCSc1ccncc1)C(=O)NCCCNC(=O)c1ccc(-c2c3nc(c(-c4cc(S(=O)(=O)[O-])ccc4F)c4ccc([nH]4)c(-c4cc(S(=O)(=O)[O-])ccc4F)c4nc(c(-c5cc(S(=O)(=O)[O-])ccc5F)c5ccc2[nH]5)C=C4)C=C3)cc1
REMARK SMILES IDX 17 1 16 2 14 3 15 4 3 6 4 7 2 8 1 9 5 12 6 13 7 14 8 15 9 16
REMARK SMILES IDX 13 17 10 18 12 19 11 20 18 21 19 22 20 23 21 24 22 26 23 27
REMARK SMILES IDX 24 28 85 29 25 30 84 31 26 32 27 33 28 34 78 35 29 36 83 37
REMARK SMILES IDX 77 38 79 39 30 40 82 41 76 42 75 43 31 45 63 46 43 47 62 48
REMARK SMILES IDX 44 49 47 50 61 51 80 52 45 53 46 54 60 56 81 57 48 58 32 59
REMARK SMILES IDX 33 60 41 61 34 62 40 63 42 64 39 65 35 66 36 67 37 68 38 69
REMARK SMILES IDX 64 70 65 71 73 72 66 73 72 74 74 75 71 76 67 77 68 78 69 79
REMARK SMILES IDX 70 80 49 81 50 82 58 83 51 84 57 85 59 86 56 87 52 88 53 89
REMARK SMILES IDX 54 90 55 91
REMARK H PARENT 16 5 2 10 2 11 20 25 79 44 47 55
REMARK Flexibility Score: inf
ROOT
ATOM      1  C   UNL A   1      37.472  20.469  24.339  1.00  0.00     0.118 C 
ENDROOT
BRANCH   1   2
ATOM      2  N   UNL A   1      37.655  21.863  24.714  1.00  0.00    -0.351 N 
ATOM      3  C   UNL A   1      36.864  22.736  25.420  1.00  0.00     0.281 C 
ATOM      4  O   UNL A   1      37.403  23.712  25.945  1.00  0.00    -0.268 OA
ATOM      5  H   UNL A   1      38.504  22.254  24.403  1.00  0.00     0.163 HD
BRANCH   3   6
ATOM      6  C   UNL A   1      35.355  22.469  25.598  1.00  0.00     0.173 C 
ATOM      7  C   UNL A   1      34.559  23.719  26.048  1.00  0.00     0.090 C 
BRANCH   6   8
ATOM      8  N   UNL A   1      35.148  21.503  26.727  1.00  0.00    -0.336 N 
ATOM      9  C   UNL A   1      34.157  21.980  27.709  1.00  0.00     0.331 C 
ATOM     10  H   UNL A   1      34.824  20.615  26.342  1.00  0.00     0.346 HD
ATOM     11  H   UNL A   1      36.039  21.400  27.213  1.00  0.00     0.346 HD
ENDBRANCH   6   8
BRANCH   6  12
ATOM     12  C   UNL A   1      34.780  22.035  24.214  1.00  0.00     0.090 C 
BRANCH  12  13
ATOM     13  C   UNL A   1      33.228  22.154  24.039  1.00  0.00     0.082 C 
BRANCH  13  14
ATOM     14  S   UNL A   1      32.121  20.956  24.931  1.00  0.00    -0.126 SA
BRANCH  14  15
ATOM     15  C   UNL A   1      32.539  19.345  24.256  1.00  0.00     0.010 A 
ATOM     16  C   UNL A   1      32.352  19.027  22.915  1.00  0.00     0.035 A 
ATOM     17  C   UNL A   1      32.983  18.327  25.104  1.00  0.00     0.035 A 
ATOM     18  C   UNL A   1      32.722  17.760  22.475  1.00  0.00     0.112 A 
ATOM     19  C   UNL A   1      33.406  17.123  24.562  1.00  0.00     0.112 A 
ATOM     20  N   UNL A   1      33.283  16.814  23.258  1.00  0.00    -0.265 NA
ENDBRANCH  14  15
ENDBRANCH  13  14
ENDBRANCH  12  13
ENDBRANCH   6  12
ENDBRANCH   3   6
ENDBRANCH   1   2
BRANCH   1  21
ATOM     21  C   UNL A   1      38.185  19.448  25.216  1.00  0.00     0.042 C 
BRANCH  21  22
ATOM     22  C   UNL A   1      39.347  20.001  26.028  1.00  0.00     0.118 C 
BRANCH  22  23
ATOM     23  N   UNL A   1      40.530  19.158  25.958  1.00  0.00    -0.352 N 
ATOM     24  C   UNL A   1      41.863  19.500  26.010  1.00  0.00     0.251 C 
ATOM     25  H   UNL A   1      40.351  18.196  25.857  1.00  0.00     0.163 HD
ATOM     26  O   UNL A   1      42.710  18.665  25.733  1.00  0.00    -0.269 OA
BRANCH  24  27
ATOM     27  C   UNL A   1      42.254  20.882  26.367  1.00  0.00     0.039 A 
ATOM     28  C   UNL A   1      42.491  21.197  27.707  1.00  0.00     0.014 A 
ATOM     29  C   UNL A   1      42.394  21.861  25.382  1.00  0.00     0.014 A 
ATOM     30  C   UNL A   1      42.945  22.474  28.049  1.00  0.00     0.010 A 
ATOM     31  C   UNL A   1      42.934  23.099  25.712  1.00  0.00     0.010 A 
ATOM     32  C   UNL A   1      43.212  23.423  27.049  1.00  0.00    -0.014 A 
BRANCH  32  33
ATOM     33  C   UNL A   1      43.753  24.772  27.364  1.00  0.00     0.031 A 
ATOM     34  C   UNL A   1      42.830  25.832  27.902  1.00  0.00     0.074 A 
ATOM     35  C   UNL A   1      45.034  25.075  27.079  1.00  0.00     0.049 A 
ATOM     36  N   UNL A   1      43.044  27.110  28.078  1.00  0.00    -0.248 NA
ATOM     37  C   UNL A   1      41.470  25.395  28.247  1.00  0.00     0.031 C 
ATOM     38  C   UNL A   1      46.023  24.144  26.533  1.00  0.00     0.029 A 
ATOM     39  N   UNL A   1      45.721  26.260  27.186  1.00  0.00    -0.354 N 
ATOM     40  C   UNL A   1      41.838  27.635  28.530  1.00  0.00     0.074 A 
ATOM     41  C   UNL A   1      40.884  26.546  28.531  1.00  0.00     0.031 C 
ATOM     42  C   UNL A   1      47.188  24.788  26.366  1.00  0.00     0.029 A 
ATOM     43  C   UNL A   1      47.018  26.191  26.732  1.00  0.00     0.049 A 
ATOM     44  H   UNL A   1      45.322  27.081  27.554  1.00  0.00     0.167 HD
ATOM     45  C   UNL A   1      41.559  28.902  28.929  1.00  0.00     0.034 A 
ATOM     46  C   UNL A   1      47.954  27.152  26.598  1.00  0.00     0.034 A 
ATOM     47  C   UNL A   1      42.528  29.970  28.925  1.00  0.00     0.049 A 
ATOM     48  C   UNL A   1      47.616  28.565  27.003  1.00  0.00     0.074 A 
ATOM     49  C   UNL A   1      42.370  31.279  29.347  1.00  0.00     0.029 A 
ATOM     50  N   UNL A   1      43.836  29.858  28.466  1.00  0.00    -0.354 N 
ATOM     51  N   UNL A   1      46.479  29.044  27.455  1.00  0.00    -0.248 NA
ATOM     52  C   UNL A   1      48.686  29.563  26.888  1.00  0.00     0.031 C 
ATOM     53  C   UNL A   1      43.550  31.975  29.069  1.00  0.00     0.029 A 
ATOM     54  C   UNL A   1      44.482  31.080  28.565  1.00  0.00     0.049 A 
ATOM     55  H   UNL A   1      44.243  29.031  28.122  1.00  0.00     0.167 HD
ATOM     56  C   UNL A   1      46.713  30.392  27.718  1.00  0.00     0.074 A 
ATOM     57  C   UNL A   1      48.096  30.648  27.370  1.00  0.00     0.031 C 
ATOM     58  C   UNL A   1      45.864  31.327  28.215  1.00  0.00     0.034 A 
BRANCH  45  59
ATOM     59  C   UNL A   1      40.138  29.193  29.360  1.00  0.00     0.023 A 
ATOM     60  C   UNL A   1      39.772  29.234  30.717  1.00  0.00     0.031 A 
ATOM     61  C   UNL A   1      39.123  29.372  28.403  1.00  0.00     0.131 A 
ATOM     62  C   UNL A   1      38.420  29.335  31.077  1.00  0.00     0.055 A 
ATOM     63  C   UNL A   1      37.791  29.577  28.771  1.00  0.00     0.041 A 
ATOM     64  F   UNL A   1      39.402  29.323  27.092  1.00  0.00    -0.206 F 
ATOM     65  C   UNL A   1      37.429  29.536  30.114  1.00  0.00     0.022 A 
BRANCH  62  66
ATOM     66  S   UNL A   1      37.961  29.000  32.800  1.00  0.00     0.124 S 
ATOM     67  O   UNL A   1      38.033  27.542  32.845  1.00  0.00    -0.237 OA
ATOM     68  O   UNL A   1      38.989  29.715  33.545  1.00  0.00    -0.237 OA
ATOM     69  O   UNL A   1      36.612  29.552  32.908  1.00  0.00    -0.744 OA
ENDBRANCH  62  66
ENDBRANCH  45  59
BRANCH  46  70
ATOM     70  C   UNL A   1      49.295  26.816  26.036  1.00  0.00     0.023 A 
ATOM     71  C   UNL A   1      49.677  27.255  24.759  1.00  0.00     0.031 A 
ATOM     72  C   UNL A   1      50.210  26.036  26.766  1.00  0.00     0.131 A 
ATOM     73  C   UNL A   1      50.926  26.882  24.236  1.00  0.00     0.055 A 
ATOM     74  C   UNL A   1      51.472  25.713  26.263  1.00  0.00     0.041 A 
ATOM     75  F   UNL A   1      49.897  25.594  27.995  1.00  0.00    -0.206 F 
ATOM     76  C   UNL A   1      51.832  26.128  24.986  1.00  0.00     0.022 A 
BRANCH  73  77
ATOM     77  S   UNL A   1      51.326  27.341  22.527  1.00  0.00     0.124 S 
ATOM     78  O   UNL A   1      51.292  28.797  22.596  1.00  0.00    -0.237 OA
ATOM     79  O   UNL A   1      52.642  26.735  22.351  1.00  0.00    -0.237 OA
ATOM     80  O   UNL A   1      50.251  26.727  21.751  1.00  0.00    -0.744 OA
ENDBRANCH  73  77
ENDBRANCH  46  70
BRANCH  58  81
ATOM     81  C   UNL A   1      46.423  32.704  28.487  1.00  0.00     0.023 A 
ATOM     82  C   UNL A   1      46.386  33.733  27.532  1.00  0.00     0.031 A 
ATOM     83  C   UNL A   1      46.983  32.990  29.747  1.00  0.00     0.131 A 
ATOM     84  C   UNL A   1      46.935  34.989  27.838  1.00  0.00     0.055 A 
ATOM     85  C   UNL A   1      47.470  34.257  30.066  1.00  0.00     0.041 A 
ATOM     86  F   UNL A   1      47.049  32.043  30.696  1.00  0.00    -0.206 F 
ATOM     87  C   UNL A   1      47.458  35.263  29.106  1.00  0.00     0.022 A 
BRANCH  84  88
ATOM     88  S   UNL A   1      47.034  36.244  26.531  1.00  0.00     0.124 S 
ATOM     89  O   UNL A   1      47.414  35.443  25.371  1.00  0.00    -0.237 OA
ATOM     90  O   UNL A   1      45.680  36.786  26.516  1.00  0.00    -0.237 OA
ATOM     91  O   UNL A   1      48.064  37.162  27.013  1.00  0.00    -0.744 OA
ENDBRANCH  84  88
ENDBRANCH  58  81
ENDBRANCH  32  33
ENDBRANCH  24  27
ENDBRANCH  22  23
ENDBRANCH  21  22
ENDBRANCH   1  21
TORSDOF 18
ENDMDL
MODEL 2
REMARK VINA RESULT:     -10.5      6.974     12.605
REMARK SMILES C[NH2+][C@](C)(CCSc1ccncc1)C(=O)NCCCNC(=O)c1ccc(-c2c3nc(c(-c4cc(S(=O)(=O)[O-])ccc4F)c4ccc([nH]4)c(-c4cc(S(=O)(=O)[O-])ccc4F)c4nc(c(-c5cc(S(=O)(=O)[O-])ccc5F)c5ccc2[nH]5)C=C4)C=C3)cc1
REMARK SMILES IDX 17 1 16 2 14 3 15 4 3 6 4 7 2 8 1 9 5 12 6 13 7 14 8 15 9 16
REMARK SMILES IDX 13 17 10 18 12 19 11 20 18 21 19 22 20 23 21 24 22 26 23 27
REMARK SMILES IDX 24 28 85 29 25 30 84 31 26 32 27 33 28 34 78 35 29 36 83 37
REMARK SMILES IDX 77 38 79 39 30 40 82 41 76 42 75 43 31 45 63 46 43 47 62 48
REMARK SMILES IDX 44 49 47 50 61 51 80 52 45 53 46 54 60 56 81 57 48 58 32 59
REMARK SMILES IDX 33 60 41 61 34 62 40 63 42 64 39 65 35 66 36 67 37 68 38 69
REMARK SMILES IDX 64 70 65 71 73 72 66 73 72 74 74 75 71 76 67 77 68 78 69 79
REMARK SMILES IDX 70 80 49 81 50 82 58 83 51 84 57 85 59 86 56 87 52 88 53 89
REMARK SMILES IDX 54 90 55 91
REMARK H PARENT 16 5 2 10 2 11 20 25 79 44 47 55
REMARK Flexibility Score: inf
ROOT
ATOM      1  C   UNL A   1      32.225  29.996  26.400  1.00  0.00     0.118 C 
ENDROOT
BRANCH   1   2
ATOM      2  N   UNL A   1      33.207  29.736  25.358  1.00  0.00    -0.351 N 
ATOM      3  C   UNL A   1      33.301  28.746  24.410  1.00  0.00     0.281 C 
ATOM      4  O   UNL A   1      33.982  28.968  23.406  1.00  0.00    -0.268 OA
ATOM      5  H   UNL A   1      33.941  30.392  25.327  1.00  0.00     0.163 HD
BRANCH   3   6
ATOM      6  C   UNL A   1      32.530  27.420  24.571  1.00  0.00     0.173 C 
ATOM      7  C   UNL A   1      31.999  27.188  26.007  1.00  0.00     0.090 C 
BRANCH   6   8
ATOM      8  N   UNL A   1      33.466  26.268  24.357  1.00  0.00    -0.336 N 
ATOM      9  C   UNL A   1      33.374  25.707  22.995  1.00  0.00     0.331 C 
ATOM     10  H   UNL A   1      34.421  26.590  24.512  1.00  0.00     0.346 HD
ATOM     11  H   UNL A   1      33.205  25.531  25.012  1.00  0.00     0.346 HD
ENDBRANCH   6   8
BRANCH   6  12
ATOM     12  C   UNL A   1      31.287  27.475  23.628  1.00  0.00     0.090 C 
BRANCH  12  13
ATOM     13  C   UNL A   1      30.400  28.763  23.723  1.00  0.00     0.082 C 
BRANCH  13  14
ATOM     14  S   UNL A   1      28.781  28.818  22.812  1.00  0.00    -0.126 SA
BRANCH  14  15
ATOM     15  C   UNL A   1      28.535  30.550  22.402  1.00  0.00     0.010 A 
ATOM     16  C   UNL A   1      28.201  30.973  21.121  1.00  0.00     0.035 A 
ATOM     17  C   UNL A   1      28.772  31.534  23.366  1.00  0.00     0.035 A 
ATOM     18  C   UNL A   1      28.010  32.333  20.900  1.00  0.00     0.112 A 
ATOM     19  C   UNL A   1      28.475  32.857  23.076  1.00  0.00     0.112 A 
ATOM     20  N   UNL A   1      28.099  33.282  21.856  1.00  0.00    -0.265 NA
ENDBRANCH  14  15
ENDBRANCH  13  14
ENDBRANCH  12  13
ENDBRANCH   6  12
ENDBRANCH   3   6
ENDBRANCH   1   2
BRANCH   1  21
ATOM     21  C   UNL A   1      31.933  31.464  26.682  1.00  0.00     0.042 C 
BRANCH  21  22
ATOM     22  C   UNL A   1      33.051  32.216  27.389  1.00  0.00     0.118 C 
BRANCH  22  23
ATOM     23  N   UNL A   1      32.712  33.605  27.654  1.00  0.00    -0.352 N 
ATOM     24  C   UNL A   1      33.205  34.469  28.605  1.00  0.00     0.251 C 
ATOM     25  H   UNL A   1      32.023  33.986  27.063  1.00  0.00     0.163 HD
ATOM     26  O   UNL A   1      32.647  35.539  28.795  1.00  0.00    -0.269 OA
BRANCH  24  27
ATOM     27  C   UNL A   1      34.385  34.081  29.411  1.00  0.00     0.039 A 
ATOM     28  C   UNL A   1      34.196  33.336  30.578  1.00  0.00     0.014 A 
ATOM     29  C   UNL A   1      35.672  34.443  29.012  1.00  0.00     0.014 A 
ATOM     30  C   UNL A   1      35.305  32.888  31.300  1.00  0.00     0.010 A 
ATOM     31  C   UNL A   1      36.774  33.919  29.678  1.00  0.00     0.010 A 
ATOM     32  C   UNL A   1      36.605  33.139  30.833  1.00  0.00    -0.014 A 
BRANCH  32  33
ATOM     33  C   UNL A   1      37.811  32.630  31.538  1.00  0.00     0.031 A 
ATOM     34  C   UNL A   1      38.617  31.519  30.919  1.00  0.00     0.074 A 
ATOM     35  C   UNL A   1      38.127  33.088  32.766  1.00  0.00     0.049 A 
ATOM     36  N   UNL A   1      39.589  30.812  31.431  1.00  0.00    -0.248 NA
ATOM     37  C   UNL A   1      38.243  31.131  29.551  1.00  0.00     0.031 C 
ATOM     38  C   UNL A   1      37.412  34.144  33.484  1.00  0.00     0.029 A 
ATOM     39  N   UNL A   1      39.117  32.706  33.638  1.00  0.00    -0.354 N 
ATOM     40  C   UNL A   1      39.927  29.876  30.459  1.00  0.00     0.074 A 
ATOM     41  C   UNL A   1      39.005  30.066  29.359  1.00  0.00     0.031 C 
ATOM     42  C   UNL A   1      37.994  34.334  34.678  1.00  0.00     0.029 A 
ATOM     43  C   UNL A   1      39.082  33.375  34.840  1.00  0.00     0.049 A 
ATOM     44  H   UNL A   1      39.788  32.020  33.423  1.00  0.00     0.167 HD
ATOM     45  C   UNL A   1      40.927  28.958  30.473  1.00  0.00     0.034 A 
ATOM     46  C   UNL A   1      39.822  33.214  35.956  1.00  0.00     0.034 A 
ATOM     47  C   UNL A   1      41.838  28.790  31.579  1.00  0.00     0.049 A 
ATOM     48  C   UNL A   1      40.900  32.160  35.974  1.00  0.00     0.074 A 
ATOM     49  C   UNL A   1      42.913  27.925  31.685  1.00  0.00     0.029 A 
ATOM     50  N   UNL A   1      41.776  29.493  32.776  1.00  0.00    -0.354 N 
ATOM     51  N   UNL A   1      41.229  31.299  35.038  1.00  0.00    -0.248 NA
ATOM     52  C   UNL A   1      41.713  32.062  37.193  1.00  0.00     0.031 C 
ATOM     53  C   UNL A   1      43.448  28.047  32.971  1.00  0.00     0.029 A 
ATOM     54  C   UNL A   1      42.772  29.058  33.637  1.00  0.00     0.049 A 
ATOM     55  H   UNL A   1      41.121  30.198  32.983  1.00  0.00     0.167 HD
ATOM     56  C   UNL A   1      42.314  30.585  35.541  1.00  0.00     0.074 A 
ATOM     57  C   UNL A   1      42.581  31.115  36.863  1.00  0.00     0.031 C 
ATOM     58  C   UNL A   1      43.031  29.593  34.955  1.00  0.00     0.034 A 
BRANCH  45  59
ATOM     59  C   UNL A   1      41.048  28.050  29.269  1.00  0.00     0.023 A 
ATOM     60  C   UNL A   1      42.064  28.223  28.313  1.00  0.00     0.031 A 
ATOM     61  C   UNL A   1      40.101  27.036  29.041  1.00  0.00     0.131 A 
ATOM     62  C   UNL A   1      42.045  27.477  27.125  1.00  0.00     0.055 A 
ATOM     63  C   UNL A   1      40.149  26.224  27.905  1.00  0.00     0.041 A 
ATOM     64  F   UNL A   1      39.094  26.831  29.904  1.00  0.00    -0.206 F 
ATOM     65  C   UNL A   1      41.112  26.458  26.928  1.00  0.00     0.022 A 
BRANCH  62  66
ATOM     66  S   UNL A   1      43.132  27.993  25.767  1.00  0.00     0.124 S 
ATOM     67  O   UNL A   1      42.260  27.812  24.609  1.00  0.00    -0.237 OA
ATOM     68  O   UNL A   1      43.446  29.372  26.121  1.00  0.00    -0.237 OA
ATOM     69  O   UNL A   1      44.249  27.055  25.847  1.00  0.00    -0.744 OA
ENDBRANCH  62  66
ENDBRANCH  45  59
BRANCH  46  70
ATOM     70  C   UNL A   1      39.555  34.058  37.157  1.00  0.00     0.023 A 
ATOM     71  C   UNL A   1      38.930  33.524  38.294  1.00  0.00     0.031 A 
ATOM     72  C   UNL A   1      39.910  35.419  37.178  1.00  0.00     0.131 A 
ATOM     73  C   UNL A   1      38.647  34.354  39.392  1.00  0.00     0.055 A 
ATOM     74  C   UNL A   1      39.674  36.227  38.292  1.00  0.00     0.041 A 
ATOM     75  F   UNL A   1      40.515  35.980  36.119  1.00  0.00    -0.206 F 
ATOM     76  C   UNL A   1      39.029  35.697  39.404  1.00  0.00     0.022 A 
BRANCH  73  77
ATOM     77  S   UNL A   1      37.706  33.667  40.782  1.00  0.00     0.124 S 
ATOM     78  O   UNL A   1      37.405  34.866  41.557  1.00  0.00    -0.237 OA
ATOM     79  O   UNL A   1      36.576  33.039  40.104  1.00  0.00    -0.237 OA
ATOM     80  O   UNL A   1      38.648  32.741  41.406  1.00  0.00    -0.744 OA
ENDBRANCH  73  77
ENDBRANCH  46  70
BRANCH  58  81
ATOM     81  C   UNL A   1      44.228  29.060  35.708  1.00  0.00     0.023 A 
ATOM     82  C   UNL A   1      44.125  28.015  36.642  1.00  0.00     0.031 A 
ATOM     83  C   UNL A   1      45.504  29.600  35.458  1.00  0.00     0.131 A 
ATOM     84  C   UNL A   1      45.271  27.572  37.322  1.00  0.00     0.055 A 
ATOM     85  C   UNL A   1      46.648  29.113  36.090  1.00  0.00     0.041 A 
ATOM     86  F   UNL A   1      45.660  30.603  34.580  1.00  0.00    -0.206 F 
ATOM     87  C   UNL A   1      46.534  28.100  37.036  1.00  0.00     0.022 A 
BRANCH  84  88
ATOM     88  S   UNL A   1      45.084  26.347  38.647  1.00  0.00     0.124 S 
ATOM     89  O   UNL A   1      45.405  25.102  37.956  1.00  0.00    -0.237 OA
ATOM     90  O   UNL A   1      46.061  26.800  39.631  1.00  0.00    -0.237 OA
ATOM     91  O   UNL A   1      43.687  26.488  39.051  1.00  0.00    -0.744 OA
ENDBRANCH  84  88
ENDBRANCH  58  81
ENDBRANCH  32  33
ENDBRANCH  24  27
ENDBRANCH  22  23
ENDBRANCH  21  22
ENDBRANCH   1  21
TORSDOF 18
ENDMDL
MODEL 3
REMARK VINA RESULT:     -10.4      6.296     11.318
REMARK SMILES C[NH2+][C@](C)(CCSc1ccncc1)C(=O)NCCCNC(=O)c1ccc(-c2c3nc(c(-c4cc(S(=O)(=O)[O-])ccc4F)c4ccc([nH]4)c(-c4cc(S(=O)(=O)[O-])ccc4F)c4nc(c(-c5cc(S(=O)(=O)[O-])ccc5F)c5ccc2[nH]5)C=C4)C=C3)cc1
REMARK SMILES IDX 17 1 16 2 14 3 15 4 3 6 4 7 2 8 1 9 5 12 6 13 7 14 8 15 9 16
REMARK SMILES IDX 13 17 10 18 12 19 11 20 18 21 19 22 20 23 21 24 22 26 23 27
REMARK SMILES IDX 24 28 85 29 25 30 84 31 26 32 27 33 28 34 78 35 29 36 83 37
REMARK SMILES IDX 77 38 79 39 30 40 82 41 76 42 75 43 31 45 63 46 43 47 62 48
REMARK SMILES IDX 44 49 47 50 61 51 80 52 45 53 46 54 60 56 81 57 48 58 32 59
REMARK SMILES IDX 33 60 41 61 34 62 40 63 42 64 39 65 35 66 36 67 37 68 38 69
REMARK SMILES IDX 64 70 65 71 73 72 66 73 72 74 74 75 71 76 67 77 68 78 69 79
REMARK SMILES IDX 70 80 49 81 50 82 58 83 51 84 57 85 59 86 56 87 52 88 53 89
REMARK SMILES IDX 54 90 55 91
REMARK H PARENT 16 5 2 10 2 11 20 25 79 44 47 55
REMARK Flexibility Score: inf
ROOT
ATOM      1  C   UNL A   1      33.223  27.057  25.826  1.00  0.00     0.118 C 
ENDROOT
BRANCH   1   2
ATOM      2  N   UNL A   1      32.488  25.830  26.095  1.00  0.00    -0.351 N 
ATOM      3  C   UNL A   1      31.689  25.045  25.301  1.00  0.00     0.281 C 
ATOM      4  O   UNL A   1      31.517  23.870  25.634  1.00  0.00    -0.268 OA
ATOM      5  H   UNL A   1      32.578  25.504  27.020  1.00  0.00     0.163 HD
BRANCH   3   6
ATOM      6  C   UNL A   1      31.076  25.600  23.999  1.00  0.00     0.173 C 
ATOM      7  C   UNL A   1      30.430  24.509  23.109  1.00  0.00     0.090 C 
BRANCH   6   8
ATOM      8  N   UNL A   1      32.165  26.156  23.130  1.00  0.00    -0.336 N 
ATOM      9  C   UNL A   1      31.988  25.812  21.707  1.00  0.00     0.331 C 
ATOM     10  H   UNL A   1      32.169  27.172  23.221  1.00  0.00     0.346 HD
ATOM     11  H   UNL A   1      33.046  25.747  23.439  1.00  0.00     0.346 HD
ENDBRANCH   6   8
BRANCH   6  12
ATOM     12  C   UNL A   1      29.942  26.597  24.394  1.00  0.00     0.090 C 
BRANCH  12  13
ATOM     13  C   UNL A   1      29.611  27.720  23.353  1.00  0.00     0.082 C 
BRANCH  13  14
ATOM     14  S   UNL A   1      27.850  28.280  23.153  1.00  0.00    -0.126 SA
BRANCH  14  15
ATOM     15  C   UNL A   1      27.963  30.002  22.655  1.00  0.00     0.010 A 
ATOM     16  C   UNL A   1      27.968  31.045  23.575  1.00  0.00     0.035 A 
ATOM     17  C   UNL A   1      27.954  30.338  21.299  1.00  0.00     0.035 A 
ATOM     18  C   UNL A   1      28.079  32.348  23.100  1.00  0.00     0.112 A 
ATOM     19  C   UNL A   1      28.152  31.658  20.922  1.00  0.00     0.112 A 
ATOM     20  N   UNL A   1      28.212  32.678  21.798  1.00  0.00    -0.265 NA
ENDBRANCH  14  15
ENDBRANCH  13  14
ENDBRANCH  12  13
ENDBRANCH   6  12
ENDBRANCH   3   6
ENDBRANCH   1   2
BRANCH   1  21
ATOM     21  C   UNL A   1      32.461  28.353  26.070  1.00  0.00     0.042 C 
BRANCH  21  22
ATOM     22  C   UNL A   1      33.069  29.586  25.419  1.00  0.00     0.118 C 
BRANCH  22  23
ATOM     23  N   UNL A   1      32.562  30.826  25.986  1.00  0.00    -0.352 N 
ATOM     24  C   UNL A   1      33.041  31.579  27.034  1.00  0.00     0.251 C 
ATOM     25  H   UNL A   1      31.752  31.181  25.554  1.00  0.00     0.163 HD
ATOM     26  O   UNL A   1      32.357  32.485  27.486  1.00  0.00    -0.269 OA
BRANCH  24  27
ATOM     27  C   UNL A   1      34.361  31.263  27.625  1.00  0.00     0.039 A 
ATOM     28  C   UNL A   1      35.324  32.271  27.718  1.00  0.00     0.014 A 
ATOM     29  C   UNL A   1      34.644  29.978  28.091  1.00  0.00     0.014 A 
ATOM     30  C   UNL A   1      36.541  32.009  28.352  1.00  0.00     0.010 A 
ATOM     31  C   UNL A   1      35.816  29.746  28.802  1.00  0.00     0.010 A 
ATOM     32  C   UNL A   1      36.781  30.756  28.938  1.00  0.00    -0.014 A 
BRANCH  32  33
ATOM     33  C   UNL A   1      38.038  30.454  29.673  1.00  0.00     0.031 A 
ATOM     34  C   UNL A   1      39.034  29.497  29.075  1.00  0.00     0.074 A 
ATOM     35  C   UNL A   1      38.242  30.955  30.907  1.00  0.00     0.049 A 
ATOM     36  N   UNL A   1      40.099  28.962  29.612  1.00  0.00    -0.248 NA
ATOM     37  C   UNL A   1      38.765  29.056  27.699  1.00  0.00     0.031 C 
ATOM     38  C   UNL A   1      37.342  31.874  31.607  1.00  0.00     0.029 A 
ATOM     39  N   UNL A   1      39.260  30.743  31.804  1.00  0.00    -0.354 N 
ATOM     40  C   UNL A   1      40.613  28.099  28.650  1.00  0.00     0.074 A 
ATOM     41  C   UNL A   1      39.699  28.135  27.527  1.00  0.00     0.031 C 
ATOM     42  C   UNL A   1      37.854  32.155  32.815  1.00  0.00     0.029 A 
ATOM     43  C   UNL A   1      39.083  31.392  33.005  1.00  0.00     0.049 A 
ATOM     44  H   UNL A   1      40.042  30.180  31.607  1.00  0.00     0.167 HD
ATOM     45  C   UNL A   1      41.752  27.363  28.690  1.00  0.00     0.034 A 
ATOM     46  C   UNL A   1      39.812  31.355  34.139  1.00  0.00     0.034 A 
ATOM     47  C   UNL A   1      42.652  27.347  29.818  1.00  0.00     0.049 A 
ATOM     48  C   UNL A   1      41.051  30.497  34.185  1.00  0.00     0.074 A 
ATOM     49  C   UNL A   1      43.853  26.675  29.952  1.00  0.00     0.029 A 
ATOM     50  N   UNL A   1      42.442  28.026  31.013  1.00  0.00    -0.354 N 
ATOM     51  N   UNL A   1      41.543  29.707  33.258  1.00  0.00    -0.248 NA
ATOM     52  C   UNL A   1      41.839  30.533  35.424  1.00  0.00     0.031 C 
ATOM     53  C   UNL A   1      44.328  26.881  31.251  1.00  0.00     0.029 A 
ATOM     54  C   UNL A   1      43.476  27.762  31.898  1.00  0.00     0.049 A 
ATOM     55  H   UNL A   1      41.673  28.609  31.202  1.00  0.00     0.167 HD
ATOM     56  C   UNL A   1      42.720  29.184  33.788  1.00  0.00     0.074 A 
ATOM     57  C   UNL A   1      42.861  29.746  35.116  1.00  0.00     0.031 C 
ATOM     58  C   UNL A   1      43.609  28.328  33.222  1.00  0.00     0.034 A 
BRANCH  45  59
ATOM     59  C   UNL A   1      42.055  26.492  27.490  1.00  0.00     0.023 A 
ATOM     60  C   UNL A   1      41.644  25.148  27.431  1.00  0.00     0.031 A 
ATOM     61  C   UNL A   1      42.816  26.991  26.419  1.00  0.00     0.131 A 
ATOM     62  C   UNL A   1      42.087  24.323  26.386  1.00  0.00     0.055 A 
ATOM     63  C   UNL A   1      43.167  26.191  25.327  1.00  0.00     0.041 A 
ATOM     64  F   UNL A   1      43.257  28.258  26.423  1.00  0.00    -0.206 F 
ATOM     65  C   UNL A   1      42.822  24.842  25.319  1.00  0.00     0.022 A 
BRANCH  62  66
ATOM     66  S   UNL A   1      41.859  22.531  26.548  1.00  0.00     0.124 S 
ATOM     67  O   UNL A   1      40.402  22.422  26.576  1.00  0.00    -0.237 OA
ATOM     68  O   UNL A   1      42.515  22.020  25.351  1.00  0.00    -0.237 OA
ATOM     69  O   UNL A   1      42.523  22.214  27.811  1.00  0.00    -0.744 OA
ENDBRANCH  62  66
ENDBRANCH  45  59
BRANCH  46  70
ATOM     70  C   UNL A   1      39.377  32.138  35.332  1.00  0.00     0.023 A 
ATOM     71  C   UNL A   1      39.778  33.471  35.510  1.00  0.00     0.031 A 
ATOM     72  C   UNL A   1      38.561  31.558  36.320  1.00  0.00     0.131 A 
ATOM     73  C   UNL A   1      39.393  34.169  36.667  1.00  0.00     0.055 A 
ATOM     74  C   UNL A   1      38.137  32.272  37.442  1.00  0.00     0.041 A 
ATOM     75  F   UNL A   1      38.144  30.287  36.196  1.00  0.00    -0.206 F 
ATOM     76  C   UNL A   1      38.562  33.583  37.625  1.00  0.00     0.022 A 
BRANCH  73  77
ATOM     77  S   UNL A   1      40.052  35.837  36.937  1.00  0.00     0.124 S 
ATOM     78  O   UNL A   1      41.485  35.579  37.022  1.00  0.00    -0.237 OA
ATOM     79  O   UNL A   1      39.595  36.541  35.743  1.00  0.00    -0.237 OA
ATOM     80  O   UNL A   1      39.418  36.255  38.185  1.00  0.00    -0.744 OA
ENDBRANCH  73  77
ENDBRANCH  46  70
BRANCH  58  81
ATOM     81  C   UNL A   1      44.859  28.001  34.005  1.00  0.00     0.023 A 
ATOM     82  C   UNL A   1      44.944  26.886  34.855  1.00  0.00     0.031 A 
ATOM     83  C   UNL A   1      45.997  28.819  33.870  1.00  0.00     0.131 A 
ATOM     84  C   UNL A   1      46.129  26.642  35.568  1.00  0.00     0.055 A 
ATOM     85  C   UNL A   1      47.191  28.536  34.533  1.00  0.00     0.041 A 
ATOM     86  F   UNL A   1      45.971  29.901  33.076  1.00  0.00    -0.206 F 
ATOM     87  C   UNL A   1      47.259  27.448  35.396  1.00  0.00     0.022 A 
BRANCH  84  88
ATOM     88  S   UNL A   1      46.155  25.301  36.790  1.00  0.00     0.124 S 
ATOM     89  O   UNL A   1      45.971  26.029  38.042  1.00  0.00    -0.237 OA
ATOM     90  O   UNL A   1      45.034  24.469  36.366  1.00  0.00    -0.237 OA
ATOM     91  O   UNL A   1      47.475  24.700  36.612  1.00  0.00    -0.744 OA
ENDBRANCH  84  88
ENDBRANCH  58  81
ENDBRANCH  32  33
ENDBRANCH  24  27
ENDBRANCH  22  23
ENDBRANCH  21  22
ENDBRANCH   1  21
TORSDOF 18
ENDMDL
