MODEL 1
REMARK VINA RESULT:     -11.2      0.000      0.000
REMARK SMILES CC(C)C[C@H](NS(=O)(=O)N1C[C@@H](C)C[C@H](C)C1)C(=O)NCCCNC(=O)c1ccc(-c2c3nc(c(-c4cc(S(=O)(=O)[O-])ccc4F)c4ccc([nH]4)c(-c4cc(S(=O)(=O)[O-])ccc4F)c4nc(c(-c5cc(S(=O)(=O)[O-])ccc5F)c5ccc2[nH]5)C=C4)C=C3)cc1
REMARK SMILES IDX 22 1 21 2 20 3 18 4 19 5 5 7 4 8 2 9 1 10 3 11 6 12 7 14
REMARK SMILES IDX 8 15 9 16 10 17 11 18 17 19 12 20 15 21 13 22 14 23 16 24
REMARK SMILES IDX 23 25 24 26 25 27 26 29 27 30 28 31 89 32 29 33 88 34 30 35
REMARK SMILES IDX 31 36 32 37 82 38 33 39 87 40 81 41 83 42 34 43 86 44 80 45
REMARK SMILES IDX 79 46 35 48 67 49 47 50 66 51 48 52 51 53 65 54 84 55 49 56
REMARK SMILES IDX 50 57 64 59 85 60 52 61 36 62 37 63 45 64 38 65 44 66 46 67
REMARK SMILES IDX 43 68 39 69 40 70 41 71 42 72 68 73 69 74 77 75 70 76 76 77
REMARK SMILES IDX 78 78 75 79 71 80 72 81 73 82 74 83 53 84 54 85 62 86 55 87
REMARK SMILES IDX 61 88 63 89 60 90 56 91 57 92 58 93 59 94
REMARK H PARENT 20 6 6 13 24 28 83 47 51 58
REMARK Flexibility Score: inf
ROOT
ATOM      1  C   UNL A   1      36.172  22.403  24.050  1.00  0.00     0.042 C 
ENDROOT
BRANCH   1   2
ATOM      2  C   UNL A   1      35.131  23.459  23.730  1.00  0.00     0.117 C 
BRANCH   2   3
ATOM      3  N   UNL A   1      34.024  22.936  22.941  1.00  0.00    -0.355 N 
ATOM      4  C   UNL A   1      32.918  22.233  23.331  1.00  0.00     0.238 C 
ATOM      5  O   UNL A   1      32.084  21.943  22.469  1.00  0.00    -0.273 OA
ATOM      6  H   UNL A   1      34.081  23.117  21.975  1.00  0.00     0.163 HD
BRANCH   4   7
ATOM      7  C   UNL A   1      32.727  21.812  24.800  1.00  0.00     0.160 C 
BRANCH   7   8
ATOM      8  C   UNL A   1      32.503  20.301  24.903  1.00  0.00     0.033 C 
BRANCH   8   9
ATOM      9  C   UNL A   1      33.351  19.445  23.941  1.00  0.00    -0.015 C 
ATOM     10  C   UNL A   1      34.426  18.652  24.684  1.00  0.00     0.007 C 
ATOM     11  C   UNL A   1      32.426  18.492  23.177  1.00  0.00     0.007 C 
ENDBRANCH   8   9
ENDBRANCH   7   8
BRANCH   7  12
ATOM     12  N   UNL A   1      31.693  22.709  25.355  1.00  0.00    -0.190 NA
ATOM     13  H   UNL A   1      31.193  22.136  26.034  1.00  0.00     0.143 HD
BRANCH  12  14
ATOM     14  S   UNL A   1      31.900  24.159  26.108  1.00  0.00     0.280 S 
ATOM     15  O   UNL A   1      31.100  24.021  27.304  1.00  0.00    -0.195 OA
ATOM     16  O   UNL A   1      33.303  24.467  26.175  1.00  0.00    -0.195 OA
BRANCH  14  17
ATOM     17  N   UNL A   1      31.134  25.200  25.042  1.00  0.00    -0.188 NA
ATOM     18  C   UNL A   1      30.381  26.351  25.597  1.00  0.00     0.106 C 
ATOM     19  C   UNL A   1      31.782  25.518  23.755  1.00  0.00     0.106 C 
ATOM     20  C   UNL A   1      31.271  27.596  25.764  1.00  0.00     0.001 C 
ATOM     21  C   UNL A   1      32.777  26.669  23.924  1.00  0.00     0.001 C 
ATOM     22  C   UNL A   1      32.212  27.501  26.969  1.00  0.00     0.009 C 
ATOM     23  C   UNL A   1      32.050  27.904  24.472  1.00  0.00     0.009 C 
ATOM     24  C   UNL A   1      33.476  26.970  22.601  1.00  0.00     0.009 C 
ENDBRANCH  14  17
ENDBRANCH  12  14
ENDBRANCH   7  12
ENDBRANCH   4   7
ENDBRANCH   2   3
ENDBRANCH   1   2
BRANCH   1  25
ATOM     25  C   UNL A   1      36.655  22.435  25.490  1.00  0.00     0.118 C 
BRANCH  25  26
ATOM     26  N   UNL A   1      37.627  21.391  25.777  1.00  0.00    -0.352 N 
ATOM     27  C   UNL A   1      38.935  21.487  26.181  1.00  0.00     0.251 C 
ATOM     28  H   UNL A   1      37.293  20.472  25.666  1.00  0.00     0.163 HD
ATOM     29  O   UNL A   1      39.637  20.479  26.166  1.00  0.00    -0.269 OA
BRANCH  27  30
ATOM     30  C   UNL A   1      39.501  22.786  26.610  1.00  0.00     0.039 A 
ATOM     31  C   UNL A   1      40.517  22.793  27.569  1.00  0.00     0.014 A 
ATOM     32  C   UNL A   1      39.018  23.996  26.105  1.00  0.00     0.014 A 
ATOM     33  C   UNL A   1      41.067  24.005  27.986  1.00  0.00     0.010 A 
ATOM     34  C   UNL A   1      39.646  25.193  26.434  1.00  0.00     0.010 A 
ATOM     35  C   UNL A   1      40.656  25.216  27.405  1.00  0.00    -0.014 A 
BRANCH  35  36
ATOM     36  C   UNL A   1      41.233  26.512  27.850  1.00  0.00     0.031 A 
ATOM     37  C   UNL A   1      42.666  26.851  27.527  1.00  0.00     0.074 A 
ATOM     38  C   UNL A   1      40.473  27.377  28.551  1.00  0.00     0.049 A 
ATOM     39  N   UNL A   1      43.347  27.931  27.816  1.00  0.00    -0.248 NA
ATOM     40  C   UNL A   1      43.446  25.829  26.812  1.00  0.00     0.031 C 
ATOM     41  C   UNL A   1      39.088  27.139  28.965  1.00  0.00     0.029 A 
ATOM     42  N   UNL A   1      40.750  28.632  29.031  1.00  0.00    -0.354 N 
ATOM     43  C   UNL A   1      44.630  27.714  27.323  1.00  0.00     0.074 A 
ATOM     44  C   UNL A   1      44.654  26.369  26.795  1.00  0.00     0.031 C 
ATOM     45  C   UNL A   1      38.623  28.231  29.591  1.00  0.00     0.029 A 
ATOM     46  C   UNL A   1      39.686  29.227  29.669  1.00  0.00     0.049 A 
ATOM     47  H   UNL A   1      41.628  29.065  28.929  1.00  0.00     0.167 HD
ATOM     48  C   UNL A   1      45.683  28.570  27.285  1.00  0.00     0.034 A 
ATOM     49  C   UNL A   1      39.580  30.439  30.250  1.00  0.00     0.034 A 
ATOM     50  C   UNL A   1      45.639  29.911  27.813  1.00  0.00     0.049 A 
ATOM     51  C   UNL A   1      40.770  31.365  30.213  1.00  0.00     0.074 A 
ATOM     52  C   UNL A   1      46.631  30.877  27.797  1.00  0.00     0.029 A 
ATOM     53  N   UNL A   1      44.547  30.478  28.460  1.00  0.00    -0.354 N 
ATOM     54  N   UNL A   1      41.962  31.164  29.697  1.00  0.00    -0.248 NA
ATOM     55  C   UNL A   1      40.592  32.690  30.816  1.00  0.00     0.031 C 
ATOM     56  C   UNL A   1      46.169  31.992  28.503  1.00  0.00     0.029 A 
ATOM     57  C   UNL A   1      44.852  31.766  28.872  1.00  0.00     0.049 A 
ATOM     58  H   UNL A   1      43.683  30.029  28.605  1.00  0.00     0.167 HD
ATOM     59  C   UNL A   1      42.659  32.357  29.877  1.00  0.00     0.074 A 
ATOM     60  C   UNL A   1      41.746  33.272  30.530  1.00  0.00     0.031 C 
ATOM     61  C   UNL A   1      43.936  32.669  29.530  1.00  0.00     0.034 A 
BRANCH  48  62
ATOM     62  C   UNL A   1      46.971  28.061  26.676  1.00  0.00     0.023 A 
ATOM     63  C   UNL A   1      47.227  28.157  25.295  1.00  0.00     0.031 A 
ATOM     64  C   UNL A   1      47.946  27.444  27.480  1.00  0.00     0.131 A 
ATOM     65  C   UNL A   1      48.383  27.574  24.753  1.00  0.00     0.055 A 
ATOM     66  C   UNL A   1      49.137  26.948  26.947  1.00  0.00     0.041 A 
ATOM     67  F   UNL A   1      47.751  27.297  28.800  1.00  0.00    -0.206 F 
ATOM     68  C   UNL A   1      49.354  26.997  25.573  1.00  0.00     0.022 A 
BRANCH  65  69
ATOM     69  S   UNL A   1      48.520  27.438  22.949  1.00  0.00     0.124 S 
ATOM     70  O   UNL A   1      47.349  28.192  22.507  1.00  0.00    -0.237 OA
ATOM     71  O   UNL A   1      49.814  28.053  22.682  1.00  0.00    -0.237 OA
ATOM     72  O   UNL A   1      48.450  25.998  22.709  1.00  0.00    -0.744 OA
ENDBRANCH  65  69
ENDBRANCH  48  62
BRANCH  49  73
ATOM     73  C   UNL A   1      38.308  30.856  30.910  1.00  0.00     0.023 A 
ATOM     74  C   UNL A   1      37.293  31.509  30.192  1.00  0.00     0.031 A 
ATOM     75  C   UNL A   1      38.111  30.655  32.288  1.00  0.00     0.131 A 
ATOM     76  C   UNL A   1      36.158  31.989  30.861  1.00  0.00     0.055 A 
ATOM     77  C   UNL A   1      36.951  31.078  32.939  1.00  0.00     0.041 A 
ATOM     78  F   UNL A   1      39.047  30.035  33.025  1.00  0.00    -0.206 F 
ATOM     79  C   UNL A   1      35.972  31.764  32.227  1.00  0.00     0.022 A 
BRANCH  76  80
ATOM     80  S   UNL A   1      34.973  33.011  29.943  1.00  0.00     0.124 S 
ATOM     81  O   UNL A   1      34.421  32.046  28.998  1.00  0.00    -0.237 OA
ATOM     82  O   UNL A   1      34.074  33.458  31.002  1.00  0.00    -0.237 OA
ATOM     83  O   UNL A   1      35.807  34.055  29.354  1.00  0.00    -0.744 OA
ENDBRANCH  76  80
ENDBRANCH  49  73
BRANCH  61  84
ATOM     84  C   UNL A   1      44.390  34.088  29.793  1.00  0.00     0.023 A 
ATOM     85  C   UNL A   1      44.259  35.105  28.831  1.00  0.00     0.031 A 
ATOM     86  C   UNL A   1      45.007  34.415  31.014  1.00  0.00     0.131 A 
ATOM     87  C   UNL A   1      44.819  36.369  29.069  1.00  0.00     0.055 A 
ATOM     88  C   UNL A   1      45.485  35.699  31.279  1.00  0.00     0.041 A 
ATOM     89  F   UNL A   1      45.164  33.487  31.972  1.00  0.00    -0.206 F 
ATOM     90  C   UNL A   1      45.412  36.679  30.294  1.00  0.00     0.022 A 
BRANCH  87  91
ATOM     91  S   UNL A   1      44.899  37.554  27.696  1.00  0.00     0.124 S 
ATOM     92  O   UNL A   1      45.905  36.949  26.831  1.00  0.00    -0.237 OA
ATOM     93  O   UNL A   1      43.530  37.537  27.191  1.00  0.00    -0.237 OA
ATOM     94  O   UNL A   1      45.306  38.800  28.344  1.00  0.00    -0.744 OA
ENDBRANCH  87  91
ENDBRANCH  61  84
ENDBRANCH  35  36
ENDBRANCH  27  30
ENDBRANCH  25  26
ENDBRANCH   1  25
TORSDOF 18
ENDMDL
MODEL 2
REMARK VINA RESULT:     -11.2      4.857      9.827
REMARK SMILES CC(C)C[C@H](NS(=O)(=O)N1C[C@@H](C)C[C@H](C)C1)C(=O)NCCCNC(=O)c1ccc(-c2c3nc(c(-c4cc(S(=O)(=O)[O-])ccc4F)c4ccc([nH]4)c(-c4cc(S(=O)(=O)[O-])ccc4F)c4nc(c(-c5cc(S(=O)(=O)[O-])ccc5F)c5ccc2[nH]5)C=C4)C=C3)cc1
REMARK SMILES IDX 22 1 21 2 20 3 18 4 19 5 5 7 4 8 2 9 1 10 3 11 6 12 7 14
REMARK SMILES IDX 8 15 9 16 10 17 11 18 17 19 12 20 15 21 13 22 14 23 16 24
REMARK SMILES IDX 23 25 24 26 25 27 26 29 27 30 28 31 89 32 29 33 88 34 30 35
REMARK SMILES IDX 31 36 32 37 82 38 33 39 87 40 81 41 83 42 34 43 86 44 80 45
REMARK SMILES IDX 79 46 35 48 67 49 47 50 66 51 48 52 51 53 65 54 84 55 49 56
REMARK SMILES IDX 50 57 64 59 85 60 52 61 36 62 37 63 45 64 38 65 44 66 46 67
REMARK SMILES IDX 43 68 39 69 40 70 41 71 42 72 68 73 69 74 77 75 70 76 76 77
REMARK SMILES IDX 78 78 75 79 71 80 72 81 73 82 74 83 53 84 54 85 62 86 55 87
REMARK SMILES IDX 61 88 63 89 60 90 56 91 57 92 58 93 59 94
REMARK H PARENT 20 6 6 13 24 28 83 47 51 58
REMARK Flexibility Score: inf
ROOT
ATOM      1  C   UNL A   1      32.287  28.767  26.535  1.00  0.00     0.042 C 
ENDROOT
BRANCH   1   2
ATOM      2  C   UNL A   1      32.368  27.264  26.339  1.00  0.00     0.117 C 
BRANCH   2   3
ATOM      3  N   UNL A   1      31.144  26.579  26.730  1.00  0.00    -0.355 N 
ATOM      4  C   UNL A   1      30.347  25.725  26.020  1.00  0.00     0.238 C 
ATOM      5  O   UNL A   1      29.378  25.225  26.597  1.00  0.00    -0.273 OA
ATOM      6  H   UNL A   1      30.844  26.759  27.650  1.00  0.00     0.163 HD
BRANCH   4   7
ATOM      7  C   UNL A   1      30.649  25.405  24.544  1.00  0.00     0.160 C 
BRANCH   7   8
ATOM      8  C   UNL A   1      29.741  26.221  23.619  1.00  0.00     0.033 C 
BRANCH   8   9
ATOM      9  C   UNL A   1      30.044  27.732  23.567  1.00  0.00    -0.015 C 
ATOM     10  C   UNL A   1      31.208  28.045  22.628  1.00  0.00     0.007 C 
ATOM     11  C   UNL A   1      28.785  28.477  23.113  1.00  0.00     0.007 C 
ENDBRANCH   8   9
ENDBRANCH   7   8
BRANCH   7  12
ATOM     12  N   UNL A   1      30.621  23.933  24.426  1.00  0.00    -0.190 NA
ATOM     13  H   UNL A   1      30.490  23.757  23.430  1.00  0.00     0.143 HD
BRANCH  12  14
ATOM     14  S   UNL A   1      31.773  22.852  24.891  1.00  0.00     0.280 S 
ATOM     15  O   UNL A   1      31.255  22.344  26.142  1.00  0.00    -0.195 OA
ATOM     16  O   UNL A   1      32.076  21.975  23.792  1.00  0.00    -0.195 OA
BRANCH  14  17
ATOM     17  N   UNL A   1      33.074  23.862  25.196  1.00  0.00    -0.188 NA
ATOM     18  C   UNL A   1      33.604  23.932  26.579  1.00  0.00     0.106 C 
ATOM     19  C   UNL A   1      34.134  23.997  24.178  1.00  0.00     0.106 C 
ATOM     20  C   UNL A   1      34.698  22.878  26.832  1.00  0.00     0.001 C 
ATOM     21  C   UNL A   1      35.166  22.876  24.324  1.00  0.00     0.001 C 
ATOM     22  C   UNL A   1      34.136  21.465  27.012  1.00  0.00     0.009 C 
ATOM     23  C   UNL A   1      35.774  22.913  25.732  1.00  0.00     0.009 C 
ATOM     24  C   UNL A   1      36.240  22.994  23.245  1.00  0.00     0.009 C 
ENDBRANCH  14  17
ENDBRANCH  12  14
ENDBRANCH   7  12
ENDBRANCH   4   7
ENDBRANCH   2   3
ENDBRANCH   1   2
BRANCH   1  25
ATOM     25  C   UNL A   1      33.642  29.444  26.646  1.00  0.00     0.118 C 
BRANCH  25  26
ATOM     26  N   UNL A   1      33.542  30.822  27.103  1.00  0.00    -0.352 N 
ATOM     27  C   UNL A   1      34.327  31.520  27.986  1.00  0.00     0.251 C 
ATOM     28  H   UNL A   1      32.794  31.334  26.718  1.00  0.00     0.163 HD
ATOM     29  O   UNL A   1      33.941  32.614  28.388  1.00  0.00    -0.269 OA
BRANCH  27  30
ATOM     30  C   UNL A   1      35.612  30.959  28.463  1.00  0.00     0.039 A 
ATOM     31  C   UNL A   1      35.586  29.867  29.335  1.00  0.00     0.014 A 
ATOM     32  C   UNL A   1      36.837  31.516  28.088  1.00  0.00     0.014 A 
ATOM     33  C   UNL A   1      36.784  29.321  29.796  1.00  0.00     0.010 A 
ATOM     34  C   UNL A   1      38.029  30.900  28.454  1.00  0.00     0.010 A 
ATOM     35  C   UNL A   1      38.019  29.814  29.340  1.00  0.00    -0.014 A 
BRANCH  35  36
ATOM     36  C   UNL A   1      39.299  29.241  29.832  1.00  0.00     0.031 A 
ATOM     37  C   UNL A   1      39.959  29.814  31.061  1.00  0.00     0.074 A 
ATOM     38  C   UNL A   1      39.870  28.216  29.171  1.00  0.00     0.049 A 
ATOM     39  N   UNL A   1      41.067  29.446  31.653  1.00  0.00    -0.248 NA
ATOM     40  C   UNL A   1      39.304  30.971  31.690  1.00  0.00     0.031 C 
ATOM     41  C   UNL A   1      39.350  27.609  27.943  1.00  0.00     0.029 A 
ATOM     42  N   UNL A   1      41.006  27.494  29.440  1.00  0.00    -0.354 N 
ATOM     43  C   UNL A   1      41.241  30.328  32.716  1.00  0.00     0.074 A 
ATOM     44  C   UNL A   1      40.172  31.297  32.634  1.00  0.00     0.031 C 
ATOM     45  C   UNL A   1      40.136  26.578  27.595  1.00  0.00     0.029 A 
ATOM     46  C   UNL A   1      41.242  26.478  28.542  1.00  0.00     0.049 A 
ATOM     47  H   UNL A   1      41.597  27.686  30.204  1.00  0.00     0.167 HD
ATOM     48  C   UNL A   1      42.186  30.312  33.689  1.00  0.00     0.034 A 
ATOM     49  C   UNL A   1      42.236  25.569  28.489  1.00  0.00     0.034 A 
ATOM     50  C   UNL A   1      43.244  29.333  33.757  1.00  0.00     0.049 A 
ATOM     51  C   UNL A   1      43.287  25.584  29.571  1.00  0.00     0.074 A 
ATOM     52  C   UNL A   1      44.233  29.197  34.716  1.00  0.00     0.029 A 
ATOM     53  N   UNL A   1      43.456  28.324  32.825  1.00  0.00    -0.354 N 
ATOM     54  N   UNL A   1      43.408  26.394  30.599  1.00  0.00    -0.248 NA
ATOM     55  C   UNL A   1      44.321  24.547  29.497  1.00  0.00     0.031 C 
ATOM     56  C   UNL A   1      45.088  28.163  34.321  1.00  0.00     0.029 A 
ATOM     57  C   UNL A   1      44.576  27.583  33.171  1.00  0.00     0.049 A 
ATOM     58  H   UNL A   1      42.894  28.160  32.034  1.00  0.00     0.167 HD
ATOM     59  C   UNL A   1      44.510  25.932  31.317  1.00  0.00     0.074 A 
ATOM     60  C   UNL A   1      44.999  24.765  30.612  1.00  0.00     0.031 C 
ATOM     61  C   UNL A   1      45.062  26.424  32.458  1.00  0.00     0.034 A 
BRANCH  48  62
ATOM     62  C   UNL A   1      42.126  31.403  34.735  1.00  0.00     0.023 A 
ATOM     63  C   UNL A   1      41.132  31.423  35.731  1.00  0.00     0.031 A 
ATOM     64  C   UNL A   1      43.058  32.457  34.720  1.00  0.00     0.131 A 
ATOM     65  C   UNL A   1      41.043  32.510  36.614  1.00  0.00     0.055 A 
ATOM     66  C   UNL A   1      43.020  33.489  35.661  1.00  0.00     0.041 A 
ATOM     67  F   UNL A   1      44.015  32.511  33.781  1.00  0.00    -0.206 F 
ATOM     68  C   UNL A   1      41.998  33.528  36.605  1.00  0.00     0.022 A 
BRANCH  65  69
ATOM     69  S   UNL A   1      39.571  32.656  37.663  1.00  0.00     0.124 S 
ATOM     70  O   UNL A   1      38.816  31.465  37.278  1.00  0.00    -0.237 OA
ATOM     71  O   UNL A   1      40.137  32.646  39.006  1.00  0.00    -0.237 OA
ATOM     72  O   UNL A   1      38.976  33.923  37.245  1.00  0.00    -0.744 OA
ENDBRANCH  65  69
ENDBRANCH  48  62
BRANCH  49  73
ATOM     73  C   UNL A   1      42.290  24.566  27.385  1.00  0.00     0.023 A 
ATOM     74  C   UNL A   1      41.591  23.351  27.469  1.00  0.00     0.031 A 
ATOM     75  C   UNL A   1      43.089  24.787  26.249  1.00  0.00     0.131 A 
ATOM     76  C   UNL A   1      41.750  22.381  26.468  1.00  0.00     0.055 A 
ATOM     77  C   UNL A   1      43.193  23.845  25.224  1.00  0.00     0.041 A 
ATOM     78  F   UNL A   1      43.778  25.933  26.114  1.00  0.00    -0.206 F 
ATOM     79  C   UNL A   1      42.534  22.626  25.339  1.00  0.00     0.022 A 
BRANCH  76  80
ATOM     80  S   UNL A   1      41.004  20.746  26.715  1.00  0.00     0.124 S 
ATOM     81  O   UNL A   1      40.818  20.720  28.161  1.00  0.00    -0.237 OA
ATOM     82  O   UNL A   1      39.789  20.843  25.913  1.00  0.00    -0.237 OA
ATOM     83  O   UNL A   1      42.016  19.828  26.198  1.00  0.00    -0.744 OA
ENDBRANCH  76  80
ENDBRANCH  49  73
BRANCH  61  84
ATOM     84  C   UNL A   1      46.221  25.652  33.046  1.00  0.00     0.023 A 
ATOM     85  C   UNL A   1      46.031  24.581  33.938  1.00  0.00     0.031 A 
ATOM     86  C   UNL A   1      47.543  26.026  32.742  1.00  0.00     0.131 A 
ATOM     87  C   UNL A   1      47.137  23.986  34.563  1.00  0.00     0.055 A 
ATOM     88  C   UNL A   1      48.642  25.372  33.302  1.00  0.00     0.041 A 
ATOM     89  F   UNL A   1      47.791  27.042  31.899  1.00  0.00    -0.206 F 
ATOM     90  C   UNL A   1      48.441  24.360  34.235  1.00  0.00     0.022 A 
BRANCH  87  91
ATOM     91  S   UNL A   1      46.841  22.824  35.925  1.00  0.00     0.124 S 
ATOM     92  O   UNL A   1      48.185  22.328  36.197  1.00  0.00    -0.237 OA
ATOM     93  O   UNL A   1      46.260  23.686  36.949  1.00  0.00    -0.237 OA
ATOM     94  O   UNL A   1      45.923  21.845  35.346  1.00  0.00    -0.744 OA
ENDBRANCH  87  91
ENDBRANCH  61  84
ENDBRANCH  35  36
ENDBRANCH  27  30
ENDBRANCH  25  26
ENDBRANCH   1  25
TORSDOF 18
ENDMDL
MODEL 3
REMARK VINA RESULT:     -11.2      4.849     10.082
REMARK SMILES CC(C)C[C@H](NS(=O)(=O)N1C[C@@H](C)C[C@H](C)C1)C(=O)NCCCNC(=O)c1ccc(-c2c3nc(c(-c4cc(S(=O)(=O)[O-])ccc4F)c4ccc([nH]4)c(-c4cc(S(=O)(=O)[O-])ccc4F)c4nc(c(-c5cc(S(=O)(=O)[O-])ccc5F)c5ccc2[nH]5)C=C4)C=C3)cc1
REMARK SMILES IDX 22 1 21 2 20 3 18 4 19 5 5 7 4 8 2 9 1 10 3 11 6 12 7 14
REMARK SMILES IDX 8 15 9 16 10 17 11 18 17 19 12 20 15 21 13 22 14 23 16 24
REMARK SMILES IDX 23 25 24 26 25 27 26 29 27 30 28 31 89 32 29 33 88 34 30 35
REMARK SMILES IDX 31 36 32 37 82 38 33 39 87 40 81 41 83 42 34 43 86 44 80 45
REMARK SMILES IDX 79 46 35 48 67 49 47 50 66 51 48 52 51 53 65 54 84 55 49 56
REMARK SMILES IDX 50 57 64 59 85 60 52 61 36 62 37 63 45 64 38 65 44 66 46 67
REMARK SMILES IDX 43 68 39 69 40 70 41 71 42 72 68 73 69 74 77 75 70 76 76 77
REMARK SMILES IDX 78 78 75 79 71 80 72 81 73 82 74 83 53 84 54 85 62 86 55 87
REMARK SMILES IDX 61 88 63 89 60 90 56 91 57 92 58 93 59 94
REMARK H PARENT 20 6 6 13 24 28 83 47 51 58
REMARK Flexibility Score: inf
ROOT
ATOM      1  C   UNL A   1      31.572  29.490  26.891  1.00  0.00     0.042 C 
ENDROOT
BRANCH   1   2
ATOM      2  C   UNL A   1      32.129  28.122  27.239  1.00  0.00     0.117 C 
BRANCH   2   3
ATOM      3  N   UNL A   1      31.117  27.076  27.198  1.00  0.00    -0.355 N 
ATOM      4  C   UNL A   1      30.709  26.284  26.161  1.00  0.00     0.238 C 
ATOM      5  O   UNL A   1      29.859  25.421  26.393  1.00  0.00    -0.273 OA
ATOM      6  H   UNL A   1      30.655  26.913  28.052  1.00  0.00     0.163 HD
BRANCH   4   7
ATOM      7  C   UNL A   1      31.290  26.473  24.747  1.00  0.00     0.160 C 
BRANCH   7   8
ATOM      8  C   UNL A   1      30.201  26.930  23.773  1.00  0.00     0.033 C 
BRANCH   8   9
ATOM      9  C   UNL A   1      30.148  28.450  23.514  1.00  0.00    -0.015 C 
ATOM     10  C   UNL A   1      31.336  28.924  22.678  1.00  0.00     0.007 C 
ATOM     11  C   UNL A   1      28.834  28.787  22.801  1.00  0.00     0.007 C 
ENDBRANCH   8   9
ENDBRANCH   7   8
BRANCH   7  12
ATOM     12  N   UNL A   1      32.027  25.231  24.434  1.00  0.00    -0.190 NA
ATOM     13  H   UNL A   1      32.225  25.294  23.436  1.00  0.00     0.143 HD
BRANCH  12  14
ATOM     14  S   UNL A   1      33.429  24.684  25.102  1.00  0.00     0.280 S 
ATOM     15  O   UNL A   1      34.308  25.826  24.995  1.00  0.00    -0.195 OA
ATOM     16  O   UNL A   1      33.145  24.072  26.373  1.00  0.00    -0.195 OA
BRANCH  14  17
ATOM     17  N   UNL A   1      33.893  23.517  23.994  1.00  0.00    -0.188 NA
ATOM     18  C   UNL A   1      35.310  23.479  23.559  1.00  0.00     0.106 C 
ATOM     19  C   UNL A   1      33.291  22.171  24.070  1.00  0.00     0.106 C 
ATOM     20  C   UNL A   1      36.169  22.583  24.469  1.00  0.00     0.001 C 
ATOM     21  C   UNL A   1      34.048  21.300  25.075  1.00  0.00     0.001 C 
ATOM     22  C   UNL A   1      36.495  23.235  25.816  1.00  0.00     0.009 C 
ATOM     23  C   UNL A   1      35.523  21.199  24.663  1.00  0.00     0.009 C 
ATOM     24  C   UNL A   1      33.399  19.921  25.182  1.00  0.00     0.009 C 
ENDBRANCH  14  17
ENDBRANCH  12  14
ENDBRANCH   7  12
ENDBRANCH   4   7
ENDBRANCH   2   3
ENDBRANCH   1   2
BRANCH   1  25
ATOM     25  C   UNL A   1      32.556  30.384  26.156  1.00  0.00     0.118 C 
BRANCH  25  26
ATOM     26  N   UNL A   1      32.379  31.792  26.476  1.00  0.00    -0.352 N 
ATOM     27  C   UNL A   1      33.051  32.587  27.371  1.00  0.00     0.251 C 
ATOM     28  H   UNL A   1      31.666  32.246  25.972  1.00  0.00     0.163 HD
ATOM     29  O   UNL A   1      32.600  33.700  27.632  1.00  0.00    -0.269 OA
BRANCH  27  30
ATOM     30  C   UNL A   1      34.288  32.108  28.028  1.00  0.00     0.039 A 
ATOM     31  C   UNL A   1      34.286  30.847  28.629  1.00  0.00     0.014 A 
ATOM     32  C   UNL A   1      35.438  32.900  28.086  1.00  0.00     0.014 A 
ATOM     33  C   UNL A   1      35.442  30.374  29.251  1.00  0.00     0.010 A 
ATOM     34  C   UNL A   1      36.621  32.382  28.603  1.00  0.00     0.010 A 
ATOM     35  C   UNL A   1      36.629  31.126  29.223  1.00  0.00    -0.014 A 
BRANCH  35  36
ATOM     36  C   UNL A   1      37.862  30.631  29.890  1.00  0.00     0.031 A 
ATOM     37  C   UNL A   1      38.191  31.075  31.293  1.00  0.00     0.074 A 
ATOM     38  C   UNL A   1      38.687  29.793  29.233  1.00  0.00     0.049 A 
ATOM     39  N   UNL A   1      39.209  30.747  32.048  1.00  0.00    -0.248 NA
ATOM     40  C   UNL A   1      37.271  32.039  31.919  1.00  0.00     0.031 C 
ATOM     41  C   UNL A   1      38.499  29.330  27.856  1.00  0.00     0.029 A 
ATOM     42  N   UNL A   1      39.843  29.171  29.635  1.00  0.00    -0.354 N 
ATOM     43  C   UNL A   1      39.052  31.466  33.230  1.00  0.00     0.074 A 
ATOM     44  C   UNL A   1      37.891  32.310  33.056  1.00  0.00     0.031 C 
ATOM     45  C   UNL A   1      39.474  28.462  27.547  1.00  0.00     0.029 A 
ATOM     46  C   UNL A   1      40.385  28.341  28.681  1.00  0.00     0.049 A 
ATOM     47  H   UNL A   1      40.245  29.306  30.523  1.00  0.00     0.167 HD
ATOM     48  C   UNL A   1      39.790  31.405  34.367  1.00  0.00     0.034 A 
ATOM     49  C   UNL A   1      41.490  27.570  28.716  1.00  0.00     0.034 A 
ATOM     50  C   UNL A   1      40.944  30.554  34.524  1.00  0.00     0.049 A 
ATOM     51  C   UNL A   1      42.306  27.534  29.985  1.00  0.00     0.074 A 
ATOM     52  C   UNL A   1      41.744  30.383  35.640  1.00  0.00     0.029 A 
ATOM     53  N   UNL A   1      41.469  29.733  33.532  1.00  0.00    -0.354 N 
ATOM     54  N   UNL A   1      42.115  28.182  31.112  1.00  0.00    -0.248 NA
ATOM     55  C   UNL A   1      43.472  26.645  29.992  1.00  0.00     0.031 C 
ATOM     56  C   UNL A   1      42.796  29.527  35.300  1.00  0.00     0.029 A 
ATOM     57  C   UNL A   1      42.597  29.079  34.003  1.00  0.00     0.049 A 
ATOM     58  H   UNL A   1      41.094  29.632  32.628  1.00  0.00     0.167 HD
ATOM     59  C   UNL A   1      43.116  27.741  31.976  1.00  0.00     0.074 A 
ATOM     60  C   UNL A   1      43.890  26.762  31.242  1.00  0.00     0.031 C 
ATOM     61  C   UNL A   1      43.368  28.108  33.261  1.00  0.00     0.034 A 
BRANCH  48  62
ATOM     62  C   UNL A   1      39.380  32.307  35.511  1.00  0.00     0.023 A 
ATOM     63  C   UNL A   1      39.755  33.662  35.559  1.00  0.00     0.031 A 
ATOM     64  C   UNL A   1      38.629  31.798  36.586  1.00  0.00     0.131 A 
ATOM     65  C   UNL A   1      39.451  34.436  36.690  1.00  0.00     0.055 A 
ATOM     66  C   UNL A   1      38.250  32.598  37.666  1.00  0.00     0.041 A 
ATOM     67  F   UNL A   1      38.263  30.507  36.614  1.00  0.00    -0.206 F 
ATOM     68  C   UNL A   1      38.676  33.922  37.730  1.00  0.00     0.022 A 
BRANCH  65  69
ATOM     69  S   UNL A   1      40.221  36.070  36.854  1.00  0.00     0.124 S 
ATOM     70  O   UNL A   1      39.541  36.599  38.034  1.00  0.00    -0.237 OA
ATOM     71  O   UNL A   1      41.631  35.740  37.024  1.00  0.00    -0.237 OA
ATOM     72  O   UNL A   1      39.882  36.736  35.598  1.00  0.00    -0.744 OA
ENDBRANCH  65  69
ENDBRANCH  48  62
BRANCH  49  73
ATOM     73  C   UNL A   1      41.893  26.764  27.527  1.00  0.00     0.023 A 
ATOM     74  C   UNL A   1      41.581  25.398  27.431  1.00  0.00     0.031 A 
ATOM     75  C   UNL A   1      42.646  27.340  26.487  1.00  0.00     0.131 A 
ATOM     76  C   UNL A   1      42.069  24.642  26.355  1.00  0.00     0.055 A 
ATOM     77  C   UNL A   1      43.075  26.597  25.386  1.00  0.00     0.041 A 
ATOM     78  F   UNL A   1      42.972  28.642  26.525  1.00  0.00    -0.206 F 
ATOM     79  C   UNL A   1      42.800  25.235  25.324  1.00  0.00     0.022 A 
BRANCH  76  80
ATOM     80  S   UNL A   1      41.828  22.844  26.375  1.00  0.00     0.124 S 
ATOM     81  O   UNL A   1      42.387  22.484  27.673  1.00  0.00    -0.237 OA
ATOM     82  O   UNL A   1      40.378  22.731  26.246  1.00  0.00    -0.237 OA
ATOM     83  O   UNL A   1      42.591  22.384  25.217  1.00  0.00    -0.744 OA
ENDBRANCH  76  80
ENDBRANCH  49  73
BRANCH  61  84
ATOM     84  C   UNL A   1      44.494  27.389  33.970  1.00  0.00     0.023 A 
ATOM     85  C   UNL A   1      44.282  26.206  34.700  1.00  0.00     0.031 A 
ATOM     86  C   UNL A   1      45.794  27.927  33.952  1.00  0.00     0.131 A 
ATOM     87  C   UNL A   1      45.328  25.653  35.454  1.00  0.00     0.055 A 
ATOM     88  C   UNL A   1      46.851  27.323  34.635  1.00  0.00     0.041 A 
ATOM     89  F   UNL A   1      46.059  29.056  33.276  1.00  0.00    -0.206 F 
ATOM     90  C   UNL A   1      46.616  26.191  35.409  1.00  0.00     0.022 A 
BRANCH  87  91
ATOM     91  S   UNL A   1      44.945  24.311  36.614  1.00  0.00     0.124 S 
ATOM     92  O   UNL A   1      44.036  24.969  37.547  1.00  0.00    -0.237 OA
ATOM     93  O   UNL A   1      44.346  23.307  35.742  1.00  0.00    -0.237 OA
ATOM     94  O   UNL A   1      46.250  23.954  37.167  1.00  0.00    -0.744 OA
ENDBRANCH  87  91
ENDBRANCH  61  84
ENDBRANCH  35  36
ENDBRANCH  27  30
ENDBRANCH  25  26
ENDBRANCH   1  25
TORSDOF 18
ENDMDL
