MODEL 1
REMARK VINA RESULT:     -11.4      0.000      0.000
REMARK SMILES CC[C@@](C)(NC(=O)c1ccncc1F)C(=O)NCCCNC(=O)c1ccc(-c2c3nc(c(-c4cc(S(=O)(=O)[O-])ccc4F)c4ccc([nH]4)c(-c4cc(S(=O)(=O)[O-])ccc4F)c4nc(c(-c5cc(S(=O)(=O)[O-])ccc5F)c5ccc2[nH]5)C=C4)C=C3)cc1
REMARK SMILES IDX 19 1 18 2 17 3 15 4 16 5 3 7 4 8 2 9 1 10 5 11 6 12 7 14
REMARK SMILES IDX 8 15 9 16 13 17 10 18 12 19 14 20 11 21 20 22 21 23 22 24
REMARK SMILES IDX 23 26 24 27 25 28 86 29 26 30 85 31 27 32 28 33 29 34 79 35
REMARK SMILES IDX 30 36 84 37 78 38 80 39 31 40 83 41 77 42 76 43 32 45 64 46
REMARK SMILES IDX 44 47 63 48 45 49 48 50 62 51 81 52 46 53 47 54 61 56 82 57
REMARK SMILES IDX 49 58 33 59 34 60 42 61 35 62 41 63 43 64 40 65 36 66 37 67
REMARK SMILES IDX 38 68 39 69 65 70 66 71 74 72 67 73 73 74 75 75 72 76 68 77
REMARK SMILES IDX 69 78 70 79 71 80 50 81 51 82 59 83 52 84 58 85 60 86 57 87
REMARK SMILES IDX 53 88 54 89 55 90 56 91
REMARK H PARENT 17 6 5 13 21 25 80 44 48 55
REMARK Flexibility Score: inf
ROOT
ATOM      1  C   UNL A   1      33.095  28.959  23.867  1.00  0.00     0.042 C 
ENDROOT
BRANCH   1   2
ATOM      2  C   UNL A   1      32.220  27.849  23.283  1.00  0.00     0.117 C 
BRANCH   2   3
ATOM      3  N   UNL A   1      32.709  27.132  22.118  1.00  0.00    -0.354 N 
ATOM      4  C   UNL A   1      33.087  25.843  21.866  1.00  0.00     0.245 C 
ATOM      5  O   UNL A   1      33.278  25.577  20.672  1.00  0.00    -0.272 OA
ATOM      6  H   UNL A   1      32.786  27.710  21.325  1.00  0.00     0.163 HD
BRANCH   4   7
ATOM      7  C   UNL A   1      33.164  24.731  22.955  1.00  0.00     0.116 C 
ATOM      8  C   UNL A   1      33.276  23.388  22.180  1.00  0.00     0.045 C 
BRANCH   7   9
ATOM      9  C   UNL A   1      34.421  24.843  23.875  1.00  0.00     0.035 C 
ATOM     10  C   UNL A   1      35.400  23.670  23.881  1.00  0.00     0.007 C 
ENDBRANCH   7   9
BRANCH   7  11
ATOM     11  N   UNL A   1      31.972  24.627  23.843  1.00  0.00    -0.338 N 
ATOM     12  C   UNL A   1      31.507  23.720  24.766  1.00  0.00     0.255 C 
ATOM     13  H   UNL A   1      31.368  25.397  23.744  1.00  0.00     0.164 HD
ATOM     14  O   UNL A   1      30.277  23.706  24.893  1.00  0.00    -0.269 OA
BRANCH  12  15
ATOM     15  C   UNL A   1      32.280  22.790  25.636  1.00  0.00     0.078 A 
ATOM     16  C   UNL A   1      32.809  23.328  26.822  1.00  0.00     0.037 A 
ATOM     17  C   UNL A   1      32.699  21.514  25.302  1.00  0.00     0.154 A 
ATOM     18  C   UNL A   1      33.689  22.574  27.589  1.00  0.00     0.112 A 
ATOM     19  C   UNL A   1      33.566  20.822  26.132  1.00  0.00     0.151 A 
ATOM     20  F   UNL A   1      32.413  20.941  24.145  1.00  0.00    -0.204 F 
ATOM     21  N   UNL A   1      34.066  21.320  27.277  1.00  0.00    -0.262 NA
ENDBRANCH  12  15
ENDBRANCH   7  11
ENDBRANCH   4   7
ENDBRANCH   2   3
ENDBRANCH   1   2
BRANCH   1  22
ATOM     22  C   UNL A   1      33.180  29.112  25.385  1.00  0.00     0.118 C 
BRANCH  22  23
ATOM     23  N   UNL A   1      32.613  30.340  25.902  1.00  0.00    -0.352 N 
ATOM     24  C   UNL A   1      33.081  31.205  26.857  1.00  0.00     0.251 C 
ATOM     25  H   UNL A   1      31.750  30.595  25.501  1.00  0.00     0.163 HD
ATOM     26  O   UNL A   1      32.379  32.174  27.154  1.00  0.00    -0.269 OA
BRANCH  24  27
ATOM     27  C   UNL A   1      34.369  30.993  27.566  1.00  0.00     0.039 A 
ATOM     28  C   UNL A   1      34.629  29.711  28.060  1.00  0.00     0.014 A 
ATOM     29  C   UNL A   1      35.284  32.021  27.824  1.00  0.00     0.014 A 
ATOM     30  C   UNL A   1      35.803  29.449  28.773  1.00  0.00     0.010 A 
ATOM     31  C   UNL A   1      36.488  31.745  28.495  1.00  0.00     0.010 A 
ATOM     32  C   UNL A   1      36.759  30.457  28.983  1.00  0.00    -0.014 A 
BRANCH  32  33
ATOM     33  C   UNL A   1      38.027  30.130  29.701  1.00  0.00     0.031 A 
ATOM     34  C   UNL A   1      38.288  30.635  31.097  1.00  0.00     0.074 A 
ATOM     35  C   UNL A   1      38.940  29.338  29.101  1.00  0.00     0.049 A 
ATOM     36  N   UNL A   1      39.284  30.360  31.903  1.00  0.00    -0.248 NA
ATOM     37  C   UNL A   1      37.314  31.584  31.652  1.00  0.00     0.031 C 
ATOM     38  C   UNL A   1      38.831  28.816  27.738  1.00  0.00     0.029 A 
ATOM     39  N   UNL A   1      40.126  28.818  29.560  1.00  0.00    -0.354 N 
ATOM     40  C   UNL A   1      39.055  31.095  33.063  1.00  0.00     0.074 A 
ATOM     41  C   UNL A   1      37.857  31.875  32.825  1.00  0.00     0.031 C 
ATOM     42  C   UNL A   1      39.879  28.016  27.487  1.00  0.00     0.029 A 
ATOM     43  C   UNL A   1      40.756  27.993  28.655  1.00  0.00     0.049 A 
ATOM     44  H   UNL A   1      40.492  29.016  30.452  1.00  0.00     0.167 HD
ATOM     45  C   UNL A   1      39.762  31.103  34.224  1.00  0.00     0.034 A 
ATOM     46  C   UNL A   1      41.902  27.290  28.751  1.00  0.00     0.034 A 
ATOM     47  C   UNL A   1      40.961  30.327  34.448  1.00  0.00     0.049 A 
ATOM     48  C   UNL A   1      42.677  27.325  30.045  1.00  0.00     0.074 A 
ATOM     49  C   UNL A   1      41.726  30.233  35.599  1.00  0.00     0.029 A 
ATOM     50  N   UNL A   1      41.581  29.522  33.500  1.00  0.00    -0.354 N 
ATOM     51  N   UNL A   1      42.406  27.973  31.155  1.00  0.00    -0.248 NA
ATOM     52  C   UNL A   1      43.898  26.513  30.104  1.00  0.00     0.031 C 
ATOM     53  C   UNL A   1      42.843  29.434  35.325  1.00  0.00     0.029 A 
ATOM     54  C   UNL A   1      42.733  28.955  34.030  1.00  0.00     0.049 A 
ATOM     55  H   UNL A   1      41.251  29.373  32.584  1.00  0.00     0.167 HD
ATOM     56  C   UNL A   1      43.411  27.622  32.052  1.00  0.00     0.074 A 
ATOM     57  C   UNL A   1      44.272  26.683  31.363  1.00  0.00     0.031 C 
ATOM     58  C   UNL A   1      43.603  28.037  33.332  1.00  0.00     0.034 A 
BRANCH  45  59
ATOM     59  C   UNL A   1      39.266  32.004  35.335  1.00  0.00     0.023 A 
ATOM     60  C   UNL A   1      39.663  33.350  35.428  1.00  0.00     0.031 A 
ATOM     61  C   UNL A   1      38.394  31.509  36.321  1.00  0.00     0.131 A 
ATOM     62  C   UNL A   1      39.252  34.131  36.520  1.00  0.00     0.055 A 
ATOM     63  C   UNL A   1      37.922  32.316  37.360  1.00  0.00     0.041 A 
ATOM     64  F   UNL A   1      37.992  30.229  36.299  1.00  0.00    -0.206 F 
ATOM     65  C   UNL A   1      38.362  33.631  37.473  1.00  0.00     0.022 A 
BRANCH  62  66
ATOM     66  S   UNL A   1      40.007  35.763  36.755  1.00  0.00     0.124 S 
ATOM     67  O   UNL A   1      41.418  35.415  36.914  1.00  0.00    -0.237 OA
ATOM     68  O   UNL A   1      39.656  36.455  35.521  1.00  0.00    -0.237 OA
ATOM     69  O   UNL A   1      39.359  36.271  37.963  1.00  0.00    -0.744 OA
ENDBRANCH  62  66
ENDBRANCH  45  59
BRANCH  46  70
ATOM     70  C   UNL A   1      42.396  26.486  27.594  1.00  0.00     0.023 A 
ATOM     71  C   UNL A   1      42.033  25.139  27.433  1.00  0.00     0.031 A 
ATOM     72  C   UNL A   1      43.284  27.044  26.657  1.00  0.00     0.131 A 
ATOM     73  C   UNL A   1      42.593  24.382  26.392  1.00  0.00     0.055 A 
ATOM     74  C   UNL A   1      43.794  26.303  25.590  1.00  0.00     0.041 A 
ATOM     75  F   UNL A   1      43.663  28.328  26.761  1.00  0.00    -0.206 F 
ATOM     76  C   UNL A   1      43.460  24.958  25.462  1.00  0.00     0.022 A 
BRANCH  73  77
ATOM     77  S   UNL A   1      42.246  22.602  26.325  1.00  0.00     0.124 S 
ATOM     78  O   UNL A   1      40.797  22.574  26.489  1.00  0.00    -0.237 OA
ATOM     79  O   UNL A   1      42.749  22.245  25.002  1.00  0.00    -0.237 OA
ATOM     80  O   UNL A   1      43.013  22.063  27.446  1.00  0.00    -0.744 OA
ENDBRANCH  73  77
ENDBRANCH  46  70
BRANCH  58  81
ATOM     81  C   UNL A   1      44.779  27.440  34.074  1.00  0.00     0.023 A 
ATOM     82  C   UNL A   1      44.675  26.223  34.772  1.00  0.00     0.031 A 
ATOM     83  C   UNL A   1      46.007  28.124  34.128  1.00  0.00     0.131 A 
ATOM     84  C   UNL A   1      45.745  25.773  35.561  1.00  0.00     0.055 A 
ATOM     85  C   UNL A   1      47.094  27.632  34.854  1.00  0.00     0.041 A 
ATOM     86  F   UNL A   1      46.169  29.292  33.485  1.00  0.00    -0.206 F 
ATOM     87  C   UNL A   1      46.960  26.461  35.593  1.00  0.00     0.022 A 
BRANCH  84  88
ATOM     88  S   UNL A   1      45.480  24.350  36.657  1.00  0.00     0.124 S 
ATOM     89  O   UNL A   1      46.317  23.328  36.035  1.00  0.00    -0.237 OA
ATOM     90  O   UNL A   1      45.947  24.857  37.944  1.00  0.00    -0.237 OA
ATOM     91  O   UNL A   1      44.041  24.111  36.569  1.00  0.00    -0.744 OA
ENDBRANCH  84  88
ENDBRANCH  58  81
ENDBRANCH  32  33
ENDBRANCH  24  27
ENDBRANCH  22  23
ENDBRANCH   1  22
TORSDOF 16
ENDMDL
MODEL 2
REMARK VINA RESULT:     -11.3      1.772      2.147
REMARK SMILES CC[C@@](C)(NC(=O)c1ccncc1F)C(=O)NCCCNC(=O)c1ccc(-c2c3nc(c(-c4cc(S(=O)(=O)[O-])ccc4F)c4ccc([nH]4)c(-c4cc(S(=O)(=O)[O-])ccc4F)c4nc(c(-c5cc(S(=O)(=O)[O-])ccc5F)c5ccc2[nH]5)C=C4)C=C3)cc1
REMARK SMILES IDX 19 1 18 2 17 3 15 4 16 5 3 7 4 8 2 9 1 10 5 11 6 12 7 14
REMARK SMILES IDX 8 15 9 16 13 17 10 18 12 19 14 20 11 21 20 22 21 23 22 24
REMARK SMILES IDX 23 26 24 27 25 28 86 29 26 30 85 31 27 32 28 33 29 34 79 35
REMARK SMILES IDX 30 36 84 37 78 38 80 39 31 40 83 41 77 42 76 43 32 45 64 46
REMARK SMILES IDX 44 47 63 48 45 49 48 50 62 51 81 52 46 53 47 54 61 56 82 57
REMARK SMILES IDX 49 58 33 59 34 60 42 61 35 62 41 63 43 64 40 65 36 66 37 67
REMARK SMILES IDX 38 68 39 69 65 70 66 71 74 72 67 73 73 74 75 75 72 76 68 77
REMARK SMILES IDX 69 78 70 79 71 80 50 81 51 82 59 83 52 84 58 85 60 86 57 87
REMARK SMILES IDX 53 88 54 89 55 90 56 91
REMARK H PARENT 17 6 5 13 21 25 80 44 48 55
REMARK Flexibility Score: inf
ROOT
ATOM      1  C   UNL A   1      32.378  28.285  25.317  1.00  0.00     0.042 C 
ENDROOT
BRANCH   1   2
ATOM      2  C   UNL A   1      32.665  26.793  25.141  1.00  0.00     0.117 C 
BRANCH   2   3
ATOM      3  N   UNL A   1      33.372  26.367  23.946  1.00  0.00    -0.354 N 
ATOM      4  C   UNL A   1      33.347  25.253  23.154  1.00  0.00     0.245 C 
ATOM      5  O   UNL A   1      33.988  25.346  22.099  1.00  0.00    -0.272 OA
ATOM      6  H   UNL A   1      34.023  27.036  23.635  1.00  0.00     0.163 HD
BRANCH   4   7
ATOM      7  C   UNL A   1      32.489  23.989  23.459  1.00  0.00     0.116 C 
ATOM      8  C   UNL A   1      31.023  24.383  23.125  1.00  0.00     0.045 C 
BRANCH   7   9
ATOM      9  C   UNL A   1      32.852  22.757  22.572  1.00  0.00     0.035 C 
ATOM     10  C   UNL A   1      32.062  21.469  22.790  1.00  0.00     0.007 C 
ENDBRANCH   7   9
BRANCH   7  11
ATOM     11  N   UNL A   1      32.508  23.534  24.878  1.00  0.00    -0.338 N 
ATOM     12  C   UNL A   1      33.337  22.758  25.653  1.00  0.00     0.255 C 
ATOM     13  H   UNL A   1      31.737  23.873  25.386  1.00  0.00     0.164 HD
ATOM     14  O   UNL A   1      32.770  22.185  26.592  1.00  0.00    -0.269 OA
BRANCH  12  15
ATOM     15  C   UNL A   1      34.805  22.544  25.528  1.00  0.00     0.078 A 
ATOM     16  C   UNL A   1      35.626  23.670  25.710  1.00  0.00     0.037 A 
ATOM     17  C   UNL A   1      35.429  21.402  25.055  1.00  0.00     0.154 A 
ATOM     18  C   UNL A   1      36.985  23.587  25.431  1.00  0.00     0.112 A 
ATOM     19  C   UNL A   1      36.795  21.397  24.819  1.00  0.00     0.151 A 
ATOM     20  F   UNL A   1      34.767  20.318  24.687  1.00  0.00    -0.204 F 
ATOM     21  N   UNL A   1      37.592  22.464  25.005  1.00  0.00    -0.262 NA
ENDBRANCH  12  15
ENDBRANCH   7  11
ENDBRANCH   4   7
ENDBRANCH   2   3
ENDBRANCH   1   2
BRANCH   1  22
ATOM     22  C   UNL A   1      33.514  29.211  25.747  1.00  0.00     0.118 C 
BRANCH  22  23
ATOM     23  N   UNL A   1      33.085  30.479  26.300  1.00  0.00    -0.352 N 
ATOM     24  C   UNL A   1      33.690  31.302  27.215  1.00  0.00     0.251 C 
ATOM     25  H   UNL A   1      32.218  30.801  25.964  1.00  0.00     0.163 HD
ATOM     26  O   UNL A   1      33.090  32.323  27.560  1.00  0.00    -0.269 OA
BRANCH  24  27
ATOM     27  C   UNL A   1      35.007  30.988  27.826  1.00  0.00     0.039 A 
ATOM     28  C   UNL A   1      35.164  29.723  28.402  1.00  0.00     0.014 A 
ATOM     29  C   UNL A   1      36.054  31.913  27.917  1.00  0.00     0.014 A 
ATOM     30  C   UNL A   1      36.362  29.374  29.032  1.00  0.00     0.010 A 
ATOM     31  C   UNL A   1      37.276  31.543  28.504  1.00  0.00     0.010 A 
ATOM     32  C   UNL A   1      37.443  30.271  29.074  1.00  0.00    -0.014 A 
BRANCH  32  33
ATOM     33  C   UNL A   1      38.727  29.846  29.706  1.00  0.00     0.031 A 
ATOM     34  C   UNL A   1      39.131  30.344  31.070  1.00  0.00     0.074 A 
ATOM     35  C   UNL A   1      39.525  28.972  29.057  1.00  0.00     0.049 A 
ATOM     36  N   UNL A   1      40.156  29.996  31.808  1.00  0.00    -0.248 NA
ATOM     37  C   UNL A   1      38.283  31.379  31.675  1.00  0.00     0.031 C 
ATOM     38  C   UNL A   1      39.273  28.444  27.715  1.00  0.00     0.029 A 
ATOM     39  N   UNL A   1      40.693  28.358  29.440  1.00  0.00    -0.354 N 
ATOM     40  C   UNL A   1      40.074  30.762  32.968  1.00  0.00     0.074 A 
ATOM     41  C   UNL A   1      38.932  31.638  32.801  1.00  0.00     0.031 C 
ATOM     42  C   UNL A   1      40.230  27.554  27.405  1.00  0.00     0.029 A 
ATOM     43  C   UNL A   1      41.184  27.471  28.508  1.00  0.00     0.049 A 
ATOM     44  H   UNL A   1      41.138  28.535  30.300  1.00  0.00     0.167 HD
ATOM     45  C   UNL A   1      40.861  30.724  34.075  1.00  0.00     0.034 A 
ATOM     46  C   UNL A   1      42.271  26.674  28.535  1.00  0.00     0.034 A 
ATOM     47  C   UNL A   1      42.004  29.851  34.227  1.00  0.00     0.049 A 
ATOM     48  C   UNL A   1      43.137  26.659  29.771  1.00  0.00     0.074 A 
ATOM     49  C   UNL A   1      42.840  29.707  35.322  1.00  0.00     0.029 A 
ATOM     50  N   UNL A   1      42.484  28.984  33.253  1.00  0.00    -0.354 N 
ATOM     51  N   UNL A   1      43.003  27.342  30.884  1.00  0.00    -0.248 NA
ATOM     52  C   UNL A   1      44.287  25.747  29.757  1.00  0.00     0.031 C 
ATOM     53  C   UNL A   1      43.862  28.812  34.986  1.00  0.00     0.029 A 
ATOM     54  C   UNL A   1      43.619  28.328  33.711  1.00  0.00     0.049 A 
ATOM     55  H   UNL A   1      42.076  28.853  32.365  1.00  0.00     0.167 HD
ATOM     56  C   UNL A   1      44.038  26.917  31.714  1.00  0.00     0.074 A 
ATOM     57  C   UNL A   1      44.764  25.899  30.984  1.00  0.00     0.031 C 
ATOM     58  C   UNL A   1      44.356  27.330  32.970  1.00  0.00     0.034 A 
BRANCH  45  59
ATOM     59  C   UNL A   1      40.525  31.678  35.201  1.00  0.00     0.023 A 
ATOM     60  C   UNL A   1      39.513  31.393  36.135  1.00  0.00     0.031 A 
ATOM     61  C   UNL A   1      41.218  32.895  35.338  1.00  0.00     0.131 A 
ATOM     62  C   UNL A   1      39.172  32.341  37.114  1.00  0.00     0.055 A 
ATOM     63  C   UNL A   1      40.930  33.796  36.366  1.00  0.00     0.041 A 
ATOM     64  F   UNL A   1      42.183  33.235  34.469  1.00  0.00    -0.206 F 
ATOM     65  C   UNL A   1      39.891  33.529  37.252  1.00  0.00     0.022 A 
BRANCH  62  66
ATOM     66  S   UNL A   1      37.684  32.060  38.113  1.00  0.00     0.124 S 
ATOM     67  O   UNL A   1      36.776  33.074  37.581  1.00  0.00    -0.237 OA
ATOM     68  O   UNL A   1      37.349  30.676  37.800  1.00  0.00    -0.237 OA
ATOM     69  O   UNL A   1      38.139  32.299  39.481  1.00  0.00    -0.744 OA
ENDBRANCH  62  66
ENDBRANCH  45  59
BRANCH  46  70
ATOM     70  C   UNL A   1      42.610  25.816  27.361  1.00  0.00     0.023 A 
ATOM     71  C   UNL A   1      42.193  24.477  27.291  1.00  0.00     0.031 A 
ATOM     72  C   UNL A   1      43.404  26.314  26.314  1.00  0.00     0.131 A 
ATOM     73  C   UNL A   1      42.612  23.668  26.223  1.00  0.00     0.055 A 
ATOM     74  C   UNL A   1      43.772  25.521  25.225  1.00  0.00     0.041 A 
ATOM     75  F   UNL A   1      43.830  27.587  26.328  1.00  0.00    -0.206 F 
ATOM     76  C   UNL A   1      43.387  24.184  25.183  1.00  0.00     0.022 A 
BRANCH  73  77
ATOM     77  S   UNL A   1      42.208  21.899  26.259  1.00  0.00     0.124 S 
ATOM     78  O   UNL A   1      40.794  21.909  25.905  1.00  0.00    -0.237 OA
ATOM     79  O   UNL A   1      43.118  21.360  25.253  1.00  0.00    -0.237 OA
ATOM     80  O   UNL A   1      42.506  21.511  27.637  1.00  0.00    -0.744 OA
ENDBRANCH  73  77
ENDBRANCH  46  70
BRANCH  58  81
ATOM     81  C   UNL A   1      45.528  26.644  33.637  1.00  0.00     0.023 A 
ATOM     82  C   UNL A   1      45.371  25.457  34.376  1.00  0.00     0.031 A 
ATOM     83  C   UNL A   1      46.812  27.214  33.578  1.00  0.00     0.131 A 
ATOM     84  C   UNL A   1      46.454  24.929  35.094  1.00  0.00     0.055 A 
ATOM     85  C   UNL A   1      47.905  26.641  34.233  1.00  0.00     0.041 A 
ATOM     86  F   UNL A   1      47.028  28.348  32.891  1.00  0.00    -0.206 F 
ATOM     87  C   UNL A   1      47.725  25.503  35.014  1.00  0.00     0.022 A 
BRANCH  84  88
ATOM     88  S   UNL A   1      46.150  23.560  36.248  1.00  0.00     0.124 S 
ATOM     89  O   UNL A   1      46.178  24.240  37.539  1.00  0.00    -0.237 OA
ATOM     90  O   UNL A   1      44.845  23.072  35.813  1.00  0.00    -0.237 OA
ATOM     91  O   UNL A   1      47.266  22.649  36.002  1.00  0.00    -0.744 OA
ENDBRANCH  84  88
ENDBRANCH  58  81
ENDBRANCH  32  33
ENDBRANCH  24  27
ENDBRANCH  22  23
ENDBRANCH   1  22
TORSDOF 16
ENDMDL
MODEL 3
REMARK VINA RESULT:     -11.3      2.217      3.248
REMARK SMILES CC[C@@](C)(NC(=O)c1ccncc1F)C(=O)NCCCNC(=O)c1ccc(-c2c3nc(c(-c4cc(S(=O)(=O)[O-])ccc4F)c4ccc([nH]4)c(-c4cc(S(=O)(=O)[O-])ccc4F)c4nc(c(-c5cc(S(=O)(=O)[O-])ccc5F)c5ccc2[nH]5)C=C4)C=C3)cc1
REMARK SMILES IDX 19 1 18 2 17 3 15 4 16 5 3 7 4 8 2 9 1 10 5 11 6 12 7 14
REMARK SMILES IDX 8 15 9 16 13 17 10 18 12 19 14 20 11 21 20 22 21 23 22 24
REMARK SMILES IDX 23 26 24 27 25 28 86 29 26 30 85 31 27 32 28 33 29 34 79 35
REMARK SMILES IDX 30 36 84 37 78 38 80 39 31 40 83 41 77 42 76 43 32 45 64 46
REMARK SMILES IDX 44 47 63 48 45 49 48 50 62 51 81 52 46 53 47 54 61 56 82 57
REMARK SMILES IDX 49 58 33 59 34 60 42 61 35 62 41 63 43 64 40 65 36 66 37 67
REMARK SMILES IDX 38 68 39 69 65 70 66 71 74 72 67 73 73 74 75 75 72 76 68 77
REMARK SMILES IDX 69 78 70 79 71 80 50 81 51 82 59 83 52 84 58 85 60 86 57 87
REMARK SMILES IDX 53 88 54 89 55 90 56 91
REMARK H PARENT 17 6 5 13 21 25 80 44 48 55
REMARK Flexibility Score: inf
ROOT
ATOM      1  C   UNL A   1      33.028  28.404  27.113  1.00  0.00     0.042 C 
ENDROOT
BRANCH   1   2
ATOM      2  C   UNL A   1      31.565  28.172  26.732  1.00  0.00     0.117 C 
BRANCH   2   3
ATOM      3  N   UNL A   1      31.023  26.832  26.876  1.00  0.00    -0.354 N 
ATOM      4  C   UNL A   1      30.650  25.843  26.010  1.00  0.00     0.245 C 
ATOM      5  O   UNL A   1      30.397  24.752  26.538  1.00  0.00    -0.272 OA
ATOM      6  H   UNL A   1      30.894  26.578  27.818  1.00  0.00     0.163 HD
BRANCH   4   7
ATOM      7  C   UNL A   1      30.650  25.999  24.460  1.00  0.00     0.116 C 
ATOM      8  C   UNL A   1      30.527  24.559  23.890  1.00  0.00     0.045 C 
BRANCH   7   9
ATOM      9  C   UNL A   1      29.438  26.820  23.915  1.00  0.00     0.035 C 
ATOM     10  C   UNL A   1      29.741  28.117  23.167  1.00  0.00     0.007 C 
ENDBRANCH   7   9
BRANCH   7  11
ATOM     11  N   UNL A   1      31.886  26.596  23.881  1.00  0.00    -0.338 N 
ATOM     12  C   UNL A   1      33.236  26.349  23.973  1.00  0.00     0.255 C 
ATOM     13  H   UNL A   1      31.689  27.354  23.286  1.00  0.00     0.164 HD
ATOM     14  O   UNL A   1      33.950  27.343  23.791  1.00  0.00    -0.269 OA
BRANCH  12  15
ATOM     15  C   UNL A   1      33.936  25.060  24.228  1.00  0.00     0.078 A 
ATOM     16  C   UNL A   1      34.300  24.303  23.101  1.00  0.00     0.037 A 
ATOM     17  C   UNL A   1      34.084  24.439  25.456  1.00  0.00     0.154 A 
ATOM     18  C   UNL A   1      34.790  23.013  23.264  1.00  0.00     0.112 A 
ATOM     19  C   UNL A   1      34.599  23.154  25.534  1.00  0.00     0.151 A 
ATOM     20  F   UNL A   1      33.641  24.961  26.588  1.00  0.00    -0.204 F 
ATOM     21  N   UNL A   1      34.964  22.427  24.463  1.00  0.00    -0.262 NA
ENDBRANCH  12  15
ENDBRANCH   7  11
ENDBRANCH   4   7
ENDBRANCH   2   3
ENDBRANCH   1   2
BRANCH   1  22
ATOM     22  C   UNL A   1      33.777  29.582  26.490  1.00  0.00     0.118 C 
BRANCH  22  23
ATOM     23  N   UNL A   1      33.606  30.841  27.184  1.00  0.00    -0.352 N 
ATOM     24  C   UNL A   1      34.386  31.445  28.138  1.00  0.00     0.251 C 
ATOM     25  H   UNL A   1      32.800  31.346  26.930  1.00  0.00     0.163 HD
ATOM     26  O   UNL A   1      33.996  32.515  28.612  1.00  0.00    -0.269 OA
BRANCH  24  27
ATOM     27  C   UNL A   1      35.646  30.841  28.641  1.00  0.00     0.039 A 
ATOM     28  C   UNL A   1      36.848  31.323  28.112  1.00  0.00     0.014 A 
ATOM     29  C   UNL A   1      35.680  29.776  29.550  1.00  0.00     0.014 A 
ATOM     30  C   UNL A   1      38.070  30.772  28.511  1.00  0.00     0.010 A 
ATOM     31  C   UNL A   1      36.911  29.259  29.988  1.00  0.00     0.010 A 
ATOM     32  C   UNL A   1      38.120  29.746  29.469  1.00  0.00    -0.014 A 
BRANCH  32  33
ATOM     33  C   UNL A   1      39.445  29.219  29.912  1.00  0.00     0.031 A 
ATOM     34  C   UNL A   1      40.141  29.771  31.130  1.00  0.00     0.074 A 
ATOM     35  C   UNL A   1      40.014  28.203  29.228  1.00  0.00     0.049 A 
ATOM     36  N   UNL A   1      41.240  29.359  31.713  1.00  0.00    -0.248 NA
ATOM     37  C   UNL A   1      39.533  30.948  31.763  1.00  0.00     0.031 C 
ATOM     38  C   UNL A   1      39.467  27.604  28.009  1.00  0.00     0.029 A 
ATOM     39  N   UNL A   1      41.159  27.483  29.466  1.00  0.00    -0.354 N 
ATOM     40  C   UNL A   1      41.453  30.221  32.786  1.00  0.00     0.074 A 
ATOM     41  C   UNL A   1      40.399  31.214  32.730  1.00  0.00     0.031 C 
ATOM     42  C   UNL A   1      40.251  26.582  27.632  1.00  0.00     0.029 A 
ATOM     43  C   UNL A   1      41.375  26.471  28.558  1.00  0.00     0.049 A 
ATOM     44  H   UNL A   1      41.769  27.673  30.214  1.00  0.00     0.167 HD
ATOM     45  C   UNL A   1      42.419  30.176  33.740  1.00  0.00     0.034 A 
ATOM     46  C   UNL A   1      42.357  25.550  28.479  1.00  0.00     0.034 A 
ATOM     47  C   UNL A   1      43.470  29.184  33.782  1.00  0.00     0.049 A 
ATOM     48  C   UNL A   1      43.427  25.528  29.543  1.00  0.00     0.074 A 
ATOM     49  C   UNL A   1      44.471  29.026  34.727  1.00  0.00     0.029 A 
ATOM     50  N   UNL A   1      43.670  28.188  32.833  1.00  0.00    -0.354 N 
ATOM     51  N   UNL A   1      43.571  26.309  30.588  1.00  0.00    -0.248 NA
ATOM     52  C   UNL A   1      44.450  24.483  29.425  1.00  0.00     0.031 C 
ATOM     53  C   UNL A   1      45.314  27.988  34.312  1.00  0.00     0.029 A 
ATOM     54  C   UNL A   1      44.793  27.436  33.153  1.00  0.00     0.049 A 
ATOM     55  H   UNL A   1      43.096  28.037  32.046  1.00  0.00     0.167 HD
ATOM     56  C   UNL A   1      44.688  25.829  31.267  1.00  0.00     0.074 A 
ATOM     57  C   UNL A   1      45.156  24.674  30.530  1.00  0.00     0.031 C 
ATOM     58  C   UNL A   1      45.272  26.299  32.401  1.00  0.00     0.034 A 
BRANCH  45  59
ATOM     59  C   UNL A   1      42.398  31.251  34.805  1.00  0.00     0.023 A 
ATOM     60  C   UNL A   1      43.095  32.462  34.648  1.00  0.00     0.031 A 
ATOM     61  C   UNL A   1      41.680  31.059  35.999  1.00  0.00     0.131 A 
ATOM     62  C   UNL A   1      43.122  33.399  35.693  1.00  0.00     0.055 A 
ATOM     63  C   UNL A   1      41.643  32.032  37.002  1.00  0.00     0.041 A 
ATOM     64  F   UNL A   1      41.008  29.918  36.219  1.00  0.00    -0.206 F 
ATOM     65  C   UNL A   1      42.379  33.205  36.858  1.00  0.00     0.022 A 
BRANCH  62  66
ATOM     66  S   UNL A   1      44.255  34.810  35.565  1.00  0.00     0.124 S 
ATOM     67  O   UNL A   1      45.547  34.140  35.436  1.00  0.00    -0.237 OA
ATOM     68  O   UNL A   1      43.770  35.499  34.375  1.00  0.00    -0.237 OA
ATOM     69  O   UNL A   1      44.056  35.525  36.825  1.00  0.00    -0.744 OA
ENDBRANCH  62  66
ENDBRANCH  45  59
BRANCH  46  70
ATOM     70  C   UNL A   1      42.383  24.566  27.357  1.00  0.00     0.023 A 
ATOM     71  C   UNL A   1      41.614  23.392  27.397  1.00  0.00     0.031 A 
ATOM     72  C   UNL A   1      43.223  24.763  26.247  1.00  0.00     0.131 A 
ATOM     73  C   UNL A   1      41.737  22.437  26.375  1.00  0.00     0.055 A 
ATOM     74  C   UNL A   1      43.299  23.838  25.204  1.00  0.00     0.041 A 
ATOM     75  F   UNL A   1      43.980  25.869  26.155  1.00  0.00    -0.206 F 
ATOM     76  C   UNL A   1      42.563  22.660  25.272  1.00  0.00     0.022 A 
BRANCH  73  77
ATOM     77  S   UNL A   1      40.869  20.854  26.553  1.00  0.00     0.124 S 
ATOM     78  O   UNL A   1      41.726  19.956  25.788  1.00  0.00    -0.237 OA
ATOM     79  O   UNL A   1      40.873  20.667  28.000  1.00  0.00    -0.237 OA
ATOM     80  O   UNL A   1      39.556  21.118  25.965  1.00  0.00    -0.744 OA
ENDBRANCH  73  77
ENDBRANCH  46  70
BRANCH  58  81
ATOM     81  C   UNL A   1      46.465  25.530  32.924  1.00  0.00     0.023 A 
ATOM     82  C   UNL A   1      46.321  24.462  33.829  1.00  0.00     0.031 A 
ATOM     83  C   UNL A   1      47.769  25.903  32.553  1.00  0.00     0.131 A 
ATOM     84  C   UNL A   1      47.458  23.866  34.397  1.00  0.00     0.055 A 
ATOM     85  C   UNL A   1      48.896  25.255  33.063  1.00  0.00     0.041 A 
ATOM     86  F   UNL A   1      47.973  26.916  31.695  1.00  0.00    -0.206 F 
ATOM     87  C   UNL A   1      48.744  24.244  34.007  1.00  0.00     0.022 A 
BRANCH  84  88
ATOM     88  S   UNL A   1      47.233  22.684  35.757  1.00  0.00     0.124 S 
ATOM     89  O   UNL A   1      46.502  23.483  36.735  1.00  0.00    -0.237 OA
ATOM     90  O   UNL A   1      46.477  21.613  35.117  1.00  0.00    -0.237 OA
ATOM     91  O   UNL A   1      48.600  22.336  36.139  1.00  0.00    -0.744 OA
ENDBRANCH  84  88
ENDBRANCH  58  81
ENDBRANCH  32  33
ENDBRANCH  24  27
ENDBRANCH  22  23
ENDBRANCH   1  22
TORSDOF 16
ENDMDL
