MODEL 1
REMARK VINA RESULT:     -11.2      0.000      0.000
REMARK SMILES C=CCOc1ccccc1/C=C1\SC(=S)N(CC(=O)NCCCNC(=O)c2ccc(-c3c4nc(c(-c5cc(S(=O)(=O)[O-])ccc5F)c5ccc([nH]5)c(-c5cc(S(=O)(=O)[O-])ccc5F)c5nc(c(-c6cc(S(=O)(=O)[O-])ccc6F)c6ccc3[nH]6)C=C5)C=C4)cc2)C1=O
REMARK SMILES IDX 21 1 20 2 18 3 19 4 17 6 16 7 11 8 12 9 13 10 90 11 14 12
REMARK SMILES IDX 91 13 15 14 10 15 5 16 6 17 7 18 9 19 8 20 4 21 3 22 2 23
REMARK SMILES IDX 1 24 22 25 23 26 24 27 25 28 26 30 27 31 28 32 89 33 29 34
REMARK SMILES IDX 88 35 30 36 31 37 32 38 82 39 33 40 87 41 81 42 83 43 34 44
REMARK SMILES IDX 86 45 80 46 79 47 35 49 67 50 47 51 66 52 48 53 51 54 65 55
REMARK SMILES IDX 84 56 49 57 50 58 64 60 85 61 52 62 36 63 37 64 45 65 38 66
REMARK SMILES IDX 44 67 46 68 43 69 39 70 40 71 41 72 42 73 68 74 69 75 77 76
REMARK SMILES IDX 70 77 76 78 78 79 75 80 71 81 72 82 73 83 74 84 53 85 54 86
REMARK SMILES IDX 62 87 55 88 61 89 63 90 60 91 56 92 57 93 58 94 59 95
REMARK H PARENT 20 5 24 29 83 48 51 59
REMARK Flexibility Score: inf
ROOT
ATOM      1  C   UNL A   1      31.776  29.448  24.960  1.00  0.00     0.117 C 
ENDROOT
BRANCH   1   2
ATOM      2  N   UNL A   1      32.899  29.312  24.053  1.00  0.00    -0.354 N 
ATOM      3  C   UNL A   1      33.030  28.563  22.922  1.00  0.00     0.240 C 
ATOM      4  O   UNL A   1      33.948  28.863  22.151  1.00  0.00    -0.273 OA
ATOM      5  H   UNL A   1      33.692  29.844  24.294  1.00  0.00     0.163 HD
BRANCH   3   6
ATOM      6  C   UNL A   1      31.980  27.528  22.507  1.00  0.00     0.227 C 
BRANCH   6   7
ATOM      7  N   UNL A   1      32.065  26.253  23.210  1.00  0.00    -0.283 N 
ATOM      8  C   UNL A   1      33.715  23.058  23.225  1.00  0.00     0.033 C 
ATOM      9  C   UNL A   1      32.962  24.109  23.569  1.00  0.00     0.081 C 
ATOM     10  S   UNL A   1      31.650  24.183  24.673  1.00  0.00    -0.054 SA
ATOM     11  C   UNL A   1      33.105  25.406  22.863  1.00  0.00     0.266 C 
ATOM     12  C   UNL A   1      31.114  25.739  24.066  1.00  0.00     0.148 C 
ATOM     13  O   UNL A   1      33.992  25.658  22.060  1.00  0.00    -0.268 OA
ATOM     14  S   UNL A   1      29.648  26.405  24.506  1.00  0.00    -0.052 S 
BRANCH   8  15
ATOM     15  C   UNL A   1      33.468  21.664  23.611  1.00  0.00     0.018 A 
ATOM     16  C   UNL A   1      34.147  21.052  24.682  1.00  0.00     0.127 A 
ATOM     17  C   UNL A   1      33.901  19.717  25.008  1.00  0.00     0.047 A 
ATOM     18  C   UNL A   1      32.926  19.003  24.312  1.00  0.00     0.004 A 
ATOM     19  C   UNL A   1      32.471  20.945  22.941  1.00  0.00     0.012 A 
ATOM     20  C   UNL A   1      32.204  19.620  23.291  1.00  0.00     0.001 A 
BRANCH  16  21
ATOM     21  O   UNL A   1      35.132  21.711  25.380  1.00  0.00    -0.489 OA
BRANCH  21  22
ATOM     22  C   UNL A   1      36.438  21.199  25.092  1.00  0.00     0.257 C 
BRANCH  22  23
ATOM     23  C   UNL A   1      37.391  22.340  24.872  1.00  0.00     0.006 C 
ATOM     24  C   UNL A   1      37.642  23.301  25.772  1.00  0.00     0.007 C 
ENDBRANCH  22  23
ENDBRANCH  21  22
ENDBRANCH  16  21
ENDBRANCH   8  15
ENDBRANCH   6   7
ENDBRANCH   3   6
ENDBRANCH   1   2
BRANCH   1  25
ATOM     25  C   UNL A   1      32.011  28.781  26.310  1.00  0.00     0.042 C 
BRANCH  25  26
ATOM     26  C   UNL A   1      33.333  29.154  26.968  1.00  0.00     0.118 C 
BRANCH  26  27
ATOM     27  N   UNL A   1      33.432  30.580  27.238  1.00  0.00    -0.352 N 
ATOM     28  C   UNL A   1      34.364  31.281  27.963  1.00  0.00     0.251 C 
ATOM     29  H   UNL A   1      32.719  31.128  26.839  1.00  0.00     0.163 HD
ATOM     30  O   UNL A   1      34.133  32.452  28.252  1.00  0.00    -0.269 OA
BRANCH  28  31
ATOM     31  C   UNL A   1      35.620  30.635  28.406  1.00  0.00     0.039 A 
ATOM     32  C   UNL A   1      36.773  30.808  27.635  1.00  0.00     0.014 A 
ATOM     33  C   UNL A   1      35.664  29.838  29.552  1.00  0.00     0.014 A 
ATOM     34  C   UNL A   1      37.979  30.235  28.048  1.00  0.00     0.010 A 
ATOM     35  C   UNL A   1      36.882  29.336  30.007  1.00  0.00     0.010 A 
ATOM     36  C   UNL A   1      38.053  29.527  29.258  1.00  0.00    -0.014 A 
BRANCH  36  37
ATOM     37  C   UNL A   1      39.343  28.981  29.756  1.00  0.00     0.031 A 
ATOM     38  C   UNL A   1      40.064  29.657  30.892  1.00  0.00     0.074 A 
ATOM     39  C   UNL A   1      39.894  27.914  29.145  1.00  0.00     0.049 A 
ATOM     40  N   UNL A   1      41.233  29.381  31.411  1.00  0.00    -0.248 NA
ATOM     41  C   UNL A   1      39.395  30.815  31.503  1.00  0.00     0.031 C 
ATOM     42  C   UNL A   1      39.306  27.194  28.012  1.00  0.00     0.029 A 
ATOM     43  N   UNL A   1      41.072  27.248  29.382  1.00  0.00    -0.354 N 
ATOM     44  C   UNL A   1      41.444  30.335  32.401  1.00  0.00     0.074 A 
ATOM     45  C   UNL A   1      40.310  31.234  32.363  1.00  0.00     0.031 C 
ATOM     46  C   UNL A   1      40.111  26.176  27.672  1.00  0.00     0.029 A 
ATOM     47  C   UNL A   1      41.297  26.199  28.522  1.00  0.00     0.049 A 
ATOM     48  H   UNL A   1      41.697  27.501  30.100  1.00  0.00     0.167 HD
ATOM     49  C   UNL A   1      42.478  30.439  33.275  1.00  0.00     0.034 A 
ATOM     50  C   UNL A   1      42.345  25.358  28.419  1.00  0.00     0.034 A 
ATOM     51  C   UNL A   1      43.597  29.528  33.303  1.00  0.00     0.049 A 
ATOM     52  C   UNL A   1      43.498  25.513  29.379  1.00  0.00     0.074 A 
ATOM     53  C   UNL A   1      44.672  29.510  34.175  1.00  0.00     0.029 A 
ATOM     54  N   UNL A   1      43.794  28.478  32.413  1.00  0.00    -0.354 N 
ATOM     55  N   UNL A   1      43.661  26.394  30.339  1.00  0.00    -0.248 NA
ATOM     56  C   UNL A   1      44.603  24.554  29.248  1.00  0.00     0.031 C 
ATOM     57  C   UNL A   1      45.552  28.502  33.768  1.00  0.00     0.029 A 
ATOM     58  C   UNL A   1      44.987  27.830  32.696  1.00  0.00     0.049 A 
ATOM     59  H   UNL A   1      43.175  28.231  31.689  1.00  0.00     0.167 HD
ATOM     60  C   UNL A   1      44.872  26.071  30.948  1.00  0.00     0.074 A 
ATOM     61  C   UNL A   1      45.387  24.909  30.256  1.00  0.00     0.031 C 
ATOM     62  C   UNL A   1      45.496  26.678  31.990  1.00  0.00     0.034 A 
BRANCH  49  63
ATOM     63  C   UNL A   1      42.454  31.594  34.250  1.00  0.00     0.023 A 
ATOM     64  C   UNL A   1      41.677  31.559  35.422  1.00  0.00     0.031 A 
ATOM     65  C   UNL A   1      43.202  32.758  33.995  1.00  0.00     0.131 A 
ATOM     66  C   UNL A   1      41.605  32.688  36.251  1.00  0.00     0.055 A 
ATOM     67  C   UNL A   1      43.193  33.846  34.869  1.00  0.00     0.041 A 
ATOM     68  F   UNL A   1      43.945  32.862  32.882  1.00  0.00    -0.206 F 
ATOM     69  C   UNL A   1      42.380  33.822  35.998  1.00  0.00     0.022 A 
BRANCH  66  70
ATOM     70  S   UNL A   1      40.370  32.709  37.579  1.00  0.00     0.124 S 
ATOM     71  O   UNL A   1      41.169  32.298  38.731  1.00  0.00    -0.237 OA
ATOM     72  O   UNL A   1      39.925  34.098  37.574  1.00  0.00    -0.237 OA
ATOM     73  O   UNL A   1      39.377  31.732  37.139  1.00  0.00    -0.744 OA
ENDBRANCH  66  70
ENDBRANCH  49  63
BRANCH  50  74
ATOM     74  C   UNL A   1      42.367  24.302  27.366  1.00  0.00     0.023 A 
ATOM     75  C   UNL A   1      41.731  23.066  27.567  1.00  0.00     0.031 A 
ATOM     76  C   UNL A   1      43.060  24.496  26.157  1.00  0.00     0.131 A 
ATOM     77  C   UNL A   1      41.843  22.056  26.599  1.00  0.00     0.055 A 
ATOM     78  C   UNL A   1      43.117  23.510  25.171  1.00  0.00     0.041 A 
ATOM     79  F   UNL A   1      43.686  25.659  25.912  1.00  0.00    -0.206 F 
ATOM     80  C   UNL A   1      42.518  22.275  25.396  1.00  0.00     0.022 A 
BRANCH  77  81
ATOM     81  S   UNL A   1      41.173  20.413  26.978  1.00  0.00     0.124 S 
ATOM     82  O   UNL A   1      42.325  19.557  26.718  1.00  0.00    -0.237 OA
ATOM     83  O   UNL A   1      40.784  20.560  28.377  1.00  0.00    -0.237 OA
ATOM     84  O   UNL A   1      40.066  20.273  26.035  1.00  0.00    -0.744 OA
ENDBRANCH  77  81
ENDBRANCH  50  74
BRANCH  62  85
ATOM     85  C   UNL A   1      46.785  26.056  32.475  1.00  0.00     0.023 A 
ATOM     86  C   UNL A   1      46.803  25.060  33.467  1.00  0.00     0.031 A 
ATOM     87  C   UNL A   1      48.015  26.477  31.937  1.00  0.00     0.131 A 
ATOM     88  C   UNL A   1      48.029  24.560  33.932  1.00  0.00     0.055 A 
ATOM     89  C   UNL A   1      49.227  25.927  32.357  1.00  0.00     0.041 A 
ATOM     90  F   UNL A   1      48.059  27.427  30.991  1.00  0.00    -0.206 F 
ATOM     91  C   UNL A   1      49.240  24.973  33.369  1.00  0.00     0.022 A 
BRANCH  88  92
ATOM     92  S   UNL A   1      48.027  23.431  35.352  1.00  0.00     0.124 S 
ATOM     93  O   UNL A   1      49.454  23.201  35.558  1.00  0.00    -0.237 OA
ATOM     94  O   UNL A   1      47.353  24.220  36.378  1.00  0.00    -0.237 OA
ATOM     95  O   UNL A   1      47.276  22.273  34.869  1.00  0.00    -0.744 OA
ENDBRANCH  88  92
ENDBRANCH  62  85
ENDBRANCH  36  37
ENDBRANCH  28  31
ENDBRANCH  26  27
ENDBRANCH  25  26
ENDBRANCH   1  25
TORSDOF 18
ENDMDL
MODEL 2
REMARK VINA RESULT:     -11.2      4.897     10.002
REMARK SMILES C=CCOc1ccccc1/C=C1\SC(=S)N(CC(=O)NCCCNC(=O)c2ccc(-c3c4nc(c(-c5cc(S(=O)(=O)[O-])ccc5F)c5ccc([nH]5)c(-c5cc(S(=O)(=O)[O-])ccc5F)c5nc(c(-c6cc(S(=O)(=O)[O-])ccc6F)c6ccc3[nH]6)C=C5)C=C4)cc2)C1=O
REMARK SMILES IDX 21 1 20 2 18 3 19 4 17 6 16 7 11 8 12 9 13 10 90 11 14 12
REMARK SMILES IDX 91 13 15 14 10 15 5 16 6 17 7 18 9 19 8 20 4 21 3 22 2 23
REMARK SMILES IDX 1 24 22 25 23 26 24 27 25 28 26 30 27 31 28 32 89 33 29 34
REMARK SMILES IDX 88 35 30 36 31 37 32 38 82 39 33 40 87 41 81 42 83 43 34 44
REMARK SMILES IDX 86 45 80 46 79 47 35 49 67 50 47 51 66 52 48 53 51 54 65 55
REMARK SMILES IDX 84 56 49 57 50 58 64 60 85 61 52 62 36 63 37 64 45 65 38 66
REMARK SMILES IDX 44 67 46 68 43 69 39 70 40 71 41 72 42 73 68 74 69 75 77 76
REMARK SMILES IDX 70 77 76 78 78 79 75 80 71 81 72 82 73 83 74 84 53 85 54 86
REMARK SMILES IDX 62 87 55 88 61 89 63 90 60 91 56 92 57 93 58 94 59 95
REMARK H PARENT 20 5 24 29 83 48 51 59
REMARK Flexibility Score: inf
ROOT
ATOM      1  C   UNL A   1      34.832  21.923  26.180  1.00  0.00     0.117 C 
ENDROOT
BRANCH   1   2
ATOM      2  N   UNL A   1      34.987  23.360  26.076  1.00  0.00    -0.354 N 
ATOM      3  C   UNL A   1      34.263  24.273  25.367  1.00  0.00     0.240 C 
ATOM      4  O   UNL A   1      34.379  25.459  25.693  1.00  0.00    -0.273 OA
ATOM      5  H   UNL A   1      35.731  23.736  26.598  1.00  0.00     0.163 HD
BRANCH   3   6
ATOM      6  C   UNL A   1      33.201  23.851  24.347  1.00  0.00     0.227 C 
BRANCH   6   7
ATOM      7  N   UNL A   1      32.044  24.735  24.266  1.00  0.00    -0.283 N 
ATOM      8  C   UNL A   1      30.805  27.755  22.758  1.00  0.00     0.033 C 
ATOM      9  C   UNL A   1      30.884  26.605  23.438  1.00  0.00     0.081 C 
ATOM     10  S   UNL A   1      29.843  26.000  24.662  1.00  0.00    -0.054 SA
ATOM     11  C   UNL A   1      32.065  25.720  23.292  1.00  0.00     0.266 C 
ATOM     12  C   UNL A   1      31.006  24.790  25.172  1.00  0.00     0.148 C 
ATOM     13  O   UNL A   1      32.943  25.876  22.456  1.00  0.00    -0.268 OA
ATOM     14  S   UNL A   1      30.805  23.903  26.573  1.00  0.00    -0.052 S 
BRANCH   8  15
ATOM     15  C   UNL A   1      29.870  28.852  23.037  1.00  0.00     0.018 A 
ATOM     16  C   UNL A   1      30.234  29.967  23.816  1.00  0.00     0.127 A 
ATOM     17  C   UNL A   1      29.312  30.981  24.078  1.00  0.00     0.047 A 
ATOM     18  C   UNL A   1      28.041  30.925  23.508  1.00  0.00     0.004 A 
ATOM     19  C   UNL A   1      28.601  28.823  22.446  1.00  0.00     0.012 A 
ATOM     20  C   UNL A   1      27.691  29.856  22.683  1.00  0.00     0.001 A 
BRANCH  16  21
ATOM     21  O   UNL A   1      31.469  30.052  24.417  1.00  0.00    -0.489 OA
BRANCH  21  22
ATOM     22  C   UNL A   1      31.383  30.480  25.780  1.00  0.00     0.257 C 
BRANCH  22  23
ATOM     23  C   UNL A   1      32.244  29.600  26.642  1.00  0.00     0.006 C 
ATOM     24  C   UNL A   1      32.412  28.285  26.451  1.00  0.00     0.007 C 
ENDBRANCH  22  23
ENDBRANCH  21  22
ENDBRANCH  16  21
ENDBRANCH   8  15
ENDBRANCH   6   7
ENDBRANCH   3   6
ENDBRANCH   1   2
BRANCH   1  25
ATOM     25  C   UNL A   1      35.571  21.159  25.087  1.00  0.00     0.042 C 
BRANCH  25  26
ATOM     26  C   UNL A   1      37.024  21.579  24.906  1.00  0.00     0.118 C 
BRANCH  26  27
ATOM     27  N   UNL A   1      37.953  20.570  25.391  1.00  0.00    -0.352 N 
ATOM     28  C   UNL A   1      39.208  20.709  25.930  1.00  0.00     0.251 C 
ATOM     29  H   UNL A   1      37.632  19.642  25.322  1.00  0.00     0.163 HD
ATOM     30  O   UNL A   1      39.911  19.711  26.065  1.00  0.00    -0.269 OA
BRANCH  28  31
ATOM     31  C   UNL A   1      39.718  22.041  26.329  1.00  0.00     0.039 A 
ATOM     32  C   UNL A   1      40.942  22.120  26.998  1.00  0.00     0.014 A 
ATOM     33  C   UNL A   1      38.986  23.205  26.078  1.00  0.00     0.014 A 
ATOM     34  C   UNL A   1      41.459  23.368  27.357  1.00  0.00     0.010 A 
ATOM     35  C   UNL A   1      39.540  24.451  26.361  1.00  0.00     0.010 A 
ATOM     36  C   UNL A   1      40.782  24.547  27.007  1.00  0.00    -0.014 A 
BRANCH  36  37
ATOM     37  C   UNL A   1      41.356  25.885  27.306  1.00  0.00     0.031 A 
ATOM     38  C   UNL A   1      42.722  26.256  26.795  1.00  0.00     0.074 A 
ATOM     39  C   UNL A   1      40.671  26.743  28.088  1.00  0.00     0.049 A 
ATOM     40  N   UNL A   1      43.424  27.338  27.016  1.00  0.00    -0.248 NA
ATOM     41  C   UNL A   1      43.401  25.264  25.948  1.00  0.00     0.031 C 
ATOM     42  C   UNL A   1      39.352  26.484  28.672  1.00  0.00     0.029 A 
ATOM     43  N   UNL A   1      40.987  28.002  28.536  1.00  0.00    -0.354 N 
ATOM     44  C   UNL A   1      44.629  27.153  26.345  1.00  0.00     0.074 A 
ATOM     45  C   UNL A   1      44.585  25.828  25.766  1.00  0.00     0.031 C 
ATOM     46  C   UNL A   1      38.963  27.558  29.375  1.00  0.00     0.029 A 
ATOM     47  C   UNL A   1      40.022  28.562  29.342  1.00  0.00     0.049 A 
ATOM     48  H   UNL A   1      41.827  28.461  28.303  1.00  0.00     0.167 HD
ATOM     49  C   UNL A   1      45.666  28.018  26.209  1.00  0.00     0.034 A 
ATOM     50  C   UNL A   1      39.998  29.742  29.992  1.00  0.00     0.034 A 
ATOM     51  C   UNL A   1      45.689  29.340  26.789  1.00  0.00     0.049 A 
ATOM     52  C   UNL A   1      41.177  30.673  29.853  1.00  0.00     0.074 A 
ATOM     53  C   UNL A   1      46.664  30.315  26.674  1.00  0.00     0.029 A 
ATOM     54  N   UNL A   1      44.695  29.871  27.603  1.00  0.00    -0.354 N 
ATOM     55  N   UNL A   1      42.290  30.501  29.179  1.00  0.00    -0.248 NA
ATOM     56  C   UNL A   1      41.091  31.960  30.555  1.00  0.00     0.031 C 
ATOM     57  C   UNL A   1      46.298  31.401  27.475  1.00  0.00     0.029 A 
ATOM     58  C   UNL A   1      45.051  31.144  28.023  1.00  0.00     0.049 A 
ATOM     59  H   UNL A   1      43.860  29.410  27.845  1.00  0.00     0.167 HD
ATOM     60  C   UNL A   1      43.020  31.675  29.348  1.00  0.00     0.074 A 
ATOM     61  C   UNL A   1      42.215  32.549  30.175  1.00  0.00     0.031 C 
ATOM     62  C   UNL A   1      44.244  32.002  28.857  1.00  0.00     0.034 A 
BRANCH  49  63
ATOM     63  C   UNL A   1      46.870  27.545  25.426  1.00  0.00     0.023 A 
ATOM     64  C   UNL A   1      47.112  27.976  24.109  1.00  0.00     0.031 A 
ATOM     65  C   UNL A   1      47.779  26.636  25.995  1.00  0.00     0.131 A 
ATOM     66  C   UNL A   1      48.185  27.439  23.381  1.00  0.00     0.055 A 
ATOM     67  C   UNL A   1      48.894  26.172  25.295  1.00  0.00     0.041 A 
ATOM     68  F   UNL A   1      47.591  26.170  27.240  1.00  0.00    -0.206 F 
ATOM     69  C   UNL A   1      49.095  26.561  23.974  1.00  0.00     0.022 A 
BRANCH  66  70
ATOM     70  S   UNL A   1      48.286  27.789  21.604  1.00  0.00     0.124 S 
ATOM     71  O   UNL A   1      46.943  28.291  21.326  1.00  0.00    -0.237 OA
ATOM     72  O   UNL A   1      49.361  28.772  21.538  1.00  0.00    -0.237 OA
ATOM     73  O   UNL A   1      48.591  26.488  21.015  1.00  0.00    -0.744 OA
ENDBRANCH  66  70
ENDBRANCH  49  63
BRANCH  50  74
ATOM     74  C   UNL A   1      38.830  30.113  30.842  1.00  0.00     0.023 A 
ATOM     75  C   UNL A   1      37.826  30.968  30.360  1.00  0.00     0.031 A 
ATOM     76  C   UNL A   1      38.720  29.650  32.166  1.00  0.00     0.131 A 
ATOM     77  C   UNL A   1      36.785  31.375  31.209  1.00  0.00     0.055 A 
ATOM     78  C   UNL A   1      37.649  30.009  32.988  1.00  0.00     0.041 A 
ATOM     79  F   UNL A   1      39.651  28.829  32.679  1.00  0.00    -0.206 F 
ATOM     80  C   UNL A   1      36.681  30.889  32.514  1.00  0.00     0.022 A 
BRANCH  77  81
ATOM     81  S   UNL A   1      35.618  32.629  30.612  1.00  0.00     0.124 S 
ATOM     82  O   UNL A   1      34.435  32.336  31.414  1.00  0.00    -0.237 OA
ATOM     83  O   UNL A   1      36.318  33.869  30.927  1.00  0.00    -0.237 OA
ATOM     84  O   UNL A   1      35.496  32.327  29.187  1.00  0.00    -0.744 OA
ENDBRANCH  77  81
ENDBRANCH  50  74
BRANCH  62  85
ATOM     85  C   UNL A   1      44.758  33.388  29.164  1.00  0.00     0.023 A 
ATOM     86  C   UNL A   1      44.488  34.485  28.326  1.00  0.00     0.031 A 
ATOM     87  C   UNL A   1      45.540  33.611  30.313  1.00  0.00     0.131 A 
ATOM     88  C   UNL A   1      45.042  35.740  28.618  1.00  0.00     0.055 A 
ATOM     89  C   UNL A   1      46.033  34.877  30.632  1.00  0.00     0.041 A 
ATOM     90  F   UNL A   1      45.833  32.602  31.146  1.00  0.00    -0.206 F 
ATOM     91  C   UNL A   1      45.797  35.948  29.775  1.00  0.00     0.022 A 
BRANCH  88  92
ATOM     92  S   UNL A   1      44.846  37.080  27.411  1.00  0.00     0.124 S 
ATOM     93  O   UNL A   1      46.002  36.878  26.542  1.00  0.00    -0.237 OA
ATOM     94  O   UNL A   1      43.545  36.782  26.821  1.00  0.00    -0.237 OA
ATOM     95  O   UNL A   1      44.891  38.290  28.230  1.00  0.00    -0.744 OA
ENDBRANCH  88  92
ENDBRANCH  62  85
ENDBRANCH  36  37
ENDBRANCH  28  31
ENDBRANCH  26  27
ENDBRANCH  25  26
ENDBRANCH   1  25
TORSDOF 18
ENDMDL
MODEL 3
REMARK VINA RESULT:     -11.1      2.227      7.804
REMARK SMILES C=CCOc1ccccc1/C=C1\SC(=S)N(CC(=O)NCCCNC(=O)c2ccc(-c3c4nc(c(-c5cc(S(=O)(=O)[O-])ccc5F)c5ccc([nH]5)c(-c5cc(S(=O)(=O)[O-])ccc5F)c5nc(c(-c6cc(S(=O)(=O)[O-])ccc6F)c6ccc3[nH]6)C=C5)C=C4)cc2)C1=O
REMARK SMILES IDX 21 1 20 2 18 3 19 4 17 6 16 7 11 8 12 9 13 10 90 11 14 12
REMARK SMILES IDX 91 13 15 14 10 15 5 16 6 17 7 18 9 19 8 20 4 21 3 22 2 23
REMARK SMILES IDX 1 24 22 25 23 26 24 27 25 28 26 30 27 31 28 32 89 33 29 34
REMARK SMILES IDX 88 35 30 36 31 37 32 38 82 39 33 40 87 41 81 42 83 43 34 44
REMARK SMILES IDX 86 45 80 46 79 47 35 49 67 50 47 51 66 52 48 53 51 54 65 55
REMARK SMILES IDX 84 56 49 57 50 58 64 60 85 61 52 62 36 63 37 64 45 65 38 66
REMARK SMILES IDX 44 67 46 68 43 69 39 70 40 71 41 72 42 73 68 74 69 75 77 76
REMARK SMILES IDX 70 77 76 78 78 79 75 80 71 81 72 82 73 83 74 84 53 85 54 86
REMARK SMILES IDX 62 87 55 88 61 89 63 90 60 91 56 92 57 93 58 94 59 95
REMARK H PARENT 20 5 24 29 83 48 51 59
REMARK Flexibility Score: inf
ROOT
ATOM      1  C   UNL A   1      33.110  28.948  23.036  1.00  0.00     0.117 C 
ENDROOT
BRANCH   1   2
ATOM      2  N   UNL A   1      31.671  29.127  23.038  1.00  0.00    -0.354 N 
ATOM      3  C   UNL A   1      30.673  28.215  22.866  1.00  0.00     0.240 C 
ATOM      4  O   UNL A   1      29.540  28.544  23.234  1.00  0.00    -0.273 OA
ATOM      5  H   UNL A   1      31.369  30.051  23.188  1.00  0.00     0.163 HD
BRANCH   3   6
ATOM      6  C   UNL A   1      30.955  26.775  22.426  1.00  0.00     0.227 C 
BRANCH   6   7
ATOM      7  N   UNL A   1      31.907  26.053  23.262  1.00  0.00    -0.283 N 
ATOM      8  C   UNL A   1      34.821  23.949  23.182  1.00  0.00     0.033 C 
ATOM      9  C   UNL A   1      33.817  24.727  23.605  1.00  0.00     0.081 C 
ATOM     10  S   UNL A   1      33.125  24.841  25.172  1.00  0.00    -0.054 SA
ATOM     11  C   UNL A   1      33.034  25.540  22.643  1.00  0.00     0.266 C 
ATOM     12  C   UNL A   1      31.709  25.689  24.578  1.00  0.00     0.148 C 
ATOM     13  O   UNL A   1      33.330  25.689  21.466  1.00  0.00    -0.268 OA
ATOM     14  S   UNL A   1      30.367  25.952  25.535  1.00  0.00    -0.052 S 
BRANCH   8  15
ATOM     15  C   UNL A   1      35.459  22.878  23.956  1.00  0.00     0.018 A 
ATOM     16  C   UNL A   1      34.800  21.666  24.242  1.00  0.00     0.127 A 
ATOM     17  C   UNL A   1      35.430  20.678  25.000  1.00  0.00     0.047 A 
ATOM     18  C   UNL A   1      36.746  20.862  25.421  1.00  0.00     0.004 A 
ATOM     19  C   UNL A   1      36.790  23.037  24.359  1.00  0.00     0.012 A 
ATOM     20  C   UNL A   1      37.429  22.033  25.090  1.00  0.00     0.001 A 
BRANCH  16  21
ATOM     21  O   UNL A   1      33.494  21.452  23.867  1.00  0.00    -0.489 OA
BRANCH  21  22
ATOM     22  C   UNL A   1      32.787  20.630  24.802  1.00  0.00     0.257 C 
BRANCH  22  23
ATOM     23  C   UNL A   1      32.718  19.220  24.285  1.00  0.00     0.006 C 
ATOM     24  C   UNL A   1      32.153  18.867  23.123  1.00  0.00     0.007 C 
ENDBRANCH  22  23
ENDBRANCH  21  22
ENDBRANCH  16  21
ENDBRANCH   8  15
ENDBRANCH   6   7
ENDBRANCH   3   6
ENDBRANCH   1   2
BRANCH   1  25
ATOM     25  C   UNL A   1      33.731  29.067  24.422  1.00  0.00     0.042 C 
BRANCH  25  26
ATOM     26  C   UNL A   1      32.718  29.097  25.559  1.00  0.00     0.118 C 
BRANCH  26  27
ATOM     27  N   UNL A   1      32.349  30.453  25.934  1.00  0.00    -0.352 N 
ATOM     28  C   UNL A   1      32.860  31.272  26.910  1.00  0.00     0.251 C 
ATOM     29  H   UNL A   1      31.617  30.844  25.405  1.00  0.00     0.163 HD
ATOM     30  O   UNL A   1      32.250  32.296  27.206  1.00  0.00    -0.269 OA
BRANCH  28  31
ATOM     31  C   UNL A   1      34.117  30.922  27.611  1.00  0.00     0.039 A 
ATOM     32  C   UNL A   1      35.060  31.927  27.843  1.00  0.00     0.014 A 
ATOM     33  C   UNL A   1      34.387  29.610  28.009  1.00  0.00     0.014 A 
ATOM     34  C   UNL A   1      36.239  31.629  28.530  1.00  0.00     0.010 A 
ATOM     35  C   UNL A   1      35.523  29.331  28.765  1.00  0.00     0.010 A 
ATOM     36  C   UNL A   1      36.464  30.337  29.031  1.00  0.00    -0.014 A 
BRANCH  36  37
ATOM     37  C   UNL A   1      37.674  30.020  29.836  1.00  0.00     0.031 A 
ATOM     38  C   UNL A   1      38.732  29.102  29.285  1.00  0.00     0.074 A 
ATOM     39  C   UNL A   1      37.789  30.511  31.086  1.00  0.00     0.049 A 
ATOM     40  N   UNL A   1      39.813  28.644  29.862  1.00  0.00    -0.248 NA
ATOM     41  C   UNL A   1      38.530  28.611  27.913  1.00  0.00     0.031 C 
ATOM     42  C   UNL A   1      36.812  31.383  31.743  1.00  0.00     0.029 A 
ATOM     43  N   UNL A   1      38.770  30.345  32.033  1.00  0.00    -0.354 N 
ATOM     44  C   UNL A   1      40.415  27.804  28.930  1.00  0.00     0.074 A 
ATOM     45  C   UNL A   1      39.541  27.767  27.776  1.00  0.00     0.031 C 
ATOM     46  C   UNL A   1      37.255  31.695  32.970  1.00  0.00     0.029 A 
ATOM     47  C   UNL A   1      38.518  31.005  33.213  1.00  0.00     0.049 A 
ATOM     48  H   UNL A   1      39.577  29.802  31.880  1.00  0.00     0.167 HD
ATOM     49  C   UNL A   1      41.596  27.142  29.022  1.00  0.00     0.034 A 
ATOM     50  C   UNL A   1      39.216  31.040  34.365  1.00  0.00     0.034 A 
ATOM     51  C   UNL A   1      42.458  27.197  30.178  1.00  0.00     0.049 A 
ATOM     52  C   UNL A   1      40.509  30.270  34.455  1.00  0.00     0.074 A 
ATOM     53  C   UNL A   1      43.697  26.607  30.359  1.00  0.00     0.029 A 
ATOM     54  N   UNL A   1      42.167  27.873  31.358  1.00  0.00    -0.354 N 
ATOM     55  N   UNL A   1      41.086  29.515  33.548  1.00  0.00    -0.248 NA
ATOM     56  C   UNL A   1      41.250  30.363  35.720  1.00  0.00     0.031 C 
ATOM     57  C   UNL A   1      44.119  26.862  31.667  1.00  0.00     0.029 A 
ATOM     58  C   UNL A   1      43.187  27.685  32.279  1.00  0.00     0.049 A 
ATOM     59  H   UNL A   1      41.356  28.408  31.515  1.00  0.00     0.167 HD
ATOM     60  C   UNL A   1      42.276  29.074  34.123  1.00  0.00     0.074 A 
ATOM     61  C   UNL A   1      42.337  29.658  35.447  1.00  0.00     0.031 C 
ATOM     62  C   UNL A   1      43.233  28.265  33.601  1.00  0.00     0.034 A 
BRANCH  49  63
ATOM     63  C   UNL A   1      42.006  26.282  27.848  1.00  0.00     0.023 A 
ATOM     64  C   UNL A   1      41.610  24.936  27.742  1.00  0.00     0.031 A 
ATOM     65  C   UNL A   1      42.819  26.807  26.829  1.00  0.00     0.131 A 
ATOM     66  C   UNL A   1      42.091  24.144  26.689  1.00  0.00     0.055 A 
ATOM     67  C   UNL A   1      43.223  26.036  25.736  1.00  0.00     0.041 A 
ATOM     68  F   UNL A   1      43.248  28.078  26.883  1.00  0.00    -0.206 F 
ATOM     69  C   UNL A   1      42.872  24.692  25.669  1.00  0.00     0.022 A 
BRANCH  66  70
ATOM     70  S   UNL A   1      41.804  22.354  26.752  1.00  0.00     0.124 S 
ATOM     71  O   UNL A   1      42.674  21.955  27.855  1.00  0.00    -0.237 OA
ATOM     72  O   UNL A   1      40.371  22.273  27.008  1.00  0.00    -0.237 OA
ATOM     73  O   UNL A   1      42.231  21.891  25.433  1.00  0.00    -0.744 OA
ENDBRANCH  66  70
ENDBRANCH  49  63
BRANCH  50  74
ATOM     74  C   UNL A   1      38.710  31.818  35.532  1.00  0.00     0.023 A 
ATOM     75  C   UNL A   1      38.182  31.170  36.660  1.00  0.00     0.031 A 
ATOM     76  C   UNL A   1      38.709  33.225  35.522  1.00  0.00     0.131 A 
ATOM     77  C   UNL A   1      37.628  31.924  37.706  1.00  0.00     0.055 A 
ATOM     78  C   UNL A   1      38.212  33.972  36.593  1.00  0.00     0.041 A 
ATOM     79  F   UNL A   1      39.202  33.898  34.469  1.00  0.00    -0.206 F 
ATOM     80  C   UNL A   1      37.655  33.320  37.688  1.00  0.00     0.022 A 
BRANCH  77  81
ATOM     81  S   UNL A   1      36.784  31.050  39.054  1.00  0.00     0.124 S 
ATOM     82  O   UNL A   1      36.654  29.708  38.499  1.00  0.00    -0.237 OA
ATOM     83  O   UNL A   1      37.731  31.202  40.154  1.00  0.00    -0.237 OA
ATOM     84  O   UNL A   1      35.532  31.788  39.204  1.00  0.00    -0.744 OA
ENDBRANCH  77  81
ENDBRANCH  50  74
BRANCH  62  85
ATOM     85  C   UNL A   1      44.455  28.009  34.451  1.00  0.00     0.023 A 
ATOM     86  C   UNL A   1      44.533  26.915  35.331  1.00  0.00     0.031 A 
ATOM     87  C   UNL A   1      45.556  28.881  34.382  1.00  0.00     0.131 A 
ATOM     88  C   UNL A   1      45.661  26.756  36.149  1.00  0.00     0.055 A 
ATOM     89  C   UNL A   1      46.704  28.679  35.149  1.00  0.00     0.041 A 
ATOM     90  F   UNL A   1      45.536  29.943  33.562  1.00  0.00    -0.206 F 
ATOM     91  C   UNL A   1      46.756  27.619  36.049  1.00  0.00     0.022 A 
BRANCH  88  92
ATOM     92  S   UNL A   1      45.643  25.458  37.416  1.00  0.00     0.124 S 
ATOM     93  O   UNL A   1      44.233  25.080  37.442  1.00  0.00    -0.237 OA
ATOM     94  O   UNL A   1      46.558  24.466  36.863  1.00  0.00    -0.237 OA
ATOM     95  O   UNL A   1      46.123  26.142  38.616  1.00  0.00    -0.744 OA
ENDBRANCH  88  92
ENDBRANCH  62  85
ENDBRANCH  36  37
ENDBRANCH  28  31
ENDBRANCH  26  27
ENDBRANCH  25  26
ENDBRANCH   1  25
TORSDOF 18
ENDMDL
