MODEL 1
REMARK VINA RESULT:      -9.4      0.000      0.000
REMARK SMILES CCCC(=O)Nc1cccc(C(=O)N[C@@H](C(=O)NCCCNC(=O)c2ccc(-c3c4nc(c(-c5cc(S(=O)(=O)[O-])ccc5F)c5ccc([nH]5)c(-c5cc(S(=O)(=O)[O-])ccc5F)c5nc(c(-c6cc(S(=O)(=O)[O-])ccc6F)c6ccc3[nH]6)C=C5)C=C4)cc2)C2=C(C)N=N[C@@H]2C)c1
REMARK SMILES IDX 19 1 18 2 16 3 17 4 15 6 14 7 12 8 13 9 11 11 7 12 8 13
REMARK SMILES IDX 95 14 9 15 10 16 6 17 4 18 5 19 3 21 2 22 1 23 88 24 89 25
REMARK SMILES IDX 93 26 90 27 91 28 92 29 94 30 20 31 21 32 22 33 23 34 24 36
REMARK SMILES IDX 25 37 26 38 87 39 27 40 86 41 28 42 29 43 30 44 80 45 31 46
REMARK SMILES IDX 85 47 79 48 81 49 32 50 84 51 78 52 77 53 33 55 65 56 45 57
REMARK SMILES IDX 64 58 46 59 49 60 63 61 82 62 47 63 48 64 62 66 83 67 50 68
REMARK SMILES IDX 34 69 35 70 43 71 36 72 42 73 44 74 41 75 37 76 38 77 39 78
REMARK SMILES IDX 40 79 66 80 67 81 75 82 68 83 74 84 76 85 73 86 69 87 70 88
REMARK SMILES IDX 71 89 72 90 51 91 52 92 60 93 53 94 59 95 61 96 58 97 54 98
REMARK SMILES IDX 55 99 56 100 57 101
REMARK H PARENT 18 5 14 10 6 20 22 35 81 54 49 65
REMARK Flexibility Score: inf
ROOT
ATOM      1  C   UNL A   1      42.952  35.201  32.929  1.00  0.00     0.117 C 
ENDROOT
BRANCH   1   2
ATOM      2  N   UNL A   1      41.919  35.562  33.864  1.00  0.00    -0.354 N 
ATOM      3  C   UNL A   1      40.936  34.786  34.397  1.00  0.00     0.247 C 
ATOM      4  O   UNL A   1      40.211  35.333  35.233  1.00  0.00    -0.272 OA
ATOM      5  H   UNL A   1      41.923  36.501  34.159  1.00  0.00     0.163 HD
BRANCH   3   6
ATOM      6  C   UNL A   1      40.859  33.252  34.076  1.00  0.00     0.202 C 
BRANCH   6   7
ATOM      7  N   UNL A   1      39.551  32.643  34.366  1.00  0.00    -0.337 N 
ATOM      8  C   UNL A   1      38.291  32.570  33.822  1.00  0.00     0.252 C 
ATOM      9  O   UNL A   1      37.451  32.016  34.541  1.00  0.00    -0.269 OA
ATOM     10  H   UNL A   1      39.590  32.133  35.208  1.00  0.00     0.165 HD
BRANCH   8  11
ATOM     11  C   UNL A   1      37.823  33.062  32.483  1.00  0.00     0.041 A 
ATOM     12  C   UNL A   1      36.225  34.058  30.929  1.00  0.00     0.041 A 
ATOM     13  C   UNL A   1      37.123  33.961  29.876  1.00  0.00     0.026 A 
ATOM     14  C   UNL A   1      36.558  33.569  32.199  1.00  0.00     0.040 A 
ATOM     15  C   UNL A   1      38.396  33.456  30.126  1.00  0.00     0.003 A 
ATOM     16  C   UNL A   1      38.740  33.016  31.415  1.00  0.00     0.014 A 
BRANCH  12  17
ATOM     17  N   UNL A   1      34.949  34.589  30.719  1.00  0.00    -0.326 N 
ATOM     18  C   UNL A   1      34.103  35.009  31.716  1.00  0.00     0.224 C 
ATOM     19  O   UNL A   1      32.888  34.852  31.620  1.00  0.00    -0.275 OA
ATOM     20  H   UNL A   1      34.633  34.666  29.789  1.00  0.00     0.169 HD
BRANCH  18  21
ATOM     21  C   UNL A   1      34.725  35.807  32.862  1.00  0.00     0.100 C 
BRANCH  21  22
ATOM     22  C   UNL A   1      33.867  36.917  33.451  1.00  0.00     0.006 C 
ATOM     23  C   UNL A   1      33.902  38.231  32.670  1.00  0.00     0.004 C 
ENDBRANCH  21  22
ENDBRANCH  18  21
ENDBRANCH  12  17
ENDBRANCH   8  11
ENDBRANCH   6   7
BRANCH   6  24
ATOM     24  C   UNL A   1      41.954  32.565  34.843  1.00  0.00     0.011 C 
ATOM     25  C   UNL A   1      42.816  31.584  34.535  1.00  0.00     0.064 C 
ATOM     26  C   UNL A   1      42.144  32.774  36.314  1.00  0.00     0.156 C 
ATOM     27  C   UNL A   1      43.012  30.847  33.258  1.00  0.00     0.069 C 
ATOM     28  N   UNL A   1      43.534  31.153  35.626  1.00  0.00    -0.160 NA
ATOM     29  N   UNL A   1      43.163  31.754  36.666  1.00  0.00    -0.181 NA
ATOM     30  C   UNL A   1      40.913  32.580  37.190  1.00  0.00     0.040 C 
ENDBRANCH   6  24
ENDBRANCH   3   6
ENDBRANCH   1   2
BRANCH   1  31
ATOM     31  C   UNL A   1      44.058  36.239  32.875  1.00  0.00     0.042 C 
BRANCH  31  32
ATOM     32  C   UNL A   1      44.322  36.701  31.453  1.00  0.00     0.118 C 
BRANCH  32  33
ATOM     33  N   UNL A   1      45.749  36.818  31.178  1.00  0.00    -0.352 N 
ATOM     34  C   UNL A   1      46.623  35.875  30.704  1.00  0.00     0.251 C 
ATOM     35  H   UNL A   1      46.141  37.702  31.359  1.00  0.00     0.163 HD
ATOM     36  O   UNL A   1      47.825  36.102  30.727  1.00  0.00    -0.269 OA
BRANCH  34  37
ATOM     37  C   UNL A   1      46.098  34.590  30.204  1.00  0.00     0.039 A 
ATOM     38  C   UNL A   1      46.080  33.493  31.066  1.00  0.00     0.014 A 
ATOM     39  C   UNL A   1      45.609  34.475  28.900  1.00  0.00     0.014 A 
ATOM     40  C   UNL A   1      45.528  32.293  30.628  1.00  0.00     0.010 A 
ATOM     41  C   UNL A   1      44.958  33.316  28.506  1.00  0.00     0.010 A 
ATOM     42  C   UNL A   1      44.933  32.204  29.358  1.00  0.00    -0.014 A 
BRANCH  42  43
ATOM     43  C   UNL A   1      44.308  30.940  28.904  1.00  0.00     0.031 A 
ATOM     44  C   UNL A   1      45.127  29.922  28.157  1.00  0.00     0.074 A 
ATOM     45  C   UNL A   1      43.000  30.731  29.146  1.00  0.00     0.049 A 
ATOM     46  N   UNL A   1      44.767  28.751  27.698  1.00  0.00    -0.248 NA
ATOM     47  C   UNL A   1      46.522  30.279  27.857  1.00  0.00     0.031 C 
ATOM     48  C   UNL A   1      42.099  31.684  29.800  1.00  0.00     0.029 A 
ATOM     49  N   UNL A   1      42.201  29.650  28.883  1.00  0.00    -0.354 N 
ATOM     50  C   UNL A   1      45.888  28.239  27.052  1.00  0.00     0.074 A 
ATOM     51  C   UNL A   1      46.908  29.261  27.106  1.00  0.00     0.031 C 
ATOM     52  C   UNL A   1      40.889  31.123  29.938  1.00  0.00     0.029 A 
ATOM     53  C   UNL A   1      40.912  29.791  29.343  1.00  0.00     0.049 A 
ATOM     54  H   UNL A   1      42.519  28.846  28.411  1.00  0.00     0.167 HD
ATOM     55  C   UNL A   1      46.059  27.014  26.497  1.00  0.00     0.034 A 
ATOM     56  C   UNL A   1      39.870  28.939  29.294  1.00  0.00     0.034 A 
ATOM     57  C   UNL A   1      45.027  26.009  26.465  1.00  0.00     0.049 A 
ATOM     58  C   UNL A   1      40.087  27.582  28.674  1.00  0.00     0.074 A 
ATOM     59  C   UNL A   1      45.094  24.718  25.972  1.00  0.00     0.029 A 
ATOM     60  N   UNL A   1      43.733  26.184  26.942  1.00  0.00    -0.354 N 
ATOM     61  N   UNL A   1      41.172  27.086  28.125  1.00  0.00    -0.248 NA
ATOM     62  C   UNL A   1      38.943  26.664  28.690  1.00  0.00     0.031 C 
ATOM     63  C   UNL A   1      43.824  24.139  26.084  1.00  0.00     0.029 A 
ATOM     64  C   UNL A   1      42.986  25.034  26.731  1.00  0.00     0.049 A 
ATOM     65  H   UNL A   1      43.395  27.004  27.369  1.00  0.00     0.167 HD
ATOM     66  C   UNL A   1      40.850  25.781  27.762  1.00  0.00     0.074 A 
ATOM     67  C   UNL A   1      39.478  25.566  28.179  1.00  0.00     0.031 C 
ATOM     68  C   UNL A   1      41.613  24.843  27.142  1.00  0.00     0.034 A 
BRANCH  55  69
ATOM     69  C   UNL A   1      47.401  26.717  25.868  1.00  0.00     0.023 A 
ATOM     70  C   UNL A   1      48.413  26.033  26.569  1.00  0.00     0.031 A 
ATOM     71  C   UNL A   1      47.691  27.153  24.564  1.00  0.00     0.131 A 
ATOM     72  C   UNL A   1      49.684  25.879  25.996  1.00  0.00     0.055 A 
ATOM     73  C   UNL A   1      48.930  26.915  23.964  1.00  0.00     0.041 A 
ATOM     74  F   UNL A   1      46.779  27.834  23.852  1.00  0.00    -0.206 F 
ATOM     75  C   UNL A   1      49.941  26.290  24.686  1.00  0.00     0.022 A 
BRANCH  72  76
ATOM     76  S   UNL A   1      51.038  25.274  27.042  1.00  0.00     0.124 S 
ATOM     77  O   UNL A   1      51.491  26.507  27.679  1.00  0.00    -0.237 OA
ATOM     78  O   UNL A   1      50.363  24.315  27.910  1.00  0.00    -0.237 OA
ATOM     79  O   UNL A   1      51.978  24.695  26.083  1.00  0.00    -0.744 OA
ENDBRANCH  72  76
ENDBRANCH  55  69
BRANCH  56  80
ATOM     80  C   UNL A   1      38.546  29.327  29.855  1.00  0.00     0.023 A 
ATOM     81  C   UNL A   1      37.530  29.839  29.033  1.00  0.00     0.031 A 
ATOM     82  C   UNL A   1      38.287  29.229  31.235  1.00  0.00     0.131 A 
ATOM     83  C   UNL A   1      36.326  30.285  29.600  1.00  0.00     0.055 A 
ATOM     84  C   UNL A   1      37.066  29.618  31.787  1.00  0.00     0.041 A 
ATOM     85  F   UNL A   1      39.220  28.738  32.066  1.00  0.00    -0.206 F 
ATOM     86  C   UNL A   1      36.082  30.166  30.970  1.00  0.00     0.022 A 
BRANCH  83  87
ATOM     87  S   UNL A   1      35.117  31.116  28.532  1.00  0.00     0.124 S 
ATOM     88  O   UNL A   1      35.984  31.849  27.617  1.00  0.00    -0.237 OA
ATOM     89  O   UNL A   1      34.391  29.987  27.963  1.00  0.00    -0.237 OA
ATOM     90  O   UNL A   1      34.351  31.941  29.464  1.00  0.00    -0.744 OA
ENDBRANCH  83  87
ENDBRANCH  56  80
BRANCH  68  91
ATOM     91  C   UNL A   1      40.985  23.486  26.928  1.00  0.00     0.023 A 
ATOM     92  C   UNL A   1      39.866  23.312  26.096  1.00  0.00     0.031 A 
ATOM     93  C   UNL A   1      41.487  22.360  27.604  1.00  0.00     0.131 A 
ATOM     94  C   UNL A   1      39.234  22.061  26.029  1.00  0.00     0.055 A 
ATOM     95  C   UNL A   1      40.902  21.101  27.470  1.00  0.00     0.041 A 
ATOM     96  F   UNL A   1      42.552  22.468  28.415  1.00  0.00    -0.206 F 
ATOM     97  C   UNL A   1      39.756  20.950  26.696  1.00  0.00     0.022 A 
BRANCH  94  98
ATOM     98  S   UNL A   1      37.637  21.942  25.176  1.00  0.00     0.124 S 
ATOM     99  O   UNL A   1      37.798  20.715  24.402  1.00  0.00    -0.237 OA
ATOM    100  O   UNL A   1      36.695  21.875  26.289  1.00  0.00    -0.237 OA
ATOM    101  O   UNL A   1      37.578  23.171  24.386  1.00  0.00    -0.744 OA
ENDBRANCH  94  98
ENDBRANCH  68  91
ENDBRANCH  42  43
ENDBRANCH  34  37
ENDBRANCH  32  33
ENDBRANCH  31  32
ENDBRANCH   1  31
TORSDOF 19
ENDMDL
MODEL 2
REMARK VINA RESULT:      -9.1      6.980     11.191
REMARK SMILES CCCC(=O)Nc1cccc(C(=O)N[C@@H](C(=O)NCCCNC(=O)c2ccc(-c3c4nc(c(-c5cc(S(=O)(=O)[O-])ccc5F)c5ccc([nH]5)c(-c5cc(S(=O)(=O)[O-])ccc5F)c5nc(c(-c6cc(S(=O)(=O)[O-])ccc6F)c6ccc3[nH]6)C=C5)C=C4)cc2)C2=C(C)N=N[C@@H]2C)c1
REMARK SMILES IDX 19 1 18 2 16 3 17 4 15 6 14 7 12 8 13 9 11 11 7 12 8 13
REMARK SMILES IDX 95 14 9 15 10 16 6 17 4 18 5 19 3 21 2 22 1 23 88 24 89 25
REMARK SMILES IDX 93 26 90 27 91 28 92 29 94 30 20 31 21 32 22 33 23 34 24 36
REMARK SMILES IDX 25 37 26 38 87 39 27 40 86 41 28 42 29 43 30 44 80 45 31 46
REMARK SMILES IDX 85 47 79 48 81 49 32 50 84 51 78 52 77 53 33 55 65 56 45 57
REMARK SMILES IDX 64 58 46 59 49 60 63 61 82 62 47 63 48 64 62 66 83 67 50 68
REMARK SMILES IDX 34 69 35 70 43 71 36 72 42 73 44 74 41 75 37 76 38 77 39 78
REMARK SMILES IDX 40 79 66 80 67 81 75 82 68 83 74 84 76 85 73 86 69 87 70 88
REMARK SMILES IDX 71 89 72 90 51 91 52 92 60 93 53 94 59 95 61 96 58 97 54 98
REMARK SMILES IDX 55 99 56 100 57 101
REMARK H PARENT 18 5 14 10 6 20 22 35 81 54 49 65
REMARK Flexibility Score: inf
ROOT
ATOM      1  C   UNL A   1      46.131  38.740  27.806  1.00  0.00     0.117 C 
ENDROOT
BRANCH   1   2
ATOM      2  N   UNL A   1      44.763  38.508  28.188  1.00  0.00    -0.354 N 
ATOM      3  C   UNL A   1      43.777  39.413  28.436  1.00  0.00     0.247 C 
ATOM      4  O   UNL A   1      42.663  38.942  28.685  1.00  0.00    -0.272 OA
ATOM      5  H   UNL A   1      44.503  37.564  28.283  1.00  0.00     0.163 HD
BRANCH   3   6
ATOM      6  C   UNL A   1      44.030  40.950  28.244  1.00  0.00     0.202 C 
BRANCH   6   7
ATOM      7  N   UNL A   1      43.319  41.800  29.213  1.00  0.00    -0.337 N 
ATOM      8  C   UNL A   1      43.186  41.944  30.573  1.00  0.00     0.252 C 
ATOM      9  O   UNL A   1      42.328  42.763  30.923  1.00  0.00    -0.269 OA
ATOM     10  H   UNL A   1      42.770  42.469  28.742  1.00  0.00     0.165 HD
BRANCH   8  11
ATOM     11  C   UNL A   1      43.948  41.248  31.664  1.00  0.00     0.041 A 
ATOM     12  C   UNL A   1      44.190  39.802  33.615  1.00  0.00     0.041 A 
ATOM     13  C   UNL A   1      45.563  39.998  33.645  1.00  0.00     0.026 A 
ATOM     14  C   UNL A   1      43.394  40.459  32.668  1.00  0.00     0.040 A 
ATOM     15  C   UNL A   1      46.147  40.784  32.656  1.00  0.00     0.003 A 
ATOM     16  C   UNL A   1      45.349  41.397  31.678  1.00  0.00     0.014 A 
BRANCH  12  17
ATOM     17  N   UNL A   1      43.574  38.993  34.575  1.00  0.00    -0.326 N 
ATOM     18  C   UNL A   1      43.131  37.712  34.351  1.00  0.00     0.224 C 
ATOM     19  O   UNL A   1      42.110  37.294  34.893  1.00  0.00    -0.275 OA
ATOM     20  H   UNL A   1      43.447  39.369  35.477  1.00  0.00     0.169 HD
BRANCH  18  21
ATOM     21  C   UNL A   1      44.039  36.799  33.529  1.00  0.00     0.100 C 
BRANCH  21  22
ATOM     22  C   UNL A   1      43.826  36.820  32.021  1.00  0.00     0.006 C 
ATOM     23  C   UNL A   1      45.077  37.146  31.205  1.00  0.00     0.004 C 
ENDBRANCH  21  22
ENDBRANCH  18  21
ENDBRANCH  12  17
ENDBRANCH   8  11
ENDBRANCH   6   7
BRANCH   6  24
ATOM     24  C   UNL A   1      43.649  41.308  26.835  1.00  0.00     0.011 C 
ATOM     25  C   UNL A   1      42.590  41.015  26.067  1.00  0.00     0.064 C 
ATOM     26  C   UNL A   1      44.609  41.976  25.899  1.00  0.00     0.156 C 
ATOM     27  C   UNL A   1      41.361  40.238  26.385  1.00  0.00     0.069 C 
ATOM     28  N   UNL A   1      42.754  41.422  24.764  1.00  0.00    -0.160 NA
ATOM     29  N   UNL A   1      43.895  41.927  24.598  1.00  0.00    -0.181 NA
ATOM     30  C   UNL A   1      45.976  41.320  25.749  1.00  0.00     0.040 C 
ENDBRANCH   6  24
ENDBRANCH   3   6
ENDBRANCH   1   2
BRANCH   1  31
ATOM     31  C   UNL A   1      46.570  37.824  26.678  1.00  0.00     0.042 C 
BRANCH  31  32
ATOM     32  C   UNL A   1      46.267  36.369  26.989  1.00  0.00     0.118 C 
BRANCH  32  33
ATOM     33  N   UNL A   1      45.632  35.696  25.863  1.00  0.00    -0.352 N 
ATOM     34  C   UNL A   1      44.610  34.783  25.860  1.00  0.00     0.251 C 
ATOM     35  H   UNL A   1      45.988  35.932  24.976  1.00  0.00     0.163 HD
ATOM     36  O   UNL A   1      44.346  34.178  24.829  1.00  0.00    -0.269 OA
BRANCH  34  37
ATOM     37  C   UNL A   1      43.869  34.524  27.109  1.00  0.00     0.039 A 
ATOM     38  C   UNL A   1      43.992  33.272  27.713  1.00  0.00     0.014 A 
ATOM     39  C   UNL A   1      43.075  35.517  27.689  1.00  0.00     0.014 A 
ATOM     40  C   UNL A   1      43.350  33.037  28.925  1.00  0.00     0.010 A 
ATOM     41  C   UNL A   1      42.532  35.318  28.950  1.00  0.00     0.010 A 
ATOM     42  C   UNL A   1      42.644  34.068  29.570  1.00  0.00    -0.014 A 
BRANCH  42  43
ATOM     43  C   UNL A   1      41.994  33.832  30.880  1.00  0.00     0.031 A 
ATOM     44  C   UNL A   1      42.826  33.450  32.074  1.00  0.00     0.074 A 
ATOM     45  C   UNL A   1      40.655  33.940  30.977  1.00  0.00     0.049 A 
ATOM     46  N   UNL A   1      42.446  33.224  33.305  1.00  0.00    -0.248 NA
ATOM     47  C   UNL A   1      44.268  33.265  31.850  1.00  0.00     0.031 C 
ATOM     48  C   UNL A   1      39.749  34.238  29.864  1.00  0.00     0.029 A 
ATOM     49  N   UNL A   1      39.822  33.825  32.059  1.00  0.00    -0.354 N 
ATOM     50  C   UNL A   1      43.599  32.864  33.996  1.00  0.00     0.074 A 
ATOM     51  C   UNL A   1      44.672  32.820  33.028  1.00  0.00     0.031 C 
ATOM     52  C   UNL A   1      38.495  34.337  30.332  1.00  0.00     0.029 A 
ATOM     53  C   UNL A   1      38.500  34.067  31.766  1.00  0.00     0.049 A 
ATOM     54  H   UNL A   1      40.140  33.593  32.961  1.00  0.00     0.167 HD
ATOM     55  C   UNL A   1      43.752  32.628  35.321  1.00  0.00     0.034 A 
ATOM     56  C   UNL A   1      37.417  34.074  32.566  1.00  0.00     0.034 A 
ATOM     57  C   UNL A   1      42.666  32.687  36.267  1.00  0.00     0.049 A 
ATOM     58  C   UNL A   1      37.614  33.811  34.037  1.00  0.00     0.074 A 
ATOM     59  C   UNL A   1      42.705  32.512  37.639  1.00  0.00     0.029 A 
ATOM     60  N   UNL A   1      41.339  32.937  35.937  1.00  0.00    -0.354 N 
ATOM     61  N   UNL A   1      38.721  33.537  34.688  1.00  0.00    -0.248 NA
ATOM     62  C   UNL A   1      36.418  33.882  34.882  1.00  0.00     0.031 C 
ATOM     63  C   UNL A   1      41.394  32.582  38.127  1.00  0.00     0.029 A 
ATOM     64  C   UNL A   1      40.547  32.894  37.075  1.00  0.00     0.049 A 
ATOM     65  H   UNL A   1      41.008  33.120  35.027  1.00  0.00     0.167 HD
ATOM     66  C   UNL A   1      38.358  33.438  36.028  1.00  0.00     0.074 A 
ATOM     67  C   UNL A   1      36.934  33.708  36.088  1.00  0.00     0.031 C 
ATOM     68  C   UNL A   1      39.125  33.152  37.113  1.00  0.00     0.034 A 
BRANCH  55  69
ATOM     69  C   UNL A   1      45.137  32.265  35.807  1.00  0.00     0.023 A 
ATOM     70  C   UNL A   1      46.051  33.245  36.241  1.00  0.00     0.031 A 
ATOM     71  C   UNL A   1      45.567  30.927  35.806  1.00  0.00     0.131 A 
ATOM     72  C   UNL A   1      47.365  32.884  36.574  1.00  0.00     0.055 A 
ATOM     73  C   UNL A   1      46.849  30.563  36.225  1.00  0.00     0.041 A 
ATOM     74  F   UNL A   1      44.754  29.948  35.379  1.00  0.00    -0.206 F 
ATOM     75  C   UNL A   1      47.762  31.545  36.597  1.00  0.00     0.022 A 
BRANCH  72  76
ATOM     76  S   UNL A   1      48.588  34.200  36.825  1.00  0.00     0.124 S 
ATOM     77  O   UNL A   1      48.724  34.737  35.474  1.00  0.00    -0.237 OA
ATOM     78  O   UNL A   1      47.926  35.066  37.794  1.00  0.00    -0.237 OA
ATOM     79  O   UNL A   1      49.762  33.486  37.324  1.00  0.00    -0.744 OA
ENDBRANCH  72  76
ENDBRANCH  55  69
BRANCH  56  80
ATOM     80  C   UNL A   1      36.064  34.353  32.007  1.00  0.00     0.023 A 
ATOM     81  C   UNL A   1      35.405  35.565  32.270  1.00  0.00     0.031 A 
ATOM     82  C   UNL A   1      35.389  33.393  31.231  1.00  0.00     0.131 A 
ATOM     83  C   UNL A   1      34.094  35.764  31.811  1.00  0.00     0.055 A 
ATOM     84  C   UNL A   1      34.108  33.620  30.726  1.00  0.00     0.041 A 
ATOM     85  F   UNL A   1      35.976  32.221  30.942  1.00  0.00    -0.206 F 
ATOM     86  C   UNL A   1      33.446  34.805  31.029  1.00  0.00     0.022 A 
BRANCH  83  87
ATOM     87  S   UNL A   1      33.207  37.258  32.334  1.00  0.00     0.124 S 
ATOM     88  O   UNL A   1      33.020  37.952  31.065  1.00  0.00    -0.237 OA
ATOM     89  O   UNL A   1      32.006  36.698  32.942  1.00  0.00    -0.237 OA
ATOM     90  O   UNL A   1      34.135  37.896  33.265  1.00  0.00    -0.744 OA
ENDBRANCH  83  87
ENDBRANCH  56  80
BRANCH  68  91
ATOM     91  C   UNL A   1      38.437  33.170  38.457  1.00  0.00     0.023 A 
ATOM     92  C   UNL A   1      38.620  34.224  39.369  1.00  0.00     0.031 A 
ATOM     93  C   UNL A   1      37.620  32.094  38.848  1.00  0.00     0.131 A 
ATOM     94  C   UNL A   1      38.068  34.138  40.655  1.00  0.00     0.055 A 
ATOM     95  C   UNL A   1      37.008  32.052  40.100  1.00  0.00     0.041 A 
ATOM     96  F   UNL A   1      37.412  31.058  38.019  1.00  0.00    -0.206 F 
ATOM     97  C   UNL A   1      37.247  33.067  41.020  1.00  0.00     0.022 A 
BRANCH  94  98
ATOM     98  S   UNL A   1      38.557  35.371  41.893  1.00  0.00     0.124 S 
ATOM     99  O   UNL A   1      37.469  35.277  42.861  1.00  0.00    -0.237 OA
ATOM    100  O   UNL A   1      39.852  34.867  42.338  1.00  0.00    -0.237 OA
ATOM    101  O   UNL A   1      38.605  36.618  41.132  1.00  0.00    -0.744 OA
ENDBRANCH  94  98
ENDBRANCH  68  91
ENDBRANCH  42  43
ENDBRANCH  34  37
ENDBRANCH  32  33
ENDBRANCH  31  32
ENDBRANCH   1  31
TORSDOF 19
ENDMDL
MODEL 3
REMARK VINA RESULT:      -9.0      7.007     12.755
REMARK SMILES CCCC(=O)Nc1cccc(C(=O)N[C@@H](C(=O)NCCCNC(=O)c2ccc(-c3c4nc(c(-c5cc(S(=O)(=O)[O-])ccc5F)c5ccc([nH]5)c(-c5cc(S(=O)(=O)[O-])ccc5F)c5nc(c(-c6cc(S(=O)(=O)[O-])ccc6F)c6ccc3[nH]6)C=C5)C=C4)cc2)C2=C(C)N=N[C@@H]2C)c1
REMARK SMILES IDX 19 1 18 2 16 3 17 4 15 6 14 7 12 8 13 9 11 11 7 12 8 13
REMARK SMILES IDX 95 14 9 15 10 16 6 17 4 18 5 19 3 21 2 22 1 23 88 24 89 25
REMARK SMILES IDX 93 26 90 27 91 28 92 29 94 30 20 31 21 32 22 33 23 34 24 36
REMARK SMILES IDX 25 37 26 38 87 39 27 40 86 41 28 42 29 43 30 44 80 45 31 46
REMARK SMILES IDX 85 47 79 48 81 49 32 50 84 51 78 52 77 53 33 55 65 56 45 57
REMARK SMILES IDX 64 58 46 59 49 60 63 61 82 62 47 63 48 64 62 66 83 67 50 68
REMARK SMILES IDX 34 69 35 70 43 71 36 72 42 73 44 74 41 75 37 76 38 77 39 78
REMARK SMILES IDX 40 79 66 80 67 81 75 82 68 83 74 84 76 85 73 86 69 87 70 88
REMARK SMILES IDX 71 89 72 90 51 91 52 92 60 93 53 94 59 95 61 96 58 97 54 98
REMARK SMILES IDX 55 99 56 100 57 101
REMARK H PARENT 18 5 14 10 6 20 22 35 81 54 49 65
REMARK Flexibility Score: inf
ROOT
ATOM      1  C   UNL A   1      46.945  37.824  26.786  1.00  0.00     0.117 C 
ENDROOT
BRANCH   1   2
ATOM      2  N   UNL A   1      47.897  38.897  26.901  1.00  0.00    -0.354 N 
ATOM      3  C   UNL A   1      47.861  39.993  27.708  1.00  0.00     0.247 C 
ATOM      4  O   UNL A   1      48.847  40.734  27.655  1.00  0.00    -0.272 OA
ATOM      5  H   UNL A   1      48.685  38.830  26.315  1.00  0.00     0.163 HD
BRANCH   3   6
ATOM      6  C   UNL A   1      46.703  40.186  28.750  1.00  0.00     0.202 C 
BRANCH   6   7
ATOM      7  N   UNL A   1      46.580  41.561  29.260  1.00  0.00    -0.337 N 
ATOM      8  C   UNL A   1      45.651  42.367  29.873  1.00  0.00     0.252 C 
ATOM      9  O   UNL A   1      45.994  43.548  29.995  1.00  0.00    -0.269 OA
ATOM     10  H   UNL A   1      47.421  42.055  29.119  1.00  0.00     0.165 HD
BRANCH   8  11
ATOM     11  C   UNL A   1      44.300  41.991  30.410  1.00  0.00     0.041 A 
ATOM     12  C   UNL A   1      42.605  41.737  32.149  1.00  0.00     0.041 A 
ATOM     13  C   UNL A   1      41.683  41.244  31.238  1.00  0.00     0.026 A 
ATOM     14  C   UNL A   1      43.908  42.058  31.745  1.00  0.00     0.040 A 
ATOM     15  C   UNL A   1      42.045  41.162  29.897  1.00  0.00     0.003 A 
ATOM     16  C   UNL A   1      43.336  41.535  29.490  1.00  0.00     0.014 A 
BRANCH  12  17
ATOM     17  N   UNL A   1      42.264  41.861  33.499  1.00  0.00    -0.326 N 
ATOM     18  C   UNL A   1      42.419  43.006  34.243  1.00  0.00     0.224 C 
ATOM     19  O   UNL A   1      42.734  42.948  35.429  1.00  0.00    -0.275 OA
ATOM     20  H   UNL A   1      41.887  41.071  33.950  1.00  0.00     0.169 HD
BRANCH  18  21
ATOM     21  C   UNL A   1      42.036  44.324  33.573  1.00  0.00     0.100 C 
BRANCH  21  22
ATOM     22  C   UNL A   1      43.088  45.425  33.605  1.00  0.00     0.006 C 
ATOM     23  C   UNL A   1      44.532  44.926  33.554  1.00  0.00     0.004 C 
ENDBRANCH  21  22
ENDBRANCH  18  21
ENDBRANCH  12  17
ENDBRANCH   8  11
ENDBRANCH   6   7
BRANCH   6  24
ATOM     24  C   UNL A   1      46.927  39.214  29.873  1.00  0.00     0.011 C 
ATOM     25  C   UNL A   1      46.101  38.466  30.620  1.00  0.00     0.064 C 
ATOM     26  C   UNL A   1      48.263  39.056  30.532  1.00  0.00     0.156 C 
ATOM     27  C   UNL A   1      44.622  38.313  30.551  1.00  0.00     0.069 C 
ATOM     28  N   UNL A   1      46.748  37.848  31.664  1.00  0.00    -0.160 NA
ATOM     29  N   UNL A   1      47.960  38.183  31.695  1.00  0.00    -0.181 NA
ATOM     30  C   UNL A   1      48.931  40.334  31.023  1.00  0.00     0.040 C 
ENDBRANCH   6  24
ENDBRANCH   3   6
ENDBRANCH   1   2
BRANCH   1  31
ATOM     31  C   UNL A   1      47.290  36.876  25.652  1.00  0.00     0.042 C 
BRANCH  31  32
ATOM     32  C   UNL A   1      46.861  35.454  25.962  1.00  0.00     0.118 C 
BRANCH  32  33
ATOM     33  N   UNL A   1      45.841  34.982  25.035  1.00  0.00    -0.352 N 
ATOM     34  C   UNL A   1      44.608  34.443  25.299  1.00  0.00     0.251 C 
ATOM     35  H   UNL A   1      46.069  35.062  24.081  1.00  0.00     0.163 HD
ATOM     36  O   UNL A   1      43.973  33.920  24.393  1.00  0.00    -0.269 OA
BRANCH  34  37
ATOM     37  C   UNL A   1      44.086  34.476  26.678  1.00  0.00     0.039 A 
ATOM     38  C   UNL A   1      43.487  35.649  27.139  1.00  0.00     0.014 A 
ATOM     39  C   UNL A   1      44.171  33.351  27.502  1.00  0.00     0.014 A 
ATOM     40  C   UNL A   1      42.933  35.672  28.416  1.00  0.00     0.010 A 
ATOM     41  C   UNL A   1      43.519  33.342  28.727  1.00  0.00     0.010 A 
ATOM     42  C   UNL A   1      42.915  34.510  29.206  1.00  0.00    -0.014 A 
BRANCH  42  43
ATOM     43  C   UNL A   1      42.289  34.520  30.549  1.00  0.00     0.031 A 
ATOM     44  C   UNL A   1      40.797  34.378  30.685  1.00  0.00     0.074 A 
ATOM     45  C   UNL A   1      43.069  34.683  31.635  1.00  0.00     0.049 A 
ATOM     46  N   UNL A   1      40.068  34.343  31.770  1.00  0.00    -0.248 NA
ATOM     47  C   UNL A   1      40.019  34.300  29.440  1.00  0.00     0.031 C 
ATOM     48  C   UNL A   1      44.519  34.899  31.608  1.00  0.00     0.029 A 
ATOM     49  N   UNL A   1      42.760  34.682  32.969  1.00  0.00    -0.354 N 
ATOM     50  C   UNL A   1      38.750  34.246  31.337  1.00  0.00     0.074 A 
ATOM     51  C   UNL A   1      38.776  34.313  29.893  1.00  0.00     0.031 C 
ATOM     52  C   UNL A   1      44.978  34.952  32.868  1.00  0.00     0.029 A 
ATOM     53  C   UNL A   1      43.855  34.820  33.790  1.00  0.00     0.049 A 
ATOM     54  H   UNL A   1      41.841  34.589  33.310  1.00  0.00     0.167 HD
ATOM     55  C   UNL A   1      37.626  34.079  32.075  1.00  0.00     0.034 A 
ATOM     56  C   UNL A   1      43.943  34.834  35.134  1.00  0.00     0.034 A 
ATOM     57  C   UNL A   1      37.628  34.005  33.515  1.00  0.00     0.049 A 
ATOM     58  C   UNL A   1      42.679  34.644  35.933  1.00  0.00     0.074 A 
ATOM     59  C   UNL A   1      36.562  33.793  34.371  1.00  0.00     0.029 A 
ATOM     60  N   UNL A   1      38.756  34.146  34.315  1.00  0.00    -0.354 N 
ATOM     61  N   UNL A   1      41.446  34.486  35.508  1.00  0.00    -0.248 NA
ATOM     62  C   UNL A   1      42.824  34.610  37.392  1.00  0.00     0.031 C 
ATOM     63  C   UNL A   1      37.032  33.880  35.686  1.00  0.00     0.029 A 
ATOM     64  C   UNL A   1      38.407  34.054  35.654  1.00  0.00     0.049 A 
ATOM     65  H   UNL A   1      39.671  34.291  33.980  1.00  0.00     0.167 HD
ATOM     66  C   UNL A   1      40.672  34.299  36.650  1.00  0.00     0.074 A 
ATOM     67  C   UNL A   1      41.586  34.338  37.775  1.00  0.00     0.031 C 
ATOM     68  C   UNL A   1      39.331  34.110  36.764  1.00  0.00     0.034 A 
BRANCH  55  69
ATOM     69  C   UNL A   1      36.312  33.988  31.332  1.00  0.00     0.023 A 
ATOM     70  C   UNL A   1      35.381  35.044  31.343  1.00  0.00     0.031 A 
ATOM     71  C   UNL A   1      35.967  32.820  30.632  1.00  0.00     0.131 A 
ATOM     72  C   UNL A   1      34.125  34.881  30.740  1.00  0.00     0.055 A 
ATOM     73  C   UNL A   1      34.750  32.698  29.956  1.00  0.00     0.041 A 
ATOM     74  F   UNL A   1      36.799  31.768  30.605  1.00  0.00    -0.206 F 
ATOM     75  C   UNL A   1      33.814  33.725  30.021  1.00  0.00     0.022 A 
BRANCH  72  76
ATOM     76  S   UNL A   1      32.849  36.135  31.041  1.00  0.00     0.124 S 
ATOM     77  O   UNL A   1      32.297  36.320  29.701  1.00  0.00    -0.237 OA
ATOM     78  O   UNL A   1      31.978  35.475  32.006  1.00  0.00    -0.237 OA
ATOM     79  O   UNL A   1      33.605  37.275  31.558  1.00  0.00    -0.744 OA
ENDBRANCH  72  76
ENDBRANCH  55  69
BRANCH  56  80
ATOM     80  C   UNL A   1      45.260  35.015  35.807  1.00  0.00     0.023 A 
ATOM     81  C   UNL A   1      45.772  36.296  36.068  1.00  0.00     0.031 A 
ATOM     82  C   UNL A   1      46.048  33.906  36.165  1.00  0.00     0.131 A 
ATOM     83  C   UNL A   1      47.055  36.439  36.617  1.00  0.00     0.055 A 
ATOM     84  C   UNL A   1      47.299  34.053  36.766  1.00  0.00     0.041 A 
ATOM     85  F   UNL A   1      45.604  32.659  35.946  1.00  0.00    -0.206 F 
ATOM     86  C   UNL A   1      47.817  35.326  36.980  1.00  0.00     0.022 A 
BRANCH  83  87
ATOM     87  S   UNL A   1      47.759  38.106  36.761  1.00  0.00     0.124 S 
ATOM     88  O   UNL A   1      49.086  37.823  37.293  1.00  0.00    -0.237 OA
ATOM     89  O   UNL A   1      47.707  38.574  35.381  1.00  0.00    -0.237 OA
ATOM     90  O   UNL A   1      46.846  38.781  37.681  1.00  0.00    -0.744 OA
ENDBRANCH  83  87
ENDBRANCH  56  80
BRANCH  68  91
ATOM     91  C   UNL A   1      38.793  33.882  38.156  1.00  0.00     0.023 A 
ATOM     92  C   UNL A   1      38.302  32.630  38.565  1.00  0.00     0.031 A 
ATOM     93  C   UNL A   1      38.729  34.946  39.073  1.00  0.00     0.131 A 
ATOM     94  C   UNL A   1      37.691  32.495  39.820  1.00  0.00     0.055 A 
ATOM     95  C   UNL A   1      38.193  34.786  40.351  1.00  0.00     0.041 A 
ATOM     96  F   UNL A   1      39.181  36.166  38.737  1.00  0.00    -0.206 F 
ATOM     97  C   UNL A   1      37.650  33.561  40.723  1.00  0.00     0.022 A 
BRANCH  94  98
ATOM     98  S   UNL A   1      36.819  30.950  40.198  1.00  0.00     0.124 S 
ATOM     99  O   UNL A   1      37.694  30.345  41.197  1.00  0.00    -0.237 OA
ATOM    100  O   UNL A   1      35.531  31.431  40.687  1.00  0.00    -0.237 OA
ATOM    101  O   UNL A   1      36.775  30.258  38.911  1.00  0.00    -0.744 OA
ENDBRANCH  94  98
ENDBRANCH  68  91
ENDBRANCH  42  43
ENDBRANCH  34  37
ENDBRANCH  32  33
ENDBRANCH  31  32
ENDBRANCH   1  31
TORSDOF 19
ENDMDL
