MODEL 1
REMARK VINA RESULT:     -12.7      0.000      0.000
REMARK SMILES Cc1nsc(N(C)C(=O)Nc2cccc(Cl)c2)c1C(=O)NCCCNC(=O)c1ccc(-c2c3nc(c(-c4cc(S(=O)(=O)[O-])ccc4F)c4ccc([nH]4)c(-c4cc(S(=O)(=O)[O-])ccc4F)c4nc(c(-c5cc(S(=O)(=O)[O-])ccc5F)c5ccc2[nH]5)C=C4)C=C3)cc1
REMARK SMILES IDX 23 1 22 2 21 3 19 4 20 5 18 7 1 8 2 9 3 10 4 11 5 12 6 13
REMARK SMILES IDX 7 14 8 15 9 16 10 17 11 19 12 20 17 21 13 22 15 23 14 24
REMARK SMILES IDX 16 25 24 26 25 27 26 28 27 30 28 31 29 32 90 33 30 34 89 35
REMARK SMILES IDX 31 36 32 37 33 38 83 39 34 40 88 41 82 42 84 43 35 44 87 45
REMARK SMILES IDX 81 46 80 47 36 49 68 50 48 51 67 52 49 53 52 54 66 55 85 56
REMARK SMILES IDX 50 57 51 58 65 60 86 61 53 62 37 63 38 64 46 65 39 66 45 67
REMARK SMILES IDX 47 68 44 69 40 70 41 71 42 72 43 73 69 74 70 75 78 76 71 77
REMARK SMILES IDX 77 78 79 79 76 80 72 81 73 82 74 83 75 84 54 85 55 86 63 87
REMARK SMILES IDX 56 88 62 89 64 90 61 91 57 92 58 93 59 94 60 95
REMARK H PARENT 21 6 10 18 25 29 84 48 52 59
REMARK Flexibility Score: inf
ROOT
ATOM      1  C   UNL A   1      34.009  29.741  26.987  1.00  0.00     0.042 C 
ENDROOT
BRANCH   1   2
ATOM      2  C   UNL A   1      32.903  28.683  27.035  1.00  0.00     0.118 C 
BRANCH   2   3
ATOM      3  N   UNL A   1      33.356  27.386  26.567  1.00  0.00    -0.352 N 
ATOM      4  C   UNL A   1      33.276  26.967  25.256  1.00  0.00     0.256 C 
ATOM      5  O   UNL A   1      34.312  26.952  24.590  1.00  0.00    -0.269 OA
ATOM      6  H   UNL A   1      33.743  26.767  27.228  1.00  0.00     0.163 HD
BRANCH   4   7
ATOM      7  C   UNL A   1      32.009  26.484  24.695  1.00  0.00     0.097 A 
ATOM      8  C   UNL A   1      30.511  28.671  24.249  1.00  0.00     0.069 C 
ATOM      9  C   UNL A   1      30.869  27.233  24.156  1.00  0.00     0.066 A 
ATOM     10  N   UNL A   1      30.001  26.535  23.428  1.00  0.00    -0.195 NA
ATOM     11  S   UNL A   1      30.449  24.974  23.410  1.00  0.00    -0.017 S 
ATOM     12  C   UNL A   1      31.719  25.110  24.568  1.00  0.00     0.133 A 
BRANCH  12  13
ATOM     13  N   UNL A   1      32.208  23.880  25.108  1.00  0.00    -0.286 N 
ATOM     14  C   UNL A   1      32.013  22.627  24.356  1.00  0.00     0.156 C 
BRANCH  13  15
ATOM     15  C   UNL A   1      32.536  23.828  26.463  1.00  0.00     0.326 C 
ATOM     16  O   UNL A   1      31.718  24.043  27.364  1.00  0.00    -0.248 OA
ATOM     17  N   UNL A   1      33.755  23.353  26.882  1.00  0.00    -0.307 N 
ATOM     18  H   UNL A   1      33.797  23.205  27.854  1.00  0.00     0.171 HD
BRANCH  17  19
ATOM     19  C   UNL A   1      34.953  23.031  26.223  1.00  0.00     0.044 A 
ATOM     20  C   UNL A   1      35.773  23.976  25.605  1.00  0.00     0.026 A 
ATOM     21  C   UNL A   1      35.247  21.669  26.091  1.00  0.00     0.046 A 
ATOM     22  C   UNL A   1      36.778  23.561  24.724  1.00  0.00     0.004 A 
ATOM     23  C   UNL A   1      36.237  21.261  25.198  1.00  0.00     0.043 A 
ATOM     24  C   UNL A   1      36.984  22.200  24.491  1.00  0.00     0.020 A 
ATOM     25  Cl  UNL A   1      36.477  19.583  24.898  1.00  0.00    -0.084 Cl
ENDBRANCH  17  19
ENDBRANCH  13  15
ENDBRANCH  12  13
ENDBRANCH   4   7
ENDBRANCH   2   3
ENDBRANCH   1   2
BRANCH   1  26
ATOM     26  C   UNL A   1      35.313  29.252  27.585  1.00  0.00     0.118 C 
BRANCH  26  27
ATOM     27  N   UNL A   1      35.579  29.865  28.887  1.00  0.00    -0.352 N 
ATOM     28  C   UNL A   1      36.624  29.613  29.756  1.00  0.00     0.251 C 
ATOM     29  H   UNL A   1      34.931  30.546  29.180  1.00  0.00     0.163 HD
ATOM     30  O   UNL A   1      36.522  29.901  30.936  1.00  0.00    -0.269 OA
BRANCH  28  31
ATOM     31  C   UNL A   1      37.846  28.978  29.225  1.00  0.00     0.039 A 
ATOM     32  C   UNL A   1      38.478  29.478  28.085  1.00  0.00     0.014 A 
ATOM     33  C   UNL A   1      38.381  27.893  29.916  1.00  0.00     0.014 A 
ATOM     34  C   UNL A   1      39.703  28.931  27.712  1.00  0.00     0.010 A 
ATOM     35  C   UNL A   1      39.658  27.468  29.646  1.00  0.00     0.010 A 
ATOM     36  C   UNL A   1      40.310  27.950  28.522  1.00  0.00    -0.014 A 
BRANCH  36  37
ATOM     37  C   UNL A   1      41.710  27.576  28.322  1.00  0.00     0.031 A 
ATOM     38  C   UNL A   1      41.853  26.304  27.567  1.00  0.00     0.074 A 
ATOM     39  C   UNL A   1      42.773  28.365  28.600  1.00  0.00     0.049 A 
ATOM     40  N   UNL A   1      42.132  25.147  28.066  1.00  0.00    -0.248 NA
ATOM     41  C   UNL A   1      41.404  26.245  26.165  1.00  0.00     0.031 C 
ATOM     42  C   UNL A   1      42.779  29.741  29.104  1.00  0.00     0.029 A 
ATOM     43  N   UNL A   1      44.103  28.123  28.412  1.00  0.00    -0.354 N 
ATOM     44  C   UNL A   1      42.210  24.282  26.983  1.00  0.00     0.074 A 
ATOM     45  C   UNL A   1      41.501  24.936  25.918  1.00  0.00     0.031 C 
ATOM     46  C   UNL A   1      44.014  30.278  28.967  1.00  0.00     0.029 A 
ATOM     47  C   UNL A   1      44.932  29.245  28.514  1.00  0.00     0.049 A 
ATOM     48  H   UNL A   1      44.453  27.224  28.218  1.00  0.00     0.167 HD
ATOM     49  C   UNL A   1      43.122  23.271  26.986  1.00  0.00     0.034 A 
ATOM     50  C   UNL A   1      46.272  29.322  28.255  1.00  0.00     0.034 A 
ATOM     51  C   UNL A   1      43.621  23.039  28.331  1.00  0.00     0.049 A 
ATOM     52  C   UNL A   1      46.799  27.942  28.404  1.00  0.00     0.074 A 
ATOM     53  C   UNL A   1      43.019  22.786  29.551  1.00  0.00     0.029 A 
ATOM     54  N   UNL A   1      44.889  23.489  28.640  1.00  0.00    -0.354 N 
ATOM     55  N   UNL A   1      46.815  27.312  29.547  1.00  0.00    -0.248 NA
ATOM     56  C   UNL A   1      46.804  27.090  27.225  1.00  0.00     0.031 C 
ATOM     57  C   UNL A   1      43.736  23.589  30.487  1.00  0.00     0.029 A 
ATOM     58  C   UNL A   1      44.809  24.185  29.822  1.00  0.00     0.049 A 
ATOM     59  H   UNL A   1      45.703  23.339  28.108  1.00  0.00     0.167 HD
ATOM     60  C   UNL A   1      46.367  26.035  29.252  1.00  0.00     0.074 A 
ATOM     61  C   UNL A   1      46.459  25.930  27.793  1.00  0.00     0.031 C 
ATOM     62  C   UNL A   1      45.683  25.291  30.172  1.00  0.00     0.034 A 
BRANCH  49  63
ATOM     63  C   UNL A   1      43.879  22.800  25.759  1.00  0.00     0.023 A 
ATOM     64  C   UNL A   1      43.974  21.408  25.576  1.00  0.00     0.031 A 
ATOM     65  C   UNL A   1      44.745  23.579  24.959  1.00  0.00     0.131 A 
ATOM     66  C   UNL A   1      44.977  20.852  24.766  1.00  0.00     0.055 A 
ATOM     67  C   UNL A   1      45.695  23.022  24.098  1.00  0.00     0.041 A 
ATOM     68  F   UNL A   1      44.793  24.914  25.015  1.00  0.00    -0.206 F 
ATOM     69  C   UNL A   1      45.842  21.650  24.026  1.00  0.00     0.022 A 
BRANCH  66  70
ATOM     70  S   UNL A   1      45.247  19.065  24.858  1.00  0.00     0.124 S 
ATOM     71  O   UNL A   1      45.159  18.692  23.450  1.00  0.00    -0.237 OA
ATOM     72  O   UNL A   1      46.573  18.995  25.462  1.00  0.00    -0.237 OA
ATOM     73  O   UNL A   1      44.150  18.602  25.703  1.00  0.00    -0.744 OA
ENDBRANCH  66  70
ENDBRANCH  49  63
BRANCH  50  74
ATOM     74  C   UNL A   1      47.055  30.425  27.611  1.00  0.00     0.023 A 
ATOM     75  C   UNL A   1      46.452  31.556  26.998  1.00  0.00     0.031 A 
ATOM     76  C   UNL A   1      48.447  30.510  27.836  1.00  0.00     0.131 A 
ATOM     77  C   UNL A   1      47.230  32.695  26.659  1.00  0.00     0.055 A 
ATOM     78  C   UNL A   1      49.205  31.640  27.509  1.00  0.00     0.041 A 
ATOM     79  F   UNL A   1      49.109  29.531  28.468  1.00  0.00    -0.206 F 
ATOM     80  C   UNL A   1      48.598  32.742  26.931  1.00  0.00     0.022 A 
BRANCH  77  81
ATOM     81  S   UNL A   1      46.464  34.193  25.939  1.00  0.00     0.124 S 
ATOM     82  O   UNL A   1      45.313  33.644  25.232  1.00  0.00    -0.237 OA
ATOM     83  O   UNL A   1      46.180  35.004  27.116  1.00  0.00    -0.237 OA
ATOM     84  O   UNL A   1      47.514  34.730  25.071  1.00  0.00    -0.744 OA
ENDBRANCH  77  81
ENDBRANCH  50  74
BRANCH  62  85
ATOM     85  C   UNL A   1      45.685  25.734  31.625  1.00  0.00     0.023 A 
ATOM     86  C   UNL A   1      46.717  25.497  32.564  1.00  0.00     0.031 A 
ATOM     87  C   UNL A   1      44.612  26.549  32.034  1.00  0.00     0.131 A 
ATOM     88  C   UNL A   1      46.639  26.065  33.855  1.00  0.00     0.055 A 
ATOM     89  C   UNL A   1      44.552  27.127  33.299  1.00  0.00     0.041 A 
ATOM     90  F   UNL A   1      43.607  26.826  31.187  1.00  0.00    -0.206 F 
ATOM     91  C   UNL A   1      45.564  26.883  34.217  1.00  0.00     0.022 A 
BRANCH  88  92
ATOM     92  S   UNL A   1      47.923  25.732  35.110  1.00  0.00     0.124 S 
ATOM     93  O   UNL A   1      47.870  24.285  35.278  1.00  0.00    -0.237 OA
ATOM     94  O   UNL A   1      49.129  26.259  34.476  1.00  0.00    -0.237 OA
ATOM     95  O   UNL A   1      47.468  26.497  36.273  1.00  0.00    -0.744 OA
ENDBRANCH  88  92
ENDBRANCH  62  85
ENDBRANCH  36  37
ENDBRANCH  28  31
ENDBRANCH  26  27
ENDBRANCH   1  26
TORSDOF 16
ENDMDL
MODEL 2
REMARK VINA RESULT:     -12.5      1.866      2.409
REMARK SMILES Cc1nsc(N(C)C(=O)Nc2cccc(Cl)c2)c1C(=O)NCCCNC(=O)c1ccc(-c2c3nc(c(-c4cc(S(=O)(=O)[O-])ccc4F)c4ccc([nH]4)c(-c4cc(S(=O)(=O)[O-])ccc4F)c4nc(c(-c5cc(S(=O)(=O)[O-])ccc5F)c5ccc2[nH]5)C=C4)C=C3)cc1
REMARK SMILES IDX 23 1 22 2 21 3 19 4 20 5 18 7 1 8 2 9 3 10 4 11 5 12 6 13
REMARK SMILES IDX 7 14 8 15 9 16 10 17 11 19 12 20 17 21 13 22 15 23 14 24
REMARK SMILES IDX 16 25 24 26 25 27 26 28 27 30 28 31 29 32 90 33 30 34 89 35
REMARK SMILES IDX 31 36 32 37 33 38 83 39 34 40 88 41 82 42 84 43 35 44 87 45
REMARK SMILES IDX 81 46 80 47 36 49 68 50 48 51 67 52 49 53 52 54 66 55 85 56
REMARK SMILES IDX 50 57 51 58 65 60 86 61 53 62 37 63 38 64 46 65 39 66 45 67
REMARK SMILES IDX 47 68 44 69 40 70 41 71 42 72 43 73 69 74 70 75 78 76 71 77
REMARK SMILES IDX 77 78 79 79 76 80 72 81 73 82 74 83 75 84 54 85 55 86 63 87
REMARK SMILES IDX 56 88 62 89 64 90 61 91 57 92 58 93 59 94 60 95
REMARK H PARENT 21 6 10 18 25 29 84 48 52 59
REMARK Flexibility Score: inf
ROOT
ATOM      1  C   UNL A   1      34.406  29.364  27.171  1.00  0.00     0.042 C 
ENDROOT
BRANCH   1   2
ATOM      2  C   UNL A   1      33.456  30.375  26.523  1.00  0.00     0.118 C 
BRANCH   2   3
ATOM      3  N   UNL A   1      33.013  29.954  25.207  1.00  0.00    -0.352 N 
ATOM      4  C   UNL A   1      31.782  29.389  24.951  1.00  0.00     0.256 C 
ATOM      5  O   UNL A   1      30.927  30.089  24.406  1.00  0.00    -0.269 OA
ATOM      6  H   UNL A   1      33.631  30.079  24.451  1.00  0.00     0.163 HD
BRANCH   4   7
ATOM      7  C   UNL A   1      31.524  27.976  25.250  1.00  0.00     0.097 A 
ATOM      8  C   UNL A   1      31.311  27.808  27.924  1.00  0.00     0.069 C 
ATOM      9  C   UNL A   1      31.208  27.324  26.525  1.00  0.00     0.066 A 
ATOM     10  N   UNL A   1      30.712  26.091  26.444  1.00  0.00    -0.195 NA
ATOM     11  S   UNL A   1      30.668  25.630  24.888  1.00  0.00    -0.017 S 
ATOM     12  C   UNL A   1      31.523  26.983  24.248  1.00  0.00     0.133 A 
BRANCH  12  13
ATOM     13  N   UNL A   1      32.000  26.845  22.907  1.00  0.00    -0.286 N 
ATOM     14  C   UNL A   1      31.130  26.237  21.884  1.00  0.00     0.156 C 
BRANCH  13  15
ATOM     15  C   UNL A   1      33.371  26.955  22.671  1.00  0.00     0.326 C 
ATOM     16  O   UNL A   1      33.907  27.996  22.275  1.00  0.00    -0.248 OA
ATOM     17  N   UNL A   1      34.239  25.957  23.043  1.00  0.00    -0.307 N 
ATOM     18  H   UNL A   1      35.184  26.226  22.983  1.00  0.00     0.171 HD
BRANCH  17  19
ATOM     19  C   UNL A   1      34.069  24.637  23.491  1.00  0.00     0.044 A 
ATOM     20  C   UNL A   1      33.584  23.604  22.688  1.00  0.00     0.026 A 
ATOM     21  C   UNL A   1      34.291  24.406  24.854  1.00  0.00     0.046 A 
ATOM     22  C   UNL A   1      33.163  22.403  23.271  1.00  0.00     0.004 A 
ATOM     23  C   UNL A   1      33.853  23.216  25.432  1.00  0.00     0.043 A 
ATOM     24  C   UNL A   1      33.263  22.224  24.652  1.00  0.00     0.020 A 
ATOM     25  Cl  UNL A   1      33.959  23.005  27.137  1.00  0.00    -0.084 Cl
ENDBRANCH  17  19
ENDBRANCH  13  15
ENDBRANCH  12  13
ENDBRANCH   4   7
ENDBRANCH   2   3
ENDBRANCH   1   2
BRANCH   1  26
ATOM     26  C   UNL A   1      35.714  29.989  27.613  1.00  0.00     0.118 C 
BRANCH  26  27
ATOM     27  N   UNL A   1      35.803  30.093  29.070  1.00  0.00    -0.352 N 
ATOM     28  C   UNL A   1      36.664  29.433  29.927  1.00  0.00     0.251 C 
ATOM     29  H   UNL A   1      35.168  30.715  29.494  1.00  0.00     0.163 HD
ATOM     30  O   UNL A   1      36.387  29.323  31.108  1.00  0.00    -0.269 OA
BRANCH  28  31
ATOM     31  C   UNL A   1      37.906  28.861  29.373  1.00  0.00     0.039 A 
ATOM     32  C   UNL A   1      38.456  29.346  28.186  1.00  0.00     0.014 A 
ATOM     33  C   UNL A   1      38.546  27.851  30.091  1.00  0.00     0.014 A 
ATOM     34  C   UNL A   1      39.701  28.868  27.786  1.00  0.00     0.010 A 
ATOM     35  C   UNL A   1      39.839  27.504  29.787  1.00  0.00     0.010 A 
ATOM     36  C   UNL A   1      40.409  27.974  28.614  1.00  0.00    -0.014 A 
BRANCH  36  37
ATOM     37  C   UNL A   1      41.823  27.689  28.372  1.00  0.00     0.031 A 
ATOM     38  C   UNL A   1      42.026  26.407  27.649  1.00  0.00     0.074 A 
ATOM     39  C   UNL A   1      42.839  28.557  28.587  1.00  0.00     0.049 A 
ATOM     40  N   UNL A   1      42.402  25.288  28.170  1.00  0.00    -0.248 NA
ATOM     41  C   UNL A   1      41.532  26.274  26.267  1.00  0.00     0.031 C 
ATOM     42  C   UNL A   1      42.768  29.945  29.051  1.00  0.00     0.029 A 
ATOM     43  N   UNL A   1      44.175  28.400  28.356  1.00  0.00    -0.354 N 
ATOM     44  C   UNL A   1      42.501  24.397  27.110  1.00  0.00     0.074 A 
ATOM     45  C   UNL A   1      41.710  24.968  26.055  1.00  0.00     0.031 C 
ATOM     46  C   UNL A   1      43.958  30.560  28.851  1.00  0.00     0.029 A 
ATOM     47  C   UNL A   1      44.927  29.578  28.394  1.00  0.00     0.049 A 
ATOM     48  H   UNL A   1      44.579  27.521  28.174  1.00  0.00     0.167 HD
ATOM     49  C   UNL A   1      43.479  23.450  27.107  1.00  0.00     0.034 A 
ATOM     50  C   UNL A   1      46.248  29.737  28.082  1.00  0.00     0.034 A 
ATOM     51  C   UNL A   1      44.041  23.295  28.438  1.00  0.00     0.049 A 
ATOM     52  C   UNL A   1      46.874  28.402  28.250  1.00  0.00     0.074 A 
ATOM     53  C   UNL A   1      43.502  23.039  29.687  1.00  0.00     0.029 A 
ATOM     54  N   UNL A   1      45.285  23.839  28.686  1.00  0.00    -0.354 N 
ATOM     55  N   UNL A   1      46.975  27.809  29.410  1.00  0.00    -0.248 NA
ATOM     56  C   UNL A   1      46.896  27.515  27.096  1.00  0.00     0.031 C 
ATOM     57  C   UNL A   1      44.195  23.918  30.572  1.00  0.00     0.029 A 
ATOM     58  C   UNL A   1      45.200  24.564  29.850  1.00  0.00     0.049 A 
ATOM     59  H   UNL A   1      46.088  23.728  28.128  1.00  0.00     0.167 HD
ATOM     60  C   UNL A   1      46.606  26.496  29.168  1.00  0.00     0.074 A 
ATOM     61  C   UNL A   1      46.652  26.353  27.711  1.00  0.00     0.031 C 
ATOM     62  C   UNL A   1      46.008  25.737  30.135  1.00  0.00     0.034 A 
BRANCH  49  63
ATOM     63  C   UNL A   1      44.223  22.993  25.866  1.00  0.00     0.023 A 
ATOM     64  C   UNL A   1      44.319  21.604  25.669  1.00  0.00     0.031 A 
ATOM     65  C   UNL A   1      45.076  23.783  25.064  1.00  0.00     0.131 A 
ATOM     66  C   UNL A   1      45.313  21.059  24.841  1.00  0.00     0.055 A 
ATOM     67  C   UNL A   1      46.017  23.237  24.185  1.00  0.00     0.041 A 
ATOM     68  F   UNL A   1      45.121  25.118  25.133  1.00  0.00    -0.206 F 
ATOM     69  C   UNL A   1      46.167  21.866  24.098  1.00  0.00     0.022 A 
BRANCH  66  70
ATOM     70  S   UNL A   1      45.589  19.272  24.912  1.00  0.00     0.124 S 
ATOM     71  O   UNL A   1      44.389  18.827  25.616  1.00  0.00    -0.237 OA
ATOM     72  O   UNL A   1      45.672  18.926  23.498  1.00  0.00    -0.237 OA
ATOM     73  O   UNL A   1      46.837  19.153  25.659  1.00  0.00    -0.744 OA
ENDBRANCH  66  70
ENDBRANCH  49  63
BRANCH  50  74
ATOM     74  C   UNL A   1      46.930  30.870  27.377  1.00  0.00     0.023 A 
ATOM     75  C   UNL A   1      46.239  31.999  26.862  1.00  0.00     0.031 A 
ATOM     76  C   UNL A   1      48.337  30.982  27.444  1.00  0.00     0.131 A 
ATOM     77  C   UNL A   1      46.949  33.162  26.462  1.00  0.00     0.055 A 
ATOM     78  C   UNL A   1      49.029  32.135  27.057  1.00  0.00     0.041 A 
ATOM     79  F   UNL A   1      49.087  30.006  27.975  1.00  0.00    -0.206 F 
ATOM     80  C   UNL A   1      48.338  33.234  26.577  1.00  0.00     0.022 A 
BRANCH  77  81
ATOM     81  S   UNL A   1      46.076  34.656  25.867  1.00  0.00     0.124 S 
ATOM     82  O   UNL A   1      47.167  35.610  25.709  1.00  0.00    -0.237 OA
ATOM     83  O   UNL A   1      45.437  34.187  24.643  1.00  0.00    -0.237 OA
ATOM     84  O   UNL A   1      45.147  34.965  26.956  1.00  0.00    -0.744 OA
ENDBRANCH  77  81
ENDBRANCH  50  74
BRANCH  62  85
ATOM     85  C   UNL A   1      46.031  26.224  31.573  1.00  0.00     0.023 A 
ATOM     86  C   UNL A   1      44.966  26.864  32.250  1.00  0.00     0.031 A 
ATOM     87  C   UNL A   1      47.178  25.906  32.325  1.00  0.00     0.131 A 
ATOM     88  C   UNL A   1      45.084  27.165  33.625  1.00  0.00     0.055 A 
ATOM     89  C   UNL A   1      47.279  26.181  33.687  1.00  0.00     0.041 A 
ATOM     90  F   UNL A   1      48.219  25.284  31.748  1.00  0.00    -0.206 F 
ATOM     91  C   UNL A   1      46.233  26.817  34.341  1.00  0.00     0.022 A 
BRANCH  88  92
ATOM     92  S   UNL A   1      43.753  28.043  34.515  1.00  0.00     0.124 S 
ATOM     93  O   UNL A   1      43.617  27.291  35.757  1.00  0.00    -0.237 OA
ATOM     94  O   UNL A   1      44.293  29.394  34.641  1.00  0.00    -0.237 OA
ATOM     95  O   UNL A   1      42.607  27.931  33.609  1.00  0.00    -0.744 OA
ENDBRANCH  88  92
ENDBRANCH  62  85
ENDBRANCH  36  37
ENDBRANCH  28  31
ENDBRANCH  26  27
ENDBRANCH   1  26
TORSDOF 16
ENDMDL
MODEL 3
REMARK VINA RESULT:     -12.4      3.460      8.245
REMARK SMILES Cc1nsc(N(C)C(=O)Nc2cccc(Cl)c2)c1C(=O)NCCCNC(=O)c1ccc(-c2c3nc(c(-c4cc(S(=O)(=O)[O-])ccc4F)c4ccc([nH]4)c(-c4cc(S(=O)(=O)[O-])ccc4F)c4nc(c(-c5cc(S(=O)(=O)[O-])ccc5F)c5ccc2[nH]5)C=C4)C=C3)cc1
REMARK SMILES IDX 23 1 22 2 21 3 19 4 20 5 18 7 1 8 2 9 3 10 4 11 5 12 6 13
REMARK SMILES IDX 7 14 8 15 9 16 10 17 11 19 12 20 17 21 13 22 15 23 14 24
REMARK SMILES IDX 16 25 24 26 25 27 26 28 27 30 28 31 29 32 90 33 30 34 89 35
REMARK SMILES IDX 31 36 32 37 33 38 83 39 34 40 88 41 82 42 84 43 35 44 87 45
REMARK SMILES IDX 81 46 80 47 36 49 68 50 48 51 67 52 49 53 52 54 66 55 85 56
REMARK SMILES IDX 50 57 51 58 65 60 86 61 53 62 37 63 38 64 46 65 39 66 45 67
REMARK SMILES IDX 47 68 44 69 40 70 41 71 42 72 43 73 69 74 70 75 78 76 71 77
REMARK SMILES IDX 77 78 79 79 76 80 72 81 73 82 74 83 75 84 54 85 55 86 63 87
REMARK SMILES IDX 56 88 62 89 64 90 61 91 57 92 58 93 59 94 60 95
REMARK H PARENT 21 6 10 18 25 29 84 48 52 59
REMARK Flexibility Score: inf
ROOT
ATOM      1  C   UNL A   1      37.287  20.976  24.456  1.00  0.00     0.042 C 
ENDROOT
BRANCH   1   2
ATOM      2  C   UNL A   1      35.894  21.306  25.001  1.00  0.00     0.118 C 
BRANCH   2   3
ATOM      3  N   UNL A   1      35.329  22.496  24.394  1.00  0.00    -0.352 N 
ATOM      4  C   UNL A   1      34.816  23.558  25.107  1.00  0.00     0.256 C 
ATOM      5  O   UNL A   1      35.490  24.587  25.177  1.00  0.00    -0.269 OA
ATOM      6  H   UNL A   1      35.310  22.547  23.410  1.00  0.00     0.163 HD
BRANCH   4   7
ATOM      7  C   UNL A   1      33.476  23.490  25.701  1.00  0.00     0.097 A 
ATOM      8  C   UNL A   1      33.720  21.990  27.918  1.00  0.00     0.069 C 
ATOM      9  C   UNL A   1      33.037  22.910  26.974  1.00  0.00     0.066 A 
ATOM     10  N   UNL A   1      31.828  23.274  27.398  1.00  0.00    -0.195 NA
ATOM     11  S   UNL A   1      31.142  24.245  26.292  1.00  0.00    -0.017 S 
ATOM     12  C   UNL A   1      32.346  24.053  25.073  1.00  0.00     0.133 A 
BRANCH  12  13
ATOM     13  N   UNL A   1      31.988  24.502  23.763  1.00  0.00    -0.286 N 
ATOM     14  C   UNL A   1      30.818  23.913  23.087  1.00  0.00     0.156 C 
BRANCH  13  15
ATOM     15  C   UNL A   1      32.931  25.212  23.019  1.00  0.00     0.326 C 
ATOM     16  O   UNL A   1      33.555  24.720  22.073  1.00  0.00    -0.248 OA
ATOM     17  N   UNL A   1      33.089  26.567  23.181  1.00  0.00    -0.307 N 
ATOM     18  H   UNL A   1      33.653  26.975  22.484  1.00  0.00     0.171 HD
BRANCH  17  19
ATOM     19  C   UNL A   1      32.619  27.496  24.124  1.00  0.00     0.044 A 
ATOM     20  C   UNL A   1      31.542  28.354  23.894  1.00  0.00     0.026 A 
ATOM     21  C   UNL A   1      33.369  27.629  25.298  1.00  0.00     0.046 A 
ATOM     22  C   UNL A   1      31.321  29.443  24.746  1.00  0.00     0.004 A 
ATOM     23  C   UNL A   1      33.156  28.725  26.133  1.00  0.00     0.043 A 
ATOM     24  C   UNL A   1      32.154  29.649  25.846  1.00  0.00     0.020 A 
ATOM     25  Cl  UNL A   1      34.196  28.989  27.478  1.00  0.00    -0.084 Cl
ENDBRANCH  17  19
ENDBRANCH  13  15
ENDBRANCH  12  13
ENDBRANCH   4   7
ENDBRANCH   2   3
ENDBRANCH   1   2
BRANCH   1  26
ATOM     26  C   UNL A   1      38.377  21.137  25.497  1.00  0.00     0.118 C 
BRANCH  26  27
ATOM     27  N   UNL A   1      39.178  19.921  25.638  1.00  0.00    -0.352 N 
ATOM     28  C   UNL A   1      40.524  19.810  25.933  1.00  0.00     0.251 C 
ATOM     29  H   UNL A   1      38.696  19.072  25.508  1.00  0.00     0.163 HD
ATOM     30  O   UNL A   1      41.131  18.791  25.651  1.00  0.00    -0.269 OA
BRANCH  28  31
ATOM     31  C   UNL A   1      41.201  20.952  26.578  1.00  0.00     0.039 A 
ATOM     32  C   UNL A   1      41.822  21.944  25.817  1.00  0.00     0.014 A 
ATOM     33  C   UNL A   1      41.164  21.044  27.969  1.00  0.00     0.014 A 
ATOM     34  C   UNL A   1      42.318  23.069  26.469  1.00  0.00     0.010 A 
ATOM     35  C   UNL A   1      41.503  22.220  28.590  1.00  0.00     0.010 A 
ATOM     36  C   UNL A   1      42.120  23.221  27.856  1.00  0.00    -0.014 A 
BRANCH  36  37
ATOM     37  C   UNL A   1      42.361  24.507  28.510  1.00  0.00     0.031 A 
ATOM     38  C   UNL A   1      41.300  25.502  28.209  1.00  0.00     0.074 A 
ATOM     39  C   UNL A   1      43.314  24.739  29.442  1.00  0.00     0.049 A 
ATOM     40  N   UNL A   1      41.383  26.478  27.368  1.00  0.00    -0.248 NA
ATOM     41  C   UNL A   1      39.929  25.260  28.691  1.00  0.00     0.031 C 
ATOM     42  C   UNL A   1      44.264  23.790  30.028  1.00  0.00     0.029 A 
ATOM     43  N   UNL A   1      43.588  25.883  30.133  1.00  0.00    -0.354 N 
ATOM     44  C   UNL A   1      40.178  27.159  27.465  1.00  0.00     0.074 A 
ATOM     45  C   UNL A   1      39.259  26.230  28.063  1.00  0.00     0.031 C 
ATOM     46  C   UNL A   1      44.842  24.333  31.126  1.00  0.00     0.029 A 
ATOM     47  C   UNL A   1      44.429  25.723  31.239  1.00  0.00     0.049 A 
ATOM     48  H   UNL A   1      43.220  26.758  29.873  1.00  0.00     0.167 HD
ATOM     49  C   UNL A   1      40.152  28.514  27.339  1.00  0.00     0.034 A 
ATOM     50  C   UNL A   1      44.770  26.660  32.174  1.00  0.00     0.034 A 
ATOM     51  C   UNL A   1      41.384  28.993  26.734  1.00  0.00     0.049 A 
ATOM     52  C   UNL A   1      44.573  27.980  31.524  1.00  0.00     0.074 A 
ATOM     53  C   UNL A   1      42.069  28.684  25.572  1.00  0.00     0.029 A 
ATOM     54  N   UNL A   1      42.313  29.604  27.551  1.00  0.00    -0.354 N 
ATOM     55  N   UNL A   1      45.294  28.383  30.512  1.00  0.00    -0.248 NA
ATOM     56  C   UNL A   1      43.264  28.603  31.641  1.00  0.00     0.031 C 
ATOM     57  C   UNL A   1      43.441  28.632  25.960  1.00  0.00     0.029 A 
ATOM     58  C   UNL A   1      43.536  29.034  27.293  1.00  0.00     0.049 A 
ATOM     59  H   UNL A   1      42.132  30.320  28.202  1.00  0.00     0.167 HD
ATOM     60  C   UNL A   1      44.381  28.934  29.627  1.00  0.00     0.074 A 
ATOM     61  C   UNL A   1      43.159  29.120  30.413  1.00  0.00     0.031 C 
ATOM     62  C   UNL A   1      44.596  28.909  28.278  1.00  0.00     0.034 A 
BRANCH  49  63
ATOM     63  C   UNL A   1      39.244  29.430  28.138  1.00  0.00     0.023 A 
ATOM     64  C   UNL A   1      39.571  29.609  29.495  1.00  0.00     0.031 A 
ATOM     65  C   UNL A   1      37.957  29.872  27.759  1.00  0.00     0.131 A 
ATOM     66  C   UNL A   1      38.611  30.053  30.417  1.00  0.00     0.055 A 
ATOM     67  C   UNL A   1      37.027  30.381  28.670  1.00  0.00     0.041 A 
ATOM     68  F   UNL A   1      37.481  29.765  26.513  1.00  0.00    -0.206 F 
ATOM     69  C   UNL A   1      37.337  30.438  30.016  1.00  0.00     0.022 A 
BRANCH  66  70
ATOM     70  S   UNL A   1      39.006  29.925  32.178  1.00  0.00     0.124 S 
ATOM     71  O   UNL A   1      40.298  30.603  32.229  1.00  0.00    -0.237 OA
ATOM     72  O   UNL A   1      37.884  30.630  32.787  1.00  0.00    -0.237 OA
ATOM     73  O   UNL A   1      39.041  28.485  32.412  1.00  0.00    -0.744 OA
ENDBRANCH  66  70
ENDBRANCH  49  63
BRANCH  50  74
ATOM     74  C   UNL A   1      44.962  26.503  33.652  1.00  0.00     0.023 A 
ATOM     75  C   UNL A   1      43.912  26.653  34.596  1.00  0.00     0.031 A 
ATOM     76  C   UNL A   1      46.155  25.925  34.138  1.00  0.00     0.131 A 
ATOM     77  C   UNL A   1      44.080  26.222  35.939  1.00  0.00     0.055 A 
ATOM     78  C   UNL A   1      46.310  25.492  35.460  1.00  0.00     0.041 A 
ATOM     79  F   UNL A   1      47.189  25.673  33.322  1.00  0.00    -0.206 F 
ATOM     80  C   UNL A   1      45.269  25.627  36.363  1.00  0.00     0.022 A 
BRANCH  77  81
ATOM     81  S   UNL A   1      42.717  26.334  37.155  1.00  0.00     0.124 S 
ATOM     82  O   UNL A   1      42.052  27.571  36.762  1.00  0.00    -0.237 OA
ATOM     83  O   UNL A   1      41.980  25.097  36.925  1.00  0.00    -0.237 OA
ATOM     84  O   UNL A   1      43.411  26.396  38.442  1.00  0.00    -0.744 OA
ENDBRANCH  77  81
ENDBRANCH  50  74
BRANCH  62  85
ATOM     85  C   UNL A   1      45.981  28.561  27.759  1.00  0.00     0.023 A 
ATOM     86  C   UNL A   1      46.404  27.286  27.315  1.00  0.00     0.031 A 
ATOM     87  C   UNL A   1      46.881  29.632  27.605  1.00  0.00     0.131 A 
ATOM     88  C   UNL A   1      47.689  27.127  26.750  1.00  0.00     0.055 A 
ATOM     89  C   UNL A   1      48.137  29.476  27.023  1.00  0.00     0.041 A 
ATOM     90  F   UNL A   1      46.537  30.872  27.991  1.00  0.00    -0.206 F 
ATOM     91  C   UNL A   1      48.548  28.220  26.598  1.00  0.00     0.022 A 
BRANCH  88  92
ATOM     92  S   UNL A   1      48.289  25.485  26.221  1.00  0.00     0.124 S 
ATOM     93  O   UNL A   1      47.487  25.191  25.040  1.00  0.00    -0.237 OA
ATOM     94  O   UNL A   1      49.710  25.729  25.985  1.00  0.00    -0.237 OA
ATOM     95  O   UNL A   1      48.006  24.631  27.377  1.00  0.00    -0.744 OA
ENDBRANCH  88  92
ENDBRANCH  62  85
ENDBRANCH  36  37
ENDBRANCH  28  31
ENDBRANCH  26  27
ENDBRANCH   1  26
TORSDOF 16
ENDMDL
