MODEL 1
REMARK VINA RESULT:     -10.7      0.000      0.000
REMARK SMILES C=CCCC[C@@]1(C(=O)NCCCNC(=O)c2ccc(-c3c4nc(c(-c5cc(S(=O)(=O)[O-])ccc5F)c5ccc([nH]5)c(-c5cc(S(=O)(=O)[O-])ccc5F)c5nc(c(-c6cc(S(=O)(=O)[O-])ccc6F)c6ccc3[nH]6)C=C5)C=C4)cc2)CCCN(C(=O)OC(C)(C)C)C1
REMARK SMILES IDX 10 1 9 2 7 3 8 4 6 6 79 7 90 8 80 9 82 10 81 11 5 12 4 13
REMARK SMILES IDX 3 14 2 15 1 16 83 17 84 18 85 19 86 20 87 21 88 22 89 23
REMARK SMILES IDX 11 24 12 25 13 26 14 27 15 29 16 30 17 31 78 32 18 33 77 34
REMARK SMILES IDX 19 35 20 36 21 37 71 38 22 39 76 40 70 41 72 42 23 43 75 44
REMARK SMILES IDX 69 45 68 46 24 48 56 49 36 50 55 51 37 52 40 53 54 54 73 55
REMARK SMILES IDX 38 56 39 57 53 59 74 60 41 61 25 62 26 63 34 64 27 65 33 66
REMARK SMILES IDX 35 67 32 68 28 69 29 70 30 71 31 72 57 73 58 74 66 75 59 76
REMARK SMILES IDX 65 77 67 78 64 79 60 80 61 81 62 82 63 83 42 84 43 85 51 86
REMARK SMILES IDX 44 87 50 88 52 89 49 90 45 91 46 92 47 93 48 94
REMARK H PARENT 9 5 13 28 72 47 40 58
REMARK Flexibility Score: inf
ROOT
ATOM      1  C   UNL A   1      31.810  27.955  26.916  1.00  0.00     0.117 C 
ENDROOT
BRANCH   1   2
ATOM      2  N   UNL A   1      31.117  26.668  26.850  1.00  0.00    -0.355 N 
ATOM      3  C   UNL A   1      30.492  25.957  25.869  1.00  0.00     0.228 C 
ATOM      4  O   UNL A   1      29.489  25.357  26.268  1.00  0.00    -0.274 OA
ATOM      5  H   UNL A   1      31.099  26.206  27.719  1.00  0.00     0.163 HD
BRANCH   3   6
ATOM      6  C   UNL A   1      31.049  25.718  24.437  1.00  0.00     0.067 C 
ATOM      7  C   UNL A   1      30.500  24.443  23.765  1.00  0.00     0.020 C 
ATOM      8  C   UNL A   1      32.566  25.494  24.385  1.00  0.00     0.140 C 
ATOM      9  C   UNL A   1      30.882  23.210  24.606  1.00  0.00     0.023 C 
ATOM     10  N   UNL A   1      33.081  24.308  25.015  1.00  0.00    -0.307 N 
ATOM     11  C   UNL A   1      32.391  23.046  24.816  1.00  0.00     0.123 C 
BRANCH   6  12
ATOM     12  C   UNL A   1      30.823  27.021  23.602  1.00  0.00     0.019 C 
BRANCH  12  13
ATOM     13  C   UNL A   1      29.397  27.668  23.475  1.00  0.00     0.005 C 
BRANCH  13  14
ATOM     14  C   UNL A   1      29.055  28.940  22.658  1.00  0.00     0.027 C 
BRANCH  14  15
ATOM     15  C   UNL A   1      27.709  29.587  22.856  1.00  0.00    -0.035 C 
ATOM     16  C   UNL A   1      27.584  30.782  23.455  1.00  0.00     0.004 C 
ENDBRANCH  14  15
ENDBRANCH  13  14
ENDBRANCH  12  13
ENDBRANCH   6  12
BRANCH  10  17
ATOM     17  C   UNL A   1      34.418  24.411  25.367  1.00  0.00     0.410 C 
ATOM     18  O   UNL A   1      35.012  25.484  25.356  1.00  0.00    -0.224 OA
BRANCH  17  19
ATOM     19  O   UNL A   1      34.962  23.250  25.805  1.00  0.00    -0.444 OA
BRANCH  19  20
ATOM     20  C   UNL A   1      36.149  22.788  25.099  1.00  0.00     0.106 C 
ATOM     21  C   UNL A   1      36.003  22.908  23.573  1.00  0.00     0.056 C 
ATOM     22  C   UNL A   1      37.407  23.519  25.606  1.00  0.00     0.056 C 
ATOM     23  C   UNL A   1      36.277  21.303  25.456  1.00  0.00     0.056 C 
ENDBRANCH  19  20
ENDBRANCH  17  19
ENDBRANCH  10  17
ENDBRANCH   3   6
ENDBRANCH   1   2
BRANCH   1  24
ATOM     24  C   UNL A   1      33.339  27.815  26.861  1.00  0.00     0.042 C 
BRANCH  24  25
ATOM     25  C   UNL A   1      34.063  28.893  26.060  1.00  0.00     0.118 C 
BRANCH  25  26
ATOM     26  N   UNL A   1      33.802  30.230  26.566  1.00  0.00    -0.352 N 
ATOM     27  C   UNL A   1      34.453  30.929  27.556  1.00  0.00     0.251 C 
ATOM     28  H   UNL A   1      33.052  30.703  26.139  1.00  0.00     0.163 HD
ATOM     29  O   UNL A   1      33.946  31.962  27.987  1.00  0.00    -0.269 OA
BRANCH  27  30
ATOM     30  C   UNL A   1      35.732  30.434  28.125  1.00  0.00     0.039 A 
ATOM     31  C   UNL A   1      35.708  29.750  29.344  1.00  0.00     0.014 A 
ATOM     32  C   UNL A   1      36.954  30.658  27.484  1.00  0.00     0.014 A 
ATOM     33  C   UNL A   1      36.895  29.241  29.884  1.00  0.00     0.010 A 
ATOM     34  C   UNL A   1      38.123  30.081  27.982  1.00  0.00     0.010 A 
ATOM     35  C   UNL A   1      38.110  29.369  29.192  1.00  0.00    -0.014 A 
BRANCH  35  36
ATOM     36  C   UNL A   1      39.372  28.781  29.723  1.00  0.00     0.031 A 
ATOM     37  C   UNL A   1      40.017  29.360  30.956  1.00  0.00     0.074 A 
ATOM     38  C   UNL A   1      39.965  27.760  29.071  1.00  0.00     0.049 A 
ATOM     39  N   UNL A   1      41.151  29.041  31.526  1.00  0.00    -0.248 NA
ATOM     40  C   UNL A   1      39.303  30.461  31.620  1.00  0.00     0.031 C 
ATOM     41  C   UNL A   1      39.458  27.130  27.849  1.00  0.00     0.029 A 
ATOM     42  N   UNL A   1      41.127  27.075  29.336  1.00  0.00    -0.354 N 
ATOM     43  C   UNL A   1      41.293  29.907  32.606  1.00  0.00     0.074 A 
ATOM     44  C   UNL A   1      40.158  30.805  32.571  1.00  0.00     0.031 C 
ATOM     45  C   UNL A   1      40.288  26.138  27.488  1.00  0.00     0.029 A 
ATOM     46  C   UNL A   1      41.413  26.091  28.416  1.00  0.00     0.049 A 
ATOM     47  H   UNL A   1      41.700  27.270  30.112  1.00  0.00     0.167 HD
ATOM     48  C   UNL A   1      42.265  29.937  33.552  1.00  0.00     0.034 A 
ATOM     49  C   UNL A   1      42.469  25.257  28.321  1.00  0.00     0.034 A 
ATOM     50  C   UNL A   1      43.386  29.027  33.582  1.00  0.00     0.049 A 
ATOM     51  C   UNL A   1      43.556  25.335  29.365  1.00  0.00     0.074 A 
ATOM     52  C   UNL A   1      44.401  28.943  34.520  1.00  0.00     0.029 A 
ATOM     53  N   UNL A   1      43.644  28.049  32.631  1.00  0.00    -0.354 N 
ATOM     54  N   UNL A   1      43.651  26.134  30.404  1.00  0.00    -0.248 NA
ATOM     55  C   UNL A   1      44.674  24.390  29.232  1.00  0.00     0.031 C 
ATOM     56  C   UNL A   1      45.306  27.964  34.100  1.00  0.00     0.029 A 
ATOM     57  C   UNL A   1      44.817  27.379  32.944  1.00  0.00     0.049 A 
ATOM     58  H   UNL A   1      43.077  27.859  31.848  1.00  0.00     0.167 HD
ATOM     59  C   UNL A   1      44.819  25.761  31.064  1.00  0.00     0.074 A 
ATOM     60  C   UNL A   1      45.384  24.657  30.316  1.00  0.00     0.031 C 
ATOM     61  C   UNL A   1      45.373  26.281  32.189  1.00  0.00     0.034 A 
BRANCH  48  62
ATOM     62  C   UNL A   1      42.168  31.003  34.619  1.00  0.00     0.023 A 
ATOM     63  C   UNL A   1      42.783  32.258  34.466  1.00  0.00     0.031 A 
ATOM     64  C   UNL A   1      41.459  30.760  35.808  1.00  0.00     0.131 A 
ATOM     65  C   UNL A   1      42.737  33.193  35.511  1.00  0.00     0.055 A 
ATOM     66  C   UNL A   1      41.348  31.726  36.811  1.00  0.00     0.041 A 
ATOM     67  F   UNL A   1      40.866  29.574  36.020  1.00  0.00    -0.206 F 
ATOM     68  C   UNL A   1      42.001  32.946  36.671  1.00  0.00     0.022 A 
BRANCH  65  69
ATOM     69  S   UNL A   1      43.765  34.683  35.385  1.00  0.00     0.124 S 
ATOM     70  O   UNL A   1      43.281  35.270  34.138  1.00  0.00    -0.237 OA
ATOM     71  O   UNL A   1      43.427  35.404  36.605  1.00  0.00    -0.237 OA
ATOM     72  O   UNL A   1      45.127  34.154  35.329  1.00  0.00    -0.744 OA
ENDBRANCH  65  69
ENDBRANCH  48  62
BRANCH  49  73
ATOM     73  C   UNL A   1      42.573  24.285  27.193  1.00  0.00     0.023 A 
ATOM     74  C   UNL A   1      41.931  23.037  27.252  1.00  0.00     0.031 A 
ATOM     75  C   UNL A   1      43.366  24.563  26.066  1.00  0.00     0.131 A 
ATOM     76  C   UNL A   1      42.141  22.093  26.235  1.00  0.00     0.055 A 
ATOM     77  C   UNL A   1      43.523  23.643  25.026  1.00  0.00     0.041 A 
ATOM     78  F   UNL A   1      44.002  25.740  25.955  1.00  0.00    -0.206 F 
ATOM     79  C   UNL A   1      42.920  22.392  25.115  1.00  0.00     0.022 A 
BRANCH  76  80
ATOM     80  S   UNL A   1      41.466  20.422  26.449  1.00  0.00     0.124 S 
ATOM     81  O   UNL A   1      42.141  19.691  25.384  1.00  0.00    -0.237 OA
ATOM     82  O   UNL A   1      41.880  20.102  27.811  1.00  0.00    -0.237 OA
ATOM     83  O   UNL A   1      40.029  20.611  26.264  1.00  0.00    -0.744 OA
ENDBRANCH  76  80
ENDBRANCH  49  73
BRANCH  61  84
ATOM     84  C   UNL A   1      46.629  25.620  32.707  1.00  0.00     0.023 A 
ATOM     85  C   UNL A   1      47.895  25.904  32.165  1.00  0.00     0.031 A 
ATOM     86  C   UNL A   1      46.552  24.684  33.754  1.00  0.00     0.131 A 
ATOM     87  C   UNL A   1      49.025  25.217  32.634  1.00  0.00     0.055 A 
ATOM     88  C   UNL A   1      47.688  24.050  34.258  1.00  0.00     0.041 A 
ATOM     89  F   UNL A   1      45.369  24.372  34.306  1.00  0.00    -0.206 F 
ATOM     90  C   UNL A   1      48.932  24.304  33.689  1.00  0.00     0.022 A 
BRANCH  87  91
ATOM     91  S   UNL A   1      50.607  25.458  31.779  1.00  0.00     0.124 S 
ATOM     92  O   UNL A   1      50.794  26.901  31.887  1.00  0.00    -0.237 OA
ATOM     93  O   UNL A   1      51.517  24.636  32.570  1.00  0.00    -0.237 OA
ATOM     94  O   UNL A   1      50.345  24.965  30.428  1.00  0.00    -0.744 OA
ENDBRANCH  87  91
ENDBRANCH  61  84
ENDBRANCH  35  36
ENDBRANCH  27  30
ENDBRANCH  25  26
ENDBRANCH  24  25
ENDBRANCH   1  24
TORSDOF 20
ENDMDL
MODEL 2
REMARK VINA RESULT:     -10.3      3.566      8.764
REMARK SMILES C=CCCC[C@@]1(C(=O)NCCCNC(=O)c2ccc(-c3c4nc(c(-c5cc(S(=O)(=O)[O-])ccc5F)c5ccc([nH]5)c(-c5cc(S(=O)(=O)[O-])ccc5F)c5nc(c(-c6cc(S(=O)(=O)[O-])ccc6F)c6ccc3[nH]6)C=C5)C=C4)cc2)CCCN(C(=O)OC(C)(C)C)C1
REMARK SMILES IDX 10 1 9 2 7 3 8 4 6 6 79 7 90 8 80 9 82 10 81 11 5 12 4 13
REMARK SMILES IDX 3 14 2 15 1 16 83 17 84 18 85 19 86 20 87 21 88 22 89 23
REMARK SMILES IDX 11 24 12 25 13 26 14 27 15 29 16 30 17 31 78 32 18 33 77 34
REMARK SMILES IDX 19 35 20 36 21 37 71 38 22 39 76 40 70 41 72 42 23 43 75 44
REMARK SMILES IDX 69 45 68 46 24 48 56 49 36 50 55 51 37 52 40 53 54 54 73 55
REMARK SMILES IDX 38 56 39 57 53 59 74 60 41 61 25 62 26 63 34 64 27 65 33 66
REMARK SMILES IDX 35 67 32 68 28 69 29 70 30 71 31 72 57 73 58 74 66 75 59 76
REMARK SMILES IDX 65 77 67 78 64 79 60 80 61 81 62 82 63 83 42 84 43 85 51 86
REMARK SMILES IDX 44 87 50 88 52 89 49 90 45 91 46 92 47 93 48 94
REMARK H PARENT 9 5 13 28 72 47 40 58
REMARK Flexibility Score: inf
ROOT
ATOM      1  C   UNL A   1      31.234  31.109  25.966  1.00  0.00     0.117 C 
ENDROOT
BRANCH   1   2
ATOM      2  N   UNL A   1      32.463  30.452  25.519  1.00  0.00    -0.355 N 
ATOM      3  C   UNL A   1      32.830  29.166  25.255  1.00  0.00     0.228 C 
ATOM      4  O   UNL A   1      33.990  28.911  25.595  1.00  0.00    -0.274 OA
ATOM      5  H   UNL A   1      33.199  31.090  25.375  1.00  0.00     0.163 HD
BRANCH   3   6
ATOM      6  C   UNL A   1      31.998  28.145  24.429  1.00  0.00     0.067 C 
ATOM      7  C   UNL A   1      30.790  27.568  25.196  1.00  0.00     0.020 C 
ATOM      8  C   UNL A   1      32.772  26.882  24.030  1.00  0.00     0.140 C 
ATOM      9  C   UNL A   1      31.282  26.830  26.455  1.00  0.00     0.023 C 
ATOM     10  N   UNL A   1      33.196  26.005  25.089  1.00  0.00    -0.307 N 
ATOM     11  C   UNL A   1      32.269  25.694  26.162  1.00  0.00     0.123 C 
BRANCH   6  12
ATOM     12  C   UNL A   1      31.621  28.813  23.065  1.00  0.00     0.019 C 
BRANCH  12  13
ATOM     13  C   UNL A   1      30.121  28.993  22.635  1.00  0.00     0.005 C 
BRANCH  13  14
ATOM     14  C   UNL A   1      29.506  30.283  22.036  1.00  0.00     0.027 C 
BRANCH  14  15
ATOM     15  C   UNL A   1      28.332  30.918  22.736  1.00  0.00    -0.035 C 
ATOM     16  C   UNL A   1      28.482  31.992  23.528  1.00  0.00     0.004 C 
ENDBRANCH  14  15
ENDBRANCH  13  14
ENDBRANCH  12  13
ENDBRANCH   6  12
BRANCH  10  17
ATOM     17  C   UNL A   1      34.270  25.202  24.738  1.00  0.00     0.410 C 
ATOM     18  O   UNL A   1      35.111  24.849  25.558  1.00  0.00    -0.224 OA
BRANCH  17  19
ATOM     19  O   UNL A   1      34.244  24.778  23.452  1.00  0.00    -0.444 OA
BRANCH  19  20
ATOM     20  C   UNL A   1      34.014  23.356  23.246  1.00  0.00     0.106 C 
ATOM     21  C   UNL A   1      33.210  22.723  24.394  1.00  0.00     0.056 C 
ATOM     22  C   UNL A   1      33.345  23.102  21.881  1.00  0.00     0.056 C 
ATOM     23  C   UNL A   1      35.409  22.721  23.225  1.00  0.00     0.056 C 
ENDBRANCH  19  20
ENDBRANCH  17  19
ENDBRANCH  10  17
ENDBRANCH   3   6
ENDBRANCH   1   2
BRANCH   1  24
ATOM     24  C   UNL A   1      31.465  32.082  27.132  1.00  0.00     0.042 C 
BRANCH  24  25
ATOM     25  C   UNL A   1      32.716  32.948  27.018  1.00  0.00     0.118 C 
BRANCH  25  26
ATOM     26  N   UNL A   1      32.544  34.254  27.630  1.00  0.00    -0.352 N 
ATOM     27  C   UNL A   1      33.144  34.777  28.753  1.00  0.00     0.251 C 
ATOM     28  H   UNL A   1      31.906  34.851  27.176  1.00  0.00     0.163 HD
ATOM     29  O   UNL A   1      32.705  35.820  29.232  1.00  0.00    -0.269 OA
BRANCH  27  30
ATOM     30  C   UNL A   1      34.285  34.081  29.402  1.00  0.00     0.039 A 
ATOM     31  C   UNL A   1      35.575  34.302  28.912  1.00  0.00     0.014 A 
ATOM     32  C   UNL A   1      34.092  33.196  30.467  1.00  0.00     0.014 A 
ATOM     33  C   UNL A   1      36.672  33.687  29.527  1.00  0.00     0.010 A 
ATOM     34  C   UNL A   1      35.192  32.649  31.129  1.00  0.00     0.010 A 
ATOM     35  C   UNL A   1      36.496  32.882  30.665  1.00  0.00    -0.014 A 
BRANCH  35  36
ATOM     36  C   UNL A   1      37.658  32.269  31.368  1.00  0.00     0.031 A 
ATOM     37  C   UNL A   1      38.413  31.130  30.732  1.00  0.00     0.074 A 
ATOM     38  C   UNL A   1      38.004  32.699  32.598  1.00  0.00     0.049 A 
ATOM     39  N   UNL A   1      39.397  30.415  31.215  1.00  0.00    -0.248 NA
ATOM     40  C   UNL A   1      37.987  30.726  29.383  1.00  0.00     0.031 C 
ATOM     41  C   UNL A   1      37.333  33.773  33.337  1.00  0.00     0.029 A 
ATOM     42  N   UNL A   1      38.998  32.285  33.452  1.00  0.00    -0.354 N 
ATOM     43  C   UNL A   1      39.700  29.471  30.239  1.00  0.00     0.074 A 
ATOM     44  C   UNL A   1      38.752  29.668  29.162  1.00  0.00     0.031 C 
ATOM     45  C   UNL A   1      37.950  33.949  34.517  1.00  0.00     0.029 A 
ATOM     46  C   UNL A   1      39.025  32.970  34.646  1.00  0.00     0.049 A 
ATOM     47  H   UNL A   1      39.632  31.566  33.229  1.00  0.00     0.167 HD
ATOM     48  C   UNL A   1      40.689  28.544  30.227  1.00  0.00     0.034 A 
ATOM     49  C   UNL A   1      39.814  32.817  35.730  1.00  0.00     0.034 A 
ATOM     50  C   UNL A   1      41.637  28.367  31.302  1.00  0.00     0.049 A 
ATOM     51  C   UNL A   1      40.885  31.754  35.708  1.00  0.00     0.074 A 
ATOM     52  C   UNL A   1      42.705  27.488  31.373  1.00  0.00     0.029 A 
ATOM     53  N   UNL A   1      41.629  29.075  32.497  1.00  0.00    -0.354 N 
ATOM     54  N   UNL A   1      41.182  30.898  34.756  1.00  0.00    -0.248 NA
ATOM     55  C   UNL A   1      41.734  31.641  36.902  1.00  0.00     0.031 C 
ATOM     56  C   UNL A   1      43.297  27.616  32.633  1.00  0.00     0.029 A 
ATOM     57  C   UNL A   1      42.653  28.632  33.320  1.00  0.00     0.049 A 
ATOM     58  H   UNL A   1      40.989  29.788  32.726  1.00  0.00     0.167 HD
ATOM     59  C   UNL A   1      42.276  30.174  35.226  1.00  0.00     0.074 A 
ATOM     60  C   UNL A   1      42.593  30.704  36.535  1.00  0.00     0.031 C 
ATOM     61  C   UNL A   1      42.958  29.165  34.626  1.00  0.00     0.034 A 
BRANCH  48  62
ATOM     62  C   UNL A   1      40.783  27.636  29.023  1.00  0.00     0.023 A 
ATOM     63  C   UNL A   1      41.728  27.854  28.006  1.00  0.00     0.031 A 
ATOM     64  C   UNL A   1      39.911  26.541  28.885  1.00  0.00     0.131 A 
ATOM     65  C   UNL A   1      41.733  27.036  26.866  1.00  0.00     0.055 A 
ATOM     66  C   UNL A   1      39.975  25.681  27.787  1.00  0.00     0.041 A 
ATOM     67  F   UNL A   1      38.975  26.292  29.815  1.00  0.00    -0.206 F 
ATOM     68  C   UNL A   1      40.881  25.935  26.761  1.00  0.00     0.022 A 
BRANCH  65  69
ATOM     69  S   UNL A   1      42.778  27.514  25.462  1.00  0.00     0.124 S 
ATOM     70  O   UNL A   1      44.064  27.740  26.116  1.00  0.00    -0.237 OA
ATOM     71  O   UNL A   1      42.698  26.345  24.596  1.00  0.00    -0.237 OA
ATOM     72  O   UNL A   1      42.129  28.719  24.947  1.00  0.00    -0.744 OA
ENDBRANCH  65  69
ENDBRANCH  48  62
BRANCH  49  73
ATOM     73  C   UNL A   1      39.624  33.672  36.938  1.00  0.00     0.023 A 
ATOM     74  C   UNL A   1      40.445  34.786  37.174  1.00  0.00     0.031 A 
ATOM     75  C   UNL A   1      38.656  33.353  37.908  1.00  0.00     0.131 A 
ATOM     76  C   UNL A   1      40.326  35.503  38.375  1.00  0.00     0.055 A 
ATOM     77  C   UNL A   1      38.500  34.107  39.074  1.00  0.00     0.041 A 
ATOM     78  F   UNL A   1      37.842  32.300  37.735  1.00  0.00    -0.206 F 
ATOM     79  C   UNL A   1      39.350  35.180  39.320  1.00  0.00     0.022 A 
BRANCH  76  80
ATOM     80  S   UNL A   1      41.541  36.802  38.735  1.00  0.00     0.124 S 
ATOM     81  O   UNL A   1      40.687  37.884  39.209  1.00  0.00    -0.237 OA
ATOM     82  O   UNL A   1      42.381  36.159  39.740  1.00  0.00    -0.237 OA
ATOM     83  O   UNL A   1      42.184  37.033  37.442  1.00  0.00    -0.744 OA
ENDBRANCH  76  80
ENDBRANCH  49  73
BRANCH  61  84
ATOM     84  C   UNL A   1      44.152  28.608  35.365  1.00  0.00     0.023 A 
ATOM     85  C   UNL A   1      44.028  27.560  36.295  1.00  0.00     0.031 A 
ATOM     86  C   UNL A   1      45.433  29.143  35.140  1.00  0.00     0.131 A 
ATOM     87  C   UNL A   1      45.154  27.120  37.006  1.00  0.00     0.055 A 
ATOM     88  C   UNL A   1      46.560  28.658  35.804  1.00  0.00     0.041 A 
ATOM     89  F   UNL A   1      45.611  30.147  34.266  1.00  0.00    -0.206 F 
ATOM     90  C   UNL A   1      46.423  27.650  36.754  1.00  0.00     0.022 A 
BRANCH  87  91
ATOM     91  S   UNL A   1      44.925  25.910  38.339  1.00  0.00     0.124 S 
ATOM     92  O   UNL A   1      43.769  26.452  39.045  1.00  0.00    -0.237 OA
ATOM     93  O   UNL A   1      44.699  24.672  37.600  1.00  0.00    -0.237 OA
ATOM     94  O   UNL A   1      46.187  25.970  39.076  1.00  0.00    -0.744 OA
ENDBRANCH  87  91
ENDBRANCH  61  84
ENDBRANCH  35  36
ENDBRANCH  27  30
ENDBRANCH  25  26
ENDBRANCH  24  25
ENDBRANCH   1  24
TORSDOF 20
ENDMDL
MODEL 3
REMARK VINA RESULT:     -10.2      2.535      8.569
REMARK SMILES C=CCCC[C@@]1(C(=O)NCCCNC(=O)c2ccc(-c3c4nc(c(-c5cc(S(=O)(=O)[O-])ccc5F)c5ccc([nH]5)c(-c5cc(S(=O)(=O)[O-])ccc5F)c5nc(c(-c6cc(S(=O)(=O)[O-])ccc6F)c6ccc3[nH]6)C=C5)C=C4)cc2)CCCN(C(=O)OC(C)(C)C)C1
REMARK SMILES IDX 10 1 9 2 7 3 8 4 6 6 79 7 90 8 80 9 82 10 81 11 5 12 4 13
REMARK SMILES IDX 3 14 2 15 1 16 83 17 84 18 85 19 86 20 87 21 88 22 89 23
REMARK SMILES IDX 11 24 12 25 13 26 14 27 15 29 16 30 17 31 78 32 18 33 77 34
REMARK SMILES IDX 19 35 20 36 21 37 71 38 22 39 76 40 70 41 72 42 23 43 75 44
REMARK SMILES IDX 69 45 68 46 24 48 56 49 36 50 55 51 37 52 40 53 54 54 73 55
REMARK SMILES IDX 38 56 39 57 53 59 74 60 41 61 25 62 26 63 34 64 27 65 33 66
REMARK SMILES IDX 35 67 32 68 28 69 29 70 30 71 31 72 57 73 58 74 66 75 59 76
REMARK SMILES IDX 65 77 67 78 64 79 60 80 61 81 62 82 63 83 42 84 43 85 51 86
REMARK SMILES IDX 44 87 50 88 52 89 49 90 45 91 46 92 47 93 48 94
REMARK H PARENT 9 5 13 28 72 47 40 58
REMARK Flexibility Score: inf
ROOT
ATOM      1  C   UNL A   1      31.330  26.871  25.666  1.00  0.00     0.117 C 
ENDROOT
BRANCH   1   2
ATOM      2  N   UNL A   1      31.513  25.639  26.434  1.00  0.00    -0.355 N 
ATOM      3  C   UNL A   1      31.892  24.363  26.138  1.00  0.00     0.228 C 
ATOM      4  O   UNL A   1      31.283  23.511  26.792  1.00  0.00    -0.274 OA
ATOM      5  H   UNL A   1      31.317  25.760  27.391  1.00  0.00     0.163 HD
BRANCH   3   6
ATOM      6  C   UNL A   1      33.097  23.969  25.239  1.00  0.00     0.067 C 
ATOM      7  C   UNL A   1      32.828  24.146  23.731  1.00  0.00     0.020 C 
ATOM      8  C   UNL A   1      33.492  22.489  25.334  1.00  0.00     0.140 C 
ATOM      9  C   UNL A   1      31.644  23.255  23.309  1.00  0.00     0.023 C 
ATOM     10  N   UNL A   1      32.543  21.521  24.856  1.00  0.00    -0.307 N 
ATOM     11  C   UNL A   1      31.856  21.765  23.600  1.00  0.00     0.123 C 
BRANCH   6  12
ATOM     12  C   UNL A   1      34.360  24.738  25.751  1.00  0.00     0.019 C 
BRANCH  12  13
ATOM     13  C   UNL A   1      35.798  24.374  25.234  1.00  0.00     0.005 C 
BRANCH  13  14
ATOM     14  C   UNL A   1      36.894  23.650  26.057  1.00  0.00     0.027 C 
BRANCH  14  15
ATOM     15  C   UNL A   1      37.415  22.326  25.559  1.00  0.00    -0.035 C 
ATOM     16  C   UNL A   1      37.026  21.814  24.380  1.00  0.00     0.004 C 
ENDBRANCH  14  15
ENDBRANCH  13  14
ENDBRANCH  12  13
ENDBRANCH   6  12
BRANCH  10  17
ATOM     17  C   UNL A   1      32.721  20.261  25.406  1.00  0.00     0.410 C 
ATOM     18  O   UNL A   1      33.291  20.096  26.479  1.00  0.00    -0.224 OA
BRANCH  17  19
ATOM     19  O   UNL A   1      32.131  19.264  24.702  1.00  0.00    -0.444 OA
BRANCH  19  20
ATOM     20  C   UNL A   1      32.997  18.173  24.281  1.00  0.00     0.106 C 
ATOM     21  C   UNL A   1      34.484  18.566  24.305  1.00  0.00     0.056 C 
ATOM     22  C   UNL A   1      32.734  16.909  25.122  1.00  0.00     0.056 C 
ATOM     23  C   UNL A   1      32.599  17.878  22.831  1.00  0.00     0.056 C 
ENDBRANCH  19  20
ENDBRANCH  17  19
ENDBRANCH  10  17
ENDBRANCH   3   6
ENDBRANCH   1   2
BRANCH   1  24
ATOM     24  C   UNL A   1      31.666  28.135  26.472  1.00  0.00     0.042 C 
BRANCH  24  25
ATOM     25  C   UNL A   1      32.644  29.094  25.800  1.00  0.00     0.118 C 
BRANCH  25  26
ATOM     26  N   UNL A   1      32.317  30.487  26.051  1.00  0.00    -0.352 N 
ATOM     27  C   UNL A   1      32.909  31.380  26.914  1.00  0.00     0.251 C 
ATOM     28  H   UNL A   1      31.562  30.843  25.529  1.00  0.00     0.163 HD
ATOM     29  O   UNL A   1      32.350  32.450  27.141  1.00  0.00    -0.269 OA
BRANCH  27  30
ATOM     30  C   UNL A   1      34.190  31.050  27.592  1.00  0.00     0.039 A 
ATOM     31  C   UNL A   1      35.163  32.047  27.715  1.00  0.00     0.014 A 
ATOM     32  C   UNL A   1      34.450  29.767  28.081  1.00  0.00     0.014 A 
ATOM     33  C   UNL A   1      36.363  31.773  28.381  1.00  0.00     0.010 A 
ATOM     34  C   UNL A   1      35.611  29.519  28.813  1.00  0.00     0.010 A 
ATOM     35  C   UNL A   1      36.586  30.517  28.968  1.00  0.00    -0.014 A 
BRANCH  35  36
ATOM     36  C   UNL A   1      37.832  30.228  29.732  1.00  0.00     0.031 A 
ATOM     37  C   UNL A   1      38.878  29.308  29.156  1.00  0.00     0.074 A 
ATOM     38  C   UNL A   1      38.003  30.750  30.964  1.00  0.00     0.049 A 
ATOM     39  N   UNL A   1      39.988  28.872  29.696  1.00  0.00    -0.248 NA
ATOM     40  C   UNL A   1      38.627  28.789  27.803  1.00  0.00     0.031 C 
ATOM     41  C   UNL A   1      37.052  31.631  31.647  1.00  0.00     0.029 A 
ATOM     42  N   UNL A   1      39.031  30.614  31.867  1.00  0.00    -0.354 N 
ATOM     43  C   UNL A   1      40.561  28.021  28.757  1.00  0.00     0.074 A 
ATOM     44  C   UNL A   1      39.643  27.955  27.639  1.00  0.00     0.031 C 
ATOM     45  C   UNL A   1      37.551  31.975  32.846  1.00  0.00     0.029 A 
ATOM     46  C   UNL A   1      38.832  31.302  33.043  1.00  0.00     0.049 A 
ATOM     47  H   UNL A   1      39.835  30.075  31.688  1.00  0.00     0.167 HD
ATOM     48  C   UNL A   1      41.752  27.373  28.809  1.00  0.00     0.034 A 
ATOM     49  C   UNL A   1      39.585  31.370  34.160  1.00  0.00     0.034 A 
ATOM     50  C   UNL A   1      42.665  27.458  29.924  1.00  0.00     0.049 A 
ATOM     51  C   UNL A   1      40.888  30.611  34.208  1.00  0.00     0.074 A 
ATOM     52  C   UNL A   1      43.916  26.878  30.059  1.00  0.00     0.029 A 
ATOM     53  N   UNL A   1      42.425  28.159  31.099  1.00  0.00    -0.354 N 
ATOM     54  N   UNL A   1      41.434  29.844  33.291  1.00  0.00    -0.248 NA
ATOM     55  C   UNL A   1      41.684  30.735  35.437  1.00  0.00     0.031 C 
ATOM     56  C   UNL A   1      44.400  27.171  31.338  1.00  0.00     0.029 A 
ATOM     57  C   UNL A   1      43.491  28.001  31.973  1.00  0.00     0.049 A 
ATOM     58  H   UNL A   1      41.617  28.690  31.284  1.00  0.00     0.167 HD
ATOM     59  C   UNL A   1      42.653  29.427  33.822  1.00  0.00     0.074 A 
ATOM     60  C   UNL A   1      42.768  30.040  35.128  1.00  0.00     0.031 C 
ATOM     61  C   UNL A   1      43.593  28.615  33.276  1.00  0.00     0.034 A 
BRANCH  48  62
ATOM     62  C   UNL A   1      42.125  26.500  27.633  1.00  0.00     0.023 A 
ATOM     63  C   UNL A   1      41.887  25.115  27.638  1.00  0.00     0.031 A 
ATOM     64  C   UNL A   1      42.732  27.058  26.494  1.00  0.00     0.131 A 
ATOM     65  C   UNL A   1      42.317  24.325  26.562  1.00  0.00     0.055 A 
ATOM     66  C   UNL A   1      43.084  26.278  25.389  1.00  0.00     0.041 A 
ATOM     67  F   UNL A   1      43.002  28.371  26.437  1.00  0.00    -0.206 F 
ATOM     68  C   UNL A   1      42.889  24.900  25.426  1.00  0.00     0.022 A 
BRANCH  65  69
ATOM     69  S   UNL A   1      42.239  22.520  26.726  1.00  0.00     0.124 S 
ATOM     70  O   UNL A   1      40.914  22.232  26.183  1.00  0.00    -0.237 OA
ATOM     71  O   UNL A   1      43.369  22.080  25.920  1.00  0.00    -0.237 OA
ATOM     72  O   UNL A   1      42.375  22.302  28.165  1.00  0.00    -0.744 OA
ENDBRANCH  65  69
ENDBRANCH  48  62
BRANCH  49  73
ATOM     73  C   UNL A   1      39.131  32.167  35.337  1.00  0.00     0.023 A 
ATOM     74  C   UNL A   1      39.594  33.476  35.548  1.00  0.00     0.031 A 
ATOM     75  C   UNL A   1      38.275  31.610  36.304  1.00  0.00     0.131 A 
ATOM     76  C   UNL A   1      39.249  34.161  36.723  1.00  0.00     0.055 A 
ATOM     77  C   UNL A   1      37.884  32.319  37.443  1.00  0.00     0.041 A 
ATOM     78  F   UNL A   1      37.799  30.364  36.154  1.00  0.00    -0.206 F 
ATOM     79  C   UNL A   1      38.386  33.598  37.665  1.00  0.00     0.022 A 
BRANCH  76  80
ATOM     80  S   UNL A   1      40.034  35.763  37.056  1.00  0.00     0.124 S 
ATOM     81  O   UNL A   1      41.439  35.388  37.162  1.00  0.00    -0.237 OA
ATOM     82  O   UNL A   1      39.662  36.533  35.874  1.00  0.00    -0.237 OA
ATOM     83  O   UNL A   1      39.406  36.195  38.303  1.00  0.00    -0.744 OA
ENDBRANCH  76  80
ENDBRANCH  49  73
BRANCH  61  84
ATOM     84  C   UNL A   1      44.855  28.389  34.075  1.00  0.00     0.023 A 
ATOM     85  C   UNL A   1      45.976  29.228  33.947  1.00  0.00     0.031 A 
ATOM     86  C   UNL A   1      44.936  27.310  34.973  1.00  0.00     0.131 A 
ATOM     87  C   UNL A   1      47.149  28.940  34.661  1.00  0.00     0.055 A 
ATOM     88  C   UNL A   1      46.084  27.066  35.729  1.00  0.00     0.041 A 
ATOM     89  F   UNL A   1      43.897  26.475  35.135  1.00  0.00    -0.206 F 
ATOM     90  C   UNL A   1      47.204  27.874  35.564  1.00  0.00     0.022 A 
BRANCH  87  91
ATOM     91  S   UNL A   1      48.638  29.919  34.321  1.00  0.00     0.124 S 
ATOM     92  O   UNL A   1      49.693  29.060  34.847  1.00  0.00    -0.237 OA
ATOM     93  O   UNL A   1      48.594  30.059  32.869  1.00  0.00    -0.237 OA
ATOM     94  O   UNL A   1      48.413  31.155  35.069  1.00  0.00    -0.744 OA
ENDBRANCH  87  91
ENDBRANCH  61  84
ENDBRANCH  35  36
ENDBRANCH  27  30
ENDBRANCH  25  26
ENDBRANCH  24  25
ENDBRANCH   1  24
TORSDOF 20
ENDMDL
