MODEL 1
REMARK VINA RESULT:     -10.9      0.000      0.000
REMARK SMILES C[C@H](CC(=O)NCCCNC(=O)c1ccc(-c2c3nc(c(-c4cc(S(=O)(=O)[O-])ccc4F)c4ccc([nH]4)c(-c4cc(S(=O)(=O)[O-])ccc4F)c4nc(c(-c5cc(S(=O)(=O)[O-])ccc5F)c5ccc2[nH]5)C=C4)C=C3)cc1)NC(=O)CS[C@H]1CCS(=O)(=O)C1
REMARK SMILES IDX 7 1 6 2 4 3 5 4 3 6 2 7 1 8 76 9 77 10 78 12 79 13 80 14
REMARK SMILES IDX 81 15 82 16 87 17 83 18 84 19 85 20 86 21 8 22 9 23 10 24
REMARK SMILES IDX 11 25 12 27 13 28 14 29 75 30 15 31 74 32 16 33 17 34 18 35
REMARK SMILES IDX 68 36 19 37 73 38 67 39 69 40 20 41 72 42 66 43 65 44 21 46
REMARK SMILES IDX 53 47 33 48 52 49 34 50 37 51 51 52 70 53 35 54 36 55 50 57
REMARK SMILES IDX 71 58 38 59 22 60 23 61 31 62 24 63 30 64 32 65 29 66 25 67
REMARK SMILES IDX 26 68 27 69 28 70 54 71 55 72 63 73 56 74 62 75 64 76 61 77
REMARK SMILES IDX 57 78 58 79 59 80 60 81 39 82 40 83 48 84 41 85 47 86 49 87
REMARK SMILES IDX 46 88 42 89 43 90 44 91 45 92
REMARK H PARENT 6 5 76 11 10 26 69 45 37 56
REMARK Flexibility Score: inf
ROOT
ATOM      1  C   UNL A   1      31.639  29.312  25.165  1.00  0.00     0.117 C 
ENDROOT
BRANCH   1   2
ATOM      2  N   UNL A   1      30.984  29.528  23.891  1.00  0.00    -0.356 N 
ATOM      3  C   UNL A   1      30.359  28.618  23.101  1.00  0.00     0.222 C 
ATOM      4  O   UNL A   1      30.079  28.920  21.941  1.00  0.00    -0.275 OA
ATOM      5  H   UNL A   1      30.993  30.453  23.555  1.00  0.00     0.163 HD
BRANCH   3   6
ATOM      6  C   UNL A   1      29.983  27.272  23.666  1.00  0.00     0.124 C 
BRANCH   6   7
ATOM      7  C   UNL A   1      30.976  26.108  23.491  1.00  0.00     0.088 C 
ATOM      8  C   UNL A   1      30.367  24.713  23.525  1.00  0.00     0.031 C 
BRANCH   7   9
ATOM      9  N   UNL A   1      31.888  26.341  22.373  1.00  0.00    -0.352 N 
ATOM     10  C   UNL A   1      33.202  25.990  22.226  1.00  0.00     0.230 C 
ATOM     11  H   UNL A   1      31.496  26.823  21.609  1.00  0.00     0.163 HD
ATOM     12  O   UNL A   1      33.878  26.663  21.444  1.00  0.00    -0.274 OA
BRANCH  10  13
ATOM     13  C   UNL A   1      33.768  24.753  22.909  1.00  0.00     0.169 C 
BRANCH  13  14
ATOM     14  S   UNL A   1      34.224  24.970  24.669  1.00  0.00    -0.148 SA
BRANCH  14  15
ATOM     15  C   UNL A   1      34.162  23.263  25.275  1.00  0.00     0.063 C 
ATOM     16  C   UNL A   1      33.473  23.073  26.636  1.00  0.00     0.031 C 
ATOM     17  C   UNL A   1      33.441  22.286  24.352  1.00  0.00     0.151 C 
ATOM     18  C   UNL A   1      33.590  21.579  26.930  1.00  0.00     0.138 C 
ATOM     19  S   UNL A   1      33.384  20.786  25.338  1.00  0.00     0.151 S 
ATOM     20  O   UNL A   1      34.573  20.012  25.058  1.00  0.00    -0.229 OA
ATOM     21  O   UNL A   1      32.053  20.221  25.269  1.00  0.00    -0.229 OA
ENDBRANCH  14  15
ENDBRANCH  13  14
ENDBRANCH  10  13
ENDBRANCH   7   9
ENDBRANCH   6   7
ENDBRANCH   3   6
ENDBRANCH   1   2
BRANCH   1  22
ATOM     22  C   UNL A   1      33.065  28.821  24.946  1.00  0.00     0.042 C 
BRANCH  22  23
ATOM     23  C   UNL A   1      33.971  29.084  26.136  1.00  0.00     0.118 C 
BRANCH  23  24
ATOM     24  N   UNL A   1      33.774  30.425  26.649  1.00  0.00    -0.352 N 
ATOM     25  C   UNL A   1      34.360  31.026  27.733  1.00  0.00     0.251 C 
ATOM     26  H   UNL A   1      33.132  30.981  26.151  1.00  0.00     0.163 HD
ATOM     27  O   UNL A   1      33.800  31.984  28.258  1.00  0.00    -0.269 OA
BRANCH  25  28
ATOM     28  C   UNL A   1      35.649  30.522  28.253  1.00  0.00     0.039 A 
ATOM     29  C   UNL A   1      36.830  30.905  27.616  1.00  0.00     0.014 A 
ATOM     30  C   UNL A   1      35.693  29.634  29.333  1.00  0.00     0.014 A 
ATOM     31  C   UNL A   1      38.050  30.410  28.077  1.00  0.00     0.010 A 
ATOM     32  C   UNL A   1      36.915  29.243  29.866  1.00  0.00     0.010 A 
ATOM     33  C   UNL A   1      38.105  29.595  29.221  1.00  0.00    -0.014 A 
BRANCH  33  34
ATOM     34  C   UNL A   1      39.400  29.074  29.720  1.00  0.00     0.031 A 
ATOM     35  C   UNL A   1      40.076  29.726  30.898  1.00  0.00     0.074 A 
ATOM     36  C   UNL A   1      39.972  28.029  29.092  1.00  0.00     0.049 A 
ATOM     37  N   UNL A   1      41.201  29.409  31.484  1.00  0.00    -0.248 NA
ATOM     38  C   UNL A   1      39.418  30.912  31.470  1.00  0.00     0.031 C 
ATOM     39  C   UNL A   1      39.435  27.364  27.901  1.00  0.00     0.029 A 
ATOM     40  N   UNL A   1      41.123  27.337  29.365  1.00  0.00    -0.354 N 
ATOM     41  C   UNL A   1      41.391  30.361  32.481  1.00  0.00     0.074 A 
ATOM     42  C   UNL A   1      40.305  31.310  32.367  1.00  0.00     0.031 C 
ATOM     43  C   UNL A   1      40.230  26.333  27.577  1.00  0.00     0.029 A 
ATOM     44  C   UNL A   1      41.356  26.293  28.501  1.00  0.00     0.049 A 
ATOM     45  H   UNL A   1      41.725  27.566  30.110  1.00  0.00     0.167 HD
ATOM     46  C   UNL A   1      42.365  30.421  33.423  1.00  0.00     0.034 A 
ATOM     47  C   UNL A   1      42.369  25.406  28.457  1.00  0.00     0.034 A 
ATOM     48  C   UNL A   1      43.431  29.452  33.520  1.00  0.00     0.049 A 
ATOM     49  C   UNL A   1      43.438  25.488  29.515  1.00  0.00     0.074 A 
ATOM     50  C   UNL A   1      44.435  29.368  34.467  1.00  0.00     0.029 A 
ATOM     51  N   UNL A   1      43.639  28.406  32.628  1.00  0.00    -0.354 N 
ATOM     52  N   UNL A   1      43.562  26.348  30.502  1.00  0.00    -0.248 NA
ATOM     53  C   UNL A   1      44.491  24.469  29.465  1.00  0.00     0.031 C 
ATOM     54  C   UNL A   1      45.296  28.326  34.101  1.00  0.00     0.029 A 
ATOM     55  C   UNL A   1      44.779  27.698  32.979  1.00  0.00     0.049 A 
ATOM     56  H   UNL A   1      43.060  28.198  31.859  1.00  0.00     0.167 HD
ATOM     57  C   UNL A   1      44.699  25.958  31.203  1.00  0.00     0.074 A 
ATOM     58  C   UNL A   1      45.200  24.767  30.544  1.00  0.00     0.031 C 
ATOM     59  C   UNL A   1      45.280  26.529  32.291  1.00  0.00     0.034 A 
BRANCH  46  60
ATOM     60  C   UNL A   1      42.335  31.584  34.389  1.00  0.00     0.023 A 
ATOM     61  C   UNL A   1      41.543  31.566  35.553  1.00  0.00     0.031 A 
ATOM     62  C   UNL A   1      43.081  32.747  34.126  1.00  0.00     0.131 A 
ATOM     63  C   UNL A   1      41.450  32.713  36.358  1.00  0.00     0.055 A 
ATOM     64  C   UNL A   1      43.055  33.851  34.981  1.00  0.00     0.041 A 
ATOM     65  F   UNL A   1      43.835  32.839  33.019  1.00  0.00    -0.206 F 
ATOM     66  C   UNL A   1      42.222  33.846  36.095  1.00  0.00     0.022 A 
BRANCH  63  67
ATOM     67  S   UNL A   1      40.181  32.762  37.654  1.00  0.00     0.124 S 
ATOM     68  O   UNL A   1      39.747  34.155  37.589  1.00  0.00    -0.237 OA
ATOM     69  O   UNL A   1      39.218  31.770  37.189  1.00  0.00    -0.237 OA
ATOM     70  O   UNL A   1      40.914  32.401  38.866  1.00  0.00    -0.744 OA
ENDBRANCH  63  67
ENDBRANCH  46  60
BRANCH  47  71
ATOM     71  C   UNL A   1      42.422  24.379  27.377  1.00  0.00     0.023 A 
ATOM     72  C   UNL A   1      41.658  23.203  27.448  1.00  0.00     0.031 A 
ATOM     73  C   UNL A   1      43.263  24.551  26.263  1.00  0.00     0.131 A 
ATOM     74  C   UNL A   1      41.783  22.226  26.448  1.00  0.00     0.055 A 
ATOM     75  C   UNL A   1      43.339  23.604  25.241  1.00  0.00     0.041 A 
ATOM     76  F   UNL A   1      44.010  25.660  26.140  1.00  0.00    -0.206 F 
ATOM     77  C   UNL A   1      42.606  22.425  25.338  1.00  0.00     0.022 A 
BRANCH  74  78
ATOM     78  S   UNL A   1      40.919  20.645  26.662  1.00  0.00     0.124 S 
ATOM     79  O   UNL A   1      41.841  19.713  26.025  1.00  0.00    -0.237 OA
ATOM     80  O   UNL A   1      40.814  20.554  28.115  1.00  0.00    -0.237 OA
ATOM     81  O   UNL A   1      39.654  20.853  25.960  1.00  0.00    -0.744 OA
ENDBRANCH  74  78
ENDBRANCH  47  71
BRANCH  59  82
ATOM     82  C   UNL A   1      46.510  25.845  32.839  1.00  0.00     0.023 A 
ATOM     83  C   UNL A   1      47.797  26.149  32.361  1.00  0.00     0.031 A 
ATOM     84  C   UNL A   1      46.390  24.845  33.820  1.00  0.00     0.131 A 
ATOM     85  C   UNL A   1      48.899  25.400  32.798  1.00  0.00     0.055 A 
ATOM     86  C   UNL A   1      47.502  24.161  34.312  1.00  0.00     0.041 A 
ATOM     87  F   UNL A   1      45.187  24.509  34.313  1.00  0.00    -0.206 F 
ATOM     88  C   UNL A   1      48.764  24.422  33.785  1.00  0.00     0.022 A 
BRANCH  85  89
ATOM     89  S   UNL A   1      50.486  25.621  31.948  1.00  0.00     0.124 S 
ATOM     90  O   UNL A   1      50.313  24.783  30.765  1.00  0.00    -0.237 OA
ATOM     91  O   UNL A   1      50.515  27.061  31.711  1.00  0.00    -0.237 OA
ATOM     92  O   UNL A   1      51.465  25.131  32.916  1.00  0.00    -0.744 OA
ENDBRANCH  85  89
ENDBRANCH  59  82
ENDBRANCH  33  34
ENDBRANCH  25  28
ENDBRANCH  23  24
ENDBRANCH  22  23
ENDBRANCH   1  22
TORSDOF 18
ENDMDL
MODEL 2
REMARK VINA RESULT:     -10.8      2.296      2.746
REMARK SMILES C[C@H](CC(=O)NCCCNC(=O)c1ccc(-c2c3nc(c(-c4cc(S(=O)(=O)[O-])ccc4F)c4ccc([nH]4)c(-c4cc(S(=O)(=O)[O-])ccc4F)c4nc(c(-c5cc(S(=O)(=O)[O-])ccc5F)c5ccc2[nH]5)C=C4)C=C3)cc1)NC(=O)CS[C@H]1CCS(=O)(=O)C1
REMARK SMILES IDX 7 1 6 2 4 3 5 4 3 6 2 7 1 8 76 9 77 10 78 12 79 13 80 14
REMARK SMILES IDX 81 15 82 16 87 17 83 18 84 19 85 20 86 21 8 22 9 23 10 24
REMARK SMILES IDX 11 25 12 27 13 28 14 29 75 30 15 31 74 32 16 33 17 34 18 35
REMARK SMILES IDX 68 36 19 37 73 38 67 39 69 40 20 41 72 42 66 43 65 44 21 46
REMARK SMILES IDX 53 47 33 48 52 49 34 50 37 51 51 52 70 53 35 54 36 55 50 57
REMARK SMILES IDX 71 58 38 59 22 60 23 61 31 62 24 63 30 64 32 65 29 66 25 67
REMARK SMILES IDX 26 68 27 69 28 70 54 71 55 72 63 73 56 74 62 75 64 76 61 77
REMARK SMILES IDX 57 78 58 79 59 80 60 81 39 82 40 83 48 84 41 85 47 86 49 87
REMARK SMILES IDX 46 88 42 89 43 90 44 91 45 92
REMARK H PARENT 6 5 76 11 10 26 69 45 37 56
REMARK Flexibility Score: inf
ROOT
ATOM      1  C   UNL A   1      32.091  29.777  25.398  1.00  0.00     0.117 C 
ENDROOT
BRANCH   1   2
ATOM      2  N   UNL A   1      33.217  29.610  24.503  1.00  0.00    -0.356 N 
ATOM      3  C   UNL A   1      33.240  29.023  23.279  1.00  0.00     0.222 C 
ATOM      4  O   UNL A   1      34.324  28.743  22.766  1.00  0.00    -0.275 OA
ATOM      5  H   UNL A   1      34.076  29.969  24.823  1.00  0.00     0.163 HD
BRANCH   3   6
ATOM      6  C   UNL A   1      31.946  28.760  22.552  1.00  0.00     0.124 C 
BRANCH   6   7
ATOM      7  C   UNL A   1      31.307  27.366  22.689  1.00  0.00     0.088 C 
ATOM      8  C   UNL A   1      29.842  27.352  23.107  1.00  0.00     0.031 C 
BRANCH   7   9
ATOM      9  N   UNL A   1      31.614  26.517  21.540  1.00  0.00    -0.352 N 
ATOM     10  C   UNL A   1      32.760  25.836  21.234  1.00  0.00     0.230 C 
ATOM     11  H   UNL A   1      30.884  26.420  20.887  1.00  0.00     0.163 HD
ATOM     12  O   UNL A   1      32.960  25.577  20.045  1.00  0.00    -0.274 OA
BRANCH  10  13
ATOM     13  C   UNL A   1      33.685  25.321  22.328  1.00  0.00     0.169 C 
BRANCH  13  14
ATOM     14  S   UNL A   1      33.284  23.655  22.973  1.00  0.00    -0.148 SA
BRANCH  14  15
ATOM     15  C   UNL A   1      32.585  24.052  24.599  1.00  0.00     0.063 C 
ATOM     16  C   UNL A   1      32.914  25.455  25.132  1.00  0.00     0.031 C 
ATOM     17  C   UNL A   1      31.063  23.972  24.672  1.00  0.00     0.151 C 
ATOM     18  C   UNL A   1      32.253  25.518  26.507  1.00  0.00     0.138 C 
ATOM     19  S   UNL A   1      30.718  24.617  26.313  1.00  0.00     0.151 S 
ATOM     20  O   UNL A   1      30.717  23.512  27.245  1.00  0.00    -0.229 OA
ATOM     21  O   UNL A   1      29.628  25.567  26.231  1.00  0.00    -0.229 OA
ENDBRANCH  14  15
ENDBRANCH  13  14
ENDBRANCH  10  13
ENDBRANCH   7   9
ENDBRANCH   6   7
ENDBRANCH   3   6
ENDBRANCH   1   2
BRANCH   1  22
ATOM     22  C   UNL A   1      32.439  29.250  26.785  1.00  0.00     0.042 C 
BRANCH  22  23
ATOM     23  C   UNL A   1      33.829  29.656  27.242  1.00  0.00     0.118 C 
BRANCH  23  24
ATOM     24  N   UNL A   1      33.863  31.056  27.614  1.00  0.00    -0.352 N 
ATOM     25  C   UNL A   1      34.656  31.680  28.543  1.00  0.00     0.251 C 
ATOM     26  H   UNL A   1      33.230  31.639  27.136  1.00  0.00     0.163 HD
ATOM     27  O   UNL A   1      34.288  32.751  29.017  1.00  0.00    -0.269 OA
BRANCH  25  28
ATOM     28  C   UNL A   1      35.933  31.064  28.960  1.00  0.00     0.039 A 
ATOM     29  C   UNL A   1      35.905  29.976  29.834  1.00  0.00     0.014 A 
ATOM     30  C   UNL A   1      37.159  31.586  28.534  1.00  0.00     0.014 A 
ATOM     31  C   UNL A   1      37.104  29.406  30.260  1.00  0.00     0.010 A 
ATOM     32  C   UNL A   1      38.345  30.940  28.860  1.00  0.00     0.010 A 
ATOM     33  C   UNL A   1      38.333  29.867  29.758  1.00  0.00    -0.014 A 
BRANCH  33  34
ATOM     34  C   UNL A   1      39.611  29.259  30.201  1.00  0.00     0.031 A 
ATOM     35  C   UNL A   1      40.321  29.792  31.417  1.00  0.00     0.074 A 
ATOM     36  C   UNL A   1      40.135  28.244  29.489  1.00  0.00     0.049 A 
ATOM     37  N   UNL A   1      41.438  29.388  31.966  1.00  0.00    -0.248 NA
ATOM     38  C   UNL A   1      39.716  30.955  32.086  1.00  0.00     0.031 C 
ATOM     39  C   UNL A   1      39.563  27.694  28.257  1.00  0.00     0.029 A 
ATOM     40  N   UNL A   1      41.260  27.489  29.695  1.00  0.00    -0.354 N 
ATOM     41  C   UNL A   1      41.673  30.252  33.030  1.00  0.00     0.074 A 
ATOM     42  C   UNL A   1      40.625  31.248  33.002  1.00  0.00     0.031 C 
ATOM     43  C   UNL A   1      40.314  26.662  27.845  1.00  0.00     0.029 A 
ATOM     44  C   UNL A   1      41.446  26.507  28.750  1.00  0.00     0.049 A 
ATOM     45  H   UNL A   1      41.878  27.637  30.449  1.00  0.00     0.167 HD
ATOM     46  C   UNL A   1      42.658  30.201  33.963  1.00  0.00     0.034 A 
ATOM     47  C   UNL A   1      42.422  25.587  28.627  1.00  0.00     0.034 A 
ATOM     48  C   UNL A   1      43.685  29.187  33.974  1.00  0.00     0.049 A 
ATOM     49  C   UNL A   1      43.502  25.546  29.676  1.00  0.00     0.074 A 
ATOM     50  C   UNL A   1      44.692  28.991  34.900  1.00  0.00     0.029 A 
ATOM     51  N   UNL A   1      43.843  28.205  33.001  1.00  0.00    -0.354 N 
ATOM     52  N   UNL A   1      43.668  26.321  30.725  1.00  0.00    -0.248 NA
ATOM     53  C   UNL A   1      44.513  24.493  29.537  1.00  0.00     0.031 C 
ATOM     54  C   UNL A   1      45.508  27.948  34.445  1.00  0.00     0.029 A 
ATOM     55  C   UNL A   1      44.958  27.429  33.284  1.00  0.00     0.049 A 
ATOM     56  H   UNL A   1      43.251  28.079  32.225  1.00  0.00     0.167 HD
ATOM     57  C   UNL A   1      44.794  25.835  31.381  1.00  0.00     0.074 A 
ATOM     58  C   UNL A   1      45.242  24.680  30.627  1.00  0.00     0.031 C 
ATOM     59  C   UNL A   1      45.406  26.298  32.503  1.00  0.00     0.034 A 
BRANCH  46  60
ATOM     60  C   UNL A   1      42.681  31.287  35.015  1.00  0.00     0.023 A 
ATOM     61  C   UNL A   1      43.255  32.549  34.773  1.00  0.00     0.031 A 
ATOM     62  C   UNL A   1      42.154  31.046  36.297  1.00  0.00     0.131 A 
ATOM     63  C   UNL A   1      43.365  33.483  35.814  1.00  0.00     0.055 A 
ATOM     64  C   UNL A   1      42.183  32.015  37.303  1.00  0.00     0.041 A 
ATOM     65  F   UNL A   1      41.616  29.854  36.602  1.00  0.00    -0.206 F 
ATOM     66  C   UNL A   1      42.807  33.236  37.070  1.00  0.00     0.022 A 
BRANCH  63  67
ATOM     67  S   UNL A   1      44.392  34.956  35.553  1.00  0.00     0.124 S 
ATOM     68  O   UNL A   1      45.566  34.644  36.364  1.00  0.00    -0.237 OA
ATOM     69  O   UNL A   1      44.592  34.948  34.108  1.00  0.00    -0.237 OA
ATOM     70  O   UNL A   1      43.564  36.047  36.063  1.00  0.00    -0.744 OA
ENDBRANCH  63  67
ENDBRANCH  46  60
BRANCH  47  71
ATOM     71  C   UNL A   1      42.425  24.644  27.472  1.00  0.00     0.023 A 
ATOM     72  C   UNL A   1      41.637  23.482  27.473  1.00  0.00     0.031 A 
ATOM     73  C   UNL A   1      43.242  24.885  26.352  1.00  0.00     0.131 A 
ATOM     74  C   UNL A   1      41.716  22.582  26.399  1.00  0.00     0.055 A 
ATOM     75  C   UNL A   1      43.271  24.017  25.259  1.00  0.00     0.041 A 
ATOM     76  F   UNL A   1      44.010  25.984  26.294  1.00  0.00    -0.206 F 
ATOM     77  C   UNL A   1      42.515  22.850  25.285  1.00  0.00     0.022 A 
BRANCH  74  78
ATOM     78  S   UNL A   1      40.823  21.008  26.515  1.00  0.00     0.124 S 
ATOM     79  O   UNL A   1      40.786  20.793  27.957  1.00  0.00    -0.237 OA
ATOM     80  O   UNL A   1      39.551  21.335  25.881  1.00  0.00    -0.237 OA
ATOM     81  O   UNL A   1      41.671  20.081  25.767  1.00  0.00    -0.744 OA
ENDBRANCH  74  78
ENDBRANCH  47  71
BRANCH  59  82
ATOM     82  C   UNL A   1      46.613  25.526  32.983  1.00  0.00     0.023 A 
ATOM     83  C   UNL A   1      46.491  24.455  33.886  1.00  0.00     0.031 A 
ATOM     84  C   UNL A   1      47.905  25.895  32.568  1.00  0.00     0.131 A 
ATOM     85  C   UNL A   1      47.642  23.850  34.412  1.00  0.00     0.055 A 
ATOM     86  C   UNL A   1      49.042  25.233  33.031  1.00  0.00     0.041 A 
ATOM     87  F   UNL A   1      48.084  26.912  31.710  1.00  0.00    -0.206 F 
ATOM     88  C   UNL A   1      48.916  24.218  33.975  1.00  0.00     0.022 A 
BRANCH  85  89
ATOM     89  S   UNL A   1      47.454  22.680  35.784  1.00  0.00     0.124 S 
ATOM     90  O   UNL A   1      48.187  23.349  36.854  1.00  0.00    -0.237 OA
ATOM     91  O   UNL A   1      46.004  22.619  35.945  1.00  0.00    -0.237 OA
ATOM     92  O   UNL A   1      48.073  21.457  35.279  1.00  0.00    -0.744 OA
ENDBRANCH  85  89
ENDBRANCH  59  82
ENDBRANCH  33  34
ENDBRANCH  25  28
ENDBRANCH  23  24
ENDBRANCH  22  23
ENDBRANCH   1  22
TORSDOF 18
ENDMDL
MODEL 3
REMARK VINA RESULT:     -10.8      1.812      3.611
REMARK SMILES C[C@H](CC(=O)NCCCNC(=O)c1ccc(-c2c3nc(c(-c4cc(S(=O)(=O)[O-])ccc4F)c4ccc([nH]4)c(-c4cc(S(=O)(=O)[O-])ccc4F)c4nc(c(-c5cc(S(=O)(=O)[O-])ccc5F)c5ccc2[nH]5)C=C4)C=C3)cc1)NC(=O)CS[C@H]1CCS(=O)(=O)C1
REMARK SMILES IDX 7 1 6 2 4 3 5 4 3 6 2 7 1 8 76 9 77 10 78 12 79 13 80 14
REMARK SMILES IDX 81 15 82 16 87 17 83 18 84 19 85 20 86 21 8 22 9 23 10 24
REMARK SMILES IDX 11 25 12 27 13 28 14 29 75 30 15 31 74 32 16 33 17 34 18 35
REMARK SMILES IDX 68 36 19 37 73 38 67 39 69 40 20 41 72 42 66 43 65 44 21 46
REMARK SMILES IDX 53 47 33 48 52 49 34 50 37 51 51 52 70 53 35 54 36 55 50 57
REMARK SMILES IDX 71 58 38 59 22 60 23 61 31 62 24 63 30 64 32 65 29 66 25 67
REMARK SMILES IDX 26 68 27 69 28 70 54 71 55 72 63 73 56 74 62 75 64 76 61 77
REMARK SMILES IDX 57 78 58 79 59 80 60 81 39 82 40 83 48 84 41 85 47 86 49 87
REMARK SMILES IDX 46 88 42 89 43 90 44 91 45 92
REMARK H PARENT 6 5 76 11 10 26 69 45 37 56
REMARK Flexibility Score: inf
ROOT
ATOM      1  C   UNL A   1      33.745  26.790  25.583  1.00  0.00     0.117 C 
ENDROOT
BRANCH   1   2
ATOM      2  N   UNL A   1      32.621  26.384  26.400  1.00  0.00    -0.356 N 
ATOM      3  C   UNL A   1      31.769  25.345  26.205  1.00  0.00     0.222 C 
ATOM      4  O   UNL A   1      30.724  25.295  26.853  1.00  0.00    -0.275 OA
ATOM      5  H   UNL A   1      32.452  26.933  27.200  1.00  0.00     0.163 HD
BRANCH   3   6
ATOM      6  C   UNL A   1      32.134  24.253  25.232  1.00  0.00     0.124 C 
BRANCH   6   7
ATOM      7  C   UNL A   1      31.470  24.267  23.843  1.00  0.00     0.088 C 
ATOM      8  C   UNL A   1      31.588  22.975  23.045  1.00  0.00     0.031 C 
BRANCH   7   9
ATOM      9  N   UNL A   1      30.119  24.821  23.897  1.00  0.00    -0.352 N 
ATOM     10  C   UNL A   1      29.685  26.099  23.673  1.00  0.00     0.230 C 
ATOM     11  H   UNL A   1      29.413  24.175  24.131  1.00  0.00     0.163 HD
ATOM     12  O   UNL A   1      28.625  26.434  24.206  1.00  0.00    -0.274 OA
BRANCH  10  13
ATOM     13  C   UNL A   1      30.421  27.022  22.712  1.00  0.00     0.169 C 
BRANCH  13  14
ATOM     14  S   UNL A   1      31.119  28.538  23.464  1.00  0.00    -0.148 SA
BRANCH  14  15
ATOM     15  C   UNL A   1      30.002  29.813  22.820  1.00  0.00     0.063 C 
ATOM     16  C   UNL A   1      28.764  29.288  22.075  1.00  0.00     0.031 C 
ATOM     17  C   UNL A   1      29.430  30.751  23.879  1.00  0.00     0.151 C 
ATOM     18  C   UNL A   1      28.026  30.540  21.608  1.00  0.00     0.138 C 
ATOM     19  S   UNL A   1      28.238  31.714  22.943  1.00  0.00     0.151 S 
ATOM     20  O   UNL A   1      28.908  32.884  22.419  1.00  0.00    -0.229 OA
ATOM     21  O   UNL A   1      27.000  31.796  23.691  1.00  0.00    -0.229 OA
ENDBRANCH  14  15
ENDBRANCH  13  14
ENDBRANCH  10  13
ENDBRANCH   7   9
ENDBRANCH   6   7
ENDBRANCH   3   6
ENDBRANCH   1   2
BRANCH   1  22
ATOM     22  C   UNL A   1      34.127  28.233  25.891  1.00  0.00     0.042 C 
BRANCH  22  23
ATOM     23  C   UNL A   1      33.448  28.772  27.137  1.00  0.00     0.118 C 
BRANCH  23  24
ATOM     24  N   UNL A   1      33.490  30.221  27.163  1.00  0.00    -0.352 N 
ATOM     25  C   UNL A   1      34.317  31.044  27.883  1.00  0.00     0.251 C 
ATOM     26  H   UNL A   1      32.836  30.675  26.585  1.00  0.00     0.163 HD
ATOM     27  O   UNL A   1      33.964  32.199  28.101  1.00  0.00    -0.269 OA
BRANCH  25  28
ATOM     28  C   UNL A   1      35.613  30.539  28.383  1.00  0.00     0.039 A 
ATOM     29  C   UNL A   1      36.774  30.829  27.663  1.00  0.00     0.014 A 
ATOM     30  C   UNL A   1      35.683  29.740  29.528  1.00  0.00     0.014 A 
ATOM     31  C   UNL A   1      37.999  30.332  28.107  1.00  0.00     0.010 A 
ATOM     32  C   UNL A   1      36.917  29.351  30.035  1.00  0.00     0.010 A 
ATOM     33  C   UNL A   1      38.084  29.609  29.309  1.00  0.00    -0.014 A 
BRANCH  33  34
ATOM     34  C   UNL A   1      39.385  29.086  29.790  1.00  0.00     0.031 A 
ATOM     35  C   UNL A   1      40.082  29.740  30.953  1.00  0.00     0.074 A 
ATOM     36  C   UNL A   1      39.944  28.036  29.157  1.00  0.00     0.049 A 
ATOM     37  N   UNL A   1      41.216  29.422  31.523  1.00  0.00    -0.248 NA
ATOM     38  C   UNL A   1      39.438  30.930  31.532  1.00  0.00     0.031 C 
ATOM     39  C   UNL A   1      39.385  27.369  27.977  1.00  0.00     0.029 A 
ATOM     40  N   UNL A   1      41.097  27.342  29.413  1.00  0.00    -0.354 N 
ATOM     41  C   UNL A   1      41.425  30.377  32.513  1.00  0.00     0.074 A 
ATOM     42  C   UNL A   1      40.341  31.328  32.414  1.00  0.00     0.031 C 
ATOM     43  C   UNL A   1      40.172  26.334  27.643  1.00  0.00     0.029 A 
ATOM     44  C   UNL A   1      41.313  26.294  28.549  1.00  0.00     0.049 A 
ATOM     45  H   UNL A   1      41.712  27.571  30.148  1.00  0.00     0.167 HD
ATOM     46  C   UNL A   1      42.415  30.437  33.439  1.00  0.00     0.034 A 
ATOM     47  C   UNL A   1      42.322  25.403  28.492  1.00  0.00     0.034 A 
ATOM     48  C   UNL A   1      43.479  29.465  33.523  1.00  0.00     0.049 A 
ATOM     49  C   UNL A   1      43.408  25.486  29.532  1.00  0.00     0.074 A 
ATOM     50  C   UNL A   1      44.497  29.381  34.454  1.00  0.00     0.029 A 
ATOM     51  N   UNL A   1      43.668  28.414  32.631  1.00  0.00    -0.354 N 
ATOM     52  N   UNL A   1      43.551  26.348  30.514  1.00  0.00    -0.248 NA
ATOM     53  C   UNL A   1      44.457  24.463  29.469  1.00  0.00     0.031 C 
ATOM     54  C   UNL A   1      45.349  28.334  34.078  1.00  0.00     0.029 A 
ATOM     55  C   UNL A   1      44.812  27.704  32.966  1.00  0.00     0.049 A 
ATOM     56  H   UNL A   1      43.077  28.205  31.872  1.00  0.00     0.167 HD
ATOM     57  C   UNL A   1      44.697  25.958  31.198  1.00  0.00     0.074 A 
ATOM     58  C   UNL A   1      45.184  24.763  30.536  1.00  0.00     0.031 C 
ATOM     59  C   UNL A   1      45.298  26.531  32.275  1.00  0.00     0.034 A 
BRANCH  46  60
ATOM     60  C   UNL A   1      42.404  31.603  34.401  1.00  0.00     0.023 A 
ATOM     61  C   UNL A   1      41.633  31.591  35.579  1.00  0.00     0.031 A 
ATOM     62  C   UNL A   1      43.147  32.764  34.120  1.00  0.00     0.131 A 
ATOM     63  C   UNL A   1      41.556  32.741  36.381  1.00  0.00     0.055 A 
ATOM     64  C   UNL A   1      43.138  33.871  34.971  1.00  0.00     0.041 A 
ATOM     65  F   UNL A   1      43.881  32.850  33.000  1.00  0.00    -0.206 F 
ATOM     66  C   UNL A   1      42.326  33.871  36.101  1.00  0.00     0.022 A 
BRANCH  63  67
ATOM     67  S   UNL A   1      40.310  32.797  37.699  1.00  0.00     0.124 S 
ATOM     68  O   UNL A   1      39.955  34.214  37.709  1.00  0.00    -0.237 OA
ATOM     69  O   UNL A   1      39.287  31.884  37.204  1.00  0.00    -0.237 OA
ATOM     70  O   UNL A   1      41.039  32.337  38.880  1.00  0.00    -0.744 OA
ENDBRANCH  63  67
ENDBRANCH  46  60
BRANCH  47  71
ATOM     71  C   UNL A   1      42.354  24.372  27.416  1.00  0.00     0.023 A 
ATOM     72  C   UNL A   1      41.691  23.143  27.561  1.00  0.00     0.031 A 
ATOM     73  C   UNL A   1      43.074  24.596  26.228  1.00  0.00     0.131 A 
ATOM     74  C   UNL A   1      41.799  22.167  26.556  1.00  0.00     0.055 A 
ATOM     75  C   UNL A   1      43.128  23.647  25.207  1.00  0.00     0.041 A 
ATOM     76  F   UNL A   1      43.721  25.756  26.034  1.00  0.00    -0.206 F 
ATOM     77  C   UNL A   1      42.499  22.417  25.374  1.00  0.00     0.022 A 
BRANCH  74  78
ATOM     78  S   UNL A   1      41.081  20.528  26.855  1.00  0.00     0.124 S 
ATOM     79  O   UNL A   1      39.919  20.549  25.975  1.00  0.00    -0.237 OA
ATOM     80  O   UNL A   1      42.172  19.645  26.459  1.00  0.00    -0.237 OA
ATOM     81  O   UNL A   1      40.782  20.545  28.286  1.00  0.00    -0.744 OA
ENDBRANCH  74  78
ENDBRANCH  47  71
BRANCH  59  82
ATOM     82  C   UNL A   1      46.534  25.845  32.805  1.00  0.00     0.023 A 
ATOM     83  C   UNL A   1      47.796  26.040  32.216  1.00  0.00     0.031 A 
ATOM     84  C   UNL A   1      46.443  24.949  33.886  1.00  0.00     0.131 A 
ATOM     85  C   UNL A   1      48.895  25.285  32.651  1.00  0.00     0.055 A 
ATOM     86  C   UNL A   1      47.558  24.264  34.369  1.00  0.00     0.041 A 
ATOM     87  F   UNL A   1      45.265  24.719  34.487  1.00  0.00    -0.206 F 
ATOM     88  C   UNL A   1      48.789  24.414  33.737  1.00  0.00     0.022 A 
BRANCH  85  89
ATOM     89  S   UNL A   1      50.426  25.349  31.681  1.00  0.00     0.124 S 
ATOM     90  O   UNL A   1      49.957  25.897  30.413  1.00  0.00    -0.237 OA
ATOM     91  O   UNL A   1      51.268  26.229  32.485  1.00  0.00    -0.237 OA
ATOM     92  O   UNL A   1      50.858  23.954  31.631  1.00  0.00    -0.744 OA
ENDBRANCH  85  89
ENDBRANCH  59  82
ENDBRANCH  33  34
ENDBRANCH  25  28
ENDBRANCH  23  24
ENDBRANCH  22  23
ENDBRANCH   1  22
TORSDOF 18
ENDMDL
