MODEL 1
REMARK VINA RESULT:     -11.0      0.000      0.000
REMARK SMILES CCN(CC(=O)NC)C(=O)c1ccncc1/C=C/C(=O)NCCCNC(=O)c1ccc(-c2c3nc(c(-c4cc(S(=O)(=O)[O-])ccc4F)c4ccc([nH]4)c(-c4cc(S(=O)(=O)[O-])ccc4F)c4nc(c(-c5cc(S(=O)(=O)[O-])ccc5F)c5ccc2[nH]5)C=C4)C=C3)cc1
REMARK SMILES IDX 22 1 21 2 19 3 20 4 18 6 17 7 16 8 11 9 12 10 13 11 15 12
REMARK SMILES IDX 14 13 9 14 10 15 3 16 2 17 1 18 4 19 5 20 6 21 7 22 8 23
REMARK SMILES IDX 23 25 24 26 25 27 26 28 27 30 28 31 29 32 90 33 30 34 89 35
REMARK SMILES IDX 31 36 32 37 33 38 83 39 34 40 88 41 82 42 84 43 35 44 87 45
REMARK SMILES IDX 81 46 80 47 36 49 68 50 48 51 67 52 49 53 52 54 66 55 85 56
REMARK SMILES IDX 50 57 51 58 65 60 86 61 53 62 37 63 38 64 46 65 39 66 45 67
REMARK SMILES IDX 47 68 44 69 40 70 41 71 42 72 43 73 69 74 70 75 78 76 71 77
REMARK SMILES IDX 77 78 79 79 76 80 72 81 73 82 74 83 75 84 54 85 55 86 63 87
REMARK SMILES IDX 56 88 62 89 64 90 61 91 57 92 58 93 59 94 60 95
REMARK H PARENT 21 5 7 24 25 29 84 48 52 59
REMARK Flexibility Score: inf
ROOT
ATOM      1  C   UNL A   1      31.894  30.395  26.941  1.00  0.00     0.118 C 
ENDROOT
BRANCH   1   2
ATOM      2  N   UNL A   1      33.162  30.114  27.589  1.00  0.00    -0.352 N 
ATOM      3  C   UNL A   1      34.135  29.227  27.259  1.00  0.00     0.244 C 
ATOM      4  O   UNL A   1      35.182  29.197  27.901  1.00  0.00    -0.270 OA
ATOM      5  H   UNL A   1      33.345  30.651  28.393  1.00  0.00     0.163 HD
BRANCH   3   6
ATOM      6  C   UNL A   1      34.005  28.378  26.055  1.00  0.00     0.072 C 
ATOM      7  C   UNL A   1      33.798  27.051  26.031  1.00  0.00     0.016 C 
BRANCH   7   8
ATOM      8  C   UNL A   1      33.667  26.322  24.757  1.00  0.00     0.006 A 
ATOM      9  C   UNL A   1      33.601  24.923  24.650  1.00  0.00     0.050 A 
ATOM     10  C   UNL A   1      33.309  24.329  23.419  1.00  0.00     0.034 A 
ATOM     11  C   UNL A   1      33.225  25.135  22.300  1.00  0.00     0.112 A 
ATOM     12  C   UNL A   1      33.586  27.027  23.554  1.00  0.00     0.119 A 
ATOM     13  N   UNL A   1      33.375  26.471  22.337  1.00  0.00    -0.264 NA
BRANCH   9  14
ATOM     14  C   UNL A   1      33.735  24.031  25.828  1.00  0.00     0.255 C 
ATOM     15  O   UNL A   1      32.767  23.941  26.580  1.00  0.00    -0.269 OA
BRANCH  14  16
ATOM     16  N   UNL A   1      34.936  23.333  26.034  1.00  0.00    -0.330 N 
BRANCH  16  17
ATOM     17  C   UNL A   1      34.860  21.926  26.439  1.00  0.00     0.117 C 
ATOM     18  C   UNL A   1      34.242  21.029  25.383  1.00  0.00     0.027 C 
ENDBRANCH  16  17
BRANCH  16  19
ATOM     19  C   UNL A   1      36.269  23.961  26.043  1.00  0.00     0.219 C 
BRANCH  19  20
ATOM     20  C   UNL A   1      37.458  23.136  25.513  1.00  0.00     0.239 C 
ATOM     21  O   UNL A   1      38.340  22.742  26.283  1.00  0.00    -0.273 OA
ATOM     22  N   UNL A   1      37.543  22.715  24.220  1.00  0.00    -0.358 N 
ATOM     23  C   UNL A   1      36.595  22.847  23.145  1.00  0.00     0.142 C 
ATOM     24  H   UNL A   1      38.379  22.250  23.986  1.00  0.00     0.163 HD
ENDBRANCH  19  20
ENDBRANCH  16  19
ENDBRANCH  14  16
ENDBRANCH   9  14
ENDBRANCH   7   8
ENDBRANCH   3   6
ENDBRANCH   1   2
BRANCH   1  25
ATOM     25  C   UNL A   1      31.655  31.896  26.846  1.00  0.00     0.042 C 
BRANCH  25  26
ATOM     26  C   UNL A   1      32.927  32.729  26.958  1.00  0.00     0.118 C 
BRANCH  26  27
ATOM     27  N   UNL A   1      32.655  34.040  27.530  1.00  0.00    -0.352 N 
ATOM     28  C   UNL A   1      33.122  34.619  28.685  1.00  0.00     0.251 C 
ATOM     29  H   UNL A   1      32.038  34.600  27.006  1.00  0.00     0.163 HD
ATOM     30  O   UNL A   1      32.546  35.609  29.128  1.00  0.00    -0.269 OA
BRANCH  28  31
ATOM     31  C   UNL A   1      34.295  34.061  29.398  1.00  0.00     0.039 A 
ATOM     32  C   UNL A   1      34.081  33.174  30.457  1.00  0.00     0.014 A 
ATOM     33  C   UNL A   1      35.597  34.449  29.073  1.00  0.00     0.014 A 
ATOM     34  C   UNL A   1      35.170  32.639  31.152  1.00  0.00     0.010 A 
ATOM     35  C   UNL A   1      36.683  33.854  29.711  1.00  0.00     0.010 A 
ATOM     36  C   UNL A   1      36.483  32.950  30.765  1.00  0.00    -0.014 A 
BRANCH  36  37
ATOM     37  C   UNL A   1      37.657  32.358  31.458  1.00  0.00     0.031 A 
ATOM     38  C   UNL A   1      38.415  31.223  30.821  1.00  0.00     0.074 A 
ATOM     39  C   UNL A   1      37.999  32.795  32.686  1.00  0.00     0.049 A 
ATOM     40  N   UNL A   1      39.398  30.508  31.304  1.00  0.00    -0.248 NA
ATOM     41  C   UNL A   1      37.986  30.821  29.473  1.00  0.00     0.031 C 
ATOM     42  C   UNL A   1      37.319  33.865  33.420  1.00  0.00     0.029 A 
ATOM     43  N   UNL A   1      38.993  32.390  33.539  1.00  0.00    -0.354 N 
ATOM     44  C   UNL A   1      39.695  29.561  30.329  1.00  0.00     0.074 A 
ATOM     45  C   UNL A   1      38.744  29.757  29.254  1.00  0.00     0.031 C 
ATOM     46  C   UNL A   1      37.930  34.045  34.601  1.00  0.00     0.029 A 
ATOM     47  C   UNL A   1      39.012  33.074  34.733  1.00  0.00     0.049 A 
ATOM     48  H   UNL A   1      39.634  31.676  33.319  1.00  0.00     0.167 HD
ATOM     49  C   UNL A   1      40.682  28.629  30.321  1.00  0.00     0.034 A 
ATOM     50  C   UNL A   1      39.800  32.926  35.817  1.00  0.00     0.034 A 
ATOM     51  C   UNL A   1      41.629  28.457  31.396  1.00  0.00     0.049 A 
ATOM     52  C   UNL A   1      40.874  31.869  35.795  1.00  0.00     0.074 A 
ATOM     53  C   UNL A   1      42.699  27.581  31.472  1.00  0.00     0.029 A 
ATOM     54  N   UNL A   1      41.619  29.173  32.587  1.00  0.00    -0.354 N 
ATOM     55  N   UNL A   1      41.168  31.009  34.848  1.00  0.00    -0.248 NA
ATOM     56  C   UNL A   1      41.731  31.772  36.984  1.00  0.00     0.031 C 
ATOM     57  C   UNL A   1      43.292  27.721  32.731  1.00  0.00     0.029 A 
ATOM     58  C   UNL A   1      42.644  28.738  33.414  1.00  0.00     0.049 A 
ATOM     59  H   UNL A   1      40.977  29.885  32.811  1.00  0.00     0.167 HD
ATOM     60  C   UNL A   1      42.263  30.289  35.316  1.00  0.00     0.074 A 
ATOM     61  C   UNL A   1      42.586  30.827  36.622  1.00  0.00     0.031 C 
ATOM     62  C   UNL A   1      42.947  29.278  34.719  1.00  0.00     0.034 A 
BRANCH  49  63
ATOM     63  C   UNL A   1      40.763  27.712  29.121  1.00  0.00     0.023 A 
ATOM     64  C   UNL A   1      41.705  27.917  28.098  1.00  0.00     0.031 A 
ATOM     65  C   UNL A   1      39.869  26.636  28.984  1.00  0.00     0.131 A 
ATOM     66  C   UNL A   1      41.678  27.113  26.948  1.00  0.00     0.055 A 
ATOM     67  C   UNL A   1      39.903  25.785  27.877  1.00  0.00     0.041 A 
ATOM     68  F   UNL A   1      38.934  26.399  29.917  1.00  0.00    -0.206 F 
ATOM     69  C   UNL A   1      40.802  26.031  26.842  1.00  0.00     0.022 A 
BRANCH  66  70
ATOM     70  S   UNL A   1      42.705  27.594  25.532  1.00  0.00     0.124 S 
ATOM     71  O   UNL A   1      41.971  28.747  25.015  1.00  0.00    -0.237 OA
ATOM     72  O   UNL A   1      43.990  27.881  26.157  1.00  0.00    -0.237 OA
ATOM     73  O   UNL A   1      42.678  26.413  24.672  1.00  0.00    -0.744 OA
ENDBRANCH  66  70
ENDBRANCH  49  63
BRANCH  50  74
ATOM     74  C   UNL A   1      39.601  33.786  37.018  1.00  0.00     0.023 A 
ATOM     75  C   UNL A   1      38.979  33.284  38.171  1.00  0.00     0.031 A 
ATOM     76  C   UNL A   1      39.998  35.136  37.018  1.00  0.00     0.131 A 
ATOM     77  C   UNL A   1      38.728  34.135  39.259  1.00  0.00     0.055 A 
ATOM     78  C   UNL A   1      39.793  35.965  38.122  1.00  0.00     0.041 A 
ATOM     79  F   UNL A   1      40.606  35.666  35.945  1.00  0.00    -0.206 F 
ATOM     80  C   UNL A   1      39.142  35.469  39.247  1.00  0.00     0.022 A 
BRANCH  77  81
ATOM     81  S   UNL A   1      37.778  33.492  40.663  1.00  0.00     0.124 S 
ATOM     82  O   UNL A   1      38.626  32.395  41.118  1.00  0.00    -0.237 OA
ATOM     83  O   UNL A   1      37.709  34.657  41.540  1.00  0.00    -0.237 OA
ATOM     84  O   UNL A   1      36.508  33.093  40.060  1.00  0.00    -0.744 OA
ENDBRANCH  77  81
ENDBRANCH  50  74
BRANCH  62  85
ATOM     85  C   UNL A   1      44.138  28.726  35.461  1.00  0.00     0.023 A 
ATOM     86  C   UNL A   1      44.024  27.639  36.344  1.00  0.00     0.031 A 
ATOM     87  C   UNL A   1      45.407  29.309  35.289  1.00  0.00     0.131 A 
ATOM     88  C   UNL A   1      45.147  27.205  37.067  1.00  0.00     0.055 A 
ATOM     89  C   UNL A   1      46.533  28.832  35.964  1.00  0.00     0.041 A 
ATOM     90  F   UNL A   1      45.574  30.352  34.460  1.00  0.00    -0.206 F 
ATOM     91  C   UNL A   1      46.403  27.783  36.869  1.00  0.00     0.022 A 
BRANCH  88  92
ATOM     92  S   UNL A   1      44.923  25.932  38.340  1.00  0.00     0.124 S 
ATOM     93  O   UNL A   1      44.148  26.646  39.350  1.00  0.00    -0.237 OA
ATOM     94  O   UNL A   1      44.213  24.885  37.614  1.00  0.00    -0.237 OA
ATOM     95  O   UNL A   1      46.291  25.595  38.731  1.00  0.00    -0.744 OA
ENDBRANCH  88  92
ENDBRANCH  62  85
ENDBRANCH  36  37
ENDBRANCH  28  31
ENDBRANCH  26  27
ENDBRANCH  25  26
ENDBRANCH   1  25
TORSDOF 19
ENDMDL
MODEL 2
REMARK VINA RESULT:     -10.8      5.539     11.727
REMARK SMILES CCN(CC(=O)NC)C(=O)c1ccncc1/C=C/C(=O)NCCCNC(=O)c1ccc(-c2c3nc(c(-c4cc(S(=O)(=O)[O-])ccc4F)c4ccc([nH]4)c(-c4cc(S(=O)(=O)[O-])ccc4F)c4nc(c(-c5cc(S(=O)(=O)[O-])ccc5F)c5ccc2[nH]5)C=C4)C=C3)cc1
REMARK SMILES IDX 22 1 21 2 19 3 20 4 18 6 17 7 16 8 11 9 12 10 13 11 15 12
REMARK SMILES IDX 14 13 9 14 10 15 3 16 2 17 1 18 4 19 5 20 6 21 7 22 8 23
REMARK SMILES IDX 23 25 24 26 25 27 26 28 27 30 28 31 29 32 90 33 30 34 89 35
REMARK SMILES IDX 31 36 32 37 33 38 83 39 34 40 88 41 82 42 84 43 35 44 87 45
REMARK SMILES IDX 81 46 80 47 36 49 68 50 48 51 67 52 49 53 52 54 66 55 85 56
REMARK SMILES IDX 50 57 51 58 65 60 86 61 53 62 37 63 38 64 46 65 39 66 45 67
REMARK SMILES IDX 47 68 44 69 40 70 41 71 42 72 43 73 69 74 70 75 78 76 71 77
REMARK SMILES IDX 77 78 79 79 76 80 72 81 73 82 74 83 75 84 54 85 55 86 63 87
REMARK SMILES IDX 56 88 62 89 64 90 61 91 57 92 58 93 59 94 60 95
REMARK H PARENT 21 5 7 24 25 29 84 48 52 59
REMARK Flexibility Score: inf
ROOT
ATOM      1  C   UNL A   1      37.644  21.003  24.857  1.00  0.00     0.118 C 
ENDROOT
BRANCH   1   2
ATOM      2  N   UNL A   1      38.307  22.203  25.330  1.00  0.00    -0.352 N 
ATOM      3  C   UNL A   1      37.792  23.316  25.911  1.00  0.00     0.244 C 
ATOM      4  O   UNL A   1      38.542  24.201  26.316  1.00  0.00    -0.270 OA
ATOM      5  H   UNL A   1      39.285  22.212  25.211  1.00  0.00     0.163 HD
BRANCH   3   6
ATOM      6  C   UNL A   1      36.342  23.424  26.179  1.00  0.00     0.072 C 
ATOM      7  C   UNL A   1      35.460  24.186  25.511  1.00  0.00     0.016 C 
BRANCH   7   8
ATOM      8  C   UNL A   1      34.029  24.189  25.868  1.00  0.00     0.006 A 
ATOM      9  C   UNL A   1      33.094  25.111  25.372  1.00  0.00     0.050 A 
ATOM     10  C   UNL A   1      31.732  24.935  25.635  1.00  0.00     0.034 A 
ATOM     11  C   UNL A   1      31.351  23.923  26.495  1.00  0.00     0.112 A 
ATOM     12  C   UNL A   1      33.526  23.222  26.741  1.00  0.00     0.119 A 
ATOM     13  N   UNL A   1      32.221  23.072  27.069  1.00  0.00    -0.264 NA
BRANCH   9  14
ATOM     14  C   UNL A   1      33.482  26.236  24.485  1.00  0.00     0.255 C 
ATOM     15  O   UNL A   1      33.767  25.962  23.322  1.00  0.00    -0.269 OA
BRANCH  14  16
ATOM     16  N   UNL A   1      33.504  27.544  24.996  1.00  0.00    -0.330 N 
BRANCH  16  17
ATOM     17  C   UNL A   1      33.342  28.658  24.056  1.00  0.00     0.117 C 
ATOM     18  C   UNL A   1      31.896  28.925  23.683  1.00  0.00     0.027 C 
ENDBRANCH  16  17
BRANCH  16  19
ATOM     19  C   UNL A   1      33.854  27.886  26.386  1.00  0.00     0.219 C 
BRANCH  19  20
ATOM     20  C   UNL A   1      32.761  28.519  27.269  1.00  0.00     0.239 C 
ATOM     21  O   UNL A   1      31.868  27.819  27.757  1.00  0.00    -0.273 OA
ATOM     22  N   UNL A   1      32.781  29.830  27.638  1.00  0.00    -0.358 N 
ATOM     23  C   UNL A   1      33.776  30.840  27.393  1.00  0.00     0.142 C 
ATOM     24  H   UNL A   1      31.996  30.132  28.151  1.00  0.00     0.163 HD
ENDBRANCH  19  20
ENDBRANCH  16  19
ENDBRANCH  14  16
ENDBRANCH   9  14
ENDBRANCH   7   8
ENDBRANCH   3   6
ENDBRANCH   1   2
BRANCH   1  25
ATOM     25  C   UNL A   1      38.493  19.770  25.133  1.00  0.00     0.042 C 
BRANCH  25  26
ATOM     26  C   UNL A   1      39.485  19.950  26.277  1.00  0.00     0.118 C 
BRANCH  26  27
ATOM     27  N   UNL A   1      40.670  19.125  26.088  1.00  0.00    -0.352 N 
ATOM     28  C   UNL A   1      41.985  19.485  25.920  1.00  0.00     0.251 C 
ATOM     29  H   UNL A   1      40.501  18.155  26.079  1.00  0.00     0.163 HD
ATOM     30  O   UNL A   1      42.778  18.652  25.488  1.00  0.00    -0.269 OA
BRANCH  28  31
ATOM     31  C   UNL A   1      42.448  20.855  26.241  1.00  0.00     0.039 A 
ATOM     32  C   UNL A   1      42.663  21.198  27.580  1.00  0.00     0.014 A 
ATOM     33  C   UNL A   1      42.614  21.820  25.245  1.00  0.00     0.014 A 
ATOM     34  C   UNL A   1      43.091  22.487  27.912  1.00  0.00     0.010 A 
ATOM     35  C   UNL A   1      43.119  23.078  25.568  1.00  0.00     0.010 A 
ATOM     36  C   UNL A   1      43.353  23.430  26.906  1.00  0.00    -0.014 A 
BRANCH  36  37
ATOM     37  C   UNL A   1      43.855  24.791  27.230  1.00  0.00     0.031 A 
ATOM     38  C   UNL A   1      42.914  25.831  27.778  1.00  0.00     0.074 A 
ATOM     39  C   UNL A   1      45.139  25.109  26.971  1.00  0.00     0.049 A 
ATOM     40  N   UNL A   1      43.132  27.096  28.030  1.00  0.00    -0.248 NA
ATOM     41  C   UNL A   1      41.536  25.393  28.049  1.00  0.00     0.031 C 
ATOM     42  C   UNL A   1      46.137  24.197  26.408  1.00  0.00     0.029 A 
ATOM     43  N   UNL A   1      45.823  26.287  27.133  1.00  0.00    -0.354 N 
ATOM     44  C   UNL A   1      41.916  27.611  28.471  1.00  0.00     0.074 A 
ATOM     45  C   UNL A   1      40.954  26.531  28.393  1.00  0.00     0.031 C 
ATOM     46  C   UNL A   1      47.308  24.842  26.294  1.00  0.00     0.029 A 
ATOM     47  C   UNL A   1      47.136  26.226  26.726  1.00  0.00     0.049 A 
ATOM     48  H   UNL A   1      45.412  27.101  27.505  1.00  0.00     0.167 HD
ATOM     49  C   UNL A   1      41.635  28.860  28.920  1.00  0.00     0.034 A 
ATOM     50  C   UNL A   1      48.089  27.179  26.690  1.00  0.00     0.034 A 
ATOM     51  C   UNL A   1      42.611  29.920  29.004  1.00  0.00     0.049 A 
ATOM     52  C   UNL A   1      47.747  28.566  27.173  1.00  0.00     0.074 A 
ATOM     53  C   UNL A   1      42.450  31.206  29.489  1.00  0.00     0.029 A 
ATOM     54  N   UNL A   1      43.933  29.818  28.587  1.00  0.00    -0.354 N 
ATOM     55  N   UNL A   1      46.603  29.025  27.625  1.00  0.00    -0.248 NA
ATOM     56  C   UNL A   1      48.829  29.559  27.149  1.00  0.00     0.031 C 
ATOM     57  C   UNL A   1      43.651  31.899  29.306  1.00  0.00     0.029 A 
ATOM     58  C   UNL A   1      44.588  31.026  28.778  1.00  0.00     0.049 A 
ATOM     59  H   UNL A   1      44.345  29.006  28.211  1.00  0.00     0.167 HD
ATOM     60  C   UNL A   1      46.838  30.353  27.969  1.00  0.00     0.074 A 
ATOM     61  C   UNL A   1      48.235  30.614  27.686  1.00  0.00     0.031 C 
ATOM     62  C   UNL A   1      45.979  31.274  28.480  1.00  0.00     0.034 A 
BRANCH  49  63
ATOM     63  C   UNL A   1      40.208  29.148  29.328  1.00  0.00     0.023 A 
ATOM     64  C   UNL A   1      39.805  29.120  30.675  1.00  0.00     0.031 A 
ATOM     65  C   UNL A   1      39.230  29.425  28.357  1.00  0.00     0.131 A 
ATOM     66  C   UNL A   1      38.451  29.283  31.007  1.00  0.00     0.055 A 
ATOM     67  C   UNL A   1      37.898  29.671  28.700  1.00  0.00     0.041 A 
ATOM     68  F   UNL A   1      39.546  29.445  27.053  1.00  0.00    -0.206 F 
ATOM     69  C   UNL A   1      37.499  29.585  30.031  1.00  0.00     0.022 A 
BRANCH  66  70
ATOM     70  S   UNL A   1      37.932  28.948  32.712  1.00  0.00     0.124 S 
ATOM     71  O   UNL A   1      38.969  29.640  33.476  1.00  0.00    -0.237 OA
ATOM     72  O   UNL A   1      36.600  29.540  32.759  1.00  0.00    -0.237 OA
ATOM     73  O   UNL A   1      37.972  27.490  32.802  1.00  0.00    -0.744 OA
ENDBRANCH  66  70
ENDBRANCH  49  63
BRANCH  50  74
ATOM     74  C   UNL A   1      49.451  26.866  26.173  1.00  0.00     0.023 A 
ATOM     75  C   UNL A   1      49.868  27.325  24.914  1.00  0.00     0.031 A 
ATOM     76  C   UNL A   1      50.344  26.071  26.913  1.00  0.00     0.131 A 
ATOM     77  C   UNL A   1      51.123  26.949  24.411  1.00  0.00     0.055 A 
ATOM     78  C   UNL A   1      51.612  25.742  26.431  1.00  0.00     0.041 A 
ATOM     79  F   UNL A   1      50.000  25.612  28.127  1.00  0.00    -0.206 F 
ATOM     80  C   UNL A   1      52.003  26.170  25.167  1.00  0.00     0.022 A 
BRANCH  77  81
ATOM     81  S   UNL A   1      51.559  27.426  22.717  1.00  0.00     0.124 S 
ATOM     82  O   UNL A   1      51.649  28.878  22.832  1.00  0.00    -0.237 OA
ATOM     83  O   UNL A   1      52.819  26.718  22.519  1.00  0.00    -0.237 OA
ATOM     84  O   UNL A   1      50.437  26.929  21.925  1.00  0.00    -0.744 OA
ENDBRANCH  77  81
ENDBRANCH  50  74
BRANCH  62  85
ATOM     85  C   UNL A   1      46.548  32.633  28.805  1.00  0.00     0.023 A 
ATOM     86  C   UNL A   1      46.548  33.680  27.868  1.00  0.00     0.031 A 
ATOM     87  C   UNL A   1      47.109  32.877  30.071  1.00  0.00     0.131 A 
ATOM     88  C   UNL A   1      47.152  34.906  28.191  1.00  0.00     0.055 A 
ATOM     89  C   UNL A   1      47.652  34.118  30.408  1.00  0.00     0.041 A 
ATOM     90  F   UNL A   1      47.138  31.912  31.004  1.00  0.00    -0.206 F 
ATOM     91  C   UNL A   1      47.687  35.137  29.460  1.00  0.00     0.022 A 
BRANCH  88  92
ATOM     92  S   UNL A   1      47.310  36.166  26.895  1.00  0.00     0.124 S 
ATOM     93  O   UNL A   1      48.662  36.666  27.122  1.00  0.00    -0.237 OA
ATOM     94  O   UNL A   1      47.114  35.388  25.677  1.00  0.00    -0.237 OA
ATOM     95  O   UNL A   1      46.238  37.111  27.205  1.00  0.00    -0.744 OA
ENDBRANCH  88  92
ENDBRANCH  62  85
ENDBRANCH  36  37
ENDBRANCH  28  31
ENDBRANCH  26  27
ENDBRANCH  25  26
ENDBRANCH   1  25
TORSDOF 19
ENDMDL
MODEL 3
REMARK VINA RESULT:     -10.7      5.681     11.311
REMARK SMILES CCN(CC(=O)NC)C(=O)c1ccncc1/C=C/C(=O)NCCCNC(=O)c1ccc(-c2c3nc(c(-c4cc(S(=O)(=O)[O-])ccc4F)c4ccc([nH]4)c(-c4cc(S(=O)(=O)[O-])ccc4F)c4nc(c(-c5cc(S(=O)(=O)[O-])ccc5F)c5ccc2[nH]5)C=C4)C=C3)cc1
REMARK SMILES IDX 22 1 21 2 19 3 20 4 18 6 17 7 16 8 11 9 12 10 13 11 15 12
REMARK SMILES IDX 14 13 9 14 10 15 3 16 2 17 1 18 4 19 5 20 6 21 7 22 8 23
REMARK SMILES IDX 23 25 24 26 25 27 26 28 27 30 28 31 29 32 90 33 30 34 89 35
REMARK SMILES IDX 31 36 32 37 33 38 83 39 34 40 88 41 82 42 84 43 35 44 87 45
REMARK SMILES IDX 81 46 80 47 36 49 68 50 48 51 67 52 49 53 52 54 66 55 85 56
REMARK SMILES IDX 50 57 51 58 65 60 86 61 53 62 37 63 38 64 46 65 39 66 45 67
REMARK SMILES IDX 47 68 44 69 40 70 41 71 42 72 43 73 69 74 70 75 78 76 71 77
REMARK SMILES IDX 77 78 79 79 76 80 72 81 73 82 74 83 75 84 54 85 55 86 63 87
REMARK SMILES IDX 56 88 62 89 64 90 61 91 57 92 58 93 59 94 60 95
REMARK H PARENT 21 5 7 24 25 29 84 48 52 59
REMARK Flexibility Score: inf
ROOT
ATOM      1  C   UNL A   1      37.520  21.211  24.729  1.00  0.00     0.118 C 
ENDROOT
BRANCH   1   2
ATOM      2  N   UNL A   1      38.138  22.401  25.283  1.00  0.00    -0.352 N 
ATOM      3  C   UNL A   1      37.571  23.517  25.808  1.00  0.00     0.244 C 
ATOM      4  O   UNL A   1      38.279  24.391  26.303  1.00  0.00    -0.270 OA
ATOM      5  H   UNL A   1      39.123  22.399  25.279  1.00  0.00     0.163 HD
BRANCH   3   6
ATOM      6  C   UNL A   1      36.101  23.641  25.908  1.00  0.00     0.072 C 
ATOM      7  C   UNL A   1      35.280  24.175  24.989  1.00  0.00     0.016 C 
BRANCH   7   8
ATOM      8  C   UNL A   1      33.822  24.221  25.203  1.00  0.00     0.006 A 
ATOM      9  C   UNL A   1      32.901  23.383  24.553  1.00  0.00     0.050 A 
ATOM     10  C   UNL A   1      31.559  23.385  24.942  1.00  0.00     0.034 A 
ATOM     11  C   UNL A   1      31.142  24.316  25.874  1.00  0.00     0.112 A 
ATOM     12  C   UNL A   1      33.278  25.131  26.112  1.00  0.00     0.119 A 
ATOM     13  N   UNL A   1      31.970  25.203  26.455  1.00  0.00    -0.264 NA
BRANCH   9  14
ATOM     14  C   UNL A   1      33.314  22.407  23.514  1.00  0.00     0.255 C 
ATOM     15  O   UNL A   1      33.730  22.859  22.450  1.00  0.00    -0.269 OA
BRANCH  14  16
ATOM     16  N   UNL A   1      33.219  21.031  23.781  1.00  0.00    -0.330 N 
BRANCH  16  17
ATOM     17  C   UNL A   1      32.097  20.288  23.200  1.00  0.00     0.117 C 
ATOM     18  C   UNL A   1      32.522  19.021  22.482  1.00  0.00     0.027 C 
ENDBRANCH  16  17
BRANCH  16  19
ATOM     19  C   UNL A   1      34.070  20.313  24.747  1.00  0.00     0.219 C 
BRANCH  19  20
ATOM     20  C   UNL A   1      33.525  20.110  26.174  1.00  0.00     0.239 C 
ATOM     21  O   UNL A   1      33.494  21.053  26.972  1.00  0.00    -0.273 OA
ATOM     22  N   UNL A   1      32.964  18.940  26.588  1.00  0.00    -0.358 N 
ATOM     23  C   UNL A   1      32.685  17.740  25.845  1.00  0.00     0.142 C 
ATOM     24  H   UNL A   1      32.710  18.912  27.540  1.00  0.00     0.163 HD
ENDBRANCH  19  20
ENDBRANCH  16  19
ENDBRANCH  14  16
ENDBRANCH   9  14
ENDBRANCH   7   8
ENDBRANCH   3   6
ENDBRANCH   1   2
BRANCH   1  25
ATOM     25  C   UNL A   1      38.393  19.986  24.969  1.00  0.00     0.042 C 
BRANCH  25  26
ATOM     26  C   UNL A   1      39.247  20.077  26.228  1.00  0.00     0.118 C 
BRANCH  26  27
ATOM     27  N   UNL A   1      40.430  19.232  26.129  1.00  0.00    -0.352 N 
ATOM     28  C   UNL A   1      41.757  19.571  26.025  1.00  0.00     0.251 C 
ATOM     29  H   UNL A   1      40.249  18.265  26.139  1.00  0.00     0.163 HD
ATOM     30  O   UNL A   1      42.561  18.717  25.663  1.00  0.00    -0.269 OA
BRANCH  28  31
ATOM     31  C   UNL A   1      42.220  20.945  26.332  1.00  0.00     0.039 A 
ATOM     32  C   UNL A   1      42.531  21.271  27.656  1.00  0.00     0.014 A 
ATOM     33  C   UNL A   1      42.293  21.928  25.342  1.00  0.00     0.014 A 
ATOM     34  C   UNL A   1      42.963  22.563  27.974  1.00  0.00     0.010 A 
ATOM     35  C   UNL A   1      42.799  23.189  25.646  1.00  0.00     0.010 A 
ATOM     36  C   UNL A   1      43.130  23.525  26.967  1.00  0.00    -0.014 A 
BRANCH  36  37
ATOM     37  C   UNL A   1      43.632  24.890  27.274  1.00  0.00     0.031 A 
ATOM     38  C   UNL A   1      42.689  25.941  27.799  1.00  0.00     0.074 A 
ATOM     39  C   UNL A   1      44.919  25.202  27.019  1.00  0.00     0.049 A 
ATOM     40  N   UNL A   1      42.908  27.209  28.032  1.00  0.00    -0.248 NA
ATOM     41  C   UNL A   1      41.308  25.510  28.065  1.00  0.00     0.031 C 
ATOM     42  C   UNL A   1      45.919  24.279  26.478  1.00  0.00     0.029 A 
ATOM     43  N   UNL A   1      45.604  26.381  27.168  1.00  0.00    -0.354 N 
ATOM     44  C   UNL A   1      41.690  27.733  28.456  1.00  0.00     0.074 A 
ATOM     45  C   UNL A   1      40.726  26.655  28.388  1.00  0.00     0.031 C 
ATOM     46  C   UNL A   1      47.093  24.921  26.363  1.00  0.00     0.029 A 
ATOM     47  C   UNL A   1      46.920  26.311  26.772  1.00  0.00     0.049 A 
ATOM     48  H   UNL A   1      45.192  27.201  27.525  1.00  0.00     0.167 HD
ATOM     49  C   UNL A   1      41.408  28.990  28.884  1.00  0.00     0.034 A 
ATOM     50  C   UNL A   1      47.875  27.262  26.729  1.00  0.00     0.034 A 
ATOM     51  C   UNL A   1      42.386  30.049  28.959  1.00  0.00     0.049 A 
ATOM     52  C   UNL A   1      47.532  28.657  27.187  1.00  0.00     0.074 A 
ATOM     53  C   UNL A   1      42.224  31.342  29.423  1.00  0.00     0.029 A 
ATOM     54  N   UNL A   1      43.711  29.938  28.553  1.00  0.00    -0.354 N 
ATOM     55  N   UNL A   1      46.386  29.125  27.624  1.00  0.00    -0.248 NA
ATOM     56  C   UNL A   1      48.616  29.647  27.156  1.00  0.00     0.031 C 
ATOM     57  C   UNL A   1      43.427  32.030  29.237  1.00  0.00     0.029 A 
ATOM     58  C   UNL A   1      44.367  31.147  28.730  1.00  0.00     0.049 A 
ATOM     59  H   UNL A   1      44.123  29.119  28.193  1.00  0.00     0.167 HD
ATOM     60  C   UNL A   1      46.621  30.457  27.949  1.00  0.00     0.074 A 
ATOM     61  C   UNL A   1      48.021  30.712  27.672  1.00  0.00     0.031 C 
ATOM     62  C   UNL A   1      45.760  31.388  28.439  1.00  0.00     0.034 A 
BRANCH  49  63
ATOM     63  C   UNL A   1      39.978  29.286  29.277  1.00  0.00     0.023 A 
ATOM     64  C   UNL A   1      39.583  29.358  30.624  1.00  0.00     0.031 A 
ATOM     65  C   UNL A   1      38.992  29.472  28.293  1.00  0.00     0.131 A 
ATOM     66  C   UNL A   1      38.228  29.526  30.950  1.00  0.00     0.055 A 
ATOM     67  C   UNL A   1      37.658  29.723  28.623  1.00  0.00     0.041 A 
ATOM     68  F   UNL A   1      39.302  29.395  26.989  1.00  0.00    -0.206 F 
ATOM     69  C   UNL A   1      37.266  29.736  29.960  1.00  0.00     0.022 A 
BRANCH  66  70
ATOM     70  S   UNL A   1      37.722  29.317  32.679  1.00  0.00     0.124 S 
ATOM     71  O   UNL A   1      38.831  29.954  33.388  1.00  0.00    -0.237 OA
ATOM     72  O   UNL A   1      36.447  30.022  32.722  1.00  0.00    -0.237 OA
ATOM     73  O   UNL A   1      37.641  27.867  32.840  1.00  0.00    -0.744 OA
ENDBRANCH  66  70
ENDBRANCH  49  63
BRANCH  50  74
ATOM     74  C   UNL A   1      49.240  26.938  26.226  1.00  0.00     0.023 A 
ATOM     75  C   UNL A   1      50.310  26.746  27.115  1.00  0.00     0.031 A 
ATOM     76  C   UNL A   1      49.505  26.850  24.848  1.00  0.00     0.131 A 
ATOM     77  C   UNL A   1      51.603  26.524  26.617  1.00  0.00     0.055 A 
ATOM     78  C   UNL A   1      50.784  26.577  24.358  1.00  0.00     0.041 A 
ATOM     79  F   UNL A   1      48.517  27.015  23.954  1.00  0.00    -0.206 F 
ATOM     80  C   UNL A   1      51.845  26.426  25.245  1.00  0.00     0.022 A 
BRANCH  77  81
ATOM     81  S   UNL A   1      52.983  26.445  27.790  1.00  0.00     0.124 S 
ATOM     82  O   UNL A   1      52.333  25.905  28.979  1.00  0.00    -0.237 OA
ATOM     83  O   UNL A   1      53.912  25.553  27.104  1.00  0.00    -0.237 OA
ATOM     84  O   UNL A   1      53.421  27.835  27.893  1.00  0.00    -0.744 OA
ENDBRANCH  77  81
ENDBRANCH  50  74
BRANCH  62  85
ATOM     85  C   UNL A   1      46.329  32.751  28.747  1.00  0.00     0.023 A 
ATOM     86  C   UNL A   1      46.316  33.791  27.802  1.00  0.00     0.031 A 
ATOM     87  C   UNL A   1      46.905  33.006  30.005  1.00  0.00     0.131 A 
ATOM     88  C   UNL A   1      46.920  35.021  28.109  1.00  0.00     0.055 A 
ATOM     89  C   UNL A   1      47.449  34.251  30.326  1.00  0.00     0.041 A 
ATOM     90  F   UNL A   1      46.948  32.048  30.945  1.00  0.00    -0.206 F 
ATOM     91  C   UNL A   1      47.470  35.262  29.370  1.00  0.00     0.022 A 
BRANCH  88  92
ATOM     92  S   UNL A   1      47.060  36.271  26.802  1.00  0.00     0.124 S 
ATOM     93  O   UNL A   1      46.179  37.325  27.296  1.00  0.00    -0.237 OA
ATOM     94  O   UNL A   1      48.486  36.576  26.812  1.00  0.00    -0.237 OA
ATOM     95  O   UNL A   1      46.584  35.573  25.609  1.00  0.00    -0.744 OA
ENDBRANCH  88  92
ENDBRANCH  62  85
ENDBRANCH  36  37
ENDBRANCH  28  31
ENDBRANCH  26  27
ENDBRANCH  25  26
ENDBRANCH   1  25
TORSDOF 19
ENDMDL
