MODEL 1
REMARK VINA RESULT:     -13.1      0.000      0.000
REMARK SMILES Cc1c(CC(=O)N[C@@H](C)C(=O)NCCCNC(=O)c2ccc(-c3c4nc(c(-c5cc(S(=O)(=O)[O-])ccc5F)c5ccc([nH]5)c(-c5cc(S(=O)(=O)[O-])ccc5F)c5nc(c(-c6cc(S(=O)(=O)[O-])ccc6F)c6ccc3[nH]6)C=C5)C=C4)cc2)c(=O)oc2cc3oc4c(c3cc12)CCCC4
REMARK SMILES IDX 14 1 13 2 12 3 10 4 11 5 8 7 9 8 7 9 5 10 6 11 4 13 3 14
REMARK SMILES IDX 1 15 2 16 93 17 82 18 85 19 92 20 83 21 84 22 86 23 91 24
REMARK SMILES IDX 87 25 90 26 88 27 89 28 94 29 97 30 95 31 96 32 15 33 16 34
REMARK SMILES IDX 17 35 18 37 19 38 20 39 81 40 21 41 80 42 22 43 23 44 24 45
REMARK SMILES IDX 74 46 25 47 79 48 73 49 75 50 26 51 78 52 72 53 71 54 27 56
REMARK SMILES IDX 59 57 39 58 58 59 40 60 43 61 57 62 76 63 41 64 42 65 56 67
REMARK SMILES IDX 77 68 44 69 28 70 29 71 37 72 30 73 36 74 38 75 35 76 31 77
REMARK SMILES IDX 32 78 33 79 34 80 60 81 61 82 69 83 62 84 68 85 70 86 67 87
REMARK SMILES IDX 63 88 64 89 65 90 66 91 45 92 46 93 54 94 47 95 53 96 55 97
REMARK SMILES IDX 52 98 48 99 49 100 50 101 51 102
REMARK H PARENT 12 6 7 12 16 36 75 55 43 66
REMARK Flexibility Score: inf
ROOT
ATOM      1  C   UNL A   1      34.589  29.537  26.832  1.00  0.00     0.042 C 
ENDROOT
BRANCH   1   2
ATOM      2  C   UNL A   1      33.407  28.620  26.541  1.00  0.00     0.117 C 
BRANCH   2   3
ATOM      3  N   UNL A   1      32.317  29.346  25.904  1.00  0.00    -0.354 N 
ATOM      4  C   UNL A   1      31.439  29.007  24.926  1.00  0.00     0.242 C 
ATOM      5  O   UNL A   1      30.692  29.896  24.505  1.00  0.00    -0.273 OA
ATOM      6  H   UNL A   1      32.192  30.258  26.251  1.00  0.00     0.163 HD
BRANCH   4   7
ATOM      7  C   UNL A   1      31.305  27.568  24.415  1.00  0.00     0.168 C 
ATOM      8  C   UNL A   1      30.435  27.518  23.163  1.00  0.00     0.041 C 
BRANCH   7   9
ATOM      9  N   UNL A   1      30.873  26.648  25.462  1.00  0.00    -0.344 N 
ATOM     10  C   UNL A   1      31.570  25.623  26.035  1.00  0.00     0.225 C 
ATOM     11  O   UNL A   1      31.105  25.089  27.043  1.00  0.00    -0.275 OA
ATOM     12  H   UNL A   1      29.958  26.785  25.800  1.00  0.00     0.164 HD
BRANCH  10  13
ATOM     13  C   UNL A   1      32.886  25.138  25.433  1.00  0.00     0.143 C 
BRANCH  13  14
ATOM     14  C   UNL A   1      32.704  23.850  24.663  1.00  0.00     0.051 A 
ATOM     15  C   UNL A   1      32.882  22.372  26.701  1.00  0.00     0.046 C 
ATOM     16  C   UNL A   1      32.589  22.637  25.241  1.00  0.00    -0.029 A 
ATOM     17  C   UNL A   1      32.212  21.486  24.405  1.00  0.00     0.022 A 
ATOM     18  C   UNL A   1      32.603  24.020  23.187  1.00  0.00     0.340 A 
ATOM     19  C   UNL A   1      32.175  21.633  23.016  1.00  0.00     0.142 A 
ATOM     20  C   UNL A   1      31.999  20.221  24.960  1.00  0.00     0.024 A 
ATOM     21  O   UNL A   1      32.766  25.111  22.648  1.00  0.00    -0.246 OA
ATOM     22  O   UNL A   1      32.324  22.900  22.427  1.00  0.00    -0.422 OA
ATOM     23  C   UNL A   1      32.097  20.558  22.125  1.00  0.00     0.095 A 
ATOM     24  C   UNL A   1      32.120  19.116  24.108  1.00  0.00     0.025 A 
ATOM     25  C   UNL A   1      32.220  19.321  22.735  1.00  0.00     0.138 A 
ATOM     26  C   UNL A   1      32.486  17.771  24.342  1.00  0.00     0.001 A 
ATOM     27  O   UNL A   1      32.666  18.185  22.119  1.00  0.00    -0.461 OA
ATOM     28  C   UNL A   1      32.992  17.344  23.131  1.00  0.00     0.108 A 
ATOM     29  C   UNL A   1      32.950  17.132  25.601  1.00  0.00     0.040 C 
ATOM     30  C   UNL A   1      34.244  16.545  23.048  1.00  0.00     0.076 C 
ATOM     31  C   UNL A   1      34.496  17.098  25.597  1.00  0.00     0.005 C 
ATOM     32  C   UNL A   1      35.155  17.089  24.185  1.00  0.00     0.008 C 
ENDBRANCH  13  14
ENDBRANCH  10  13
ENDBRANCH   7   9
ENDBRANCH   4   7
ENDBRANCH   2   3
ENDBRANCH   1   2
BRANCH   1  33
ATOM     33  C   UNL A   1      34.336  30.487  28.002  1.00  0.00     0.118 C 
BRANCH  33  34
ATOM     34  N   UNL A   1      34.638  31.880  27.711  1.00  0.00    -0.352 N 
ATOM     35  C   UNL A   1      35.779  32.604  27.992  1.00  0.00     0.251 C 
ATOM     36  H   UNL A   1      33.926  32.377  27.247  1.00  0.00     0.163 HD
ATOM     37  O   UNL A   1      35.840  33.790  27.717  1.00  0.00    -0.269 OA
BRANCH  35  38
ATOM     38  C   UNL A   1      36.894  31.921  28.676  1.00  0.00     0.039 A 
ATOM     39  C   UNL A   1      37.712  31.039  27.967  1.00  0.00     0.014 A 
ATOM     40  C   UNL A   1      37.058  32.105  30.052  1.00  0.00     0.014 A 
ATOM     41  C   UNL A   1      38.579  30.211  28.659  1.00  0.00     0.010 A 
ATOM     42  C   UNL A   1      37.975  31.313  30.740  1.00  0.00     0.010 A 
ATOM     43  C   UNL A   1      38.695  30.331  30.049  1.00  0.00    -0.014 A 
BRANCH  43  44
ATOM     44  C   UNL A   1      39.633  29.413  30.699  1.00  0.00     0.031 A 
ATOM     45  C   UNL A   1      39.617  28.027  30.155  1.00  0.00     0.074 A 
ATOM     46  C   UNL A   1      40.754  29.864  31.296  1.00  0.00     0.049 A 
ATOM     47  N   UNL A   1      40.257  27.689  29.075  1.00  0.00    -0.248 NA
ATOM     48  C   UNL A   1      38.675  27.019  30.635  1.00  0.00     0.031 C 
ATOM     49  C   UNL A   1      41.543  31.006  30.817  1.00  0.00     0.029 A 
ATOM     50  N   UNL A   1      41.542  29.282  32.256  1.00  0.00    -0.354 N 
ATOM     51  C   UNL A   1      39.778  26.448  28.696  1.00  0.00     0.074 A 
ATOM     52  C   UNL A   1      38.801  26.072  29.695  1.00  0.00     0.031 C 
ATOM     53  C   UNL A   1      42.781  30.923  31.345  1.00  0.00     0.029 A 
ATOM     54  C   UNL A   1      42.817  29.837  32.317  1.00  0.00     0.049 A 
ATOM     55  H   UNL A   1      41.240  28.549  32.840  1.00  0.00     0.167 HD
ATOM     56  C   UNL A   1      40.201  25.791  27.586  1.00  0.00     0.034 A 
ATOM     57  C   UNL A   1      43.929  29.155  32.702  1.00  0.00     0.034 A 
ATOM     58  C   UNL A   1      41.256  26.424  26.853  1.00  0.00     0.049 A 
ATOM     59  C   UNL A   1      44.147  28.272  31.491  1.00  0.00     0.074 A 
ATOM     60  C   UNL A   1      41.382  27.225  25.740  1.00  0.00     0.029 A 
ATOM     61  N   UNL A   1      42.536  26.303  27.342  1.00  0.00    -0.354 N 
ATOM     62  N   UNL A   1      44.699  28.635  30.359  1.00  0.00    -0.248 NA
ATOM     63  C   UNL A   1      43.388  27.022  31.419  1.00  0.00     0.031 C 
ATOM     64  C   UNL A   1      42.647  27.879  25.879  1.00  0.00     0.029 A 
ATOM     65  C   UNL A   1      43.185  27.490  27.107  1.00  0.00     0.049 A 
ATOM     66  H   UNL A   1      42.918  25.509  27.781  1.00  0.00     0.167 HD
ATOM     67  C   UNL A   1      44.116  27.818  29.381  1.00  0.00     0.074 A 
ATOM     68  C   UNL A   1      43.341  26.835  30.109  1.00  0.00     0.031 C 
ATOM     69  C   UNL A   1      44.131  28.079  28.039  1.00  0.00     0.034 A 
BRANCH  56  70
ATOM     70  C   UNL A   1      39.766  24.422  27.239  1.00  0.00     0.023 A 
ATOM     71  C   UNL A   1      38.591  24.157  26.521  1.00  0.00     0.031 A 
ATOM     72  C   UNL A   1      40.634  23.359  27.541  1.00  0.00     0.131 A 
ATOM     73  C   UNL A   1      38.332  22.841  26.106  1.00  0.00     0.055 A 
ATOM     74  C   UNL A   1      40.375  22.059  27.121  1.00  0.00     0.041 A 
ATOM     75  F   UNL A   1      41.765  23.586  28.232  1.00  0.00    -0.206 F 
ATOM     76  C   UNL A   1      39.220  21.796  26.393  1.00  0.00     0.022 A 
BRANCH  73  77
ATOM     77  S   UNL A   1      36.844  22.423  25.155  1.00  0.00     0.124 S 
ATOM     78  O   UNL A   1      36.406  21.186  25.796  1.00  0.00    -0.237 OA
ATOM     79  O   UNL A   1      35.995  23.587  25.399  1.00  0.00    -0.237 OA
ATOM     80  O   UNL A   1      37.330  22.285  23.787  1.00  0.00    -0.744 OA
ENDBRANCH  73  77
ENDBRANCH  56  70
BRANCH  57  81
ATOM     81  C   UNL A   1      43.834  28.674  34.123  1.00  0.00     0.023 A 
ATOM     82  C   UNL A   1      43.221  27.488  34.545  1.00  0.00     0.031 A 
ATOM     83  C   UNL A   1      44.310  29.537  35.138  1.00  0.00     0.131 A 
ATOM     84  C   UNL A   1      42.933  27.288  35.907  1.00  0.00     0.055 A 
ATOM     85  C   UNL A   1      44.081  29.304  36.498  1.00  0.00     0.041 A 
ATOM     86  F   UNL A   1      44.987  30.653  34.817  1.00  0.00    -0.206 F 
ATOM     87  C   UNL A   1      43.356  28.188  36.887  1.00  0.00     0.022 A 
BRANCH  84  88
ATOM     88  S   UNL A   1      41.905  25.886  36.429  1.00  0.00     0.124 S 
ATOM     89  O   UNL A   1      40.881  25.845  35.389  1.00  0.00    -0.237 OA
ATOM     90  O   UNL A   1      42.876  24.796  36.408  1.00  0.00    -0.237 OA
ATOM     91  O   UNL A   1      41.439  26.288  37.753  1.00  0.00    -0.744 OA
ENDBRANCH  84  88
ENDBRANCH  57  81
BRANCH  69  92
ATOM     92  C   UNL A   1      45.028  29.182  27.563  1.00  0.00     0.023 A 
ATOM     93  C   UNL A   1      44.524  30.476  27.328  1.00  0.00     0.031 A 
ATOM     94  C   UNL A   1      46.353  28.909  27.192  1.00  0.00     0.131 A 
ATOM     95  C   UNL A   1      45.306  31.419  26.651  1.00  0.00     0.055 A 
ATOM     96  C   UNL A   1      47.152  29.875  26.577  1.00  0.00     0.041 A 
ATOM     97  F   UNL A   1      46.874  27.682  27.359  1.00  0.00    -0.206 F 
ATOM     98  C   UNL A   1      46.623  31.130  26.285  1.00  0.00     0.022 A 
BRANCH  95  99
ATOM     99  S   UNL A   1      44.609  33.017  26.150  1.00  0.00     0.124 S 
ATOM    100  O   UNL A   1      45.804  33.812  25.871  1.00  0.00    -0.237 OA
ATOM    101  O   UNL A   1      43.821  32.647  24.978  1.00  0.00    -0.237 OA
ATOM    102  O   UNL A   1      43.842  33.449  27.314  1.00  0.00    -0.744 OA
ENDBRANCH  95  99
ENDBRANCH  69  92
ENDBRANCH  43  44
ENDBRANCH  35  38
ENDBRANCH  33  34
ENDBRANCH   1  33
TORSDOF 16
ENDMDL
MODEL 2
REMARK VINA RESULT:     -12.7      8.676     15.367
REMARK SMILES Cc1c(CC(=O)N[C@@H](C)C(=O)NCCCNC(=O)c2ccc(-c3c4nc(c(-c5cc(S(=O)(=O)[O-])ccc5F)c5ccc([nH]5)c(-c5cc(S(=O)(=O)[O-])ccc5F)c5nc(c(-c6cc(S(=O)(=O)[O-])ccc6F)c6ccc3[nH]6)C=C5)C=C4)cc2)c(=O)oc2cc3oc4c(c3cc12)CCCC4
REMARK SMILES IDX 14 1 13 2 12 3 10 4 11 5 8 7 9 8 7 9 5 10 6 11 4 13 3 14
REMARK SMILES IDX 1 15 2 16 93 17 82 18 85 19 92 20 83 21 84 22 86 23 91 24
REMARK SMILES IDX 87 25 90 26 88 27 89 28 94 29 97 30 95 31 96 32 15 33 16 34
REMARK SMILES IDX 17 35 18 37 19 38 20 39 81 40 21 41 80 42 22 43 23 44 24 45
REMARK SMILES IDX 74 46 25 47 79 48 73 49 75 50 26 51 78 52 72 53 71 54 27 56
REMARK SMILES IDX 59 57 39 58 58 59 40 60 43 61 57 62 76 63 41 64 42 65 56 67
REMARK SMILES IDX 77 68 44 69 28 70 29 71 37 72 30 73 36 74 38 75 35 76 31 77
REMARK SMILES IDX 32 78 33 79 34 80 60 81 61 82 69 83 62 84 68 85 70 86 67 87
REMARK SMILES IDX 63 88 64 89 65 90 66 91 45 92 46 93 54 94 47 95 53 96 55 97
REMARK SMILES IDX 52 98 48 99 49 100 50 101 51 102
REMARK H PARENT 12 6 7 12 16 36 75 55 43 66
REMARK Flexibility Score: inf
ROOT
ATOM      1  C   UNL A   1      43.140  39.575  29.362  1.00  0.00     0.042 C 
ENDROOT
BRANCH   1   2
ATOM      2  C   UNL A   1      43.025  40.832  28.509  1.00  0.00     0.117 C 
BRANCH   2   3
ATOM      3  N   UNL A   1      41.977  40.700  27.506  1.00  0.00    -0.354 N 
ATOM      4  C   UNL A   1      41.936  40.986  26.180  1.00  0.00     0.242 C 
ATOM      5  O   UNL A   1      40.845  40.876  25.612  1.00  0.00    -0.273 OA
ATOM      6  H   UNL A   1      41.136  40.331  27.858  1.00  0.00     0.163 HD
BRANCH   4   7
ATOM      7  C   UNL A   1      43.198  41.346  25.386  1.00  0.00     0.168 C 
ATOM      8  C   UNL A   1      44.407  40.584  25.920  1.00  0.00     0.041 C 
BRANCH   7   9
ATOM      9  N   UNL A   1      43.407  42.788  25.304  1.00  0.00    -0.344 N 
ATOM     10  C   UNL A   1      43.926  43.515  24.272  1.00  0.00     0.225 C 
ATOM     11  O   UNL A   1      43.835  44.742  24.315  1.00  0.00    -0.275 OA
ATOM     12  H   UNL A   1      43.138  43.304  26.098  1.00  0.00     0.164 HD
BRANCH  10  13
ATOM     13  C   UNL A   1      44.618  42.825  23.098  1.00  0.00     0.143 C 
BRANCH  13  14
ATOM     14  C   UNL A   1      43.984  43.202  21.779  1.00  0.00     0.051 A 
ATOM     15  C   UNL A   1      45.695  44.976  21.235  1.00  0.00     0.046 C 
ATOM     16  C   UNL A   1      44.527  44.074  20.905  1.00  0.00    -0.029 A 
ATOM     17  C   UNL A   1      43.924  44.206  19.569  1.00  0.00     0.022 A 
ATOM     18  C   UNL A   1      42.714  42.486  21.476  1.00  0.00     0.340 A 
ATOM     19  C   UNL A   1      42.702  43.582  19.305  1.00  0.00     0.142 A 
ATOM     20  C   UNL A   1      44.488  45.033  18.593  1.00  0.00     0.024 A 
ATOM     21  O   UNL A   1      42.183  41.737  22.290  1.00  0.00    -0.246 OA
ATOM     22  O   UNL A   1      42.136  42.697  20.239  1.00  0.00    -0.422 OA
ATOM     23  C   UNL A   1      41.917  43.858  18.181  1.00  0.00     0.095 A 
ATOM     24  C   UNL A   1      43.649  45.481  17.566  1.00  0.00     0.025 A 
ATOM     25  C   UNL A   1      42.381  44.923  17.428  1.00  0.00     0.138 A 
ATOM     26  C   UNL A   1      43.665  46.645  16.764  1.00  0.00     0.001 A 
ATOM     27  O   UNL A   1      41.607  45.705  16.617  1.00  0.00    -0.461 OA
ATOM     28  C   UNL A   1      42.348  46.818  16.394  1.00  0.00     0.108 A 
ATOM     29  C   UNL A   1      44.570  47.822  16.842  1.00  0.00     0.040 C 
ATOM     30  C   UNL A   1      41.696  48.155  16.433  1.00  0.00     0.076 C 
ATOM     31  C   UNL A   1      43.874  48.927  17.670  1.00  0.00     0.005 C 
ATOM     32  C   UNL A   1      42.315  48.878  17.663  1.00  0.00     0.008 C 
ENDBRANCH  13  14
ENDBRANCH  10  13
ENDBRANCH   7   9
ENDBRANCH   4   7
ENDBRANCH   2   3
ENDBRANCH   1   2
BRANCH   1  33
ATOM     33  C   UNL A   1      44.506  38.898  29.250  1.00  0.00     0.118 C 
BRANCH  33  34
ATOM     34  N   UNL A   1      44.665  38.079  28.059  1.00  0.00    -0.352 N 
ATOM     35  C   UNL A   1      44.349  36.749  27.865  1.00  0.00     0.251 C 
ATOM     36  H   UNL A   1      45.053  38.538  27.280  1.00  0.00     0.163 HD
ATOM     37  O   UNL A   1      44.601  36.204  26.804  1.00  0.00    -0.269 OA
BRANCH  35  38
ATOM     38  C   UNL A   1      43.751  35.997  28.986  1.00  0.00     0.039 A 
ATOM     39  C   UNL A   1      44.528  35.674  30.100  1.00  0.00     0.014 A 
ATOM     40  C   UNL A   1      42.434  35.545  28.871  1.00  0.00     0.014 A 
ATOM     41  C   UNL A   1      44.048  34.755  31.018  1.00  0.00     0.010 A 
ATOM     42  C   UNL A   1      41.930  34.668  29.828  1.00  0.00     0.010 A 
ATOM     43  C   UNL A   1      42.757  34.234  30.871  1.00  0.00    -0.014 A 
BRANCH  43  44
ATOM     44  C   UNL A   1      42.334  33.266  31.886  1.00  0.00     0.031 A 
ATOM     45  C   UNL A   1      40.887  33.326  32.231  1.00  0.00     0.074 A 
ATOM     46  C   UNL A   1      42.998  32.109  32.070  1.00  0.00     0.049 A 
ATOM     47  N   UNL A   1      39.968  32.755  31.509  1.00  0.00    -0.248 NA
ATOM     48  C   UNL A   1      40.370  34.247  33.241  1.00  0.00     0.031 C 
ATOM     49  C   UNL A   1      43.632  31.340  30.990  1.00  0.00     0.029 A 
ATOM     50  N   UNL A   1      43.033  31.269  33.154  1.00  0.00    -0.354 N 
ATOM     51  C   UNL A   1      38.753  33.266  31.928  1.00  0.00     0.074 A 
ATOM     52  C   UNL A   1      39.052  34.186  33.004  1.00  0.00     0.031 C 
ATOM     53  C   UNL A   1      43.813  30.073  31.417  1.00  0.00     0.029 A 
ATOM     54  C   UNL A   1      43.472  29.989  32.831  1.00  0.00     0.049 A 
ATOM     55  H   UNL A   1      42.776  31.543  34.064  1.00  0.00     0.167 HD
ATOM     56  C   UNL A   1      37.564  32.916  31.372  1.00  0.00     0.034 A 
ATOM     57  C   UNL A   1      43.086  28.861  33.487  1.00  0.00     0.034 A 
ATOM     58  C   UNL A   1      37.625  31.901  30.364  1.00  0.00     0.049 A 
ATOM     59  C   UNL A   1      41.663  28.723  32.988  1.00  0.00     0.074 A 
ATOM     60  C   UNL A   1      37.645  31.834  28.988  1.00  0.00     0.029 A 
ATOM     61  N   UNL A   1      37.751  30.595  30.778  1.00  0.00    -0.354 N 
ATOM     62  N   UNL A   1      41.294  28.237  31.828  1.00  0.00    -0.248 NA
ATOM     63  C   UNL A   1      40.625  29.495  33.675  1.00  0.00     0.031 C 
ATOM     64  C   UNL A   1      38.209  30.558  28.674  1.00  0.00     0.029 A 
ATOM     65  C   UNL A   1      38.566  29.951  29.880  1.00  0.00     0.049 A 
ATOM     66  H   UNL A   1      37.333  30.195  31.574  1.00  0.00     0.167 HD
ATOM     67  C   UNL A   1      40.090  28.883  31.517  1.00  0.00     0.074 A 
ATOM     68  C   UNL A   1      39.729  29.622  32.709  1.00  0.00     0.031 C 
ATOM     69  C   UNL A   1      39.541  28.946  30.266  1.00  0.00     0.034 A 
BRANCH  56  70
ATOM     70  C   UNL A   1      36.260  33.383  31.888  1.00  0.00     0.023 A 
ATOM     71  C   UNL A   1      35.429  34.256  31.173  1.00  0.00     0.031 A 
ATOM     72  C   UNL A   1      35.790  32.826  33.090  1.00  0.00     0.131 A 
ATOM     73  C   UNL A   1      34.144  34.528  31.669  1.00  0.00     0.055 A 
ATOM     74  C   UNL A   1      34.514  33.094  33.572  1.00  0.00     0.041 A 
ATOM     75  F   UNL A   1      36.569  31.988  33.796  1.00  0.00    -0.206 F 
ATOM     76  C   UNL A   1      33.681  33.945  32.855  1.00  0.00     0.022 A 
BRANCH  73  77
ATOM     77  S   UNL A   1      33.004  35.632  30.789  1.00  0.00     0.124 S 
ATOM     78  O   UNL A   1      32.594  34.811  29.653  1.00  0.00    -0.237 OA
ATOM     79  O   UNL A   1      31.972  35.863  31.798  1.00  0.00    -0.237 OA
ATOM     80  O   UNL A   1      33.823  36.794  30.462  1.00  0.00    -0.744 OA
ENDBRANCH  73  77
ENDBRANCH  56  70
BRANCH  57  81
ATOM     81  C   UNL A   1      43.502  28.876  34.932  1.00  0.00     0.023 A 
ATOM     82  C   UNL A   1      43.338  29.946  35.819  1.00  0.00     0.031 A 
ATOM     83  C   UNL A   1      44.215  27.754  35.417  1.00  0.00     0.131 A 
ATOM     84  C   UNL A   1      44.024  29.957  37.046  1.00  0.00     0.055 A 
ATOM     85  C   UNL A   1      44.843  27.740  36.667  1.00  0.00     0.041 A 
ATOM     86  F   UNL A   1      44.341  26.651  34.659  1.00  0.00    -0.206 F 
ATOM     87  C   UNL A   1      44.777  28.863  37.476  1.00  0.00     0.022 A 
BRANCH  84  88
ATOM     88  S   UNL A   1      44.032  31.451  38.077  1.00  0.00     0.124 S 
ATOM     89  O   UNL A   1      45.181  31.224  38.949  1.00  0.00    -0.237 OA
ATOM     90  O   UNL A   1      44.196  32.493  37.069  1.00  0.00    -0.237 OA
ATOM     91  O   UNL A   1      42.729  31.412  38.734  1.00  0.00    -0.744 OA
ENDBRANCH  84  88
ENDBRANCH  57  81
BRANCH  69  92
ATOM     92  C   UNL A   1      40.140  28.070  29.208  1.00  0.00     0.023 A 
ATOM     93  C   UNL A   1      41.189  28.534  28.391  1.00  0.00     0.031 A 
ATOM     94  C   UNL A   1      39.563  26.828  28.904  1.00  0.00     0.131 A 
ATOM     95  C   UNL A   1      41.563  27.808  27.254  1.00  0.00     0.055 A 
ATOM     96  C   UNL A   1      39.986  26.075  27.806  1.00  0.00     0.041 A 
ATOM     97  F   UNL A   1      38.535  26.354  29.628  1.00  0.00    -0.206 F 
ATOM     98  C   UNL A   1      40.976  26.574  26.963  1.00  0.00     0.022 A 
BRANCH  95  99
ATOM     99  S   UNL A   1      42.763  28.485  26.072  1.00  0.00     0.124 S 
ATOM    100  O   UNL A   1      42.660  29.925  26.306  1.00  0.00    -0.237 OA
ATOM    101  O   UNL A   1      44.008  27.870  26.523  1.00  0.00    -0.237 OA
ATOM    102  O   UNL A   1      42.272  28.036  24.773  1.00  0.00    -0.744 OA
ENDBRANCH  95  99
ENDBRANCH  69  92
ENDBRANCH  43  44
ENDBRANCH  35  38
ENDBRANCH  33  34
ENDBRANCH   1  33
TORSDOF 16
ENDMDL
MODEL 3
REMARK VINA RESULT:     -12.3      8.250     14.725
REMARK SMILES Cc1c(CC(=O)N[C@@H](C)C(=O)NCCCNC(=O)c2ccc(-c3c4nc(c(-c5cc(S(=O)(=O)[O-])ccc5F)c5ccc([nH]5)c(-c5cc(S(=O)(=O)[O-])ccc5F)c5nc(c(-c6cc(S(=O)(=O)[O-])ccc6F)c6ccc3[nH]6)C=C5)C=C4)cc2)c(=O)oc2cc3oc4c(c3cc12)CCCC4
REMARK SMILES IDX 14 1 13 2 12 3 10 4 11 5 8 7 9 8 7 9 5 10 6 11 4 13 3 14
REMARK SMILES IDX 1 15 2 16 93 17 82 18 85 19 92 20 83 21 84 22 86 23 91 24
REMARK SMILES IDX 87 25 90 26 88 27 89 28 94 29 97 30 95 31 96 32 15 33 16 34
REMARK SMILES IDX 17 35 18 37 19 38 20 39 81 40 21 41 80 42 22 43 23 44 24 45
REMARK SMILES IDX 74 46 25 47 79 48 73 49 75 50 26 51 78 52 72 53 71 54 27 56
REMARK SMILES IDX 59 57 39 58 58 59 40 60 43 61 57 62 76 63 41 64 42 65 56 67
REMARK SMILES IDX 77 68 44 69 28 70 29 71 37 72 30 73 36 74 38 75 35 76 31 77
REMARK SMILES IDX 32 78 33 79 34 80 60 81 61 82 69 83 62 84 68 85 70 86 67 87
REMARK SMILES IDX 63 88 64 89 65 90 66 91 45 92 46 93 54 94 47 95 53 96 55 97
REMARK SMILES IDX 52 98 48 99 49 100 50 101 51 102
REMARK H PARENT 12 6 7 12 16 36 75 55 43 66
REMARK Flexibility Score: inf
ROOT
ATOM      1  C   UNL A   1      43.628  36.869  27.034  1.00  0.00     0.042 C 
ENDROOT
BRANCH   1   2
ATOM      2  C   UNL A   1      42.823  38.149  26.847  1.00  0.00     0.117 C 
BRANCH   2   3
ATOM      3  N   UNL A   1      43.242  39.183  27.783  1.00  0.00    -0.354 N 
ATOM      4  C   UNL A   1      43.432  40.520  27.647  1.00  0.00     0.242 C 
ATOM      5  O   UNL A   1      43.918  41.122  28.610  1.00  0.00    -0.273 OA
ATOM      6  H   UNL A   1      43.422  38.847  28.690  1.00  0.00     0.163 HD
BRANCH   4   7
ATOM      7  C   UNL A   1      42.987  41.282  26.393  1.00  0.00     0.168 C 
ATOM      8  C   UNL A   1      41.564  40.896  26.004  1.00  0.00     0.041 C 
BRANCH   7   9
ATOM      9  N   UNL A   1      43.946  41.154  25.300  1.00  0.00    -0.344 N 
ATOM     10  C   UNL A   1      44.293  42.081  24.360  1.00  0.00     0.225 C 
ATOM     11  O   UNL A   1      45.268  41.853  23.643  1.00  0.00    -0.275 OA
ATOM     12  H   UNL A   1      44.402  40.284  25.232  1.00  0.00     0.164 HD
BRANCH  10  13
ATOM     13  C   UNL A   1      43.482  43.365  24.189  1.00  0.00     0.143 C 
BRANCH  13  14
ATOM     14  C   UNL A   1      42.994  43.529  22.769  1.00  0.00     0.051 A 
ATOM     15  C   UNL A   1      45.007  44.854  22.018  1.00  0.00     0.046 C 
ATOM     16  C   UNL A   1      43.723  44.090  21.782  1.00  0.00    -0.029 A 
ATOM     17  C   UNL A   1      43.225  44.010  20.400  1.00  0.00     0.022 A 
ATOM     18  C   UNL A   1      41.640  42.967  22.511  1.00  0.00     0.340 A 
ATOM     19  C   UNL A   1      41.932  43.537  20.165  1.00  0.00     0.142 A 
ATOM     20  C   UNL A   1      43.973  44.501  19.325  1.00  0.00     0.024 A 
ATOM     21  O   UNL A   1      40.946  42.509  23.413  1.00  0.00    -0.246 OA
ATOM     22  O   UNL A   1      41.174  42.980  21.210  1.00  0.00    -0.422 OA
ATOM     23  C   UNL A   1      41.267  43.671  18.942  1.00  0.00     0.095 A 
ATOM     24  C   UNL A   1      43.279  44.830  18.155  1.00  0.00     0.025 A 
ATOM     25  C   UNL A   1      41.944  44.457  18.025  1.00  0.00     0.138 A 
ATOM     26  C   UNL A   1      43.535  45.769  17.130  1.00  0.00     0.001 A 
ATOM     27  O   UNL A   1      41.359  45.146  17.000  1.00  0.00    -0.461 OA
ATOM     28  C   UNL A   1      42.288  46.054  16.614  1.00  0.00     0.108 A 
ATOM     29  C   UNL A   1      44.620  46.781  17.037  1.00  0.00     0.040 C 
ATOM     30  C   UNL A   1      41.870  47.449  16.310  1.00  0.00     0.076 C 
ATOM     31  C   UNL A   1      44.076  48.136  17.546  1.00  0.00     0.005 C 
ATOM     32  C   UNL A   1      42.535  48.326  17.409  1.00  0.00     0.008 C 
ENDBRANCH  13  14
ENDBRANCH  10  13
ENDBRANCH   7   9
ENDBRANCH   4   7
ENDBRANCH   2   3
ENDBRANCH   1   2
BRANCH   1  33
ATOM     33  C   UNL A   1      45.132  37.119  27.139  1.00  0.00     0.118 C 
BRANCH  33  34
ATOM     34  N   UNL A   1      45.914  36.472  26.097  1.00  0.00    -0.352 N 
ATOM     35  C   UNL A   1      46.263  35.144  25.963  1.00  0.00     0.251 C 
ATOM     36  H   UNL A   1      46.241  37.068  25.384  1.00  0.00     0.163 HD
ATOM     37  O   UNL A   1      46.975  34.782  25.042  1.00  0.00    -0.269 OA
BRANCH  35  38
ATOM     38  C   UNL A   1      45.798  34.188  26.988  1.00  0.00     0.039 A 
ATOM     39  C   UNL A   1      46.509  34.045  28.180  1.00  0.00     0.014 A 
ATOM     40  C   UNL A   1      44.696  33.377  26.706  1.00  0.00     0.014 A 
ATOM     41  C   UNL A   1      46.227  32.976  29.015  1.00  0.00     0.010 A 
ATOM     42  C   UNL A   1      44.375  32.338  27.576  1.00  0.00     0.010 A 
ATOM     43  C   UNL A   1      45.174  32.108  28.702  1.00  0.00    -0.014 A 
BRANCH  43  44
ATOM     44  C   UNL A   1      44.950  31.004  29.638  1.00  0.00     0.031 A 
ATOM     45  C   UNL A   1      43.518  30.731  29.939  1.00  0.00     0.074 A 
ATOM     46  C   UNL A   1      45.843  30.004  29.768  1.00  0.00     0.049 A 
ATOM     47  N   UNL A   1      42.756  30.029  29.153  1.00  0.00    -0.248 NA
ATOM     48  C   UNL A   1      42.798  31.447  30.990  1.00  0.00     0.031 C 
ATOM     49  C   UNL A   1      46.647  29.466  28.663  1.00  0.00     0.029 A 
ATOM     50  N   UNL A   1      46.039  29.118  30.797  1.00  0.00    -0.354 N 
ATOM     51  C   UNL A   1      41.453  30.239  29.563  1.00  0.00     0.074 A 
ATOM     52  C   UNL A   1      41.528  31.123  30.706  1.00  0.00     0.031 C 
ATOM     53  C   UNL A   1      47.088  28.240  29.012  1.00  0.00     0.029 A 
ATOM     54  C   UNL A   1      46.748  27.986  30.406  1.00  0.00     0.049 A 
ATOM     55  H   UNL A   1      45.713  29.266  31.714  1.00  0.00     0.167 HD
ATOM     56  C   UNL A   1      40.377  29.684  28.948  1.00  0.00     0.034 A 
ATOM     57  C   UNL A   1      46.601  26.759  30.975  1.00  0.00     0.034 A 
ATOM     58  C   UNL A   1      40.672  28.778  27.879  1.00  0.00     0.049 A 
ATOM     59  C   UNL A   1      45.250  26.357  30.422  1.00  0.00     0.074 A 
ATOM     60  C   UNL A   1      40.730  28.814  26.503  1.00  0.00     0.029 A 
ATOM     61  N   UNL A   1      41.068  27.503  28.212  1.00  0.00    -0.354 N 
ATOM     62  N   UNL A   1      45.014  25.886  29.221  1.00  0.00    -0.248 NA
ATOM     63  C   UNL A   1      44.059  26.840  31.123  1.00  0.00     0.031 C 
ATOM     64  C   UNL A   1      41.560  27.712  26.126  1.00  0.00     0.029 A 
ATOM     65  C   UNL A   1      42.018  27.112  27.300  1.00  0.00     0.049 A 
ATOM     66  H   UNL A   1      40.731  26.968  28.966  1.00  0.00     0.167 HD
ATOM     67  C   UNL A   1      43.706  26.281  28.914  1.00  0.00     0.074 A 
ATOM     68  C   UNL A   1      43.174  26.841  30.139  1.00  0.00     0.031 C 
ATOM     69  C   UNL A   1      43.179  26.313  27.653  1.00  0.00     0.034 A 
BRANCH  56  70
ATOM     70  C   UNL A   1      38.994  29.825  29.450  1.00  0.00     0.023 A 
ATOM     71  C   UNL A   1      38.062  30.699  28.874  1.00  0.00     0.031 A 
ATOM     72  C   UNL A   1      38.572  28.955  30.469  1.00  0.00     0.131 A 
ATOM     73  C   UNL A   1      36.731  30.660  29.317  1.00  0.00     0.055 A 
ATOM     74  C   UNL A   1      37.250  28.916  30.899  1.00  0.00     0.041 A 
ATOM     75  F   UNL A   1      39.447  28.109  31.041  1.00  0.00    -0.206 F 
ATOM     76  C   UNL A   1      36.320  29.769  30.317  1.00  0.00     0.022 A 
BRANCH  73  77
ATOM     77  S   UNL A   1      35.463  31.746  28.605  1.00  0.00     0.124 S 
ATOM     78  O   UNL A   1      36.266  32.714  27.863  1.00  0.00    -0.237 OA
ATOM     79  O   UNL A   1      34.694  30.813  27.785  1.00  0.00    -0.237 OA
ATOM     80  O   UNL A   1      34.760  32.274  29.769  1.00  0.00    -0.744 OA
ENDBRANCH  73  77
ENDBRANCH  56  70
BRANCH  57  81
ATOM     81  C   UNL A   1      46.978  26.761  32.430  1.00  0.00     0.023 A 
ATOM     82  C   UNL A   1      46.091  26.639  33.506  1.00  0.00     0.031 A 
ATOM     83  C   UNL A   1      48.334  27.011  32.753  1.00  0.00     0.131 A 
ATOM     84  C   UNL A   1      46.515  26.949  34.810  1.00  0.00     0.055 A 
ATOM     85  C   UNL A   1      48.768  27.254  34.059  1.00  0.00     0.041 A 
ATOM     86  F   UNL A   1      49.264  27.055  31.783  1.00  0.00    -0.206 F 
ATOM     87  C   UNL A   1      47.846  27.258  35.095  1.00  0.00     0.022 A 
BRANCH  84  88
ATOM     88  S   UNL A   1      45.311  27.055  36.164  1.00  0.00     0.124 S 
ATOM     89  O   UNL A   1      45.552  25.815  36.895  1.00  0.00    -0.237 OA
ATOM     90  O   UNL A   1      45.738  28.280  36.832  1.00  0.00    -0.237 OA
ATOM     91  O   UNL A   1      44.030  27.133  35.467  1.00  0.00    -0.744 OA
ENDBRANCH  84  88
ENDBRANCH  57  81
BRANCH  69  92
ATOM     92  C   UNL A   1      43.970  25.661  26.560  1.00  0.00     0.023 A 
ATOM     93  C   UNL A   1      43.820  24.289  26.276  1.00  0.00     0.031 A 
ATOM     94  C   UNL A   1      44.990  26.366  25.904  1.00  0.00     0.131 A 
ATOM     95  C   UNL A   1      44.735  23.645  25.436  1.00  0.00     0.055 A 
ATOM     96  C   UNL A   1      45.859  25.731  25.013  1.00  0.00     0.041 A 
ATOM     97  F   UNL A   1      45.202  27.667  26.164  1.00  0.00    -0.206 F 
ATOM     98  C   UNL A   1      45.748  24.360  24.792  1.00  0.00     0.022 A 
BRANCH  95  99
ATOM     99  S   UNL A   1      44.690  21.844  25.221  1.00  0.00     0.124 S 
ATOM    100  O   UNL A   1      44.500  21.701  23.778  1.00  0.00    -0.237 OA
ATOM    101  O   UNL A   1      46.006  21.449  25.716  1.00  0.00    -0.237 OA
ATOM    102  O   UNL A   1      43.557  21.417  26.035  1.00  0.00    -0.744 OA
ENDBRANCH  95  99
ENDBRANCH  69  92
ENDBRANCH  43  44
ENDBRANCH  35  38
ENDBRANCH  33  34
ENDBRANCH   1  33
TORSDOF 16
ENDMDL
