MODEL 1
REMARK VINA RESULT:     -12.0      0.000      0.000
REMARK SMILES C[NH2+][C@]1(C(=O)NCCCNC(=O)c2ccc(-c3c4nc(c(-c5cc(S(=O)(=O)[O-])ccc5F)c5ccc([nH]5)c(-c5cc(S(=O)(=O)[O-])ccc5F)c5nc(c(-c6cc(S(=O)(=O)[O-])ccc6F)c6ccc3[nH]6)C=C5)C=C4)cc2)CCC[C@@H]([N@H+]2CC[C@@H](C)C2)C1
REMARK SMILES IDX 9 1 8 2 7 3 6 4 4 5 5 6 3 8 76 9 86 10 77 11 79 12 78 13
REMARK SMILES IDX 2 14 1 15 80 18 81 19 85 20 82 22 83 23 84 24 10 25 11 26
REMARK SMILES IDX 12 28 13 29 14 30 75 31 15 32 74 33 16 34 17 35 18 36 68 37
REMARK SMILES IDX 19 38 73 39 67 40 69 41 20 42 72 43 66 44 65 45 21 47 53 48
REMARK SMILES IDX 33 49 52 50 34 51 37 52 51 53 70 54 35 55 36 56 50 58 71 59
REMARK SMILES IDX 38 60 22 61 23 62 31 63 24 64 30 65 32 66 29 67 25 68 26 69
REMARK SMILES IDX 27 70 28 71 54 72 55 73 63 74 56 75 62 76 64 77 61 78 57 79
REMARK SMILES IDX 58 80 59 81 60 82 39 83 40 84 48 85 41 86 47 87 49 88 46 89
REMARK SMILES IDX 42 90 43 91 44 92 45 93
REMARK H PARENT 6 7 2 16 2 17 80 21 10 27 69 46 37 57
REMARK Flexibility Score: inf
ROOT
ATOM      1  C   UNL A   1      32.668  31.888  27.639  1.00  0.00     0.118 C 
ENDROOT
BRANCH   1   2
ATOM      2  C   UNL A   1      34.020  31.349  27.202  1.00  0.00     0.042 C 
BRANCH   2   3
ATOM      3  C   UNL A   1      34.035  29.843  27.025  1.00  0.00     0.118 C 
BRANCH   3   4
ATOM      4  N   UNL A   1      32.885  29.201  27.651  1.00  0.00    -0.351 N 
ATOM      5  C   UNL A   1      31.951  28.319  27.184  1.00  0.00     0.281 C 
ATOM      6  O   UNL A   1      31.201  27.839  28.042  1.00  0.00    -0.268 OA
ATOM      7  H   UNL A   1      32.756  29.451  28.595  1.00  0.00     0.163 HD
BRANCH   5   8
ATOM      8  C   UNL A   1      31.922  27.844  25.688  1.00  0.00     0.181 C 
ATOM      9  C   UNL A   1      30.971  26.654  25.445  1.00  0.00     0.079 C 
ATOM     10  C   UNL A   1      31.499  29.103  24.897  1.00  0.00     0.144 C 
ATOM     11  C   UNL A   1      30.644  26.446  23.968  1.00  0.00     0.013 C 
ATOM     12  C   UNL A   1      30.957  28.924  23.476  1.00  0.00     0.190 C 
ATOM     13  C   UNL A   1      30.023  27.703  23.360  1.00  0.00     0.065 C 
BRANCH   8  14
ATOM     14  N   UNL A   1      33.305  27.529  25.196  1.00  0.00    -0.336 N 
ATOM     15  C   UNL A   1      33.888  26.284  25.689  1.00  0.00     0.331 C 
ATOM     16  H   UNL A   1      33.271  27.476  24.179  1.00  0.00     0.346 HD
ATOM     17  H   UNL A   1      33.902  28.274  25.555  1.00  0.00     0.346 HD
ENDBRANCH   8  14
BRANCH  12  18
ATOM     18  N   UNL A   1      30.316  30.164  22.968  1.00  0.00    -0.332 N 
ATOM     19  C   UNL A   1      29.815  30.124  21.586  1.00  0.00     0.262 C 
ATOM     20  C   UNL A   1      29.243  30.699  23.819  1.00  0.00     0.265 C 
ATOM     21  H   UNL A   1      31.119  30.792  22.993  1.00  0.00     0.348 HD
ATOM     22  C   UNL A   1      28.448  30.802  21.583  1.00  0.00     0.070 C 
ATOM     23  C   UNL A   1      27.943  30.669  23.011  1.00  0.00     0.047 C 
ATOM     24  C   UNL A   1      27.083  29.417  23.204  1.00  0.00     0.014 C 
ENDBRANCH  12  18
ENDBRANCH   5   8
ENDBRANCH   3   4
ENDBRANCH   2   3
ENDBRANCH   1   2
BRANCH   1  25
ATOM     25  N   UNL A   1      32.614  33.344  27.621  1.00  0.00    -0.352 N 
ATOM     26  C   UNL A   1      33.328  34.261  28.357  1.00  0.00     0.251 C 
ATOM     27  H   UNL A   1      31.969  33.731  26.985  1.00  0.00     0.163 HD
ATOM     28  O   UNL A   1      32.995  35.438  28.340  1.00  0.00    -0.269 OA
BRANCH  26  29
ATOM     29  C   UNL A   1      34.468  33.812  29.188  1.00  0.00     0.039 A 
ATOM     30  C   UNL A   1      34.223  32.999  30.296  1.00  0.00     0.014 A 
ATOM     31  C   UNL A   1      35.777  34.177  28.866  1.00  0.00     0.014 A 
ATOM     32  C   UNL A   1      35.297  32.488  31.029  1.00  0.00     0.010 A 
ATOM     33  C   UNL A   1      36.845  33.582  29.527  1.00  0.00     0.010 A 
ATOM     34  C   UNL A   1      36.618  32.735  30.621  1.00  0.00    -0.014 A 
BRANCH  34  35
ATOM     35  C   UNL A   1      37.778  32.129  31.330  1.00  0.00     0.031 A 
ATOM     36  C   UNL A   1      38.560  31.021  30.678  1.00  0.00     0.074 A 
ATOM     37  C   UNL A   1      38.083  32.531  32.580  1.00  0.00     0.049 A 
ATOM     38  N   UNL A   1      39.543  30.306  31.163  1.00  0.00    -0.248 NA
ATOM     39  C   UNL A   1      38.161  30.642  29.313  1.00  0.00     0.031 C 
ATOM     40  C   UNL A   1      37.372  33.569  33.332  1.00  0.00     0.029 A 
ATOM     41  N   UNL A   1      39.063  32.113  33.444  1.00  0.00    -0.354 N 
ATOM     42  C   UNL A   1      39.870  29.387  30.170  1.00  0.00     0.074 A 
ATOM     43  C   UNL A   1      38.933  29.591  29.086  1.00  0.00     0.031 C 
ATOM     44  C   UNL A   1      37.961  33.728  34.528  1.00  0.00     0.029 A 
ATOM     45  C   UNL A   1      39.053  32.767  34.656  1.00  0.00     0.049 A 
ATOM     46  H   UNL A   1      39.716  31.410  33.219  1.00  0.00     0.167 HD
ATOM     47  C   UNL A   1      40.875  28.477  30.152  1.00  0.00     0.034 A 
ATOM     48  C   UNL A   1      39.822  32.603  35.750  1.00  0.00     0.034 A 
ATOM     49  C   UNL A   1      41.808  28.297  31.237  1.00  0.00     0.049 A 
ATOM     50  C   UNL A   1      40.911  31.559  35.720  1.00  0.00     0.074 A 
ATOM     51  C   UNL A   1      42.894  27.443  31.304  1.00  0.00     0.029 A 
ATOM     52  N   UNL A   1      41.762  28.976  32.449  1.00  0.00    -0.354 N 
ATOM     53  N   UNL A   1      41.239  30.733  34.752  1.00  0.00    -0.248 NA
ATOM     54  C   UNL A   1      41.742  31.433  36.925  1.00  0.00     0.031 C 
ATOM     55  C   UNL A   1      43.455  27.546  32.581  1.00  0.00     0.029 A 
ATOM     56  C   UNL A   1      42.779  28.532  33.282  1.00  0.00     0.049 A 
ATOM     57  H   UNL A   1      41.103  29.669  32.682  1.00  0.00     0.167 HD
ATOM     58  C   UNL A   1      42.338  30.017  35.221  1.00  0.00     0.074 A 
ATOM     59  C   UNL A   1      42.624  30.519  36.550  1.00  0.00     0.031 C 
ATOM     60  C   UNL A   1      43.050  29.038  34.607  1.00  0.00     0.034 A 
BRANCH  47  61
ATOM     61  C   UNL A   1      40.998  27.596  28.932  1.00  0.00     0.023 A 
ATOM     62  C   UNL A   1      42.002  27.798  27.970  1.00  0.00     0.031 A 
ATOM     63  C   UNL A   1      40.086  26.547  28.717  1.00  0.00     0.131 A 
ATOM     64  C   UNL A   1      42.027  27.016  26.805  1.00  0.00     0.055 A 
ATOM     65  C   UNL A   1      40.170  25.715  27.598  1.00  0.00     0.041 A 
ATOM     66  F   UNL A   1      39.090  26.317  29.587  1.00  0.00    -0.206 F 
ATOM     67  C   UNL A   1      41.135  25.957  26.626  1.00  0.00     0.022 A 
BRANCH  64  68
ATOM     68  S   UNL A   1      43.146  27.499  25.462  1.00  0.00     0.124 S 
ATOM     69  O   UNL A   1      42.241  28.218  24.568  1.00  0.00    -0.237 OA
ATOM     70  O   UNL A   1      44.139  28.313  26.155  1.00  0.00    -0.237 OA
ATOM     71  O   UNL A   1      43.634  26.222  24.946  1.00  0.00    -0.744 OA
ENDBRANCH  64  68
ENDBRANCH  47  61
BRANCH  48  72
ATOM     72  C   UNL A   1      39.592  33.428  36.972  1.00  0.00     0.023 A 
ATOM     73  C   UNL A   1      38.904  32.906  38.080  1.00  0.00     0.031 A 
ATOM     74  C   UNL A   1      40.009  34.769  37.031  1.00  0.00     0.131 A 
ATOM     75  C   UNL A   1      38.605  33.734  39.173  1.00  0.00     0.055 A 
ATOM     76  C   UNL A   1      39.764  35.572  38.148  1.00  0.00     0.041 A 
ATOM     77  F   UNL A   1      40.672  35.322  36.003  1.00  0.00    -0.206 F 
ATOM     78  C   UNL A   1      39.044  35.058  39.222  1.00  0.00     0.022 A 
BRANCH  75  79
ATOM     79  S   UNL A   1      37.538  33.083  40.488  1.00  0.00     0.124 S 
ATOM     80  O   UNL A   1      37.490  34.208  41.414  1.00  0.00    -0.237 OA
ATOM     81  O   UNL A   1      36.306  32.794  39.762  1.00  0.00    -0.237 OA
ATOM     82  O   UNL A   1      38.266  31.909  40.966  1.00  0.00    -0.744 OA
ENDBRANCH  75  79
ENDBRANCH  48  72
BRANCH  60  83
ATOM     83  C   UNL A   1      44.245  28.486  35.348  1.00  0.00     0.023 A 
ATOM     84  C   UNL A   1      44.122  27.467  36.308  1.00  0.00     0.031 A 
ATOM     85  C   UNL A   1      45.531  28.996  35.087  1.00  0.00     0.131 A 
ATOM     86  C   UNL A   1      45.254  27.031  37.013  1.00  0.00     0.055 A 
ATOM     87  C   UNL A   1      46.662  28.510  35.743  1.00  0.00     0.041 A 
ATOM     88  F   UNL A   1      45.709  29.973  34.184  1.00  0.00    -0.206 F 
ATOM     89  C   UNL A   1      46.525  27.532  36.723  1.00  0.00     0.022 A 
BRANCH  86  90
ATOM     90  S   UNL A   1      45.028  25.870  38.389  1.00  0.00     0.124 S 
ATOM     91  O   UNL A   1      44.236  26.661  39.325  1.00  0.00    -0.237 OA
ATOM     92  O   UNL A   1      44.336  24.758  37.749  1.00  0.00    -0.237 OA
ATOM     93  O   UNL A   1      46.395  25.583  38.822  1.00  0.00    -0.744 OA
ENDBRANCH  86  90
ENDBRANCH  60  83
ENDBRANCH  34  35
ENDBRANCH  26  29
ENDBRANCH   1  25
TORSDOF 15
ENDMDL
MODEL 2
REMARK VINA RESULT:     -11.9      1.470      2.803
REMARK SMILES C[NH2+][C@]1(C(=O)NCCCNC(=O)c2ccc(-c3c4nc(c(-c5cc(S(=O)(=O)[O-])ccc5F)c5ccc([nH]5)c(-c5cc(S(=O)(=O)[O-])ccc5F)c5nc(c(-c6cc(S(=O)(=O)[O-])ccc6F)c6ccc3[nH]6)C=C5)C=C4)cc2)CCC[C@@H]([N@H+]2CC[C@@H](C)C2)C1
REMARK SMILES IDX 9 1 8 2 7 3 6 4 4 5 5 6 3 8 76 9 86 10 77 11 79 12 78 13
REMARK SMILES IDX 2 14 1 15 80 18 81 19 85 20 82 22 83 23 84 24 10 25 11 26
REMARK SMILES IDX 12 28 13 29 14 30 75 31 15 32 74 33 16 34 17 35 18 36 68 37
REMARK SMILES IDX 19 38 73 39 67 40 69 41 20 42 72 43 66 44 65 45 21 47 53 48
REMARK SMILES IDX 33 49 52 50 34 51 37 52 51 53 70 54 35 55 36 56 50 58 71 59
REMARK SMILES IDX 38 60 22 61 23 62 31 63 24 64 30 65 32 66 29 67 25 68 26 69
REMARK SMILES IDX 27 70 28 71 54 72 55 73 63 74 56 75 62 76 64 77 61 78 57 79
REMARK SMILES IDX 58 80 59 81 60 82 39 83 40 84 48 85 41 86 47 87 49 88 46 89
REMARK SMILES IDX 42 90 43 91 44 92 45 93
REMARK H PARENT 6 7 2 16 2 17 80 21 10 27 69 46 37 57
REMARK Flexibility Score: inf
ROOT
ATOM      1  C   UNL A   1      32.620  32.754  27.047  1.00  0.00     0.118 C 
ENDROOT
BRANCH   1   2
ATOM      2  C   UNL A   1      31.294  32.264  26.488  1.00  0.00     0.042 C 
BRANCH   2   3
ATOM      3  C   UNL A   1      31.257  30.764  26.265  1.00  0.00     0.118 C 
BRANCH   3   4
ATOM      4  N   UNL A   1      32.133  30.345  25.177  1.00  0.00    -0.351 N 
ATOM      5  C   UNL A   1      32.789  29.175  24.918  1.00  0.00     0.281 C 
ATOM      6  O   UNL A   1      33.319  29.100  23.803  1.00  0.00    -0.268 OA
ATOM      7  H   UNL A   1      32.280  31.041  24.496  1.00  0.00     0.163 HD
BRANCH   5   8
ATOM      8  C   UNL A   1      32.756  27.958  25.910  1.00  0.00     0.181 C 
ATOM      9  C   UNL A   1      31.357  27.322  26.047  1.00  0.00     0.079 C 
ATOM     10  C   UNL A   1      33.796  26.969  25.336  1.00  0.00     0.144 C 
ATOM     11  C   UNL A   1      31.395  25.935  26.685  1.00  0.00     0.013 C 
ATOM     12  C   UNL A   1      33.737  25.507  25.786  1.00  0.00     0.190 C 
ATOM     13  C   UNL A   1      32.289  24.988  25.888  1.00  0.00     0.065 C 
BRANCH   8  14
ATOM     14  N   UNL A   1      33.298  28.347  27.255  1.00  0.00    -0.336 N 
ATOM     15  C   UNL A   1      34.610  28.988  27.252  1.00  0.00     0.331 C 
ATOM     16  H   UNL A   1      32.636  28.993  27.685  1.00  0.00     0.346 HD
ATOM     17  H   UNL A   1      33.418  27.473  27.767  1.00  0.00     0.346 HD
ENDBRANCH   8  14
BRANCH  12  18
ATOM     18  N   UNL A   1      34.583  24.632  24.934  1.00  0.00    -0.332 N 
ATOM     19  C   UNL A   1      34.533  23.191  25.222  1.00  0.00     0.262 C 
ATOM     20  C   UNL A   1      34.394  24.808  23.486  1.00  0.00     0.265 C 
ATOM     21  H   UNL A   1      35.505  24.974  25.203  1.00  0.00     0.348 HD
ATOM     22  C   UNL A   1      34.464  22.466  23.880  1.00  0.00     0.070 C 
ATOM     23  C   UNL A   1      33.876  23.485  22.916  1.00  0.00     0.047 C 
ATOM     24  C   UNL A   1      32.354  23.368  22.813  1.00  0.00     0.014 C 
ENDBRANCH  12  18
ENDBRANCH   5   8
ENDBRANCH   3   4
ENDBRANCH   2   3
ENDBRANCH   1   2
BRANCH   1  25
ATOM     25  N   UNL A   1      32.516  34.073  27.659  1.00  0.00    -0.352 N 
ATOM     26  C   UNL A   1      33.210  34.607  28.720  1.00  0.00     0.251 C 
ATOM     27  H   UNL A   1      31.849  34.672  27.251  1.00  0.00     0.163 HD
ATOM     28  O   UNL A   1      32.837  35.664  29.212  1.00  0.00    -0.269 OA
BRANCH  26  29
ATOM     29  C   UNL A   1      34.377  33.886  29.277  1.00  0.00     0.039 A 
ATOM     30  C   UNL A   1      35.663  34.305  28.933  1.00  0.00     0.014 A 
ATOM     31  C   UNL A   1      34.202  32.810  30.151  1.00  0.00     0.014 A 
ATOM     32  C   UNL A   1      36.770  33.696  29.529  1.00  0.00     0.010 A 
ATOM     33  C   UNL A   1      35.297  32.281  30.824  1.00  0.00     0.010 A 
ATOM     34  C   UNL A   1      36.595  32.713  30.517  1.00  0.00    -0.014 A 
BRANCH  34  35
ATOM     35  C   UNL A   1      37.754  32.114  31.232  1.00  0.00     0.031 A 
ATOM     36  C   UNL A   1      38.523  30.984  30.603  1.00  0.00     0.074 A 
ATOM     37  C   UNL A   1      38.070  32.543  32.470  1.00  0.00     0.049 A 
ATOM     38  N   UNL A   1      39.504  30.273  31.098  1.00  0.00    -0.248 NA
ATOM     39  C   UNL A   1      38.113  30.577  29.249  1.00  0.00     0.031 C 
ATOM     40  C   UNL A   1      37.373  33.605  33.203  1.00  0.00     0.029 A 
ATOM     41  N   UNL A   1      39.053  32.138  33.339  1.00  0.00    -0.354 N 
ATOM     42  C   UNL A   1      39.817  29.329  30.125  1.00  0.00     0.074 A 
ATOM     43  C   UNL A   1      38.875  29.514  29.042  1.00  0.00     0.031 C 
ATOM     44  C   UNL A   1      37.970  33.787  34.390  1.00  0.00     0.029 A 
ATOM     45  C   UNL A   1      39.055  32.821  34.534  1.00  0.00     0.049 A 
ATOM     46  H   UNL A   1      39.698  31.424  33.126  1.00  0.00     0.167 HD
ATOM     47  C   UNL A   1      40.814  28.410  30.123  1.00  0.00     0.034 A 
ATOM     48  C   UNL A   1      39.830  32.676  35.627  1.00  0.00     0.034 A 
ATOM     49  C   UNL A   1      41.753  28.248  31.206  1.00  0.00     0.049 A 
ATOM     50  C   UNL A   1      40.911  31.623  35.616  1.00  0.00     0.074 A 
ATOM     51  C   UNL A   1      42.833  27.387  31.287  1.00  0.00     0.029 A 
ATOM     52  N   UNL A   1      41.720  28.956  32.402  1.00  0.00    -0.354 N 
ATOM     53  N   UNL A   1      41.225  30.772  34.666  1.00  0.00    -0.248 NA
ATOM     54  C   UNL A   1      41.748  31.518  36.818  1.00  0.00     0.031 C 
ATOM     55  C   UNL A   1      43.403  27.516  32.557  1.00  0.00     0.029 A 
ATOM     56  C   UNL A   1      42.738  28.524  33.238  1.00  0.00     0.049 A 
ATOM     57  H   UNL A   1      41.069  29.660  32.622  1.00  0.00     0.167 HD
ATOM     58  C   UNL A   1      42.322  30.058  35.145  1.00  0.00     0.074 A 
ATOM     59  C   UNL A   1      42.620  30.589  36.459  1.00  0.00     0.031 C 
ATOM     60  C   UNL A   1      43.022  29.059  34.549  1.00  0.00     0.034 A 
BRANCH  47  61
ATOM     61  C   UNL A   1      40.922  27.499  28.923  1.00  0.00     0.023 A 
ATOM     62  C   UNL A   1      41.886  27.705  27.921  1.00  0.00     0.031 A 
ATOM     63  C   UNL A   1      40.037  26.417  28.769  1.00  0.00     0.131 A 
ATOM     64  C   UNL A   1      41.895  26.892  26.777  1.00  0.00     0.055 A 
ATOM     65  C   UNL A   1      40.109  25.557  27.671  1.00  0.00     0.041 A 
ATOM     66  F   UNL A   1      39.080  26.181  29.680  1.00  0.00    -0.206 F 
ATOM     67  C   UNL A   1      41.031  25.801  26.659  1.00  0.00     0.022 A 
BRANCH  64  68
ATOM     68  S   UNL A   1      42.950  27.371  25.382  1.00  0.00     0.124 S 
ATOM     69  O   UNL A   1      43.045  26.117  24.639  1.00  0.00    -0.237 OA
ATOM     70  O   UNL A   1      42.175  28.432  24.749  1.00  0.00    -0.237 OA
ATOM     71  O   UNL A   1      44.191  27.802  26.023  1.00  0.00    -0.744 OA
ENDBRANCH  64  68
ENDBRANCH  47  61
BRANCH  48  72
ATOM     72  C   UNL A   1      39.614  33.532  36.831  1.00  0.00     0.023 A 
ATOM     73  C   UNL A   1      39.014  33.013  37.991  1.00  0.00     0.031 A 
ATOM     74  C   UNL A   1      39.955  34.896  36.822  1.00  0.00     0.131 A 
ATOM     75  C   UNL A   1      38.723  33.863  39.069  1.00  0.00     0.055 A 
ATOM     76  C   UNL A   1      39.721  35.724  37.922  1.00  0.00     0.041 A 
ATOM     77  F   UNL A   1      40.532  35.446  35.742  1.00  0.00    -0.206 F 
ATOM     78  C   UNL A   1      39.087  35.211  39.049  1.00  0.00     0.022 A 
BRANCH  75  79
ATOM     79  S   UNL A   1      37.764  33.202  40.459  1.00  0.00     0.124 S 
ATOM     80  O   UNL A   1      38.513  31.996  40.789  1.00  0.00    -0.237 OA
ATOM     81  O   UNL A   1      37.841  34.293  41.426  1.00  0.00    -0.237 OA
ATOM     82  O   UNL A   1      36.440  32.978  39.882  1.00  0.00    -0.744 OA
ENDBRANCH  75  79
ENDBRANCH  48  72
BRANCH  60  83
ATOM     83  C   UNL A   1      44.217  28.515  35.296  1.00  0.00     0.023 A 
ATOM     84  C   UNL A   1      44.096  27.500  36.260  1.00  0.00     0.031 A 
ATOM     85  C   UNL A   1      45.502  29.028  35.036  1.00  0.00     0.131 A 
ATOM     86  C   UNL A   1      45.227  27.071  36.971  1.00  0.00     0.055 A 
ATOM     87  C   UNL A   1      46.633  28.550  35.697  1.00  0.00     0.041 A 
ATOM     88  F   UNL A   1      45.678  30.002  34.128  1.00  0.00    -0.206 F 
ATOM     89  C   UNL A   1      46.498  27.576  36.681  1.00  0.00     0.022 A 
BRANCH  86  90
ATOM     90  S   UNL A   1      45.003  25.917  38.351  1.00  0.00     0.124 S 
ATOM     91  O   UNL A   1      46.380  25.553  38.668  1.00  0.00    -0.237 OA
ATOM     92  O   UNL A   1      44.319  26.742  39.340  1.00  0.00    -0.237 OA
ATOM     93  O   UNL A   1      44.196  24.844  37.773  1.00  0.00    -0.744 OA
ENDBRANCH  86  90
ENDBRANCH  60  83
ENDBRANCH  34  35
ENDBRANCH  26  29
ENDBRANCH   1  25
TORSDOF 15
ENDMDL
MODEL 3
REMARK VINA RESULT:     -11.9      3.072      4.654
REMARK SMILES C[NH2+][C@]1(C(=O)NCCCNC(=O)c2ccc(-c3c4nc(c(-c5cc(S(=O)(=O)[O-])ccc5F)c5ccc([nH]5)c(-c5cc(S(=O)(=O)[O-])ccc5F)c5nc(c(-c6cc(S(=O)(=O)[O-])ccc6F)c6ccc3[nH]6)C=C5)C=C4)cc2)CCC[C@@H]([N@H+]2CC[C@@H](C)C2)C1
REMARK SMILES IDX 9 1 8 2 7 3 6 4 4 5 5 6 3 8 76 9 86 10 77 11 79 12 78 13
REMARK SMILES IDX 2 14 1 15 80 18 81 19 85 20 82 22 83 23 84 24 10 25 11 26
REMARK SMILES IDX 12 28 13 29 14 30 75 31 15 32 74 33 16 34 17 35 18 36 68 37
REMARK SMILES IDX 19 38 73 39 67 40 69 41 20 42 72 43 66 44 65 45 21 47 53 48
REMARK SMILES IDX 33 49 52 50 34 51 37 52 51 53 70 54 35 55 36 56 50 58 71 59
REMARK SMILES IDX 38 60 22 61 23 62 31 63 24 64 30 65 32 66 29 67 25 68 26 69
REMARK SMILES IDX 27 70 28 71 54 72 55 73 63 74 56 75 62 76 64 77 61 78 57 79
REMARK SMILES IDX 58 80 59 81 60 82 39 83 40 84 48 85 41 86 47 87 49 88 46 89
REMARK SMILES IDX 42 90 43 91 44 92 45 93
REMARK H PARENT 6 7 2 16 2 17 80 21 10 27 69 46 37 57
REMARK Flexibility Score: inf
ROOT
ATOM      1  C   UNL A   1      32.815  29.150  25.450  1.00  0.00     0.118 C 
ENDROOT
BRANCH   1   2
ATOM      2  C   UNL A   1      31.866  28.039  25.869  1.00  0.00     0.042 C 
BRANCH   2   3
ATOM      3  C   UNL A   1      32.573  26.858  26.505  1.00  0.00     0.118 C 
BRANCH   3   4
ATOM      4  N   UNL A   1      31.653  25.775  26.835  1.00  0.00    -0.351 N 
ATOM      5  C   UNL A   1      31.634  24.448  26.512  1.00  0.00     0.281 C 
ATOM      6  O   UNL A   1      30.789  23.769  27.107  1.00  0.00    -0.268 OA
ATOM      7  H   UNL A   1      30.898  26.056  27.402  1.00  0.00     0.163 HD
BRANCH   5   8
ATOM      8  C   UNL A   1      32.700  23.803  25.555  1.00  0.00     0.181 C 
ATOM      9  C   UNL A   1      34.092  23.659  26.202  1.00  0.00     0.079 C 
ATOM     10  C   UNL A   1      32.088  22.437  25.168  1.00  0.00     0.144 C 
ATOM     11  C   UNL A   1      35.005  22.701  25.441  1.00  0.00     0.013 C 
ATOM     12  C   UNL A   1      33.014  21.360  24.596  1.00  0.00     0.190 C 
ATOM     13  C   UNL A   1      34.373  21.316  25.323  1.00  0.00     0.065 C 
BRANCH   8  14
ATOM     14  N   UNL A   1      32.790  24.563  24.263  1.00  0.00    -0.336 N 
ATOM     15  C   UNL A   1      31.580  24.575  23.445  1.00  0.00     0.331 C 
ATOM     16  H   UNL A   1      33.027  25.529  24.483  1.00  0.00     0.346 HD
ATOM     17  H   UNL A   1      33.494  24.078  23.707  1.00  0.00     0.346 HD
ENDBRANCH   8  14
BRANCH  12  18
ATOM     18  N   UNL A   1      32.357  20.027  24.563  1.00  0.00    -0.332 N 
ATOM     19  C   UNL A   1      32.268  19.374  23.249  1.00  0.00     0.262 C 
ATOM     20  C   UNL A   1      32.899  19.047  25.516  1.00  0.00     0.265 C 
ATOM     21  H   UNL A   1      31.415  20.296  24.845  1.00  0.00     0.348 HD
ATOM     22  C   UNL A   1      32.624  17.904  23.452  1.00  0.00     0.070 C 
ATOM     23  C   UNL A   1      33.475  17.878  24.712  1.00  0.00     0.047 C 
ATOM     24  C   UNL A   1      34.970  17.975  24.398  1.00  0.00     0.014 C 
ENDBRANCH  12  18
ENDBRANCH   5   8
ENDBRANCH   3   4
ENDBRANCH   2   3
ENDBRANCH   1   2
BRANCH   1  25
ATOM     25  N   UNL A   1      32.373  30.463  25.901  1.00  0.00    -0.352 N 
ATOM     26  C   UNL A   1      32.893  31.280  26.879  1.00  0.00     0.251 C 
ATOM     27  H   UNL A   1      31.582  30.821  25.435  1.00  0.00     0.163 HD
ATOM     28  O   UNL A   1      32.258  32.259  27.247  1.00  0.00    -0.269 OA
BRANCH  26  29
ATOM     29  C   UNL A   1      34.196  30.948  27.500  1.00  0.00     0.039 A 
ATOM     30  C   UNL A   1      35.157  31.951  27.638  1.00  0.00     0.014 A 
ATOM     31  C   UNL A   1      34.462  29.656  27.959  1.00  0.00     0.014 A 
ATOM     32  C   UNL A   1      36.350  31.675  28.311  1.00  0.00     0.010 A 
ATOM     33  C   UNL A   1      35.599  29.414  28.722  1.00  0.00     0.010 A 
ATOM     34  C   UNL A   1      36.560  30.418  28.901  1.00  0.00    -0.014 A 
BRANCH  34  35
ATOM     35  C   UNL A   1      37.781  30.128  29.700  1.00  0.00     0.031 A 
ATOM     36  C   UNL A   1      38.848  29.225  29.141  1.00  0.00     0.074 A 
ATOM     37  C   UNL A   1      37.897  30.623  30.949  1.00  0.00     0.049 A 
ATOM     38  N   UNL A   1      39.939  28.782  29.711  1.00  0.00    -0.248 NA
ATOM     39  C   UNL A   1      38.643  28.728  27.772  1.00  0.00     0.031 C 
ATOM     40  C   UNL A   1      36.910  31.477  31.616  1.00  0.00     0.029 A 
ATOM     41  N   UNL A   1      38.889  30.476  31.886  1.00  0.00    -0.354 N 
ATOM     42  C   UNL A   1      40.542  27.945  28.777  1.00  0.00     0.074 A 
ATOM     43  C   UNL A   1      39.657  27.889  27.632  1.00  0.00     0.031 C 
ATOM     44  C   UNL A   1      37.362  31.803  32.837  1.00  0.00     0.029 A 
ATOM     45  C   UNL A   1      38.641  31.138  33.067  1.00  0.00     0.049 A 
ATOM     46  H   UNL A   1      39.704  29.946  31.728  1.00  0.00     0.167 HD
ATOM     47  C   UNL A   1      41.734  27.305  28.855  1.00  0.00     0.034 A 
ATOM     48  C   UNL A   1      39.353  31.191  34.211  1.00  0.00     0.034 A 
ATOM     49  C   UNL A   1      42.609  27.382  29.999  1.00  0.00     0.049 A 
ATOM     50  C   UNL A   1      40.660  30.442  34.287  1.00  0.00     0.074 A 
ATOM     51  C   UNL A   1      43.861  26.818  30.164  1.00  0.00     0.029 A 
ATOM     52  N   UNL A   1      42.321  28.060  31.178  1.00  0.00    -0.354 N 
ATOM     53  N   UNL A   1      41.239  29.695  33.373  1.00  0.00    -0.248 NA
ATOM     54  C   UNL A   1      41.414  30.550  35.542  1.00  0.00     0.031 C 
ATOM     55  C   UNL A   1      44.295  27.086  31.466  1.00  0.00     0.029 A 
ATOM     56  C   UNL A   1      43.356  27.896  32.086  1.00  0.00     0.049 A 
ATOM     57  H   UNL A   1      41.501  28.579  31.344  1.00  0.00     0.167 HD
ATOM     58  C   UNL A   1      42.445  29.278  33.935  1.00  0.00     0.074 A 
ATOM     59  C   UNL A   1      42.513  29.867  35.256  1.00  0.00     0.031 C 
ATOM     60  C   UNL A   1      43.410  28.485  33.403  1.00  0.00     0.034 A 
BRANCH  47  61
ATOM     61  C   UNL A   1      42.145  26.449  27.680  1.00  0.00     0.023 A 
ATOM     62  C   UNL A   1      41.762  25.101  27.575  1.00  0.00     0.031 A 
ATOM     63  C   UNL A   1      42.948  26.983  26.656  1.00  0.00     0.131 A 
ATOM     64  C   UNL A   1      42.240  24.314  26.516  1.00  0.00     0.055 A 
ATOM     65  C   UNL A   1      43.348  26.219  25.559  1.00  0.00     0.041 A 
ATOM     66  F   UNL A   1      43.367  28.257  26.710  1.00  0.00    -0.206 F 
ATOM     67  C   UNL A   1      43.007  24.871  25.491  1.00  0.00     0.022 A 
BRANCH  64  68
ATOM     68  S   UNL A   1      41.968  22.522  26.577  1.00  0.00     0.124 S 
ATOM     69  O   UNL A   1      42.474  22.103  25.272  1.00  0.00    -0.237 OA
ATOM     70  O   UNL A   1      42.766  22.120  27.730  1.00  0.00    -0.237 OA
ATOM     71  O   UNL A   1      40.522  22.400  26.745  1.00  0.00    -0.744 OA
ENDBRANCH  64  68
ENDBRANCH  47  61
BRANCH  48  72
ATOM     72  C   UNL A   1      38.851  31.967  35.383  1.00  0.00     0.023 A 
ATOM     73  C   UNL A   1      38.327  31.315  36.512  1.00  0.00     0.031 A 
ATOM     74  C   UNL A   1      38.837  33.373  35.371  1.00  0.00     0.131 A 
ATOM     75  C   UNL A   1      37.762  32.066  37.555  1.00  0.00     0.055 A 
ATOM     76  C   UNL A   1      38.330  34.117  36.439  1.00  0.00     0.041 A 
ATOM     77  F   UNL A   1      39.325  34.049  34.319  1.00  0.00    -0.206 F 
ATOM     78  C   UNL A   1      37.775  33.461  37.533  1.00  0.00     0.022 A 
BRANCH  75  79
ATOM     79  S   UNL A   1      36.913  31.186  38.894  1.00  0.00     0.124 S 
ATOM     80  O   UNL A   1      37.865  31.323  39.989  1.00  0.00    -0.237 OA
ATOM     81  O   UNL A   1      35.674  31.948  39.019  1.00  0.00    -0.237 OA
ATOM     82  O   UNL A   1      36.757  29.832  38.366  1.00  0.00    -0.744 OA
ENDBRANCH  75  79
ENDBRANCH  48  72
BRANCH  60  83
ATOM     83  C   UNL A   1      44.650  28.257  34.234  1.00  0.00     0.023 A 
ATOM     84  C   UNL A   1      44.764  27.174  35.123  1.00  0.00     0.031 A 
ATOM     85  C   UNL A   1      45.737  29.145  34.134  1.00  0.00     0.131 A 
ATOM     86  C   UNL A   1      45.912  27.040  35.919  1.00  0.00     0.055 A 
ATOM     87  C   UNL A   1      46.904  28.968  34.878  1.00  0.00     0.041 A 
ATOM     88  F   UNL A   1      45.683  30.200  33.305  1.00  0.00    -0.206 F 
ATOM     89  C   UNL A   1      46.990  27.919  35.787  1.00  0.00     0.022 A 
BRANCH  86  90
ATOM     90  S   UNL A   1      45.936  25.760  37.203  1.00  0.00     0.124 S 
ATOM     91  O   UNL A   1      45.121  24.710  36.599  1.00  0.00    -0.237 OA
ATOM     92  O   UNL A   1      47.360  25.469  37.326  1.00  0.00    -0.237 OA
ATOM     93  O   UNL A   1      45.337  26.422  38.359  1.00  0.00    -0.744 OA
ENDBRANCH  86  90
ENDBRANCH  60  83
ENDBRANCH  34  35
ENDBRANCH  26  29
ENDBRANCH   1  25
TORSDOF 15
ENDMDL
