MODEL 1
REMARK VINA RESULT:     -12.3      0.000      0.000
REMARK SMILES O=C(CCCN1C(=O)c2ccc3c4c(ccc(c24)C1=O)C(=O)NC3=O)NCCCNC(=O)c1ccc(-c2c3nc(c(-c4cc(S(=O)(=O)[O-])ccc4F)c4ccc([nH]4)c(-c4cc(S(=O)(=O)[O-])ccc4F)c4nc(c(-c5cc(S(=O)(=O)[O-])ccc5F)c5ccc2[nH]5)C=C4)C=C3)cc1
REMARK SMILES IDX 28 1 27 2 26 3 1 4 2 5 3 7 4 8 5 9 6 10 19 11 7 12 20 13
REMARK SMILES IDX 17 14 9 15 8 16 16 17 18 18 10 19 15 20 13 21 11 22 14 23
REMARK SMILES IDX 12 24 21 25 24 26 23 27 22 28 25 29 29 31 30 32 31 33 32 35
REMARK SMILES IDX 33 36 34 37 95 38 35 39 94 40 36 41 37 42 38 43 88 44 39 45
REMARK SMILES IDX 93 46 87 47 89 48 40 49 92 50 86 51 85 52 41 54 73 55 53 56
REMARK SMILES IDX 72 57 54 58 57 59 71 60 90 61 55 62 56 63 70 65 91 66 58 67
REMARK SMILES IDX 42 68 43 69 51 70 44 71 50 72 52 73 49 74 45 75 46 76 47 77
REMARK SMILES IDX 48 78 74 79 75 80 83 81 76 82 82 83 84 84 81 85 77 86 78 87
REMARK SMILES IDX 79 88 80 89 59 90 60 91 68 92 61 93 67 94 69 95 66 96 62 97
REMARK SMILES IDX 63 98 64 99 65 100
REMARK H PARENT 26 6 23 30 30 34 89 53 57 64
REMARK Flexibility Score: inf
ROOT
ATOM      1  C   UNL A   1      33.626  27.968  26.953  1.00  0.00     0.042 C 
ENDROOT
BRANCH   1   2
ATOM      2  C   UNL A   1      32.150  27.888  27.340  1.00  0.00     0.117 C 
BRANCH   2   3
ATOM      3  N   UNL A   1      31.274  27.587  26.225  1.00  0.00    -0.356 N 
ATOM      4  O   UNL A   1      30.801  25.432  26.854  1.00  0.00    -0.275 OA
ATOM      5  C   UNL A   1      30.645  26.374  26.082  1.00  0.00     0.220 C 
ATOM      6  H   UNL A   1      31.123  28.280  25.542  1.00  0.00     0.163 HD
BRANCH   5   7
ATOM      7  C   UNL A   1      29.734  26.255  24.876  1.00  0.00     0.102 C 
BRANCH   7   8
ATOM      8  C   UNL A   1      30.203  27.063  23.663  1.00  0.00     0.032 C 
BRANCH   8   9
ATOM      9  C   UNL A   1      31.034  26.295  22.622  1.00  0.00     0.130 C 
BRANCH   9  10
ATOM     10  N   UNL A   1      31.870  25.249  23.216  1.00  0.00    -0.274 N 
ATOM     11  C   UNL A   1      31.349  23.960  23.263  1.00  0.00     0.261 C 
ATOM     12  C   UNL A   1      33.134  25.599  23.685  1.00  0.00     0.261 C 
ATOM     13  O   UNL A   1      30.207  23.688  22.906  1.00  0.00    -0.269 OA
ATOM     14  C   UNL A   1      32.248  22.871  23.690  1.00  0.00     0.049 A 
ATOM     15  C   UNL A   1      34.000  24.495  24.168  1.00  0.00     0.049 A 
ATOM     16  O   UNL A   1      33.566  26.748  23.686  1.00  0.00    -0.269 OA
ATOM     17  C   UNL A   1      31.811  21.543  23.610  1.00  0.00     0.015 A 
ATOM     18  C   UNL A   1      33.539  23.173  24.125  1.00  0.00     0.009 A 
ATOM     19  C   UNL A   1      35.296  24.778  24.615  1.00  0.00     0.015 A 
ATOM     20  C   UNL A   1      32.655  20.499  23.970  1.00  0.00     0.015 A 
ATOM     21  C   UNL A   1      34.398  22.114  24.511  1.00  0.00     0.009 A 
ATOM     22  C   UNL A   1      36.139  23.741  25.014  1.00  0.00     0.015 A 
ATOM     23  C   UNL A   1      33.943  20.788  24.422  1.00  0.00     0.048 A 
ATOM     24  C   UNL A   1      35.692  22.416  24.957  1.00  0.00     0.048 A 
ATOM     25  C   UNL A   1      34.852  19.680  24.785  1.00  0.00     0.258 C 
ATOM     26  C   UNL A   1      36.597  21.314  25.362  1.00  0.00     0.258 C 
ATOM     27  N   UNL A   1      36.088  20.041  25.261  1.00  0.00    -0.288 N 
ATOM     28  O   UNL A   1      34.525  18.510  24.639  1.00  0.00    -0.269 OA
ATOM     29  O   UNL A   1      37.738  21.538  25.743  1.00  0.00    -0.269 OA
ATOM     30  H   UNL A   1      36.674  19.309  25.562  1.00  0.00     0.173 HD
ENDBRANCH   9  10
ENDBRANCH   8   9
ENDBRANCH   7   8
ENDBRANCH   5   7
ENDBRANCH   2   3
ENDBRANCH   1   2
BRANCH   1  31
ATOM     31  C   UNL A   1      34.046  29.176  26.120  1.00  0.00     0.118 C 
BRANCH  31  32
ATOM     32  N   UNL A   1      33.741  30.461  26.727  1.00  0.00    -0.352 N 
ATOM     33  C   UNL A   1      34.414  31.140  27.715  1.00  0.00     0.251 C 
ATOM     34  H   UNL A   1      32.935  30.909  26.383  1.00  0.00     0.163 HD
ATOM     35  O   UNL A   1      33.941  32.178  28.168  1.00  0.00    -0.269 OA
BRANCH  33  36
ATOM     36  C   UNL A   1      35.694  30.617  28.242  1.00  0.00     0.039 A 
ATOM     37  C   UNL A   1      35.678  29.773  29.353  1.00  0.00     0.014 A 
ATOM     38  C   UNL A   1      36.915  30.989  27.672  1.00  0.00     0.014 A 
ATOM     39  C   UNL A   1      36.880  29.266  29.857  1.00  0.00     0.010 A 
ATOM     40  C   UNL A   1      38.108  30.428  28.130  1.00  0.00     0.010 A 
ATOM     41  C   UNL A   1      38.105  29.566  29.236  1.00  0.00    -0.014 A 
BRANCH  41  42
ATOM     42  C   UNL A   1      39.380  28.996  29.756  1.00  0.00     0.031 A 
ATOM     43  C   UNL A   1      40.046  29.588  30.970  1.00  0.00     0.074 A 
ATOM     44  C   UNL A   1      39.950  27.949  29.124  1.00  0.00     0.049 A 
ATOM     45  N   UNL A   1      41.148  29.219  31.575  1.00  0.00    -0.248 NA
ATOM     46  C   UNL A   1      39.402  30.766  31.570  1.00  0.00     0.031 C 
ATOM     47  C   UNL A   1      39.428  27.310  27.913  1.00  0.00     0.029 A 
ATOM     48  N   UNL A   1      41.085  27.232  29.412  1.00  0.00    -0.354 N 
ATOM     49  C   UNL A   1      41.330  30.119  32.621  1.00  0.00     0.074 A 
ATOM     50  C   UNL A   1      40.264  31.092  32.521  1.00  0.00     0.031 C 
ATOM     51  C   UNL A   1      40.217  26.274  27.588  1.00  0.00     0.029 A 
ATOM     52  C   UNL A   1      41.326  26.199  28.534  1.00  0.00     0.049 A 
ATOM     53  H   UNL A   1      41.673  27.439  30.174  1.00  0.00     0.167 HD
ATOM     54  C   UNL A   1      42.278  30.116  33.592  1.00  0.00     0.034 A 
ATOM     55  C   UNL A   1      42.325  25.294  28.494  1.00  0.00     0.034 A 
ATOM     56  C   UNL A   1      43.336  29.137  33.681  1.00  0.00     0.049 A 
ATOM     57  C   UNL A   1      43.386  25.329  29.567  1.00  0.00     0.074 A 
ATOM     58  C   UNL A   1      44.323  29.019  34.644  1.00  0.00     0.029 A 
ATOM     59  N   UNL A   1      43.555  28.114  32.766  1.00  0.00    -0.354 N 
ATOM     60  N   UNL A   1      43.509  26.153  30.583  1.00  0.00    -0.248 NA
ATOM     61  C   UNL A   1      44.430  24.298  29.498  1.00  0.00     0.031 C 
ATOM     62  C   UNL A   1      45.181  27.979  34.272  1.00  0.00     0.029 A 
ATOM     63  C   UNL A   1      44.677  27.382  33.128  1.00  0.00     0.049 A 
ATOM     64  H   UNL A   1      42.996  27.934  31.976  1.00  0.00     0.167 HD
ATOM     65  C   UNL A   1      44.622  25.710  31.297  1.00  0.00     0.074 A 
ATOM     66  C   UNL A   1      45.120  24.541  30.602  1.00  0.00     0.031 C 
ATOM     67  C   UNL A   1      45.174  26.219  32.428  1.00  0.00     0.034 A 
BRANCH  54  68
ATOM     68  C   UNL A   1      42.224  31.224  34.620  1.00  0.00     0.023 A 
ATOM     69  C   UNL A   1      41.218  31.275  35.603  1.00  0.00     0.031 A 
ATOM     70  C   UNL A   1      43.178  32.258  34.608  1.00  0.00     0.131 A 
ATOM     71  C   UNL A   1      41.139  32.373  36.472  1.00  0.00     0.055 A 
ATOM     72  C   UNL A   1      43.148  33.302  35.536  1.00  0.00     0.041 A 
ATOM     73  F   UNL A   1      44.150  32.281  33.684  1.00  0.00    -0.206 F 
ATOM     74  C   UNL A   1      42.114  33.373  36.465  1.00  0.00     0.022 A 
BRANCH  71  75
ATOM     75  S   UNL A   1      39.655  32.559  37.498  1.00  0.00     0.124 S 
ATOM     76  O   UNL A   1      39.137  33.846  37.037  1.00  0.00    -0.237 OA
ATOM     77  O   UNL A   1      38.870  31.386  37.135  1.00  0.00    -0.237 OA
ATOM     78  O   UNL A   1      40.180  32.563  38.862  1.00  0.00    -0.744 OA
ENDBRANCH  71  75
ENDBRANCH  54  68
BRANCH  55  79
ATOM     79  C   UNL A   1      42.379  24.272  27.405  1.00  0.00     0.023 A 
ATOM     80  C   UNL A   1      41.811  23.000  27.573  1.00  0.00     0.031 A 
ATOM     81  C   UNL A   1      43.054  24.538  26.200  1.00  0.00     0.131 A 
ATOM     82  C   UNL A   1      41.976  22.023  26.578  1.00  0.00     0.055 A 
ATOM     83  C   UNL A   1      43.160  23.583  25.187  1.00  0.00     0.041 A 
ATOM     84  F   UNL A   1      43.615  25.739  25.985  1.00  0.00    -0.206 F 
ATOM     85  C   UNL A   1      42.632  22.311  25.380  1.00  0.00     0.022 A 
BRANCH  82  86
ATOM     86  S   UNL A   1      41.406  20.333  26.915  1.00  0.00     0.124 S 
ATOM     87  O   UNL A   1      40.591  20.056  25.738  1.00  0.00    -0.237 OA
ATOM     88  O   UNL A   1      42.666  19.603  27.011  1.00  0.00    -0.237 OA
ATOM     89  O   UNL A   1      40.668  20.467  28.169  1.00  0.00    -0.744 OA
ENDBRANCH  82  86
ENDBRANCH  55  79
BRANCH  67  90
ATOM     90  C   UNL A   1      46.345  25.470  33.022  1.00  0.00     0.023 A 
ATOM     91  C   UNL A   1      46.175  24.442  33.967  1.00  0.00     0.031 A 
ATOM     92  C   UNL A   1      47.660  25.810  32.652  1.00  0.00     0.131 A 
ATOM     93  C   UNL A   1      47.297  23.844  34.560  1.00  0.00     0.055 A 
ATOM     94  C   UNL A   1      48.770  25.159  33.191  1.00  0.00     0.041 A 
ATOM     95  F   UNL A   1      47.888  26.786  31.758  1.00  0.00    -0.206 F 
ATOM     96  C   UNL A   1      48.593  24.182  34.164  1.00  0.00     0.022 A 
BRANCH  93  97
ATOM     97  S   UNL A   1      47.044  22.705  35.951  1.00  0.00     0.124 S 
ATOM     98  O   UNL A   1      47.491  23.507  37.086  1.00  0.00    -0.237 OA
ATOM     99  O   UNL A   1      45.610  22.443  35.882  1.00  0.00    -0.237 OA
ATOM    100  O   UNL A   1      47.899  21.566  35.622  1.00  0.00    -0.744 OA
ENDBRANCH  93  97
ENDBRANCH  67  90
ENDBRANCH  41  42
ENDBRANCH  33  36
ENDBRANCH  31  32
ENDBRANCH   1  31
TORSDOF 16
ENDMDL
MODEL 2
REMARK VINA RESULT:     -12.2      5.392      8.586
REMARK SMILES O=C(CCCN1C(=O)c2ccc3c4c(ccc(c24)C1=O)C(=O)NC3=O)NCCCNC(=O)c1ccc(-c2c3nc(c(-c4cc(S(=O)(=O)[O-])ccc4F)c4ccc([nH]4)c(-c4cc(S(=O)(=O)[O-])ccc4F)c4nc(c(-c5cc(S(=O)(=O)[O-])ccc5F)c5ccc2[nH]5)C=C4)C=C3)cc1
REMARK SMILES IDX 28 1 27 2 26 3 1 4 2 5 3 7 4 8 5 9 6 10 19 11 7 12 20 13
REMARK SMILES IDX 17 14 9 15 8 16 16 17 18 18 10 19 15 20 13 21 11 22 14 23
REMARK SMILES IDX 12 24 21 25 24 26 23 27 22 28 25 29 29 31 30 32 31 33 32 35
REMARK SMILES IDX 33 36 34 37 95 38 35 39 94 40 36 41 37 42 38 43 88 44 39 45
REMARK SMILES IDX 93 46 87 47 89 48 40 49 92 50 86 51 85 52 41 54 73 55 53 56
REMARK SMILES IDX 72 57 54 58 57 59 71 60 90 61 55 62 56 63 70 65 91 66 58 67
REMARK SMILES IDX 42 68 43 69 51 70 44 71 50 72 52 73 49 74 45 75 46 76 47 77
REMARK SMILES IDX 48 78 74 79 75 80 83 81 76 82 82 83 84 84 81 85 77 86 78 87
REMARK SMILES IDX 79 88 80 89 59 90 60 91 68 92 61 93 67 94 69 95 66 96 62 97
REMARK SMILES IDX 63 98 64 99 65 100
REMARK H PARENT 26 6 23 30 30 34 89 53 57 64
REMARK Flexibility Score: inf
ROOT
ATOM      1  C   UNL A   1      38.113  19.873  24.996  1.00  0.00     0.042 C 
ENDROOT
BRANCH   1   2
ATOM      2  C   UNL A   1      37.021  20.898  24.696  1.00  0.00     0.117 C 
BRANCH   2   3
ATOM      3  N   UNL A   1      35.843  20.751  25.528  1.00  0.00    -0.356 N 
ATOM      4  O   UNL A   1      35.620  22.976  26.041  1.00  0.00    -0.275 OA
ATOM      5  C   UNL A   1      35.217  21.819  26.124  1.00  0.00     0.220 C 
ATOM      6  H   UNL A   1      35.476  19.849  25.673  1.00  0.00     0.163 HD
BRANCH   5   7
ATOM      7  C   UNL A   1      33.975  21.478  26.925  1.00  0.00     0.102 C 
BRANCH   7   8
ATOM      8  C   UNL A   1      32.947  20.649  26.151  1.00  0.00     0.032 C 
BRANCH   8   9
ATOM      9  C   UNL A   1      31.639  21.370  25.786  1.00  0.00     0.130 C 
BRANCH   9  10
ATOM     10  N   UNL A   1      31.851  22.748  25.335  1.00  0.00    -0.274 N 
ATOM     11  C   UNL A   1      31.537  23.770  26.223  1.00  0.00     0.261 C 
ATOM     12  C   UNL A   1      32.364  22.954  24.056  1.00  0.00     0.261 C 
ATOM     13  O   UNL A   1      31.023  23.568  27.320  1.00  0.00    -0.269 OA
ATOM     14  C   UNL A   1      31.916  25.146  25.849  1.00  0.00     0.049 A 
ATOM     15  C   UNL A   1      32.681  24.353  23.676  1.00  0.00     0.049 A 
ATOM     16  O   UNL A   1      32.590  22.047  23.259  1.00  0.00    -0.269 OA
ATOM     17  C   UNL A   1      31.754  26.183  26.777  1.00  0.00     0.015 A 
ATOM     18  C   UNL A   1      32.474  25.390  24.594  1.00  0.00     0.009 A 
ATOM     19  C   UNL A   1      33.235  24.620  22.420  1.00  0.00     0.015 A 
ATOM     20  C   UNL A   1      32.140  27.480  26.460  1.00  0.00     0.015 A 
ATOM     21  C   UNL A   1      32.854  26.714  24.259  1.00  0.00     0.009 A 
ATOM     22  C   UNL A   1      33.592  25.924  22.077  1.00  0.00     0.015 A 
ATOM     23  C   UNL A   1      32.685  27.741  25.202  1.00  0.00     0.048 A 
ATOM     24  C   UNL A   1      33.406  26.964  22.995  1.00  0.00     0.048 A 
ATOM     25  C   UNL A   1      33.118  29.115  24.868  1.00  0.00     0.258 C 
ATOM     26  C   UNL A   1      33.806  28.345  22.636  1.00  0.00     0.258 C 
ATOM     27  N   UNL A   1      33.606  29.306  23.599  1.00  0.00    -0.288 N 
ATOM     28  O   UNL A   1      33.069  30.019  25.691  1.00  0.00    -0.269 OA
ATOM     29  O   UNL A   1      34.304  28.599  21.548  1.00  0.00    -0.269 OA
ATOM     30  H   UNL A   1      33.838  30.230  23.351  1.00  0.00     0.173 HD
ENDBRANCH   9  10
ENDBRANCH   8   9
ENDBRANCH   7   8
ENDBRANCH   5   7
ENDBRANCH   2   3
ENDBRANCH   1   2
BRANCH   1  31
ATOM     31  C   UNL A   1      39.237  20.329  25.923  1.00  0.00     0.118 C 
BRANCH  31  32
ATOM     32  N   UNL A   1      40.310  19.362  26.088  1.00  0.00    -0.352 N 
ATOM     33  C   UNL A   1      41.647  19.576  26.326  1.00  0.00     0.251 C 
ATOM     34  H   UNL A   1      40.041  18.418  26.018  1.00  0.00     0.163 HD
ATOM     35  O   UNL A   1      42.421  18.623  26.339  1.00  0.00    -0.269 OA
BRANCH  33  36
ATOM     36  C   UNL A   1      42.156  20.947  26.552  1.00  0.00     0.039 A 
ATOM     37  C   UNL A   1      42.390  21.775  25.453  1.00  0.00     0.014 A 
ATOM     38  C   UNL A   1      42.444  21.407  27.840  1.00  0.00     0.014 A 
ATOM     39  C   UNL A   1      42.864  23.075  25.653  1.00  0.00     0.010 A 
ATOM     40  C   UNL A   1      42.849  22.727  28.044  1.00  0.00     0.010 A 
ATOM     41  C   UNL A   1      43.074  23.575  26.950  1.00  0.00    -0.014 A 
BRANCH  41  42
ATOM     42  C   UNL A   1      43.546  24.972  27.159  1.00  0.00     0.031 A 
ATOM     43  C   UNL A   1      42.617  26.021  27.712  1.00  0.00     0.074 A 
ATOM     44  C   UNL A   1      44.813  25.305  26.836  1.00  0.00     0.049 A 
ATOM     45  N   UNL A   1      42.852  27.283  27.975  1.00  0.00    -0.248 NA
ATOM     46  C   UNL A   1      41.233  25.604  27.982  1.00  0.00     0.031 C 
ATOM     47  C   UNL A   1      45.799  24.392  26.252  1.00  0.00     0.029 A 
ATOM     48  N   UNL A   1      45.492  26.492  26.957  1.00  0.00    -0.354 N 
ATOM     49  C   UNL A   1      41.650  27.808  28.437  1.00  0.00     0.074 A 
ATOM     50  C   UNL A   1      40.671  26.746  28.349  1.00  0.00     0.031 C 
ATOM     51  C   UNL A   1      46.965  25.042  26.105  1.00  0.00     0.029 A 
ATOM     52  C   UNL A   1      46.802  26.426  26.538  1.00  0.00     0.049 A 
ATOM     53  H   UNL A   1      45.080  27.314  27.309  1.00  0.00     0.167 HD
ATOM     54  C   UNL A   1      41.392  29.051  28.920  1.00  0.00     0.034 A 
ATOM     55  C   UNL A   1      47.763  27.372  26.506  1.00  0.00     0.034 A 
ATOM     56  C   UNL A   1      42.378  30.102  29.004  1.00  0.00     0.049 A 
ATOM     57  C   UNL A   1      47.445  28.755  27.019  1.00  0.00     0.074 A 
ATOM     58  C   UNL A   1      42.234  31.381  29.512  1.00  0.00     0.029 A 
ATOM     59  N   UNL A   1      43.691  30.001  28.558  1.00  0.00    -0.354 N 
ATOM     60  N   UNL A   1      46.317  29.218  27.507  1.00  0.00    -0.248 NA
ATOM     61  C   UNL A   1      48.537  29.736  26.995  1.00  0.00     0.031 C 
ATOM     62  C   UNL A   1      43.429  32.077  29.303  1.00  0.00     0.029 A 
ATOM     63  C   UNL A   1      44.354  31.205  28.752  1.00  0.00     0.049 A 
ATOM     64  H   UNL A   1      44.092  29.194  28.162  1.00  0.00     0.167 HD
ATOM     65  C   UNL A   1      46.579  30.532  27.887  1.00  0.00     0.074 A 
ATOM     66  C   UNL A   1      47.974  30.780  27.585  1.00  0.00     0.031 C 
ATOM     67  C   UNL A   1      45.746  31.448  28.444  1.00  0.00     0.034 A 
BRANCH  54  68
ATOM     68  C   UNL A   1      39.977  29.343  29.369  1.00  0.00     0.023 A 
ATOM     69  C   UNL A   1      39.646  29.485  30.729  1.00  0.00     0.031 A 
ATOM     70  C   UNL A   1      38.938  29.460  28.429  1.00  0.00     0.131 A 
ATOM     71  C   UNL A   1      38.307  29.650  31.114  1.00  0.00     0.055 A 
ATOM     72  C   UNL A   1      37.619  29.717  28.812  1.00  0.00     0.041 A 
ATOM     73  F   UNL A   1      39.183  29.313  27.117  1.00  0.00    -0.206 F 
ATOM     74  C   UNL A   1      37.295  29.796  30.163  1.00  0.00     0.022 A 
BRANCH  71  75
ATOM     75  S   UNL A   1      37.888  29.505  32.872  1.00  0.00     0.124 S 
ATOM     76  O   UNL A   1      36.851  30.527  33.013  1.00  0.00    -0.237 OA
ATOM     77  O   UNL A   1      37.440  28.122  32.979  1.00  0.00    -0.237 OA
ATOM     78  O   UNL A   1      39.145  29.810  33.551  1.00  0.00    -0.744 OA
ENDBRANCH  71  75
ENDBRANCH  54  68
BRANCH  55  79
ATOM     79  C   UNL A   1      49.121  27.054  25.971  1.00  0.00     0.023 A 
ATOM     80  C   UNL A   1      49.504  27.448  24.679  1.00  0.00     0.031 A 
ATOM     81  C   UNL A   1      50.037  26.299  26.726  1.00  0.00     0.131 A 
ATOM     82  C   UNL A   1      50.743  27.038  24.160  1.00  0.00     0.055 A 
ATOM     83  C   UNL A   1      51.293  25.948  26.230  1.00  0.00     0.041 A 
ATOM     84  F   UNL A   1      49.724  25.898  27.969  1.00  0.00    -0.206 F 
ATOM     85  C   UNL A   1      51.646  26.305  24.932  1.00  0.00     0.022 A 
BRANCH  82  86
ATOM     86  S   UNL A   1      51.117  27.390  22.420  1.00  0.00     0.124 S 
ATOM     87  O   UNL A   1      51.133  28.848  22.410  1.00  0.00    -0.237 OA
ATOM     88  O   UNL A   1      52.408  26.733  22.248  1.00  0.00    -0.237 OA
ATOM     89  O   UNL A   1      50.005  26.773  21.701  1.00  0.00    -0.744 OA
ENDBRANCH  82  86
ENDBRANCH  55  79
BRANCH  67  90
ATOM     90  C   UNL A   1      46.342  32.785  28.824  1.00  0.00     0.023 A 
ATOM     91  C   UNL A   1      46.405  33.861  27.921  1.00  0.00     0.031 A 
ATOM     92  C   UNL A   1      46.878  32.975  30.111  1.00  0.00     0.131 A 
ATOM     93  C   UNL A   1      47.055  35.048  28.292  1.00  0.00     0.055 A 
ATOM     94  C   UNL A   1      47.456  34.185  30.498  1.00  0.00     0.041 A 
ATOM     95  F   UNL A   1      46.851  31.984  31.017  1.00  0.00    -0.206 F 
ATOM     96  C   UNL A   1      47.563  35.224  29.580  1.00  0.00     0.022 A 
BRANCH  93  97
ATOM     97  S   UNL A   1      47.340  36.317  27.026  1.00  0.00     0.124 S 
ATOM     98  O   UNL A   1      46.111  36.245  26.242  1.00  0.00    -0.237 OA
ATOM     99  O   UNL A   1      47.514  37.524  27.828  1.00  0.00    -0.237 OA
ATOM    100  O   UNL A   1      48.542  35.851  26.338  1.00  0.00    -0.744 OA
ENDBRANCH  93  97
ENDBRANCH  67  90
ENDBRANCH  41  42
ENDBRANCH  33  36
ENDBRANCH  31  32
ENDBRANCH   1  31
TORSDOF 16
ENDMDL
MODEL 3
REMARK VINA RESULT:     -12.2      5.844     15.544
REMARK SMILES O=C(CCCN1C(=O)c2ccc3c4c(ccc(c24)C1=O)C(=O)NC3=O)NCCCNC(=O)c1ccc(-c2c3nc(c(-c4cc(S(=O)(=O)[O-])ccc4F)c4ccc([nH]4)c(-c4cc(S(=O)(=O)[O-])ccc4F)c4nc(c(-c5cc(S(=O)(=O)[O-])ccc5F)c5ccc2[nH]5)C=C4)C=C3)cc1
REMARK SMILES IDX 28 1 27 2 26 3 1 4 2 5 3 7 4 8 5 9 6 10 19 11 7 12 20 13
REMARK SMILES IDX 17 14 9 15 8 16 16 17 18 18 10 19 15 20 13 21 11 22 14 23
REMARK SMILES IDX 12 24 21 25 24 26 23 27 22 28 25 29 29 31 30 32 31 33 32 35
REMARK SMILES IDX 33 36 34 37 95 38 35 39 94 40 36 41 37 42 38 43 88 44 39 45
REMARK SMILES IDX 93 46 87 47 89 48 40 49 92 50 86 51 85 52 41 54 73 55 53 56
REMARK SMILES IDX 72 57 54 58 57 59 71 60 90 61 55 62 56 63 70 65 91 66 58 67
REMARK SMILES IDX 42 68 43 69 51 70 44 71 50 72 52 73 49 74 45 75 46 76 47 77
REMARK SMILES IDX 48 78 74 79 75 80 83 81 76 82 82 83 84 84 81 85 77 86 78 87
REMARK SMILES IDX 79 88 80 89 59 90 60 91 68 92 61 93 67 94 69 95 66 96 62 97
REMARK SMILES IDX 63 98 64 99 65 100
REMARK H PARENT 26 6 23 30 30 34 89 53 57 64
REMARK Flexibility Score: inf
ROOT
ATOM      1  C   UNL A   1      45.863  26.159  39.674  1.00  0.00     0.042 C 
ENDROOT
BRANCH   1   2
ATOM      2  C   UNL A   1      44.818  25.072  39.423  1.00  0.00     0.117 C 
BRANCH   2   3
ATOM      3  N   UNL A   1      45.193  23.775  39.952  1.00  0.00    -0.356 N 
ATOM      4  O   UNL A   1      45.872  22.877  37.953  1.00  0.00    -0.275 OA
ATOM      5  C   UNL A   1      45.717  22.777  39.167  1.00  0.00     0.220 C 
ATOM      6  H   UNL A   1      45.068  23.602  40.913  1.00  0.00     0.163 HD
BRANCH   5   7
ATOM      7  C   UNL A   1      46.089  21.503  39.901  1.00  0.00     0.102 C 
BRANCH   7   8
ATOM      8  C   UNL A   1      47.558  21.102  39.741  1.00  0.00     0.032 C 
BRANCH   8   9
ATOM      9  C   UNL A   1      47.895  19.639  40.072  1.00  0.00     0.130 C 
BRANCH   9  10
ATOM     10  N   UNL A   1      46.711  18.831  40.370  1.00  0.00    -0.274 N 
ATOM     11  C   UNL A   1      46.046  18.246  39.299  1.00  0.00     0.261 C 
ATOM     12  C   UNL A   1      46.327  18.685  41.702  1.00  0.00     0.261 C 
ATOM     13  O   UNL A   1      46.362  18.443  38.129  1.00  0.00    -0.269 OA
ATOM     14  C   UNL A   1      44.966  17.288  39.601  1.00  0.00     0.049 A 
ATOM     15  C   UNL A   1      45.197  17.764  41.979  1.00  0.00     0.049 A 
ATOM     16  O   UNL A   1      46.889  19.248  42.638  1.00  0.00    -0.269 OA
ATOM     17  C   UNL A   1      44.372  16.564  38.558  1.00  0.00     0.015 A 
ATOM     18  C   UNL A   1      44.580  17.078  40.925  1.00  0.00     0.009 A 
ATOM     19  C   UNL A   1      44.791  17.545  43.300  1.00  0.00     0.015 A 
ATOM     20  C   UNL A   1      43.379  15.628  38.824  1.00  0.00     0.015 A 
ATOM     21  C   UNL A   1      43.556  16.137  41.201  1.00  0.00     0.009 A 
ATOM     22  C   UNL A   1      43.771  16.636  43.575  1.00  0.00     0.015 A 
ATOM     23  C   UNL A   1      42.973  15.421  40.142  1.00  0.00     0.048 A 
ATOM     24  C   UNL A   1      43.161  15.932  42.530  1.00  0.00     0.048 A 
ATOM     25  C   UNL A   1      41.934  14.410  40.433  1.00  0.00     0.258 C 
ATOM     26  C   UNL A   1      42.091  14.950  42.827  1.00  0.00     0.258 C 
ATOM     27  N   UNL A   1      41.555  14.290  41.747  1.00  0.00    -0.288 N 
ATOM     28  O   UNL A   1      41.464  13.704  39.550  1.00  0.00    -0.269 OA
ATOM     29  O   UNL A   1      41.729  14.734  43.975  1.00  0.00    -0.269 OA
ATOM     30  H   UNL A   1      40.821  13.662  41.936  1.00  0.00     0.173 HD
ENDBRANCH   9  10
ENDBRANCH   8   9
ENDBRANCH   7   8
ENDBRANCH   5   7
ENDBRANCH   2   3
ENDBRANCH   1   2
BRANCH   1  31
ATOM     31  C   UNL A   1      46.459  26.826  38.438  1.00  0.00     0.118 C 
BRANCH  31  32
ATOM     32  N   UNL A   1      47.228  25.935  37.585  1.00  0.00    -0.352 N 
ATOM     33  C   UNL A   1      47.023  25.594  36.270  1.00  0.00     0.251 C 
ATOM     34  H   UNL A   1      48.009  25.513  38.012  1.00  0.00     0.163 HD
ATOM     35  O   UNL A   1      47.733  24.741  35.746  1.00  0.00    -0.269 OA
BRANCH  33  36
ATOM     36  C   UNL A   1      45.943  26.239  35.490  1.00  0.00     0.039 A 
ATOM     37  C   UNL A   1      44.714  25.590  35.366  1.00  0.00     0.014 A 
ATOM     38  C   UNL A   1      46.149  27.462  34.847  1.00  0.00     0.014 A 
ATOM     39  C   UNL A   1      43.682  26.192  34.638  1.00  0.00     0.010 A 
ATOM     40  C   UNL A   1      45.099  28.096  34.181  1.00  0.00     0.010 A 
ATOM     41  C   UNL A   1      43.853  27.462  34.060  1.00  0.00    -0.014 A 
BRANCH  41  42
ATOM     42  C   UNL A   1      42.740  28.114  33.316  1.00  0.00     0.031 A 
ATOM     43  C   UNL A   1      42.559  27.872  31.839  1.00  0.00     0.074 A 
ATOM     44  C   UNL A   1      41.895  28.941  33.966  1.00  0.00     0.049 A 
ATOM     45  N   UNL A   1      41.643  28.340  31.028  1.00  0.00    -0.248 NA
ATOM     46  C   UNL A   1      43.554  27.012  31.183  1.00  0.00     0.031 C 
ATOM     47  C   UNL A   1      41.986  29.291  35.386  1.00  0.00     0.029 A 
ATOM     48  N   UNL A   1      40.790  29.629  33.527  1.00  0.00    -0.354 N 
ATOM     49  C   UNL A   1      41.952  27.833  29.769  1.00  0.00     0.074 A 
ATOM     50  C   UNL A   1      43.182  27.083  29.914  1.00  0.00     0.031 C 
ATOM     51  C   UNL A   1      40.959  30.094  35.707  1.00  0.00     0.029 A 
ATOM     52  C   UNL A   1      40.161  30.355  34.513  1.00  0.00     0.049 A 
ATOM     53  H   UNL A   1      40.479  29.607  32.593  1.00  0.00     0.167 HD
ATOM     54  C   UNL A   1      41.261  27.956  28.608  1.00  0.00     0.034 A 
ATOM     55  C   UNL A   1      39.067  31.142  34.463  1.00  0.00     0.034 A 
ATOM     56  C   UNL A   1      40.034  28.706  28.478  1.00  0.00     0.049 A 
ATOM     57  C   UNL A   1      38.331  31.288  33.153  1.00  0.00     0.074 A 
ATOM     58  C   UNL A   1      39.233  28.861  27.359  1.00  0.00     0.029 A 
ATOM     59  N   UNL A   1      39.435  29.439  29.495  1.00  0.00    -0.354 N 
ATOM     60  N   UNL A   1      38.607  30.754  31.985  1.00  0.00    -0.248 NA
ATOM     61  C   UNL A   1      37.126  32.126  33.162  1.00  0.00     0.031 C 
ATOM     62  C   UNL A   1      38.198  29.747  27.677  1.00  0.00     0.029 A 
ATOM     63  C   UNL A   1      38.294  30.070  29.021  1.00  0.00     0.049 A 
ATOM     64  H   UNL A   1      39.771  29.501  30.418  1.00  0.00     0.167 HD
ATOM     65  C   UNL A   1      37.582  31.160  31.132  1.00  0.00     0.074 A 
ATOM     66  C   UNL A   1      36.679  31.968  31.926  1.00  0.00     0.031 C 
ATOM     67  C   UNL A   1      37.399  30.881  29.816  1.00  0.00     0.034 A 
BRANCH  54  68
ATOM     68  C   UNL A   1      41.834  27.280  27.382  1.00  0.00     0.023 A 
ATOM     69  C   UNL A   1      41.776  25.885  27.209  1.00  0.00     0.031 A 
ATOM     70  C   UNL A   1      42.469  28.036  26.380  1.00  0.00     0.131 A 
ATOM     71  C   UNL A   1      42.411  25.285  26.111  1.00  0.00     0.055 A 
ATOM     72  C   UNL A   1      43.019  27.441  25.242  1.00  0.00     0.041 A 
ATOM     73  F   UNL A   1      42.578  29.369  26.495  1.00  0.00    -0.206 F 
ATOM     74  C   UNL A   1      43.008  26.056  25.112  1.00  0.00     0.022 A 
BRANCH  71  75
ATOM     75  S   UNL A   1      42.589  23.480  26.095  1.00  0.00     0.124 S 
ATOM     76  O   UNL A   1      43.050  23.243  24.728  1.00  0.00    -0.237 OA
ATOM     77  O   UNL A   1      43.569  23.250  27.149  1.00  0.00    -0.237 OA
ATOM     78  O   UNL A   1      41.239  23.000  26.379  1.00  0.00    -0.744 OA
ENDBRANCH  71  75
ENDBRANCH  54  68
BRANCH  55  79
ATOM     79  C   UNL A   1      38.592  31.857  35.685  1.00  0.00     0.023 A 
ATOM     80  C   UNL A   1      38.005  31.161  36.753  1.00  0.00     0.031 A 
ATOM     81  C   UNL A   1      38.667  33.259  35.777  1.00  0.00     0.131 A 
ATOM     82  C   UNL A   1      37.464  31.869  37.839  1.00  0.00     0.055 A 
ATOM     83  C   UNL A   1      38.185  33.954  36.887  1.00  0.00     0.041 A 
ATOM     84  F   UNL A   1      39.221  33.976  34.785  1.00  0.00    -0.206 F 
ATOM     85  C   UNL A   1      37.565  33.259  37.920  1.00  0.00     0.022 A 
BRANCH  82  86
ATOM     86  S   UNL A   1      36.534  30.953  39.098  1.00  0.00     0.124 S 
ATOM     87  O   UNL A   1      36.372  29.652  38.459  1.00  0.00    -0.237 OA
ATOM     88  O   UNL A   1      37.442  30.998  40.239  1.00  0.00    -0.237 OA
ATOM     89  O   UNL A   1      35.307  31.732  39.249  1.00  0.00    -0.744 OA
ENDBRANCH  82  86
ENDBRANCH  55  79
BRANCH  67  90
ATOM     90  C   UNL A   1      36.137  31.403  29.168  1.00  0.00     0.023 A 
ATOM     91  C   UNL A   1      35.768  32.759  29.230  1.00  0.00     0.031 A 
ATOM     92  C   UNL A   1      35.274  30.518  28.494  1.00  0.00     0.131 A 
ATOM     93  C   UNL A   1      34.539  33.175  28.696  1.00  0.00     0.055 A 
ATOM     94  C   UNL A   1      34.089  30.953  27.898  1.00  0.00     0.041 A 
ATOM     95  F   UNL A   1      35.570  29.211  28.403  1.00  0.00    -0.206 F 
ATOM     96  C   UNL A   1      33.707  32.285  28.013  1.00  0.00     0.022 A 
BRANCH  93  97
ATOM     97  S   UNL A   1      33.981  34.872  29.014  1.00  0.00     0.124 S 
ATOM     98  O   UNL A   1      34.328  35.048  30.421  1.00  0.00    -0.237 OA
ATOM     99  O   UNL A   1      34.773  35.645  28.061  1.00  0.00    -0.237 OA
ATOM    100  O   UNL A   1      32.548  34.822  28.731  1.00  0.00    -0.744 OA
ENDBRANCH  93  97
ENDBRANCH  67  90
ENDBRANCH  41  42
ENDBRANCH  33  36
ENDBRANCH  31  32
ENDBRANCH   1  31
TORSDOF 16
ENDMDL
