MODEL 1
REMARK VINA RESULT:     -12.9      0.000      0.000
REMARK SMILES O=C(NCCCNC(=O)c1cnccc1C(=O)N1CCC(Cc2ccccc2)CC1)c1ccc(-c2c3nc(c(-c4cc(S(=O)(=O)[O-])ccc4F)c4ccc([nH]4)c(-c4cc(S(=O)(=O)[O-])ccc4F)c4nc(c(-c5cc(S(=O)(=O)[O-])ccc5F)c5ccc2[nH]5)C=C4)C=C3)cc1
REMARK SMILES IDX 5 1 4 2 3 3 1 4 2 5 31 7 32 8 93 9 33 10 92 11 34 12 35 13
REMARK SMILES IDX 36 14 86 15 37 16 91 17 85 18 87 19 38 20 90 21 84 22 83 23
REMARK SMILES IDX 39 25 71 26 51 27 70 28 52 29 55 30 69 31 88 32 53 33 54 34
REMARK SMILES IDX 68 36 89 37 56 38 40 39 41 40 49 41 42 42 48 43 50 44 47 45
REMARK SMILES IDX 43 46 44 47 45 48 46 49 72 50 73 51 81 52 74 53 80 54 82 55
REMARK SMILES IDX 79 56 75 57 76 58 77 59 78 60 57 61 58 62 66 63 59 64 65 65
REMARK SMILES IDX 67 66 64 67 60 68 61 69 62 70 63 71 6 72 7 73 8 74 9 76
REMARK SMILES IDX 10 77 11 78 15 79 12 80 14 81 13 82 16 83 17 84 18 85 19 86
REMARK SMILES IDX 30 87 20 88 29 89 21 90 22 91 23 92 24 93 28 94 25 95 27 96
REMARK SMILES IDX 26 97
REMARK H PARENT 3 6 87 24 55 35 7 75
REMARK Flexibility Score: inf
ROOT
ATOM      1  C   UNL A   1      31.698  28.954  27.323  1.00  0.00     0.042 C 
ENDROOT
BRANCH   1   2
ATOM      2  C   UNL A   1      32.822  29.738  26.645  1.00  0.00     0.118 C 
BRANCH   2   3
ATOM      3  N   UNL A   1      32.821  31.175  26.889  1.00  0.00    -0.352 N 
ATOM      4  O   UNL A   1      33.369  33.120  27.881  1.00  0.00    -0.269 OA
ATOM      5  C   UNL A   1      33.693  31.978  27.590  1.00  0.00     0.251 C 
ATOM      6  H   UNL A   1      32.065  31.655  26.482  1.00  0.00     0.163 HD
BRANCH   5   7
ATOM      7  C   UNL A   1      35.009  31.454  28.002  1.00  0.00     0.039 A 
ATOM      8  C   UNL A   1      35.137  30.127  28.396  1.00  0.00     0.014 A 
ATOM      9  C   UNL A   1      36.124  32.296  28.007  1.00  0.00     0.014 A 
ATOM     10  C   UNL A   1      36.276  29.722  29.064  1.00  0.00     0.010 A 
ATOM     11  C   UNL A   1      37.332  31.831  28.531  1.00  0.00     0.010 A 
ATOM     12  C   UNL A   1      37.395  30.563  29.128  1.00  0.00    -0.014 A 
BRANCH  12  13
ATOM     13  C   UNL A   1      38.611  30.069  29.819  1.00  0.00     0.031 A 
ATOM     14  C   UNL A   1      38.933  30.514  31.218  1.00  0.00     0.074 A 
ATOM     15  C   UNL A   1      39.377  29.153  29.194  1.00  0.00     0.049 A 
ATOM     16  N   UNL A   1      39.934  30.165  31.985  1.00  0.00    -0.248 NA
ATOM     17  C   UNL A   1      38.020  31.489  31.833  1.00  0.00     0.031 C 
ATOM     18  C   UNL A   1      39.134  28.640  27.840  1.00  0.00     0.029 A 
ATOM     19  N   UNL A   1      40.479  28.460  29.615  1.00  0.00    -0.354 N 
ATOM     20  C   UNL A   1      39.793  30.901  33.158  1.00  0.00     0.074 A 
ATOM     21  C   UNL A   1      38.628  31.742  32.982  1.00  0.00     0.031 C 
ATOM     22  C   UNL A   1      40.008  27.659  27.578  1.00  0.00     0.029 A 
ATOM     23  C   UNL A   1      40.935  27.546  28.694  1.00  0.00     0.049 A 
ATOM     24  H   UNL A   1      40.904  28.602  30.492  1.00  0.00     0.167 HD
ATOM     25  C   UNL A   1      40.564  30.868  34.274  1.00  0.00     0.034 A 
ATOM     26  C   UNL A   1      41.999  26.724  28.733  1.00  0.00     0.034 A 
ATOM     27  C   UNL A   1      41.720  30.013  34.415  1.00  0.00     0.049 A 
ATOM     28  C   UNL A   1      42.868  26.746  29.957  1.00  0.00     0.074 A 
ATOM     29  C   UNL A   1      42.568  29.878  35.500  1.00  0.00     0.029 A 
ATOM     30  N   UNL A   1      42.196  29.150  33.432  1.00  0.00    -0.354 N 
ATOM     31  N   UNL A   1      42.728  27.453  31.055  1.00  0.00    -0.248 NA
ATOM     32  C   UNL A   1      44.038  25.864  29.947  1.00  0.00     0.031 C 
ATOM     33  C   UNL A   1      43.599  29.000  35.145  1.00  0.00     0.029 A 
ATOM     34  C   UNL A   1      43.347  28.510  33.873  1.00  0.00     0.049 A 
ATOM     35  H   UNL A   1      41.778  29.014  32.552  1.00  0.00     0.167 HD
ATOM     36  C   UNL A   1      43.782  27.079  31.882  1.00  0.00     0.074 A 
ATOM     37  C   UNL A   1      44.535  26.073  31.157  1.00  0.00     0.031 C 
ATOM     38  C   UNL A   1      44.095  27.522  33.127  1.00  0.00     0.034 A 
BRANCH  25  39
ATOM     39  C   UNL A   1      40.216  31.835  35.387  1.00  0.00     0.023 A 
ATOM     40  C   UNL A   1      39.272  31.519  36.382  1.00  0.00     0.031 A 
ATOM     41  C   UNL A   1      40.791  33.118  35.417  1.00  0.00     0.131 A 
ATOM     42  C   UNL A   1      38.862  32.502  37.297  1.00  0.00     0.055 A 
ATOM     43  C   UNL A   1      40.449  34.060  36.390  1.00  0.00     0.041 A 
ATOM     44  F   UNL A   1      41.681  33.490  34.483  1.00  0.00    -0.206 F 
ATOM     45  C   UNL A   1      39.464  33.762  37.325  1.00  0.00     0.022 A 
BRANCH  42  46
ATOM     46  S   UNL A   1      37.403  32.171  38.325  1.00  0.00     0.124 S 
ATOM     47  O   UNL A   1      37.168  30.754  38.059  1.00  0.00    -0.237 OA
ATOM     48  O   UNL A   1      37.880  32.498  39.664  1.00  0.00    -0.237 OA
ATOM     49  O   UNL A   1      36.389  33.074  37.784  1.00  0.00    -0.744 OA
ENDBRANCH  42  46
ENDBRANCH  25  39
BRANCH  26  50
ATOM     50  C   UNL A   1      42.305  25.844  27.571  1.00  0.00     0.023 A 
ATOM     51  C   UNL A   1      41.833  24.524  27.518  1.00  0.00     0.031 A 
ATOM     52  C   UNL A   1      43.073  26.314  26.489  1.00  0.00     0.131 A 
ATOM     53  C   UNL A   1      42.158  23.711  26.422  1.00  0.00     0.055 A 
ATOM     54  C   UNL A   1      43.346  25.519  25.375  1.00  0.00     0.041 A 
ATOM     55  F   UNL A   1      43.543  27.572  26.485  1.00  0.00    -0.206 F 
ATOM     56  C   UNL A   1      42.896  24.204  25.343  1.00  0.00     0.022 A 
BRANCH  53  57
ATOM     57  S   UNL A   1      41.655  21.969  26.456  1.00  0.00     0.124 S 
ATOM     58  O   UNL A   1      42.476  21.402  25.392  1.00  0.00    -0.237 OA
ATOM     59  O   UNL A   1      42.008  21.578  27.817  1.00  0.00    -0.237 OA
ATOM     60  O   UNL A   1      40.221  22.024  26.177  1.00  0.00    -0.744 OA
ENDBRANCH  53  57
ENDBRANCH  26  50
BRANCH  38  61
ATOM     61  C   UNL A   1      45.282  26.873  33.796  1.00  0.00     0.023 A 
ATOM     62  C   UNL A   1      45.151  25.717  34.584  1.00  0.00     0.031 A 
ATOM     63  C   UNL A   1      46.561  27.444  33.665  1.00  0.00     0.131 A 
ATOM     64  C   UNL A   1      46.265  25.209  35.267  1.00  0.00     0.055 A 
ATOM     65  C   UNL A   1      47.678  26.890  34.289  1.00  0.00     0.041 A 
ATOM     66  F   UNL A   1      46.743  28.551  32.930  1.00  0.00    -0.206 F 
ATOM     67  C   UNL A   1      47.531  25.776  35.109  1.00  0.00     0.022 A 
BRANCH  64  68
ATOM     68  S   UNL A   1      46.015  23.867  36.462  1.00  0.00     0.124 S 
ATOM     69  O   UNL A   1      44.899  23.137  35.869  1.00  0.00    -0.237 OA
ATOM     70  O   UNL A   1      47.306  23.186  36.441  1.00  0.00    -0.237 OA
ATOM     71  O   UNL A   1      45.705  24.569  37.706  1.00  0.00    -0.744 OA
ENDBRANCH  64  68
ENDBRANCH  38  61
ENDBRANCH  12  13
ENDBRANCH   5   7
ENDBRANCH   2   3
ENDBRANCH   1   2
BRANCH   1  72
ATOM     72  C   UNL A   1      31.817  27.432  27.385  1.00  0.00     0.118 C 
BRANCH  72  73
ATOM     73  N   UNL A   1      30.783  26.705  26.673  1.00  0.00    -0.352 N 
ATOM     74  C   UNL A   1      30.684  26.445  25.337  1.00  0.00     0.253 C 
ATOM     75  H   UNL A   1      30.053  26.350  27.230  1.00  0.00     0.163 HD
ATOM     76  O   UNL A   1      29.744  25.785  24.900  1.00  0.00    -0.269 OA
BRANCH  74  77
ATOM     77  C   UNL A   1      31.610  27.047  24.387  1.00  0.00     0.070 A 
ATOM     78  C   UNL A   1      31.018  28.050  23.616  1.00  0.00     0.125 A 
ATOM     79  C   UNL A   1      32.961  26.766  24.198  1.00  0.00     0.055 A 
ATOM     80  N   UNL A   1      31.676  28.826  22.726  1.00  0.00    -0.264 NA
ATOM     81  C   UNL A   1      33.654  27.579  23.276  1.00  0.00     0.035 A 
ATOM     82  C   UNL A   1      32.990  28.586  22.592  1.00  0.00     0.112 A 
BRANCH  79  83
ATOM     83  C   UNL A   1      33.835  25.861  25.003  1.00  0.00     0.254 C 
ATOM     84  O   UNL A   1      34.512  26.424  25.872  1.00  0.00    -0.269 OA
ATOM     85  N   UNL A   1      33.859  24.471  24.910  1.00  0.00    -0.339 N 
ATOM     86  C   UNL A   1      34.005  23.768  26.183  1.00  0.00     0.120 C 
ATOM     87  C   UNL A   1      33.595  23.650  23.727  1.00  0.00     0.120 C 
ATOM     88  C   UNL A   1      34.818  22.488  26.126  1.00  0.00     0.025 C 
ATOM     89  C   UNL A   1      34.499  22.411  23.662  1.00  0.00     0.025 C 
ATOM     90  C   UNL A   1      34.388  21.589  24.961  1.00  0.00    -0.003 C 
BRANCH  90  91
ATOM     91  C   UNL A   1      35.228  20.298  24.899  1.00  0.00     0.039 C 
BRANCH  91  92
ATOM     92  C   UNL A   1      34.409  19.053  24.630  1.00  0.00    -0.048 A 
ATOM     93  C   UNL A   1      35.035  17.857  24.250  1.00  0.00     0.004 A 
ATOM     94  C   UNL A   1      33.016  19.060  24.796  1.00  0.00     0.004 A 
ATOM     95  C   UNL A   1      34.286  16.694  24.046  1.00  0.00     0.000 A 
ATOM     96  C   UNL A   1      32.269  17.896  24.591  1.00  0.00     0.000 A 
ATOM     97  C   UNL A   1      32.904  16.714  24.217  1.00  0.00     0.000 A 
ENDBRANCH  91  92
ENDBRANCH  90  91
ENDBRANCH  79  83
ENDBRANCH  74  77
ENDBRANCH  72  73
ENDBRANCH   1  72
TORSDOF 16
ENDMDL
MODEL 2
REMARK VINA RESULT:     -12.9      1.104      7.416
REMARK SMILES O=C(NCCCNC(=O)c1cnccc1C(=O)N1CCC(Cc2ccccc2)CC1)c1ccc(-c2c3nc(c(-c4cc(S(=O)(=O)[O-])ccc4F)c4ccc([nH]4)c(-c4cc(S(=O)(=O)[O-])ccc4F)c4nc(c(-c5cc(S(=O)(=O)[O-])ccc5F)c5ccc2[nH]5)C=C4)C=C3)cc1
REMARK SMILES IDX 5 1 4 2 3 3 1 4 2 5 31 7 32 8 93 9 33 10 92 11 34 12 35 13
REMARK SMILES IDX 36 14 86 15 37 16 91 17 85 18 87 19 38 20 90 21 84 22 83 23
REMARK SMILES IDX 39 25 71 26 51 27 70 28 52 29 55 30 69 31 88 32 53 33 54 34
REMARK SMILES IDX 68 36 89 37 56 38 40 39 41 40 49 41 42 42 48 43 50 44 47 45
REMARK SMILES IDX 43 46 44 47 45 48 46 49 72 50 73 51 81 52 74 53 80 54 82 55
REMARK SMILES IDX 79 56 75 57 76 58 77 59 78 60 57 61 58 62 66 63 59 64 65 65
REMARK SMILES IDX 67 66 64 67 60 68 61 69 62 70 63 71 6 72 7 73 8 74 9 76
REMARK SMILES IDX 10 77 11 78 15 79 12 80 14 81 13 82 16 83 17 84 18 85 19 86
REMARK SMILES IDX 30 87 20 88 29 89 21 90 22 91 23 92 24 93 28 94 25 95 27 96
REMARK SMILES IDX 26 97
REMARK H PARENT 3 6 87 24 55 35 7 75
REMARK Flexibility Score: inf
ROOT
ATOM      1  C   UNL A   1      31.511  29.495  26.824  1.00  0.00     0.042 C 
ENDROOT
BRANCH   1   2
ATOM      2  C   UNL A   1      32.411  30.484  26.081  1.00  0.00     0.118 C 
BRANCH   2   3
ATOM      3  N   UNL A   1      32.315  31.870  26.519  1.00  0.00    -0.352 N 
ATOM      4  O   UNL A   1      32.663  33.673  27.823  1.00  0.00    -0.269 OA
ATOM      5  C   UNL A   1      33.069  32.595  27.416  1.00  0.00     0.251 C 
ATOM      6  H   UNL A   1      31.584  32.378  26.100  1.00  0.00     0.163 HD
BRANCH   5   7
ATOM      7  C   UNL A   1      34.358  32.060  27.895  1.00  0.00     0.039 A 
ATOM      8  C   UNL A   1      34.477  30.712  28.214  1.00  0.00     0.014 A 
ATOM      9  C   UNL A   1      35.456  32.913  28.039  1.00  0.00     0.014 A 
ATOM     10  C   UNL A   1      35.568  30.279  28.943  1.00  0.00     0.010 A 
ATOM     11  C   UNL A   1      36.627  32.429  28.625  1.00  0.00     0.010 A 
ATOM     12  C   UNL A   1      36.665  31.127  29.145  1.00  0.00    -0.014 A 
BRANCH  12  13
ATOM     13  C   UNL A   1      37.832  30.604  29.897  1.00  0.00     0.031 A 
ATOM     14  C   UNL A   1      38.853  29.733  29.220  1.00  0.00     0.074 A 
ATOM     15  C   UNL A   1      37.997  30.991  31.177  1.00  0.00     0.049 A 
ATOM     16  N   UNL A   1      39.946  29.210  29.711  1.00  0.00    -0.248 NA
ATOM     17  C   UNL A   1      38.607  29.392  27.811  1.00  0.00     0.031 C 
ATOM     18  C   UNL A   1      37.070  31.854  31.919  1.00  0.00     0.029 A 
ATOM     19  N   UNL A   1      39.006  30.752  32.069  1.00  0.00    -0.354 N 
ATOM     20  C   UNL A   1      40.503  28.451  28.685  1.00  0.00     0.074 A 
ATOM     21  C   UNL A   1      39.602  28.556  27.556  1.00  0.00     0.031 C 
ATOM     22  C   UNL A   1      37.595  32.137  33.118  1.00  0.00     0.029 A 
ATOM     23  C   UNL A   1      38.837  31.395  33.272  1.00  0.00     0.049 A 
ATOM     24  H   UNL A   1      39.780  30.175  31.868  1.00  0.00     0.167 HD
ATOM     25  C   UNL A   1      41.660  27.742  28.690  1.00  0.00     0.034 A 
ATOM     26  C   UNL A   1      39.587  31.370  34.389  1.00  0.00     0.034 A 
ATOM     27  C   UNL A   1      42.537  27.662  29.835  1.00  0.00     0.049 A 
ATOM     28  C   UNL A   1      40.834  30.533  34.387  1.00  0.00     0.074 A 
ATOM     29  C   UNL A   1      43.740  26.991  29.957  1.00  0.00     0.029 A 
ATOM     30  N   UNL A   1      42.297  28.269  31.065  1.00  0.00    -0.354 N 
ATOM     31  N   UNL A   1      41.343  29.814  33.414  1.00  0.00    -0.248 NA
ATOM     32  C   UNL A   1      41.604  30.501  35.633  1.00  0.00     0.031 C 
ATOM     33  C   UNL A   1      44.185  27.124  31.278  1.00  0.00     0.029 A 
ATOM     34  C   UNL A   1      43.311  27.956  31.959  1.00  0.00     0.049 A 
ATOM     35  H   UNL A   1      41.520  28.838  31.270  1.00  0.00     0.167 HD
ATOM     36  C   UNL A   1      42.514  29.263  33.923  1.00  0.00     0.074 A 
ATOM     37  C   UNL A   1      42.638  29.750  35.284  1.00  0.00     0.031 C 
ATOM     38  C   UNL A   1      43.408  28.437  33.320  1.00  0.00     0.034 A 
BRANCH  25  39
ATOM     39  C   UNL A   1      41.992  26.948  27.444  1.00  0.00     0.023 A 
ATOM     40  C   UNL A   1      41.704  25.574  27.335  1.00  0.00     0.031 A 
ATOM     41  C   UNL A   1      42.666  27.559  26.372  1.00  0.00     0.131 A 
ATOM     42  C   UNL A   1      42.173  24.844  26.232  1.00  0.00     0.055 A 
ATOM     43  C   UNL A   1      43.047  26.846  25.232  1.00  0.00     0.041 A 
ATOM     44  F   UNL A   1      42.992  28.861  26.422  1.00  0.00    -0.206 F 
ATOM     45  C   UNL A   1      42.820  25.475  25.166  1.00  0.00     0.022 A 
BRANCH  42  46
ATOM     46  S   UNL A   1      42.093  23.031  26.297  1.00  0.00     0.124 S 
ATOM     47  O   UNL A   1      42.669  22.663  25.005  1.00  0.00    -0.237 OA
ATOM     48  O   UNL A   1      42.906  22.722  27.468  1.00  0.00    -0.237 OA
ATOM     49  O   UNL A   1      40.665  22.755  26.436  1.00  0.00    -0.744 OA
ENDBRANCH  42  46
ENDBRANCH  25  39
BRANCH  26  50
ATOM     50  C   UNL A   1      39.159  32.136  35.593  1.00  0.00     0.023 A 
ATOM     51  C   UNL A   1      38.432  31.520  36.622  1.00  0.00     0.031 A 
ATOM     52  C   UNL A   1      39.475  33.500  35.733  1.00  0.00     0.131 A 
ATOM     53  C   UNL A   1      38.020  32.273  37.732  1.00  0.00     0.055 A 
ATOM     54  C   UNL A   1      39.113  34.230  36.865  1.00  0.00     0.041 A 
ATOM     55  F   UNL A   1      40.176  34.137  34.780  1.00  0.00    -0.206 F 
ATOM     56  C   UNL A   1      38.370  33.618  37.869  1.00  0.00     0.022 A 
BRANCH  53  57
ATOM     57  S   UNL A   1      36.960  31.481  38.971  1.00  0.00     0.124 S 
ATOM     58  O   UNL A   1      37.796  31.549  40.164  1.00  0.00    -0.237 OA
ATOM     59  O   UNL A   1      35.784  32.346  38.961  1.00  0.00    -0.237 OA
ATOM     60  O   UNL A   1      36.749  30.139  38.432  1.00  0.00    -0.744 OA
ENDBRANCH  53  57
ENDBRANCH  26  50
BRANCH  38  61
ATOM     61  C   UNL A   1      44.624  28.054  34.127  1.00  0.00     0.023 A 
ATOM     62  C   UNL A   1      44.650  26.901  34.930  1.00  0.00     0.031 A 
ATOM     63  C   UNL A   1      45.764  28.878  34.114  1.00  0.00     0.131 A 
ATOM     64  C   UNL A   1      45.765  26.640  35.739  1.00  0.00     0.055 A 
ATOM     65  C   UNL A   1      46.898  28.573  34.865  1.00  0.00     0.041 A 
ATOM     66  F   UNL A   1      45.792  29.995  33.370  1.00  0.00    -0.206 F 
ATOM     67  C   UNL A   1      46.897  27.457  35.697  1.00  0.00     0.022 A 
BRANCH  64  68
ATOM     68  S   UNL A   1      45.671  25.282  36.939  1.00  0.00     0.124 S 
ATOM     69  O   UNL A   1      46.994  25.327  37.552  1.00  0.00    -0.237 OA
ATOM     70  O   UNL A   1      44.559  25.697  37.790  1.00  0.00    -0.237 OA
ATOM     71  O   UNL A   1      45.411  24.108  36.108  1.00  0.00    -0.744 OA
ENDBRANCH  64  68
ENDBRANCH  38  61
ENDBRANCH  12  13
ENDBRANCH   5   7
ENDBRANCH   2   3
ENDBRANCH   1   2
BRANCH   1  72
ATOM     72  C   UNL A   1      32.074  28.113  27.152  1.00  0.00     0.118 C 
BRANCH  72  73
ATOM     73  N   UNL A   1      31.087  27.054  27.247  1.00  0.00    -0.352 N 
ATOM     74  C   UNL A   1      30.551  26.290  26.251  1.00  0.00     0.253 C 
ATOM     75  H   UNL A   1      30.759  26.860  28.155  1.00  0.00     0.163 HD
ATOM     76  O   UNL A   1      29.736  25.409  26.514  1.00  0.00    -0.269 OA
BRANCH  74  77
ATOM     77  C   UNL A   1      30.831  26.582  24.852  1.00  0.00     0.070 A 
ATOM     78  C   UNL A   1      29.828  27.341  24.246  1.00  0.00     0.125 A 
ATOM     79  C   UNL A   1      31.951  26.229  24.101  1.00  0.00     0.055 A 
ATOM     80  N   UNL A   1      29.882  27.822  22.984  1.00  0.00    -0.264 NA
ATOM     81  C   UNL A   1      32.016  26.737  22.786  1.00  0.00     0.035 A 
ATOM     82  C   UNL A   1      30.991  27.525  22.287  1.00  0.00     0.112 A 
BRANCH  79  83
ATOM     83  C   UNL A   1      33.204  25.567  24.571  1.00  0.00     0.254 C 
ATOM     84  O   UNL A   1      34.109  26.340  24.909  1.00  0.00    -0.269 OA
ATOM     85  N   UNL A   1      33.375  24.195  24.743  1.00  0.00    -0.339 N 
ATOM     86  C   UNL A   1      34.161  23.811  25.915  1.00  0.00     0.120 C 
ATOM     87  C   UNL A   1      32.735  23.114  23.993  1.00  0.00     0.120 C 
ATOM     88  C   UNL A   1      35.033  22.583  25.735  1.00  0.00     0.025 C 
ATOM     89  C   UNL A   1      33.680  21.927  23.757  1.00  0.00     0.025 C 
ATOM     90  C   UNL A   1      34.263  21.424  25.092  1.00  0.00    -0.003 C 
BRANCH  90  91
ATOM     91  C   UNL A   1      35.161  20.185  24.898  1.00  0.00     0.039 C 
BRANCH  91  92
ATOM     92  C   UNL A   1      34.387  18.888  24.787  1.00  0.00    -0.048 A 
ATOM     93  C   UNL A   1      34.983  17.749  24.226  1.00  0.00     0.004 A 
ATOM     94  C   UNL A   1      33.077  18.788  25.280  1.00  0.00     0.004 A 
ATOM     95  C   UNL A   1      34.288  16.538  24.165  1.00  0.00     0.000 A 
ATOM     96  C   UNL A   1      32.384  17.576  25.218  1.00  0.00     0.000 A 
ATOM     97  C   UNL A   1      32.990  16.452  24.661  1.00  0.00     0.000 A 
ENDBRANCH  91  92
ENDBRANCH  90  91
ENDBRANCH  79  83
ENDBRANCH  74  77
ENDBRANCH  72  73
ENDBRANCH   1  72
TORSDOF 16
ENDMDL
MODEL 3
REMARK VINA RESULT:     -12.7      5.548     10.680
REMARK SMILES O=C(NCCCNC(=O)c1cnccc1C(=O)N1CCC(Cc2ccccc2)CC1)c1ccc(-c2c3nc(c(-c4cc(S(=O)(=O)[O-])ccc4F)c4ccc([nH]4)c(-c4cc(S(=O)(=O)[O-])ccc4F)c4nc(c(-c5cc(S(=O)(=O)[O-])ccc5F)c5ccc2[nH]5)C=C4)C=C3)cc1
REMARK SMILES IDX 5 1 4 2 3 3 1 4 2 5 31 7 32 8 93 9 33 10 92 11 34 12 35 13
REMARK SMILES IDX 36 14 86 15 37 16 91 17 85 18 87 19 38 20 90 21 84 22 83 23
REMARK SMILES IDX 39 25 71 26 51 27 70 28 52 29 55 30 69 31 88 32 53 33 54 34
REMARK SMILES IDX 68 36 89 37 56 38 40 39 41 40 49 41 42 42 48 43 50 44 47 45
REMARK SMILES IDX 43 46 44 47 45 48 46 49 72 50 73 51 81 52 74 53 80 54 82 55
REMARK SMILES IDX 79 56 75 57 76 58 77 59 78 60 57 61 58 62 66 63 59 64 65 65
REMARK SMILES IDX 67 66 64 67 60 68 61 69 62 70 63 71 6 72 7 73 8 74 9 76
REMARK SMILES IDX 10 77 11 78 15 79 12 80 14 81 13 82 16 83 17 84 18 85 19 86
REMARK SMILES IDX 30 87 20 88 29 89 21 90 22 91 23 92 24 93 28 94 25 95 27 96
REMARK SMILES IDX 26 97
REMARK H PARENT 3 6 87 24 55 35 7 75
REMARK Flexibility Score: inf
ROOT
ATOM      1  C   UNL A   1      38.104  20.264  25.189  1.00  0.00     0.042 C 
ENDROOT
BRANCH   1   2
ATOM      2  C   UNL A   1      39.352  20.563  26.020  1.00  0.00     0.118 C 
BRANCH   2   3
ATOM      3  N   UNL A   1      40.341  19.494  26.074  1.00  0.00    -0.352 N 
ATOM      4  O   UNL A   1      42.363  18.515  25.913  1.00  0.00    -0.269 OA
ATOM      5  C   UNL A   1      41.717  19.530  26.128  1.00  0.00     0.251 C 
ATOM      6  H   UNL A   1      39.959  18.587  26.071  1.00  0.00     0.163 HD
BRANCH   5   7
ATOM      7  C   UNL A   1      42.409  20.798  26.429  1.00  0.00     0.039 A 
ATOM      8  C   UNL A   1      42.569  21.207  27.748  1.00  0.00     0.014 A 
ATOM      9  C   UNL A   1      42.894  21.592  25.387  1.00  0.00     0.014 A 
ATOM     10  C   UNL A   1      42.931  22.513  28.016  1.00  0.00     0.010 A 
ATOM     11  C   UNL A   1      43.420  22.854  25.673  1.00  0.00     0.010 A 
ATOM     12  C   UNL A   1      43.376  23.350  26.983  1.00  0.00    -0.014 A 
BRANCH  12  13
ATOM     13  C   UNL A   1      43.796  24.731  27.326  1.00  0.00     0.031 A 
ATOM     14  C   UNL A   1      45.212  25.181  27.102  1.00  0.00     0.074 A 
ATOM     15  C   UNL A   1      42.860  25.595  27.768  1.00  0.00     0.049 A 
ATOM     16  N   UNL A   1      45.749  26.355  27.317  1.00  0.00    -0.248 NA
ATOM     17  C   UNL A   1      46.154  24.178  26.583  1.00  0.00     0.031 C 
ATOM     18  C   UNL A   1      41.450  25.259  27.998  1.00  0.00     0.029 A 
ATOM     19  N   UNL A   1      42.932  26.929  28.064  1.00  0.00    -0.354 N 
ATOM     20  C   UNL A   1      47.096  26.226  26.992  1.00  0.00     0.074 A 
ATOM     21  C   UNL A   1      47.298  24.846  26.601  1.00  0.00     0.031 C 
ATOM     22  C   UNL A   1      40.778  26.373  28.317  1.00  0.00     0.029 A 
ATOM     23  C   UNL A   1      41.722  27.476  28.419  1.00  0.00     0.049 A 
ATOM     24  H   UNL A   1      43.769  27.447  28.026  1.00  0.00     0.167 HD
ATOM     25  C   UNL A   1      48.066  27.174  27.014  1.00  0.00     0.034 A 
ATOM     26  C   UNL A   1      41.409  28.726  28.808  1.00  0.00     0.034 A 
ATOM     27  C   UNL A   1      47.827  28.544  27.408  1.00  0.00     0.049 A 
ATOM     28  C   UNL A   1      42.510  29.743  28.878  1.00  0.00     0.074 A 
ATOM     29  C   UNL A   1      48.721  29.598  27.456  1.00  0.00     0.029 A 
ATOM     30  N   UNL A   1      46.600  29.048  27.832  1.00  0.00    -0.354 N 
ATOM     31  N   UNL A   1      43.781  29.605  28.577  1.00  0.00    -0.248 NA
ATOM     32  C   UNL A   1      42.138  31.082  29.342  1.00  0.00     0.031 C 
ATOM     33  C   UNL A   1      48.059  30.713  27.984  1.00  0.00     0.029 A 
ATOM     34  C   UNL A   1      46.726  30.386  28.178  1.00  0.00     0.049 A 
ATOM     35  H   UNL A   1      45.764  28.529  27.879  1.00  0.00     0.167 HD
ATOM     36  C   UNL A   1      44.358  30.852  28.790  1.00  0.00     0.074 A 
ATOM     37  C   UNL A   1      43.288  31.729  29.229  1.00  0.00     0.031 C 
ATOM     38  C   UNL A   1      45.649  31.240  28.632  1.00  0.00     0.034 A 
BRANCH  25  39
ATOM     39  C   UNL A   1      49.474  26.736  26.672  1.00  0.00     0.023 A 
ATOM     40  C   UNL A   1      50.480  26.627  27.650  1.00  0.00     0.031 A 
ATOM     41  C   UNL A   1      49.833  26.484  25.336  1.00  0.00     0.131 A 
ATOM     42  C   UNL A   1      51.807  26.374  27.266  1.00  0.00     0.055 A 
ATOM     43  C   UNL A   1      51.138  26.139  24.972  1.00  0.00     0.041 A 
ATOM     44  F   UNL A   1      48.926  26.593  24.352  1.00  0.00    -0.206 F 
ATOM     45  C   UNL A   1      52.139  26.103  25.936  1.00  0.00     0.022 A 
BRANCH  42  46
ATOM     46  S   UNL A   1      53.121  26.592  28.501  1.00  0.00     0.124 S 
ATOM     47  O   UNL A   1      53.393  28.023  28.393  1.00  0.00    -0.237 OA
ATOM     48  O   UNL A   1      52.470  26.157  29.732  1.00  0.00    -0.237 OA
ATOM     49  O   UNL A   1      54.193  25.724  28.019  1.00  0.00    -0.744 OA
ENDBRANCH  42  46
ENDBRANCH  25  39
BRANCH  26  50
ATOM     50  C   UNL A   1      40.007  29.061  29.183  1.00  0.00     0.023 A 
ATOM     51  C   UNL A   1      39.602  29.082  30.526  1.00  0.00     0.031 A 
ATOM     52  C   UNL A   1      39.048  29.369  28.200  1.00  0.00     0.131 A 
ATOM     53  C   UNL A   1      38.269  29.377  30.848  1.00  0.00     0.055 A 
ATOM     54  C   UNL A   1      37.738  29.717  28.528  1.00  0.00     0.041 A 
ATOM     55  F   UNL A   1      39.385  29.370  26.900  1.00  0.00    -0.206 F 
ATOM     56  C   UNL A   1      37.338  29.712  29.861  1.00  0.00     0.022 A 
BRANCH  53  57
ATOM     57  S   UNL A   1      37.747  29.255  32.580  1.00  0.00     0.124 S 
ATOM     58  O   UNL A   1      37.772  27.812  32.796  1.00  0.00    -0.237 OA
ATOM     59  O   UNL A   1      38.783  30.024  33.263  1.00  0.00    -0.237 OA
ATOM     60  O   UNL A   1      36.419  29.864  32.579  1.00  0.00    -0.744 OA
ENDBRANCH  53  57
ENDBRANCH  26  50
BRANCH  38  61
ATOM     61  C   UNL A   1      45.955  32.694  28.891  1.00  0.00     0.023 A 
ATOM     62  C   UNL A   1      45.939  33.652  27.864  1.00  0.00     0.031 A 
ATOM     63  C   UNL A   1      46.301  33.119  30.187  1.00  0.00     0.131 A 
ATOM     64  C   UNL A   1      46.327  34.973  28.134  1.00  0.00     0.055 A 
ATOM     65  C   UNL A   1      46.616  34.449  30.464  1.00  0.00     0.041 A 
ATOM     66  F   UNL A   1      46.339  32.246  31.206  1.00  0.00    -0.206 F 
ATOM     67  C   UNL A   1      46.647  35.381  29.431  1.00  0.00     0.022 A 
BRANCH  64  68
ATOM     68  S   UNL A   1      46.527  36.122  26.745  1.00  0.00     0.124 S 
ATOM     69  O   UNL A   1      46.125  35.299  25.610  1.00  0.00    -0.237 OA
ATOM     70  O   UNL A   1      45.615  37.204  27.103  1.00  0.00    -0.237 OA
ATOM     71  O   UNL A   1      47.947  36.468  26.788  1.00  0.00    -0.744 OA
ENDBRANCH  64  68
ENDBRANCH  38  61
ENDBRANCH  12  13
ENDBRANCH   5   7
ENDBRANCH   2   3
ENDBRANCH   1   2
BRANCH   1  72
ATOM     72  C   UNL A   1      37.230  21.439  24.752  1.00  0.00     0.118 C 
BRANCH  72  73
ATOM     73  N   UNL A   1      36.525  22.113  25.826  1.00  0.00    -0.352 N 
ATOM     74  C   UNL A   1      35.181  22.193  26.051  1.00  0.00     0.253 C 
ATOM     75  H   UNL A   1      37.094  22.576  26.483  1.00  0.00     0.163 HD
ATOM     76  O   UNL A   1      34.750  22.790  27.035  1.00  0.00    -0.269 OA
BRANCH  74  77
ATOM     77  C   UNL A   1      34.227  21.690  25.072  1.00  0.00     0.070 A 
ATOM     78  C   UNL A   1      33.699  20.445  25.420  1.00  0.00     0.125 A 
ATOM     79  C   UNL A   1      33.786  22.301  23.900  1.00  0.00     0.055 A 
ATOM     80  N   UNL A   1      32.731  19.800  24.732  1.00  0.00    -0.264 NA
ATOM     81  C   UNL A   1      32.769  21.635  23.183  1.00  0.00     0.035 A 
ATOM     82  C   UNL A   1      32.271  20.423  23.636  1.00  0.00     0.112 A 
BRANCH  79  83
ATOM     83  C   UNL A   1      34.085  23.680  23.412  1.00  0.00     0.254 C 
ATOM     84  O   UNL A   1      35.193  23.818  22.878  1.00  0.00    -0.269 OA
ATOM     85  N   UNL A   1      33.195  24.751  23.427  1.00  0.00    -0.339 N 
ATOM     86  C   UNL A   1      33.251  25.621  22.253  1.00  0.00     0.120 C 
ATOM     87  C   UNL A   1      32.119  25.006  24.387  1.00  0.00     0.120 C 
ATOM     88  C   UNL A   1      33.001  27.092  22.524  1.00  0.00     0.025 C 
ATOM     89  C   UNL A   1      31.957  26.500  24.700  1.00  0.00     0.025 C 
ATOM     90  C   UNL A   1      31.764  27.309  23.403  1.00  0.00    -0.003 C 
BRANCH  90  91
ATOM     91  C   UNL A   1      31.525  28.805  23.688  1.00  0.00     0.039 C 
BRANCH  91  92
ATOM     92  C   UNL A   1      30.083  29.234  23.508  1.00  0.00    -0.048 A 
ATOM     93  C   UNL A   1      29.705  30.568  23.720  1.00  0.00     0.004 A 
ATOM     94  C   UNL A   1      29.109  28.318  23.085  1.00  0.00     0.004 A 
ATOM     95  C   UNL A   1      28.385  30.977  23.510  1.00  0.00     0.000 A 
ATOM     96  C   UNL A   1      27.789  28.729  22.876  1.00  0.00     0.000 A 
ATOM     97  C   UNL A   1      27.428  30.057  23.087  1.00  0.00     0.000 A 
ENDBRANCH  91  92
ENDBRANCH  90  91
ENDBRANCH  79  83
ENDBRANCH  74  77
ENDBRANCH  72  73
ENDBRANCH   1  72
TORSDOF 16
ENDMDL
