MODEL 1
REMARK VINA RESULT:     -12.9      0.000      0.000
REMARK SMILES CCC(=CC(=O)[C@H](Cc1ccc(Cl)cc1Cl)C(=O)NCCCNC(=O)c1ccc(-c2c3nc(c(-c4cc(S(=O)(=O)[O-])ccc4F)c4ccc([nH]4)c(-c4cc(S(=O)(=O)[O-])ccc4F)c4nc(c(-c5cc(S(=O)(=O)[O-])ccc5F)c5ccc2[nH]5)C=C4)C=C3)cc1)N(C)C
REMARK SMILES IDX 21 1 20 2 19 3 17 4 18 5 7 7 5 8 6 9 4 10 3 11 2 12 1 13
REMARK SMILES IDX 89 14 90 15 91 16 8 17 9 18 10 19 15 20 11 21 14 22 16 23
REMARK SMILES IDX 12 24 13 25 22 26 23 27 24 28 25 30 26 31 27 32 88 33 28 34
REMARK SMILES IDX 87 35 29 36 30 37 31 38 81 39 32 40 86 41 80 42 82 43 33 44
REMARK SMILES IDX 85 45 79 46 78 47 34 49 66 50 46 51 65 52 47 53 50 54 64 55
REMARK SMILES IDX 83 56 48 57 49 58 63 60 84 61 51 62 35 63 36 64 44 65 37 66
REMARK SMILES IDX 43 67 45 68 42 69 38 70 39 71 40 72 41 73 67 74 68 75 76 76
REMARK SMILES IDX 69 77 75 78 77 79 74 80 70 81 71 82 72 83 73 84 52 85 53 86
REMARK SMILES IDX 61 87 54 88 60 89 62 90 59 91 55 92 56 93 57 94 58 95
REMARK H PARENT 19 6 23 29 82 48 50 59
REMARK Flexibility Score: inf
ROOT
ATOM      1  C   UNL A   1      31.354  27.991  25.826  1.00  0.00     0.042 C 
ENDROOT
BRANCH   1   2
ATOM      2  C   UNL A   1      30.511  26.819  25.268  1.00  0.00     0.117 C 
BRANCH   2   3
ATOM      3  N   UNL A   1      30.523  25.531  26.169  1.00  0.00    -0.355 N 
ATOM      4  C   UNL A   1      31.152  24.317  26.471  1.00  0.00     0.231 C 
ATOM      5  O   UNL A   1      30.521  23.654  27.317  1.00  0.00    -0.274 OA
ATOM      6  H   UNL A   1      29.761  25.612  26.785  1.00  0.00     0.163 HD
BRANCH   4   7
ATOM      7  C   UNL A   1      32.590  23.668  25.956  1.00  0.00     0.154 C 
BRANCH   7   8
ATOM      8  C   UNL A   1      32.636  24.221  24.587  1.00  0.00     0.170 C 
ATOM      9  O   UNL A   1      31.897  23.876  23.670  1.00  0.00    -0.294 OA
BRANCH   8  10
ATOM     10  C   UNL A   1      33.720  25.229  24.413  1.00  0.00     0.069 C 
ATOM     11  C   UNL A   1      34.051  25.154  23.103  1.00  0.00     0.016 C 
BRANCH  11  12
ATOM     12  C   UNL A   1      34.902  23.681  23.122  1.00  0.00     0.050 C 
ATOM     13  C   UNL A   1      36.153  22.971  23.709  1.00  0.00     0.010 C 
ENDBRANCH  11  12
BRANCH  11  14
ATOM     14  N   UNL A   1      33.314  25.952  21.970  1.00  0.00    -0.381 N 
ATOM     15  C   UNL A   1      32.825  27.366  22.168  1.00  0.00     0.143 C 
ATOM     16  C   UNL A   1      32.525  25.582  20.703  1.00  0.00     0.143 C 
ENDBRANCH  11  14
ENDBRANCH   8  10
ENDBRANCH   7   8
BRANCH   7  17
ATOM     17  C   UNL A   1      33.484  22.091  26.142  1.00  0.00     0.059 C 
BRANCH  17  18
ATOM     18  C   UNL A   1      33.824  20.540  25.419  1.00  0.00    -0.028 A 
ATOM     19  C   UNL A   1      32.614  19.813  25.233  1.00  0.00     0.007 A 
ATOM     20  C   UNL A   1      35.005  19.728  25.012  1.00  0.00     0.045 A 
ATOM     21  C   UNL A   1      32.548  18.518  24.655  1.00  0.00     0.021 A 
ATOM     22  C   UNL A   1      34.891  18.451  24.408  1.00  0.00     0.041 A 
ATOM     23  Cl  UNL A   1      36.782  19.917  24.999  1.00  0.00    -0.084 Cl
ATOM     24  C   UNL A   1      33.680  17.854  24.225  1.00  0.00     0.042 A 
ATOM     25  Cl  UNL A   1      33.622  16.306  23.489  1.00  0.00    -0.084 Cl
ENDBRANCH  17  18
ENDBRANCH   7  17
ENDBRANCH   4   7
ENDBRANCH   2   3
ENDBRANCH   1   2
BRANCH   1  26
ATOM     26  C   UNL A   1      31.952  29.240  25.120  1.00  0.00     0.118 C 
BRANCH  26  27
ATOM     27  N   UNL A   1      31.938  30.480  25.928  1.00  0.00    -0.352 N 
ATOM     28  C   UNL A   1      32.692  31.155  26.877  1.00  0.00     0.251 C 
ATOM     29  H   UNL A   1      31.125  30.996  25.723  1.00  0.00     0.163 HD
ATOM     30  O   UNL A   1      32.204  32.254  27.181  1.00  0.00    -0.269 OA
BRANCH  28  31
ATOM     31  C   UNL A   1      33.969  30.760  27.606  1.00  0.00     0.039 A 
ATOM     32  C   UNL A   1      34.685  31.808  28.243  1.00  0.00     0.014 A 
ATOM     33  C   UNL A   1      34.518  29.488  27.747  1.00  0.00     0.014 A 
ATOM     34  C   UNL A   1      35.889  31.605  28.965  1.00  0.00     0.010 A 
ATOM     35  C   UNL A   1      35.718  29.277  28.499  1.00  0.00     0.010 A 
ATOM     36  C   UNL A   1      36.431  30.328  29.118  1.00  0.00    -0.014 A 
BRANCH  36  37
ATOM     37  C   UNL A   1      37.719  30.092  29.882  1.00  0.00     0.031 A 
ATOM     38  C   UNL A   1      38.784  29.153  29.344  1.00  0.00     0.074 A 
ATOM     39  C   UNL A   1      37.969  30.686  31.074  1.00  0.00     0.049 A 
ATOM     40  N   UNL A   1      39.896  28.733  29.903  1.00  0.00    -0.248 NA
ATOM     41  C   UNL A   1      38.553  28.610  28.001  1.00  0.00     0.031 C 
ATOM     42  C   UNL A   1      37.088  31.639  31.746  1.00  0.00     0.029 A 
ATOM     43  N   UNL A   1      39.033  30.556  31.948  1.00  0.00    -0.354 N 
ATOM     44  C   UNL A   1      40.487  27.859  28.992  1.00  0.00     0.074 A 
ATOM     45  C   UNL A   1      39.584  27.787  27.858  1.00  0.00     0.031 C 
ATOM     46  C   UNL A   1      37.629  31.987  32.927  1.00  0.00     0.029 A 
ATOM     47  C   UNL A   1      38.880  31.256  33.127  1.00  0.00     0.049 A 
ATOM     48  H   UNL A   1      39.828  30.010  31.748  1.00  0.00     0.167 HD
ATOM     49  C   UNL A   1      41.668  27.186  29.072  1.00  0.00     0.034 A 
ATOM     50  C   UNL A   1      39.627  31.293  34.255  1.00  0.00     0.034 A 
ATOM     51  C   UNL A   1      42.595  27.265  30.179  1.00  0.00     0.049 A 
ATOM     52  C   UNL A   1      40.904  30.489  34.355  1.00  0.00     0.074 A 
ATOM     53  C   UNL A   1      43.842  26.669  30.304  1.00  0.00     0.029 A 
ATOM     54  N   UNL A   1      42.385  27.971  31.355  1.00  0.00    -0.354 N 
ATOM     55  N   UNL A   1      41.449  29.690  33.470  1.00  0.00    -0.248 NA
ATOM     56  C   UNL A   1      41.670  30.602  35.609  1.00  0.00     0.031 C 
ATOM     57  C   UNL A   1      44.352  26.956  31.576  1.00  0.00     0.029 A 
ATOM     58  C   UNL A   1      43.457  27.793  32.221  1.00  0.00     0.049 A 
ATOM     59  H   UNL A   1      41.590  28.518  31.548  1.00  0.00     0.167 HD
ATOM     60  C   UNL A   1      42.635  29.236  34.047  1.00  0.00     0.074 A 
ATOM     61  C   UNL A   1      42.732  29.852  35.351  1.00  0.00     0.031 C 
ATOM     62  C   UNL A   1      43.565  28.393  33.530  1.00  0.00     0.034 A 
BRANCH  49  63
ATOM     63  C   UNL A   1      42.020  26.260  27.928  1.00  0.00     0.023 A 
ATOM     64  C   UNL A   1      41.505  24.956  27.844  1.00  0.00     0.031 A 
ATOM     65  C   UNL A   1      42.889  26.690  26.907  1.00  0.00     0.131 A 
ATOM     66  C   UNL A   1      41.924  24.102  26.814  1.00  0.00     0.055 A 
ATOM     67  C   UNL A   1      43.238  25.861  25.839  1.00  0.00     0.041 A 
ATOM     68  F   UNL A   1      43.420  27.921  26.935  1.00  0.00    -0.206 F 
ATOM     69  C   UNL A   1      42.770  24.551  25.796  1.00  0.00     0.022 A 
BRANCH  66  70
ATOM     70  S   UNL A   1      41.474  22.345  26.891  1.00  0.00     0.124 S 
ATOM     71  O   UNL A   1      42.310  21.881  28.008  1.00  0.00    -0.237 OA
ATOM     72  O   UNL A   1      40.033  22.407  27.173  1.00  0.00    -0.237 OA
ATOM     73  O   UNL A   1      41.835  21.832  25.596  1.00  0.00    -0.744 OA
ENDBRANCH  66  70
ENDBRANCH  49  63
BRANCH  50  74
ATOM     74  C   UNL A   1      39.167  32.085  35.437  1.00  0.00     0.023 A 
ATOM     75  C   UNL A   1      38.517  31.474  36.523  1.00  0.00     0.031 A 
ATOM     76  C   UNL A   1      39.309  33.485  35.459  1.00  0.00     0.131 A 
ATOM     77  C   UNL A   1      37.999  32.263  37.565  1.00  0.00     0.055 A 
ATOM     78  C   UNL A   1      38.841  34.260  36.522  1.00  0.00     0.041 A 
ATOM     79  F   UNL A   1      39.909  34.120  34.439  1.00  0.00    -0.206 F 
ATOM     80  C   UNL A   1      38.170  33.650  37.577  1.00  0.00     0.022 A 
BRANCH  77  81
ATOM     81  S   UNL A   1      37.024  31.460  38.868  1.00  0.00     0.124 S 
ATOM     82  O   UNL A   1      37.901  31.597  40.025  1.00  0.00    -0.237 OA
ATOM     83  O   UNL A   1      35.811  32.272  38.883  1.00  0.00    -0.237 OA
ATOM     84  O   UNL A   1      36.851  30.096  38.374  1.00  0.00    -0.744 OA
ENDBRANCH  77  81
ENDBRANCH  50  74
BRANCH  62  85
ATOM     85  C   UNL A   1      44.804  28.128  34.356  1.00  0.00     0.023 A 
ATOM     86  C   UNL A   1      44.888  27.050  35.255  1.00  0.00     0.031 A 
ATOM     87  C   UNL A   1      45.917  28.985  34.251  1.00  0.00     0.131 A 
ATOM     88  C   UNL A   1      46.036  26.884  36.049  1.00  0.00     0.055 A 
ATOM     89  C   UNL A   1      47.075  28.786  35.006  1.00  0.00     0.041 A 
ATOM     90  F   UNL A   1      45.896  30.032  33.413  1.00  0.00    -0.206 F 
ATOM     91  C   UNL A   1      47.135  27.737  35.920  1.00  0.00     0.022 A 
BRANCH  88  92
ATOM     92  S   UNL A   1      46.048  25.582  37.313  1.00  0.00     0.124 S 
ATOM     93  O   UNL A   1      44.742  25.757  37.942  1.00  0.00    -0.237 OA
ATOM     94  O   UNL A   1      46.213  24.372  36.516  1.00  0.00    -0.237 OA
ATOM     95  O   UNL A   1      47.192  25.929  38.154  1.00  0.00    -0.744 OA
ENDBRANCH  88  92
ENDBRANCH  62  85
ENDBRANCH  36  37
ENDBRANCH  28  31
ENDBRANCH  26  27
ENDBRANCH   1  26
TORSDOF 19
ENDMDL
MODEL 2
REMARK VINA RESULT:     -12.0      5.986     10.688
REMARK SMILES CCC(=CC(=O)[C@H](Cc1ccc(Cl)cc1Cl)C(=O)NCCCNC(=O)c1ccc(-c2c3nc(c(-c4cc(S(=O)(=O)[O-])ccc4F)c4ccc([nH]4)c(-c4cc(S(=O)(=O)[O-])ccc4F)c4nc(c(-c5cc(S(=O)(=O)[O-])ccc5F)c5ccc2[nH]5)C=C4)C=C3)cc1)N(C)C
REMARK SMILES IDX 21 1 20 2 19 3 17 4 18 5 7 7 5 8 6 9 4 10 3 11 2 12 1 13
REMARK SMILES IDX 89 14 90 15 91 16 8 17 9 18 10 19 15 20 11 21 14 22 16 23
REMARK SMILES IDX 12 24 13 25 22 26 23 27 24 28 25 30 26 31 27 32 88 33 28 34
REMARK SMILES IDX 87 35 29 36 30 37 31 38 81 39 32 40 86 41 80 42 82 43 33 44
REMARK SMILES IDX 85 45 79 46 78 47 34 49 66 50 46 51 65 52 47 53 50 54 64 55
REMARK SMILES IDX 83 56 48 57 49 58 63 60 84 61 51 62 35 63 36 64 44 65 37 66
REMARK SMILES IDX 43 67 45 68 42 69 38 70 39 71 40 72 41 73 67 74 68 75 76 76
REMARK SMILES IDX 69 77 75 78 77 79 74 80 70 81 71 82 72 83 73 84 52 85 53 86
REMARK SMILES IDX 61 87 54 88 60 89 62 90 59 91 55 92 56 93 57 94 58 95
REMARK H PARENT 19 6 23 29 82 48 50 59
REMARK Flexibility Score: inf
ROOT
ATOM      1  C   UNL A   1      38.412  20.899  26.119  1.00  0.00     0.042 C 
ENDROOT
BRANCH   1   2
ATOM      2  C   UNL A   1      38.358  22.403  25.754  1.00  0.00     0.117 C 
BRANCH   2   3
ATOM      3  N   UNL A   1      37.663  22.707  24.377  1.00  0.00    -0.355 N 
ATOM      4  C   UNL A   1      36.496  23.106  23.715  1.00  0.00     0.231 C 
ATOM      5  O   UNL A   1      36.605  23.031  22.476  1.00  0.00    -0.274 OA
ATOM      6  H   UNL A   1      38.340  22.548  23.680  1.00  0.00     0.163 HD
BRANCH   4   7
ATOM      7  C   UNL A   1      35.061  23.710  24.289  1.00  0.00     0.154 C 
BRANCH   7   8
ATOM      8  C   UNL A   1      34.269  22.464  24.338  1.00  0.00     0.170 C 
ATOM      9  O   UNL A   1      33.612  22.017  23.403  1.00  0.00    -0.294 OA
BRANCH   8  10
ATOM     10  C   UNL A   1      34.313  21.811  25.678  1.00  0.00     0.069 C 
ATOM     11  C   UNL A   1      33.311  20.900  25.647  1.00  0.00     0.016 C 
BRANCH  11  12
ATOM     12  C   UNL A   1      31.983  21.954  25.782  1.00  0.00     0.050 C 
ATOM     13  C   UNL A   1      31.335  23.034  26.692  1.00  0.00     0.010 C 
ENDBRANCH  11  12
BRANCH  11  14
ATOM     14  N   UNL A   1      33.473  19.444  25.083  1.00  0.00    -0.381 N 
ATOM     15  C   UNL A   1      32.493  18.343  25.404  1.00  0.00     0.143 C 
ATOM     16  C   UNL A   1      34.639  18.602  24.541  1.00  0.00     0.143 C 
ENDBRANCH  11  14
ENDBRANCH   8  10
ENDBRANCH   7   8
BRANCH   7  17
ATOM     17  C   UNL A   1      34.055  25.211  24.051  1.00  0.00     0.059 C 
BRANCH  17  18
ATOM     18  C   UNL A   1      33.671  26.795  24.672  1.00  0.00    -0.028 A 
ATOM     19  C   UNL A   1      33.351  26.711  26.056  1.00  0.00     0.007 A 
ATOM     20  C   UNL A   1      33.506  28.187  24.167  1.00  0.00     0.045 A 
ATOM     21  C   UNL A   1      33.006  27.830  26.860  1.00  0.00     0.021 A 
ATOM     22  C   UNL A   1      33.191  29.281  25.011  1.00  0.00     0.041 A 
ATOM     23  Cl  UNL A   1      33.657  29.039  22.604  1.00  0.00    -0.084 Cl
ATOM     24  C   UNL A   1      32.950  29.109  26.342  1.00  0.00     0.042 A 
ATOM     25  Cl  UNL A   1      32.573  30.481  27.299  1.00  0.00    -0.084 Cl
ENDBRANCH  17  18
ENDBRANCH   7  17
ENDBRANCH   4   7
ENDBRANCH   2   3
ENDBRANCH   1   2
BRANCH   1  26
ATOM     26  C   UNL A   1      38.785  19.658  25.262  1.00  0.00     0.118 C 
BRANCH  26  27
ATOM     27  N   UNL A   1      40.108  19.068  25.562  1.00  0.00    -0.352 N 
ATOM     28  C   UNL A   1      41.343  19.408  26.096  1.00  0.00     0.251 C 
ATOM     29  H   UNL A   1      40.116  18.121  25.293  1.00  0.00     0.163 HD
ATOM     30  O   UNL A   1      42.116  18.442  26.167  1.00  0.00    -0.269 OA
BRANCH  28  31
ATOM     31  C   UNL A   1      41.894  20.748  26.567  1.00  0.00     0.039 A 
ATOM     32  C   UNL A   1      42.069  21.746  25.571  1.00  0.00     0.014 A 
ATOM     33  C   UNL A   1      42.233  21.129  27.863  1.00  0.00     0.014 A 
ATOM     34  C   UNL A   1      42.567  23.045  25.847  1.00  0.00     0.010 A 
ATOM     35  C   UNL A   1      42.711  22.448  28.147  1.00  0.00     0.010 A 
ATOM     36  C   UNL A   1      42.893  23.431  27.148  1.00  0.00    -0.014 A 
BRANCH  36  37
ATOM     37  C   UNL A   1      43.433  24.813  27.461  1.00  0.00     0.031 A 
ATOM     38  C   UNL A   1      42.516  25.913  27.964  1.00  0.00     0.074 A 
ATOM     39  C   UNL A   1      44.738  25.133  27.287  1.00  0.00     0.049 A 
ATOM     40  N   UNL A   1      42.764  27.186  28.175  1.00  0.00    -0.248 NA
ATOM     41  C   UNL A   1      41.133  25.522  28.259  1.00  0.00     0.031 C 
ATOM     42  C   UNL A   1      45.782  24.213  26.839  1.00  0.00     0.029 A 
ATOM     43  N   UNL A   1      45.408  26.332  27.446  1.00  0.00    -0.354 N 
ATOM     44  C   UNL A   1      41.565  27.753  28.604  1.00  0.00     0.074 A 
ATOM     45  C   UNL A   1      40.584  26.684  28.587  1.00  0.00     0.031 C 
ATOM     46  C   UNL A   1      46.946  24.880  26.735  1.00  0.00     0.029 A 
ATOM     47  C   UNL A   1      46.735  26.289  27.070  1.00  0.00     0.049 A 
ATOM     48  H   UNL A   1      44.976  27.146  27.795  1.00  0.00     0.167 HD
ATOM     49  C   UNL A   1      41.297  29.031  28.989  1.00  0.00     0.034 A 
ATOM     50  C   UNL A   1      47.674  27.258  26.970  1.00  0.00     0.034 A 
ATOM     51  C   UNL A   1      42.265  30.104  29.040  1.00  0.00     0.049 A 
ATOM     52  C   UNL A   1      47.343  28.687  27.338  1.00  0.00     0.074 A 
ATOM     53  C   UNL A   1      42.086  31.407  29.484  1.00  0.00     0.029 A 
ATOM     54  N   UNL A   1      43.587  30.014  28.630  1.00  0.00    -0.354 N 
ATOM     55  N   UNL A   1      46.209  29.190  27.762  1.00  0.00    -0.248 NA
ATOM     56  C   UNL A   1      48.428  29.677  27.221  1.00  0.00     0.031 C 
ATOM     57  C   UNL A   1      43.275  32.118  29.279  1.00  0.00     0.029 A 
ATOM     58  C   UNL A   1      44.221  31.242  28.774  1.00  0.00     0.049 A 
ATOM     59  H   UNL A   1      44.016  29.196  28.287  1.00  0.00     0.167 HD
ATOM     60  C   UNL A   1      46.455  30.543  27.994  1.00  0.00     0.074 A 
ATOM     61  C   UNL A   1      47.845  30.779  27.671  1.00  0.00     0.031 C 
ATOM     62  C   UNL A   1      45.604  31.497  28.448  1.00  0.00     0.034 A 
BRANCH  49  63
ATOM     63  C   UNL A   1      39.866  29.360  29.359  1.00  0.00     0.023 A 
ATOM     64  C   UNL A   1      39.461  29.505  30.695  1.00  0.00     0.031 A 
ATOM     65  C   UNL A   1      38.892  29.524  28.356  1.00  0.00     0.131 A 
ATOM     66  C   UNL A   1      38.109  29.724  30.998  1.00  0.00     0.055 A 
ATOM     67  C   UNL A   1      37.563  29.823  28.661  1.00  0.00     0.041 A 
ATOM     68  F   UNL A   1      39.216  29.389  27.061  1.00  0.00    -0.206 F 
ATOM     69  C   UNL A   1      37.159  29.907  29.990  1.00  0.00     0.022 A 
BRANCH  66  70
ATOM     70  S   UNL A   1      37.567  29.620  32.728  1.00  0.00     0.124 S 
ATOM     71  O   UNL A   1      37.452  28.165  32.907  1.00  0.00    -0.237 OA
ATOM     72  O   UNL A   1      38.687  30.250  33.441  1.00  0.00    -0.237 OA
ATOM     73  O   UNL A   1      36.324  30.344  32.752  1.00  0.00    -0.744 OA
ENDBRANCH  66  70
ENDBRANCH  49  63
BRANCH  50  74
ATOM     74  C   UNL A   1      49.035  26.936  26.438  1.00  0.00     0.023 A 
ATOM     75  C   UNL A   1      50.137  26.764  27.292  1.00  0.00     0.031 A 
ATOM     76  C   UNL A   1      49.261  26.871  25.050  1.00  0.00     0.131 A 
ATOM     77  C   UNL A   1      51.420  26.573  26.751  1.00  0.00     0.055 A 
ATOM     78  C   UNL A   1      50.529  26.628  24.518  1.00  0.00     0.041 A 
ATOM     79  F   UNL A   1      48.245  27.044  24.190  1.00  0.00    -0.206 F 
ATOM     80  C   UNL A   1      51.620  26.490  25.370  1.00  0.00     0.022 A 
BRANCH  77  81
ATOM     81  S   UNL A   1      52.843  26.517  27.876  1.00  0.00     0.124 S 
ATOM     82  O   UNL A   1      53.302  27.901  27.846  1.00  0.00    -0.237 OA
ATOM     83  O   UNL A   1      52.228  26.072  29.122  1.00  0.00    -0.237 OA
ATOM     84  O   UNL A   1      53.739  25.549  27.246  1.00  0.00    -0.744 OA
ENDBRANCH  77  81
ENDBRANCH  50  74
BRANCH  62  85
ATOM     85  C   UNL A   1      46.166  32.882  28.678  1.00  0.00     0.023 A 
ATOM     86  C   UNL A   1      46.204  33.854  27.662  1.00  0.00     0.031 A 
ATOM     87  C   UNL A   1      46.691  33.229  29.938  1.00  0.00     0.131 A 
ATOM     88  C   UNL A   1      46.796  35.104  27.906  1.00  0.00     0.055 A 
ATOM     89  C   UNL A   1      47.233  34.492  30.190  1.00  0.00     0.041 A 
ATOM     90  F   UNL A   1      46.686  32.344  30.947  1.00  0.00    -0.206 F 
ATOM     91  C   UNL A   1      47.298  35.434  29.167  1.00  0.00     0.022 A 
BRANCH  88  92
ATOM     92  S   UNL A   1      46.974  36.274  26.530  1.00  0.00     0.124 S 
ATOM     93  O   UNL A   1      46.396  35.527  25.417  1.00  0.00    -0.237 OA
ATOM     94  O   UNL A   1      46.205  37.423  26.993  1.00  0.00    -0.237 OA
ATOM     95  O   UNL A   1      48.418  36.491  26.446  1.00  0.00    -0.744 OA
ENDBRANCH  88  92
ENDBRANCH  62  85
ENDBRANCH  36  37
ENDBRANCH  28  31
ENDBRANCH  26  27
ENDBRANCH   1  26
TORSDOF 19
ENDMDL
MODEL 3
REMARK VINA RESULT:     -12.0      2.170      2.645
REMARK SMILES CCC(=CC(=O)[C@H](Cc1ccc(Cl)cc1Cl)C(=O)NCCCNC(=O)c1ccc(-c2c3nc(c(-c4cc(S(=O)(=O)[O-])ccc4F)c4ccc([nH]4)c(-c4cc(S(=O)(=O)[O-])ccc4F)c4nc(c(-c5cc(S(=O)(=O)[O-])ccc5F)c5ccc2[nH]5)C=C4)C=C3)cc1)N(C)C
REMARK SMILES IDX 21 1 20 2 19 3 17 4 18 5 7 7 5 8 6 9 4 10 3 11 2 12 1 13
REMARK SMILES IDX 89 14 90 15 91 16 8 17 9 18 10 19 15 20 11 21 14 22 16 23
REMARK SMILES IDX 12 24 13 25 22 26 23 27 24 28 25 30 26 31 27 32 88 33 28 34
REMARK SMILES IDX 87 35 29 36 30 37 31 38 81 39 32 40 86 41 80 42 82 43 33 44
REMARK SMILES IDX 85 45 79 46 78 47 34 49 66 50 46 51 65 52 47 53 50 54 64 55
REMARK SMILES IDX 83 56 48 57 49 58 63 60 84 61 51 62 35 63 36 64 44 65 37 66
REMARK SMILES IDX 43 67 45 68 42 69 38 70 39 71 40 72 41 73 67 74 68 75 76 76
REMARK SMILES IDX 69 77 75 78 77 79 74 80 70 81 71 82 72 83 73 84 52 85 53 86
REMARK SMILES IDX 61 87 54 88 60 89 62 90 59 91 55 92 56 93 57 94 58 95
REMARK H PARENT 19 6 23 29 82 48 50 59
REMARK Flexibility Score: inf
ROOT
ATOM      1  C   UNL A   1      32.306  28.994  26.357  1.00  0.00     0.042 C 
ENDROOT
BRANCH   1   2
ATOM      2  C   UNL A   1      31.542  28.279  27.498  1.00  0.00     0.117 C 
BRANCH   2   3
ATOM      3  N   UNL A   1      31.018  26.845  27.123  1.00  0.00    -0.355 N 
ATOM      4  C   UNL A   1      31.223  25.682  26.371  1.00  0.00     0.231 C 
ATOM      5  O   UNL A   1      30.272  24.881  26.470  1.00  0.00    -0.274 OA
ATOM      6  H   UNL A   1      30.192  26.704  27.638  1.00  0.00     0.163 HD
BRANCH   4   7
ATOM      7  C   UNL A   1      32.511  25.179  25.456  1.00  0.00     0.154 C 
BRANCH   7   8
ATOM      8  C   UNL A   1      31.940  25.354  24.105  1.00  0.00     0.170 C 
ATOM      9  O   UNL A   1      31.252  24.520  23.524  1.00  0.00    -0.294 OA
BRANCH   8  10
ATOM     10  C   UNL A   1      32.324  26.654  23.485  1.00  0.00     0.069 C 
ATOM     11  C   UNL A   1      31.395  26.864  22.524  1.00  0.00     0.016 C 
BRANCH  11  12
ATOM     12  C   UNL A   1      31.928  25.725  21.378  1.00  0.00     0.050 C 
ATOM     13  C   UNL A   1      32.688  25.573  20.031  1.00  0.00     0.010 C 
ENDBRANCH  11  12
BRANCH  11  14
ATOM     14  N   UNL A   1      30.009  27.554  22.785  1.00  0.00    -0.381 N 
ATOM     15  C   UNL A   1      29.793  29.032  22.574  1.00  0.00     0.143 C 
ATOM     16  C   UNL A   1      28.764  27.229  23.626  1.00  0.00     0.143 C 
ENDBRANCH  11  14
ENDBRANCH   8  10
ENDBRANCH   7   8
BRANCH   7  17
ATOM     17  C   UNL A   1      33.790  23.883  25.550  1.00  0.00     0.059 C 
BRANCH  17  18
ATOM     18  C   UNL A   1      34.161  22.208  25.240  1.00  0.00    -0.028 A 
ATOM     19  C   UNL A   1      32.958  21.468  25.057  1.00  0.00     0.007 A 
ATOM     20  C   UNL A   1      35.352  21.315  25.185  1.00  0.00     0.045 A 
ATOM     21  C   UNL A   1      32.917  20.077  24.775  1.00  0.00     0.021 A 
ATOM     22  C   UNL A   1      35.268  19.935  24.868  1.00  0.00     0.041 A 
ATOM     23  Cl  UNL A   1      37.121  21.479  25.372  1.00  0.00    -0.084 Cl
ATOM     24  C   UNL A   1      34.068  19.323  24.659  1.00  0.00     0.042 A 
ATOM     25  Cl  UNL A   1      34.047  17.651  24.282  1.00  0.00    -0.084 Cl
ENDBRANCH  17  18
ENDBRANCH   7  17
ENDBRANCH   4   7
ENDBRANCH   2   3
ENDBRANCH   1   2
BRANCH   1  26
ATOM     26  C   UNL A   1      31.897  30.190  25.454  1.00  0.00     0.118 C 
BRANCH  26  27
ATOM     27  N   UNL A   1      31.780  31.489  26.154  1.00  0.00    -0.352 N 
ATOM     28  C   UNL A   1      32.490  32.319  27.009  1.00  0.00     0.251 C 
ATOM     29  H   UNL A   1      30.911  31.900  25.941  1.00  0.00     0.163 HD
ATOM     30  O   UNL A   1      31.900  33.384  27.240  1.00  0.00    -0.269 OA
BRANCH  28  31
ATOM     31  C   UNL A   1      33.825  32.121  27.715  1.00  0.00     0.039 A 
ATOM     32  C   UNL A   1      34.086  30.820  28.224  1.00  0.00     0.014 A 
ATOM     33  C   UNL A   1      34.839  33.055  27.911  1.00  0.00     0.014 A 
ATOM     34  C   UNL A   1      35.282  30.473  28.903  1.00  0.00     0.010 A 
ATOM     35  C   UNL A   1      36.058  32.699  28.571  1.00  0.00     0.010 A 
ATOM     36  C   UNL A   1      36.304  31.406  29.085  1.00  0.00    -0.014 A 
BRANCH  36  37
ATOM     37  C   UNL A   1      37.587  31.054  29.813  1.00  0.00     0.031 A 
ATOM     38  C   UNL A   1      38.587  30.087  29.205  1.00  0.00     0.074 A 
ATOM     39  C   UNL A   1      37.887  31.563  31.032  1.00  0.00     0.049 A 
ATOM     40  N   UNL A   1      39.681  29.572  29.721  1.00  0.00    -0.248 NA
ATOM     41  C   UNL A   1      38.308  29.636  27.838  1.00  0.00     0.031 C 
ATOM     42  C   UNL A   1      37.071  32.526  31.770  1.00  0.00     0.029 A 
ATOM     43  N   UNL A   1      38.952  31.322  31.880  1.00  0.00    -0.354 N 
ATOM     44  C   UNL A   1      40.207  28.719  28.753  1.00  0.00     0.074 A 
ATOM     45  C   UNL A   1      39.287  28.764  27.632  1.00  0.00     0.031 C 
ATOM     46  C   UNL A   1      37.648  32.774  32.960  1.00  0.00     0.029 A 
ATOM     47  C   UNL A   1      38.856  31.961  33.099  1.00  0.00     0.049 A 
ATOM     48  H   UNL A   1      39.712  30.744  31.636  1.00  0.00     0.167 HD
ATOM     49  C   UNL A   1      41.348  27.977  28.775  1.00  0.00     0.034 A 
ATOM     50  C   UNL A   1      39.620  31.892  34.214  1.00  0.00     0.034 A 
ATOM     51  C   UNL A   1      42.293  27.939  29.870  1.00  0.00     0.049 A 
ATOM     52  C   UNL A   1      40.848  31.011  34.248  1.00  0.00     0.074 A 
ATOM     53  C   UNL A   1      43.505  27.265  29.940  1.00  0.00     0.029 A 
ATOM     54  N   UNL A   1      42.140  28.587  31.087  1.00  0.00    -0.354 N 
ATOM     55  N   UNL A   1      41.334  30.233  33.310  1.00  0.00    -0.248 NA
ATOM     56  C   UNL A   1      41.636  31.007  35.493  1.00  0.00     0.031 C 
ATOM     57  C   UNL A   1      44.047  27.450  31.218  1.00  0.00     0.029 A 
ATOM     58  C   UNL A   1      43.211  28.298  31.924  1.00  0.00     0.049 A 
ATOM     59  H   UNL A   1      41.381  29.167  31.324  1.00  0.00     0.167 HD
ATOM     60  C   UNL A   1      42.499  29.679  33.841  1.00  0.00     0.074 A 
ATOM     61  C   UNL A   1      42.649  30.214  35.176  1.00  0.00     0.031 C 
ATOM     62  C   UNL A   1      43.371  28.815  33.262  1.00  0.00     0.034 A 
BRANCH  49  63
ATOM     63  C   UNL A   1      41.630  27.098  27.575  1.00  0.00     0.023 A 
ATOM     64  C   UNL A   1      41.318  25.729  27.568  1.00  0.00     0.031 A 
ATOM     65  C   UNL A   1      42.225  27.642  26.420  1.00  0.00     0.131 A 
ATOM     66  C   UNL A   1      41.675  24.934  26.469  1.00  0.00     0.055 A 
ATOM     67  C   UNL A   1      42.503  26.861  25.297  1.00  0.00     0.041 A 
ATOM     68  F   UNL A   1      42.554  28.942  26.369  1.00  0.00    -0.206 F 
ATOM     69  C   UNL A   1      42.245  25.493  25.323  1.00  0.00     0.022 A 
BRANCH  66  70
ATOM     70  S   UNL A   1      41.526  23.130  26.603  1.00  0.00     0.124 S 
ATOM     71  O   UNL A   1      42.041  22.898  27.960  1.00  0.00    -0.237 OA
ATOM     72  O   UNL A   1      40.079  22.926  26.442  1.00  0.00    -0.237 OA
ATOM     73  O   UNL A   1      42.350  22.628  25.536  1.00  0.00    -0.744 OA
ENDBRANCH  66  70
ENDBRANCH  49  63
BRANCH  50  74
ATOM     74  C   UNL A   1      39.222  32.640  35.447  1.00  0.00     0.023 A 
ATOM     75  C   UNL A   1      39.656  33.956  35.680  1.00  0.00     0.031 A 
ATOM     76  C   UNL A   1      38.457  32.012  36.447  1.00  0.00     0.131 A 
ATOM     77  C   UNL A   1      39.355  34.587  36.899  1.00  0.00     0.055 A 
ATOM     78  C   UNL A   1      38.115  32.663  37.634  1.00  0.00     0.041 A 
ATOM     79  F   UNL A   1      38.030  30.750  36.281  1.00  0.00    -0.206 F 
ATOM     80  C   UNL A   1      38.576  33.954  37.871  1.00  0.00     0.022 A 
BRANCH  77  81
ATOM     81  S   UNL A   1      40.068  36.222  37.235  1.00  0.00     0.124 S 
ATOM     82  O   UNL A   1      39.930  36.880  35.941  1.00  0.00    -0.237 OA
ATOM     83  O   UNL A   1      39.202  36.717  38.301  1.00  0.00    -0.237 OA
ATOM     84  O   UNL A   1      41.439  35.921  37.640  1.00  0.00    -0.744 OA
ENDBRANCH  77  81
ENDBRANCH  50  74
BRANCH  62  85
ATOM     85  C   UNL A   1      44.604  28.433  34.051  1.00  0.00     0.023 A 
ATOM     86  C   UNL A   1      45.794  29.180  33.987  1.00  0.00     0.031 A 
ATOM     87  C   UNL A   1      44.590  27.288  34.870  1.00  0.00     0.131 A 
ATOM     88  C   UNL A   1      46.933  28.747  34.688  1.00  0.00     0.055 A 
ATOM     89  C   UNL A   1      45.710  26.891  35.604  1.00  0.00     0.041 A 
ATOM     90  F   UNL A   1      43.484  26.533  34.969  1.00  0.00    -0.206 F 
ATOM     91  C   UNL A   1      46.894  27.616  35.506  1.00  0.00     0.022 A 
BRANCH  88  92
ATOM     92  S   UNL A   1      48.497  29.640  34.456  1.00  0.00     0.124 S 
ATOM     93  O   UNL A   1      49.482  28.635  34.843  1.00  0.00    -0.237 OA
ATOM     94  O   UNL A   1      48.457  29.980  33.039  1.00  0.00    -0.237 OA
ATOM     95  O   UNL A   1      48.381  30.777  35.368  1.00  0.00    -0.744 OA
ENDBRANCH  88  92
ENDBRANCH  62  85
ENDBRANCH  36  37
ENDBRANCH  28  31
ENDBRANCH  26  27
ENDBRANCH   1  26
TORSDOF 19
ENDMDL
