MODEL 1
REMARK VINA RESULT:     -12.0      0.000      0.000
REMARK SMILES CC1(C)[C@@H](C(=O)NCCCNC(=O)c2ccc(-c3c4nc(c(-c5cc(S(=O)(=O)[O-])ccc5F)c5ccc([nH]5)c(-c5cc(S(=O)(=O)[O-])ccc5F)c5nc(c(-c6cc(S(=O)(=O)[O-])ccc6F)c6ccc3[nH]6)C=C5)C=C4)cc2)CC[C@@]1(C)C(N)=O
REMARK SMILES IDX 10 1 9 2 8 3 7 4 5 5 6 6 4 8 1 9 2 10 3 11 79 12 77 13 78 14
REMARK SMILES IDX 80 15 81 16 82 17 83 18 11 21 12 22 13 24 14 25 15 26 76 27
REMARK SMILES IDX 16 28 75 29 17 30 18 31 19 32 69 33 20 34 74 35 68 36 70 37
REMARK SMILES IDX 21 38 73 39 67 40 66 41 22 43 54 44 34 45 53 46 35 47 38 48
REMARK SMILES IDX 52 49 71 50 36 51 37 52 51 54 72 55 39 56 23 57 24 58 32 59
REMARK SMILES IDX 25 60 31 61 33 62 30 63 26 64 27 65 28 66 29 67 55 68 56 69
REMARK SMILES IDX 64 70 57 71 63 72 65 73 62 74 58 75 59 76 60 77 61 78 40 79
REMARK SMILES IDX 41 80 49 81 42 82 48 83 50 84 47 85 43 86 44 87 45 88 46 89
REMARK H PARENT 7 7 82 19 82 20 11 23 70 42 38 53
REMARK Flexibility Score: inf
ROOT
ATOM      1  C   UNL A   1      32.821  32.282  27.257  1.00  0.00     0.118 C 
ENDROOT
BRANCH   1   2
ATOM      2  C   UNL A   1      31.659  31.608  26.528  1.00  0.00     0.042 C 
BRANCH   2   3
ATOM      3  C   UNL A   1      31.959  30.186  26.062  1.00  0.00     0.117 C 
BRANCH   3   4
ATOM      4  N   UNL A   1      31.406  29.931  24.743  1.00  0.00    -0.356 N 
ATOM      5  C   UNL A   1      31.129  28.743  24.128  1.00  0.00     0.223 C 
ATOM      6  O   UNL A   1      30.820  28.769  22.941  1.00  0.00    -0.275 OA
ATOM      7  H   UNL A   1      31.200  30.734  24.212  1.00  0.00     0.163 HD
BRANCH   5   8
ATOM      8  C   UNL A   1      31.180  27.464  24.963  1.00  0.00     0.085 C 
ATOM      9  C   UNL A   1      33.741  27.274  24.785  1.00  0.00     0.013 C 
ATOM     10  C   UNL A   1      32.403  26.515  24.795  1.00  0.00    -0.010 C 
ATOM     11  C   UNL A   1      32.466  25.622  26.075  1.00  0.00     0.013 C 
ATOM     12  C   UNL A   1      32.060  25.658  23.510  1.00  0.00     0.052 C 
ATOM     13  C   UNL A   1      29.994  26.579  24.580  1.00  0.00     0.015 C 
ATOM     14  C   UNL A   1      30.498  25.658  23.469  1.00  0.00     0.018 C 
ATOM     15  C   UNL A   1      32.550  24.193  23.588  1.00  0.00     0.022 C 
BRANCH  12  16
ATOM     16  C   UNL A   1      32.613  26.206  22.166  1.00  0.00     0.223 C 
ATOM     17  N   UNL A   1      31.699  26.693  21.276  1.00  0.00    -0.369 N 
ATOM     18  O   UNL A   1      33.805  26.325  21.898  1.00  0.00    -0.275 OA
ATOM     19  H   UNL A   1      30.736  26.612  21.464  1.00  0.00     0.159 HD
ATOM     20  H   UNL A   1      32.004  27.127  20.446  1.00  0.00     0.159 HD
ENDBRANCH  12  16
ENDBRANCH   5   8
ENDBRANCH   3   4
ENDBRANCH   2   3
ENDBRANCH   1   2
BRANCH   1  21
ATOM     21  N   UNL A   1      32.555  33.681  27.566  1.00  0.00    -0.352 N 
ATOM     22  C   UNL A   1      33.118  34.507  28.506  1.00  0.00     0.251 C 
ATOM     23  H   UNL A   1      31.860  34.101  27.011  1.00  0.00     0.163 HD
ATOM     24  O   UNL A   1      32.603  35.603  28.722  1.00  0.00    -0.269 OA
BRANCH  22  25
ATOM     25  C   UNL A   1      34.308  34.083  29.276  1.00  0.00     0.039 A 
ATOM     26  C   UNL A   1      34.120  33.372  30.464  1.00  0.00     0.014 A 
ATOM     27  C   UNL A   1      35.602  34.394  28.850  1.00  0.00     0.014 A 
ATOM     28  C   UNL A   1      35.227  32.905  31.179  1.00  0.00     0.010 A 
ATOM     29  C   UNL A   1      36.704  33.866  29.523  1.00  0.00     0.010 A 
ATOM     30  C   UNL A   1      36.528  33.105  30.688  1.00  0.00    -0.014 A 
BRANCH  30  31
ATOM     31  C   UNL A   1      37.702  32.487  31.361  1.00  0.00     0.031 A 
ATOM     32  C   UNL A   1      38.419  31.320  30.737  1.00  0.00     0.074 A 
ATOM     33  C   UNL A   1      38.088  32.947  32.569  1.00  0.00     0.049 A 
ATOM     34  N   UNL A   1      39.418  30.617  31.206  1.00  0.00    -0.248 NA
ATOM     35  C   UNL A   1      37.933  30.872  29.424  1.00  0.00     0.031 C 
ATOM     36  C   UNL A   1      37.451  34.051  33.292  1.00  0.00     0.029 A 
ATOM     37  N   UNL A   1      39.097  32.545  33.407  1.00  0.00    -0.354 N 
ATOM     38  C   UNL A   1      39.680  29.640  30.251  1.00  0.00     0.074 A 
ATOM     39  C   UNL A   1      38.694  29.809  29.204  1.00  0.00     0.031 C 
ATOM     40  C   UNL A   1      38.101  34.255  34.447  1.00  0.00     0.029 A 
ATOM     41  C   UNL A   1      39.162  33.263  34.580  1.00  0.00     0.049 A 
ATOM     42  H   UNL A   1      39.716  31.811  33.191  1.00  0.00     0.167 HD
ATOM     43  C   UNL A   1      40.663  28.705  30.242  1.00  0.00     0.034 A 
ATOM     44  C   UNL A   1      39.971  33.128  35.650  1.00  0.00     0.034 A 
ATOM     45  C   UNL A   1      41.637  28.550  31.297  1.00  0.00     0.049 A 
ATOM     46  C   UNL A   1      41.021  32.047  35.637  1.00  0.00     0.074 A 
ATOM     47  C   UNL A   1      42.702  27.668  31.361  1.00  0.00     0.029 A 
ATOM     48  N   UNL A   1      41.658  29.280  32.479  1.00  0.00    -0.354 N 
ATOM     49  N   UNL A   1      41.287  31.164  34.702  1.00  0.00    -0.248 NA
ATOM     50  C   UNL A   1      41.885  31.947  36.821  1.00  0.00     0.031 C 
ATOM     51  C   UNL A   1      43.314  27.808  32.611  1.00  0.00     0.029 A 
ATOM     52  C   UNL A   1      42.691  28.840  33.294  1.00  0.00     0.049 A 
ATOM     53  H   UNL A   1      41.032  30.005  32.705  1.00  0.00     0.167 HD
ATOM     54  C   UNL A   1      42.370  30.426  35.174  1.00  0.00     0.074 A 
ATOM     55  C   UNL A   1      42.718  30.981  36.466  1.00  0.00     0.031 C 
ATOM     56  C   UNL A   1      43.020  29.388  34.590  1.00  0.00     0.034 A 
BRANCH  43  57
ATOM     57  C   UNL A   1      40.713  27.757  29.066  1.00  0.00     0.023 A 
ATOM     58  C   UNL A   1      41.649  27.913  28.029  1.00  0.00     0.031 A 
ATOM     59  C   UNL A   1      39.807  26.685  28.975  1.00  0.00     0.131 A 
ATOM     60  C   UNL A   1      41.613  27.058  26.916  1.00  0.00     0.055 A 
ATOM     61  C   UNL A   1      39.830  25.786  27.907  1.00  0.00     0.041 A 
ATOM     62  F   UNL A   1      38.875  26.495  29.923  1.00  0.00    -0.206 F 
ATOM     63  C   UNL A   1      40.728  25.979  26.861  1.00  0.00     0.022 A 
BRANCH  60  64
ATOM     64  S   UNL A   1      42.643  27.463  25.480  1.00  0.00     0.124 S 
ATOM     65  O   UNL A   1      43.933  27.736  26.108  1.00  0.00    -0.237 OA
ATOM     66  O   UNL A   1      42.564  26.246  24.681  1.00  0.00    -0.237 OA
ATOM     67  O   UNL A   1      41.981  28.633  24.903  1.00  0.00    -0.744 OA
ENDBRANCH  60  64
ENDBRANCH  43  57
BRANCH  44  68
ATOM     68  C   UNL A   1      39.812  34.020  36.837  1.00  0.00     0.023 A 
ATOM     69  C   UNL A   1      39.257  33.541  38.034  1.00  0.00     0.031 A 
ATOM     70  C   UNL A   1      40.167  35.380  36.774  1.00  0.00     0.131 A 
ATOM     71  C   UNL A   1      39.025  34.424  39.100  1.00  0.00     0.055 A 
ATOM     72  C   UNL A   1      39.992  36.240  37.859  1.00  0.00     0.041 A 
ATOM     73  F   UNL A   1      40.702  35.892  35.653  1.00  0.00    -0.206 F 
ATOM     74  C   UNL A   1      39.404  35.766  39.026  1.00  0.00     0.022 A 
BRANCH  71  75
ATOM     75  S   UNL A   1      38.124  33.814  40.552  1.00  0.00     0.124 S 
ATOM     76  O   UNL A   1      37.929  35.040  41.316  1.00  0.00    -0.237 OA
ATOM     77  O   UNL A   1      36.929  33.238  39.945  1.00  0.00    -0.237 OA
ATOM     78  O   UNL A   1      39.048  32.849  41.143  1.00  0.00    -0.744 OA
ENDBRANCH  71  75
ENDBRANCH  44  68
BRANCH  56  79
ATOM     79  C   UNL A   1      44.203  28.811  35.334  1.00  0.00     0.023 A 
ATOM     80  C   UNL A   1      44.052  27.795  36.293  1.00  0.00     0.031 A 
ATOM     81  C   UNL A   1      45.499  29.300  35.090  1.00  0.00     0.131 A 
ATOM     82  C   UNL A   1      45.167  27.345  37.017  1.00  0.00     0.055 A 
ATOM     83  C   UNL A   1      46.615  28.799  35.762  1.00  0.00     0.041 A 
ATOM     84  F   UNL A   1      45.704  30.275  34.188  1.00  0.00    -0.206 F 
ATOM     85  C   UNL A   1      46.450  27.825  36.744  1.00  0.00     0.022 A 
BRANCH  82  86
ATOM     86  S   UNL A   1      44.904  26.195  38.396  1.00  0.00     0.124 S 
ATOM     87  O   UNL A   1      43.528  26.491  38.779  1.00  0.00    -0.237 OA
ATOM     88  O   UNL A   1      45.126  24.897  37.768  1.00  0.00    -0.237 OA
ATOM     89  O   UNL A   1      45.918  26.593  39.371  1.00  0.00    -0.744 OA
ENDBRANCH  82  86
ENDBRANCH  56  79
ENDBRANCH  30  31
ENDBRANCH  22  25
ENDBRANCH   1  21
TORSDOF 14
ENDMDL
MODEL 2
REMARK VINA RESULT:     -12.0      6.016      9.181
REMARK SMILES CC1(C)[C@@H](C(=O)NCCCNC(=O)c2ccc(-c3c4nc(c(-c5cc(S(=O)(=O)[O-])ccc5F)c5ccc([nH]5)c(-c5cc(S(=O)(=O)[O-])ccc5F)c5nc(c(-c6cc(S(=O)(=O)[O-])ccc6F)c6ccc3[nH]6)C=C5)C=C4)cc2)CC[C@@]1(C)C(N)=O
REMARK SMILES IDX 10 1 9 2 8 3 7 4 5 5 6 6 4 8 1 9 2 10 3 11 79 12 77 13 78 14
REMARK SMILES IDX 80 15 81 16 82 17 83 18 11 21 12 22 13 24 14 25 15 26 76 27
REMARK SMILES IDX 16 28 75 29 17 30 18 31 19 32 69 33 20 34 74 35 68 36 70 37
REMARK SMILES IDX 21 38 73 39 67 40 66 41 22 43 54 44 34 45 53 46 35 47 38 48
REMARK SMILES IDX 52 49 71 50 36 51 37 52 51 54 72 55 39 56 23 57 24 58 32 59
REMARK SMILES IDX 25 60 31 61 33 62 30 63 26 64 27 65 28 66 29 67 55 68 56 69
REMARK SMILES IDX 64 70 57 71 63 72 65 73 62 74 58 75 59 76 60 77 61 78 40 79
REMARK SMILES IDX 41 80 49 81 42 82 48 83 50 84 47 85 43 86 44 87 45 88 46 89
REMARK H PARENT 7 7 82 19 82 20 11 23 70 42 38 53
REMARK Flexibility Score: inf
ROOT
ATOM      1  C   UNL A   1      37.969  20.959  25.059  1.00  0.00     0.118 C 
ENDROOT
BRANCH   1   2
ATOM      2  C   UNL A   1      36.555  20.378  25.027  1.00  0.00     0.042 C 
BRANCH   2   3
ATOM      3  C   UNL A   1      35.515  21.232  25.748  1.00  0.00     0.117 C 
BRANCH   3   4
ATOM      4  N   UNL A   1      34.187  20.656  25.642  1.00  0.00    -0.356 N 
ATOM      5  C   UNL A   1      33.057  21.167  25.069  1.00  0.00     0.223 C 
ATOM      6  O   UNL A   1      32.001  20.568  25.248  1.00  0.00    -0.275 OA
ATOM      7  H   UNL A   1      34.084  19.762  26.043  1.00  0.00     0.163 HD
BRANCH   5   8
ATOM      8  C   UNL A   1      33.183  22.425  24.210  1.00  0.00     0.085 C 
ATOM      9  C   UNL A   1      33.760  23.921  26.224  1.00  0.00     0.013 C 
ATOM     10  C   UNL A   1      32.998  23.812  24.892  1.00  0.00    -0.010 C 
ATOM     11  C   UNL A   1      33.674  24.870  23.963  1.00  0.00     0.013 C 
ATOM     12  C   UNL A   1      31.430  24.013  24.949  1.00  0.00     0.052 C 
ATOM     13  C   UNL A   1      32.085  22.406  23.147  1.00  0.00     0.015 C 
ATOM     14  C   UNL A   1      30.901  23.159  23.752  1.00  0.00     0.018 C 
ATOM     15  C   UNL A   1      30.982  25.479  24.743  1.00  0.00     0.022 C 
BRANCH  12  16
ATOM     16  C   UNL A   1      30.737  23.552  26.260  1.00  0.00     0.223 C 
ATOM     17  N   UNL A   1      30.048  22.374  26.213  1.00  0.00    -0.369 N 
ATOM     18  O   UNL A   1      30.854  24.113  27.347  1.00  0.00    -0.275 OA
ATOM     19  H   UNL A   1      29.939  21.902  25.356  1.00  0.00     0.159 HD
ATOM     20  H   UNL A   1      29.662  21.996  27.036  1.00  0.00     0.159 HD
ENDBRANCH  12  16
ENDBRANCH   5   8
ENDBRANCH   3   4
ENDBRANCH   2   3
ENDBRANCH   1   2
BRANCH   1  21
ATOM     21  N   UNL A   1      38.919  20.086  25.735  1.00  0.00    -0.352 N 
ATOM     22  C   UNL A   1      40.049  20.388  26.453  1.00  0.00     0.251 C 
ATOM     23  H   UNL A   1      38.719  19.125  25.667  1.00  0.00     0.163 HD
ATOM     24  O   UNL A   1      40.812  19.478  26.775  1.00  0.00    -0.269 OA
BRANCH  22  25
ATOM     25  C   UNL A   1      40.370  21.787  26.813  1.00  0.00     0.039 A 
ATOM     26  C   UNL A   1      41.319  22.021  27.812  1.00  0.00     0.014 A 
ATOM     27  C   UNL A   1      39.735  22.865  26.191  1.00  0.00     0.014 A 
ATOM     28  C   UNL A   1      41.687  23.331  28.130  1.00  0.00     0.010 A 
ATOM     29  C   UNL A   1      40.155  24.169  26.456  1.00  0.00     0.010 A 
ATOM     30  C   UNL A   1      41.145  24.415  27.420  1.00  0.00    -0.014 A 
BRANCH  30  31
ATOM     31  C   UNL A   1      41.637  25.801  27.647  1.00  0.00     0.031 A 
ATOM     32  C   UNL A   1      42.989  26.228  27.143  1.00  0.00     0.074 A 
ATOM     33  C   UNL A   1      40.882  26.660  28.361  1.00  0.00     0.049 A 
ATOM     34  N   UNL A   1      43.606  27.371  27.301  1.00  0.00    -0.248 NA
ATOM     35  C   UNL A   1      43.755  25.232  26.381  1.00  0.00     0.031 C 
ATOM     36  C   UNL A   1      39.568  26.352  28.932  1.00  0.00     0.029 A 
ATOM     37  N   UNL A   1      41.106  27.961  28.738  1.00  0.00    -0.354 N 
ATOM     38  C   UNL A   1      44.835  27.233  26.664  1.00  0.00     0.074 A 
ATOM     39  C   UNL A   1      44.895  25.874  26.168  1.00  0.00     0.031 C 
ATOM     40  C   UNL A   1      39.094  27.438  29.559  1.00  0.00     0.029 A 
ATOM     41  C   UNL A   1      40.088  28.503  29.490  1.00  0.00     0.049 A 
ATOM     42  H   UNL A   1      41.920  28.459  28.495  1.00  0.00     0.167 HD
ATOM     43  C   UNL A   1      45.811  28.160  26.493  1.00  0.00     0.034 A 
ATOM     44  C   UNL A   1      39.975  29.713  30.074  1.00  0.00     0.034 A 
ATOM     45  C   UNL A   1      45.734  29.512  26.996  1.00  0.00     0.049 A 
ATOM     46  C   UNL A   1      41.096  30.707  29.913  1.00  0.00     0.074 A 
ATOM     47  C   UNL A   1      46.645  30.543  26.835  1.00  0.00     0.029 A 
ATOM     48  N   UNL A   1      44.699  30.019  27.772  1.00  0.00    -0.354 N 
ATOM     49  N   UNL A   1      42.230  30.576  29.262  1.00  0.00    -0.248 NA
ATOM     50  C   UNL A   1      40.921  32.014  30.558  1.00  0.00     0.031 C 
ATOM     51  C   UNL A   1      46.201  31.641  27.579  1.00  0.00     0.029 A 
ATOM     52  C   UNL A   1      44.969  31.332  28.130  1.00  0.00     0.049 A 
ATOM     53  H   UNL A   1      43.890  29.519  28.029  1.00  0.00     0.167 HD
ATOM     54  C   UNL A   1      42.886  31.797  29.396  1.00  0.00     0.074 A 
ATOM     55  C   UNL A   1      42.013  32.655  30.170  1.00  0.00     0.031 C 
ATOM     56  C   UNL A   1      44.099  32.175  28.918  1.00  0.00     0.034 A 
BRANCH  43  57
ATOM     57  C   UNL A   1      47.058  27.733  25.755  1.00  0.00     0.023 A 
ATOM     58  C   UNL A   1      47.245  28.016  24.391  1.00  0.00     0.031 A 
ATOM     59  C   UNL A   1      48.074  27.025  26.422  1.00  0.00     0.131 A 
ATOM     60  C   UNL A   1      48.382  27.535  23.723  1.00  0.00     0.055 A 
ATOM     61  C   UNL A   1      49.242  26.621  25.773  1.00  0.00     0.041 A 
ATOM     62  F   UNL A   1      47.946  26.706  27.720  1.00  0.00    -0.206 F 
ATOM     63  C   UNL A   1      49.395  26.863  24.411  1.00  0.00     0.022 A 
BRANCH  60  64
ATOM     64  S   UNL A   1      48.449  27.675  21.916  1.00  0.00     0.124 S 
ATOM     65  O   UNL A   1      47.129  28.223  21.614  1.00  0.00    -0.237 OA
ATOM     66  O   UNL A   1      49.578  28.575  21.711  1.00  0.00    -0.237 OA
ATOM     67  O   UNL A   1      48.659  26.298  21.473  1.00  0.00    -0.744 OA
ENDBRANCH  60  64
ENDBRANCH  43  57
BRANCH  44  68
ATOM     68  C   UNL A   1      38.769  30.051  30.886  1.00  0.00     0.023 A 
ATOM     69  C   UNL A   1      37.706  30.784  30.334  1.00  0.00     0.031 A 
ATOM     70  C   UNL A   1      38.683  29.689  32.242  1.00  0.00     0.131 A 
ATOM     71  C   UNL A   1      36.630  31.175  31.146  1.00  0.00     0.055 A 
ATOM     72  C   UNL A   1      37.582  30.027  33.030  1.00  0.00     0.041 A 
ATOM     73  F   UNL A   1      39.671  28.988  32.823  1.00  0.00    -0.206 F 
ATOM     74  C   UNL A   1      36.553  30.788  32.485  1.00  0.00     0.022 A 
BRANCH  71  75
ATOM     75  S   UNL A   1      35.378  32.288  30.450  1.00  0.00     0.124 S 
ATOM     76  O   UNL A   1      34.368  32.293  31.502  1.00  0.00    -0.237 OA
ATOM     77  O   UNL A   1      36.134  33.524  30.280  1.00  0.00    -0.237 OA
ATOM     78  O   UNL A   1      34.985  31.624  29.209  1.00  0.00    -0.744 OA
ENDBRANCH  71  75
ENDBRANCH  44  68
BRANCH  56  79
ATOM     79  C   UNL A   1      44.531  33.598  29.190  1.00  0.00     0.023 A 
ATOM     80  C   UNL A   1      44.160  34.659  28.346  1.00  0.00     0.031 A 
ATOM     81  C   UNL A   1      45.341  33.892  30.301  1.00  0.00     0.131 A 
ATOM     82  C   UNL A   1      44.649  35.952  28.591  1.00  0.00     0.055 A 
ATOM     83  C   UNL A   1      45.767  35.192  30.580  1.00  0.00     0.041 A 
ATOM     84  F   UNL A   1      45.733  32.918  31.140  1.00  0.00    -0.206 F 
ATOM     85  C   UNL A   1      45.433  36.229  29.714  1.00  0.00     0.022 A 
BRANCH  82  86
ATOM     86  S   UNL A   1      44.333  37.250  27.363  1.00  0.00     0.124 S 
ATOM     87  O   UNL A   1      45.578  37.258  26.604  1.00  0.00    -0.237 OA
ATOM     88  O   UNL A   1      43.161  36.738  26.661  1.00  0.00    -0.237 OA
ATOM     89  O   UNL A   1      44.095  38.441  28.177  1.00  0.00    -0.744 OA
ENDBRANCH  82  86
ENDBRANCH  56  79
ENDBRANCH  30  31
ENDBRANCH  22  25
ENDBRANCH   1  21
TORSDOF 14
ENDMDL
MODEL 3
REMARK VINA RESULT:     -11.9      1.284      1.542
REMARK SMILES CC1(C)[C@@H](C(=O)NCCCNC(=O)c2ccc(-c3c4nc(c(-c5cc(S(=O)(=O)[O-])ccc5F)c5ccc([nH]5)c(-c5cc(S(=O)(=O)[O-])ccc5F)c5nc(c(-c6cc(S(=O)(=O)[O-])ccc6F)c6ccc3[nH]6)C=C5)C=C4)cc2)CC[C@@]1(C)C(N)=O
REMARK SMILES IDX 10 1 9 2 8 3 7 4 5 5 6 6 4 8 1 9 2 10 3 11 79 12 77 13 78 14
REMARK SMILES IDX 80 15 81 16 82 17 83 18 11 21 12 22 13 24 14 25 15 26 76 27
REMARK SMILES IDX 16 28 75 29 17 30 18 31 19 32 69 33 20 34 74 35 68 36 70 37
REMARK SMILES IDX 21 38 73 39 67 40 66 41 22 43 54 44 34 45 53 46 35 47 38 48
REMARK SMILES IDX 52 49 71 50 36 51 37 52 51 54 72 55 39 56 23 57 24 58 32 59
REMARK SMILES IDX 25 60 31 61 33 62 30 63 26 64 27 65 28 66 29 67 55 68 56 69
REMARK SMILES IDX 64 70 57 71 63 72 65 73 62 74 58 75 59 76 60 77 61 78 40 79
REMARK SMILES IDX 41 80 49 81 42 82 48 83 50 84 47 85 43 86 44 87 45 88 46 89
REMARK H PARENT 7 7 82 19 82 20 11 23 70 42 38 53
REMARK Flexibility Score: inf
ROOT
ATOM      1  C   UNL A   1      32.898  32.085  27.306  1.00  0.00     0.118 C 
ENDROOT
BRANCH   1   2
ATOM      2  C   UNL A   1      31.773  31.454  26.484  1.00  0.00     0.042 C 
BRANCH   2   3
ATOM      3  C   UNL A   1      32.084  30.046  25.983  1.00  0.00     0.117 C 
BRANCH   3   4
ATOM      4  N   UNL A   1      31.431  29.777  24.714  1.00  0.00    -0.356 N 
ATOM      5  C   UNL A   1      31.124  28.582  24.128  1.00  0.00     0.223 C 
ATOM      6  O   UNL A   1      30.719  28.598  22.969  1.00  0.00    -0.275 OA
ATOM      7  H   UNL A   1      31.169  30.574  24.200  1.00  0.00     0.163 HD
BRANCH   5   8
ATOM      8  C   UNL A   1      31.263  27.307  24.959  1.00  0.00     0.085 C 
ATOM      9  C   UNL A   1      33.819  27.218  24.665  1.00  0.00     0.013 C 
ATOM     10  C   UNL A   1      32.514  26.407  24.736  1.00  0.00    -0.010 C 
ATOM     11  C   UNL A   1      32.669  25.520  26.012  1.00  0.00     0.013 C 
ATOM     12  C   UNL A   1      32.146  25.535  23.468  1.00  0.00     0.052 C 
ATOM     13  C   UNL A   1      30.096  26.375  24.631  1.00  0.00     0.015 C 
ATOM     14  C   UNL A   1      30.585  25.473  23.499  1.00  0.00     0.018 C 
ATOM     15  C   UNL A   1      32.696  24.090  23.524  1.00  0.00     0.022 C 
BRANCH  12  16
ATOM     16  C   UNL A   1      32.615  26.101  22.100  1.00  0.00     0.223 C 
ATOM     17  N   UNL A   1      31.646  26.580  21.266  1.00  0.00    -0.369 N 
ATOM     18  O   UNL A   1      33.789  26.242  21.768  1.00  0.00    -0.275 OA
ATOM     19  H   UNL A   1      30.696  26.482  21.507  1.00  0.00     0.159 HD
ATOM     20  H   UNL A   1      31.897  27.025  20.424  1.00  0.00     0.159 HD
ENDBRANCH  12  16
ENDBRANCH   5   8
ENDBRANCH   3   4
ENDBRANCH   2   3
ENDBRANCH   1   2
BRANCH   1  21
ATOM     21  N   UNL A   1      32.677  33.501  27.566  1.00  0.00    -0.352 N 
ATOM     22  C   UNL A   1      33.256  34.337  28.487  1.00  0.00     0.251 C 
ATOM     23  H   UNL A   1      32.004  33.927  26.989  1.00  0.00     0.163 HD
ATOM     24  O   UNL A   1      32.777  35.457  28.661  1.00  0.00    -0.269 OA
BRANCH  22  25
ATOM     25  C   UNL A   1      34.421  33.897  29.286  1.00  0.00     0.039 A 
ATOM     26  C   UNL A   1      34.204  33.060  30.383  1.00  0.00     0.014 A 
ATOM     27  C   UNL A   1      35.719  34.315  28.977  1.00  0.00     0.014 A 
ATOM     28  C   UNL A   1      35.291  32.579  31.118  1.00  0.00     0.010 A 
ATOM     29  C   UNL A   1      36.807  33.778  29.665  1.00  0.00     0.010 A 
ATOM     30  C   UNL A   1      36.605  32.893  30.736  1.00  0.00    -0.014 A 
BRANCH  30  31
ATOM     31  C   UNL A   1      37.771  32.270  31.418  1.00  0.00     0.031 A 
ATOM     32  C   UNL A   1      38.536  31.151  30.764  1.00  0.00     0.074 A 
ATOM     33  C   UNL A   1      38.104  32.679  32.659  1.00  0.00     0.049 A 
ATOM     34  N   UNL A   1      39.535  30.449  31.234  1.00  0.00    -0.248 NA
ATOM     35  C   UNL A   1      38.106  30.757  29.415  1.00  0.00     0.031 C 
ATOM     36  C   UNL A   1      37.417  33.732  33.412  1.00  0.00     0.029 A 
ATOM     37  N   UNL A   1      39.095  32.259  33.512  1.00  0.00    -0.354 N 
ATOM     38  C   UNL A   1      39.852  29.526  30.243  1.00  0.00     0.074 A 
ATOM     39  C   UNL A   1      38.898  29.723  29.171  1.00  0.00     0.031 C 
ATOM     40  C   UNL A   1      38.023  33.894  34.597  1.00  0.00     0.029 A 
ATOM     41  C   UNL A   1      39.103  32.921  34.719  1.00  0.00     0.049 A 
ATOM     42  H   UNL A   1      39.738  31.551  33.282  1.00  0.00     0.167 HD
ATOM     43  C   UNL A   1      40.857  28.614  30.223  1.00  0.00     0.034 A 
ATOM     44  C   UNL A   1      39.878  32.752  35.809  1.00  0.00     0.034 A 
ATOM     45  C   UNL A   1      41.799  28.430  31.302  1.00  0.00     0.049 A 
ATOM     46  C   UNL A   1      40.954  31.697  35.781  1.00  0.00     0.074 A 
ATOM     47  C   UNL A   1      42.883  27.570  31.361  1.00  0.00     0.029 A 
ATOM     48  N   UNL A   1      41.763  29.102  32.518  1.00  0.00    -0.354 N 
ATOM     49  N   UNL A   1      41.273  30.867  34.814  1.00  0.00    -0.248 NA
ATOM     50  C   UNL A   1      41.779  31.559  36.988  1.00  0.00     0.031 C 
ATOM     51  C   UNL A   1      43.448  27.663  32.637  1.00  0.00     0.029 A 
ATOM     52  C   UNL A   1      42.778  28.646  33.346  1.00  0.00     0.049 A 
ATOM     53  H   UNL A   1      41.112  29.801  32.757  1.00  0.00     0.167 HD
ATOM     54  C   UNL A   1      42.357  30.132  35.288  1.00  0.00     0.074 A 
ATOM     55  C   UNL A   1      42.647  30.631  36.616  1.00  0.00     0.031 C 
ATOM     56  C   UNL A   1      43.050  29.137  34.678  1.00  0.00     0.034 A 
BRANCH  43  57
ATOM     57  C   UNL A   1      40.970  27.726  29.005  1.00  0.00     0.023 A 
ATOM     58  C   UNL A   1      41.959  27.931  28.029  1.00  0.00     0.031 A 
ATOM     59  C   UNL A   1      40.070  26.662  28.814  1.00  0.00     0.131 A 
ATOM     60  C   UNL A   1      41.983  27.132  26.874  1.00  0.00     0.055 A 
ATOM     61  C   UNL A   1      40.150  25.818  27.704  1.00  0.00     0.041 A 
ATOM     62  F   UNL A   1      39.089  26.427  29.700  1.00  0.00    -0.206 F 
ATOM     63  C   UNL A   1      41.102  26.060  26.719  1.00  0.00     0.022 A 
BRANCH  60  64
ATOM     64  S   UNL A   1      43.087  27.606  25.516  1.00  0.00     0.124 S 
ATOM     65  O   UNL A   1      42.172  28.314  24.624  1.00  0.00    -0.237 OA
ATOM     66  O   UNL A   1      44.085  28.427  26.192  1.00  0.00    -0.237 OA
ATOM     67  O   UNL A   1      43.573  26.324  25.007  1.00  0.00    -0.744 OA
ENDBRANCH  60  64
ENDBRANCH  43  57
BRANCH  44  68
ATOM     68  C   UNL A   1      39.658  33.582  37.031  1.00  0.00     0.023 A 
ATOM     69  C   UNL A   1      40.440  34.720  37.284  1.00  0.00     0.031 A 
ATOM     70  C   UNL A   1      38.694  33.219  37.989  1.00  0.00     0.131 A 
ATOM     71  C   UNL A   1      40.280  35.424  38.488  1.00  0.00     0.055 A 
ATOM     72  C   UNL A   1      38.497  33.959  39.155  1.00  0.00     0.041 A 
ATOM     73  F   UNL A   1      37.918  32.139  37.798  1.00  0.00    -0.206 F 
ATOM     74  C   UNL A   1      39.303  35.061  39.417  1.00  0.00     0.022 A 
BRANCH  71  75
ATOM     75  S   UNL A   1      41.441  36.765  38.869  1.00  0.00     0.124 S 
ATOM     76  O   UNL A   1      40.536  37.838  39.261  1.00  0.00    -0.237 OA
ATOM     77  O   UNL A   1      42.241  36.176  39.939  1.00  0.00    -0.237 OA
ATOM     78  O   UNL A   1      42.147  36.972  37.607  1.00  0.00    -0.744 OA
ENDBRANCH  71  75
ENDBRANCH  44  68
BRANCH  56  79
ATOM     79  C   UNL A   1      44.221  28.553  35.434  1.00  0.00     0.023 A 
ATOM     80  C   UNL A   1      44.055  27.525  36.379  1.00  0.00     0.031 A 
ATOM     81  C   UNL A   1      45.521  29.043  35.216  1.00  0.00     0.131 A 
ATOM     82  C   UNL A   1      45.158  27.066  37.116  1.00  0.00     0.055 A 
ATOM     83  C   UNL A   1      46.626  28.534  35.901  1.00  0.00     0.041 A 
ATOM     84  F   UNL A   1      45.741  30.028  34.329  1.00  0.00    -0.206 F 
ATOM     85  C   UNL A   1      46.445  27.549  36.868  1.00  0.00     0.022 A 
BRANCH  82  86
ATOM     86  S   UNL A   1      44.873  25.902  38.477  1.00  0.00     0.124 S 
ATOM     87  O   UNL A   1      43.754  26.523  39.178  1.00  0.00    -0.237 OA
ATOM     88  O   UNL A   1      44.573  24.661  37.770  1.00  0.00    -0.237 OA
ATOM     89  O   UNL A   1      46.140  25.908  39.205  1.00  0.00    -0.744 OA
ENDBRANCH  82  86
ENDBRANCH  56  79
ENDBRANCH  30  31
ENDBRANCH  22  25
ENDBRANCH   1  21
TORSDOF 14
ENDMDL
