MODEL 1
REMARK VINA RESULT:     -11.1      0.000      0.000
REMARK SMILES O=C(NCCCNC(=O)c1[nH]ncc1C[N@H+]1CCC[C@@H](C(=O)c2ccc(Oc3ccccc3)cc2)C1)c1ccc(-c2c3nc(c(-c4cc(S(=O)(=O)[O-])ccc4F)c4ccc([nH]4)c(-c4cc(S(=O)(=O)[O-])ccc4F)c4nc(c(-c5cc(S(=O)(=O)[O-])ccc5F)c5ccc2[nH]5)C=C4)C=C3)cc1
REMARK SMILES IDX 7 1 8 2 9 3 6 5 5 6 4 7 3 8 1 9 2 10 37 12 38 13 99 14 39 15
REMARK SMILES IDX 98 16 40 17 41 18 42 19 92 20 43 21 97 22 91 23 93 24 44 25
REMARK SMILES IDX 96 26 90 27 89 28 45 30 77 31 57 32 76 33 58 34 61 35 75 36
REMARK SMILES IDX 94 37 59 38 60 39 74 41 95 42 62 43 46 44 47 45 55 46 48 47
REMARK SMILES IDX 54 48 56 49 53 50 49 51 50 52 51 53 52 54 78 55 79 56 87 57
REMARK SMILES IDX 80 58 86 59 88 60 85 61 81 62 82 63 83 64 84 65 63 66 64 67
REMARK SMILES IDX 72 68 65 69 71 70 73 71 70 72 66 73 67 74 68 75 69 76 10 77
REMARK SMILES IDX 11 78 14 79 12 80 13 82 15 83 16 84 17 85 36 86 18 88 20 89
REMARK SMILES IDX 19 90 21 91 22 92 23 93 24 94 35 95 25 96 34 97 26 98 27 99
REMARK SMILES IDX 28 100 29 101 33 102 30 103 32 104 31 105
REMARK H PARENT 7 4 3 11 93 29 61 40 11 81 16 87
REMARK Flexibility Score: inf
ROOT
ATOM      1  N   UNL A   1      34.215  30.940  27.802  1.00  0.00    -0.351 N 
ATOM      2  C   UNL A   1      33.652  29.837  27.214  1.00  0.00     0.269 C 
ATOM      3  O   UNL A   1      34.077  28.721  27.509  1.00  0.00    -0.268 OA
ATOM      4  H   UNL A   1      35.059  30.778  28.282  1.00  0.00     0.163 HD
ENDROOT
BRANCH   1   5
ATOM      5  C   UNL A   1      33.740  32.319  27.818  1.00  0.00     0.118 C 
BRANCH   5   6
ATOM      6  C   UNL A   1      34.854  33.328  28.036  1.00  0.00     0.042 C 
BRANCH   6   7
ATOM      7  C   UNL A   1      34.379  34.770  28.025  1.00  0.00     0.118 C 
BRANCH   7   8
ATOM      8  N   UNL A   1      33.538  35.091  29.171  1.00  0.00    -0.352 N 
ATOM      9  O   UNL A   1      32.721  34.930  31.257  1.00  0.00    -0.269 OA
ATOM     10  C   UNL A   1      33.658  34.727  30.489  1.00  0.00     0.251 C 
ATOM     11  H   UNL A   1      32.760  35.659  28.967  1.00  0.00     0.163 HD
BRANCH  10  12
ATOM     12  C   UNL A   1      34.896  34.084  30.977  1.00  0.00     0.039 A 
ATOM     13  C   UNL A   1      36.126  34.742  30.898  1.00  0.00     0.014 A 
ATOM     14  C   UNL A   1      34.820  32.813  31.554  1.00  0.00     0.014 A 
ATOM     15  C   UNL A   1      37.295  34.076  31.243  1.00  0.00     0.010 A 
ATOM     16  C   UNL A   1      35.985  32.185  31.997  1.00  0.00     0.010 A 
ATOM     17  C   UNL A   1      37.236  32.799  31.818  1.00  0.00    -0.014 A 
BRANCH  17  18
ATOM     18  C   UNL A   1      38.480  32.135  32.279  1.00  0.00     0.031 A 
ATOM     19  C   UNL A   1      39.108  31.040  31.467  1.00  0.00     0.074 A 
ATOM     20  C   UNL A   1      39.024  32.510  33.452  1.00  0.00     0.049 A 
ATOM     21  N   UNL A   1      40.123  30.270  31.760  1.00  0.00    -0.248 NA
ATOM     22  C   UNL A   1      38.501  30.766  30.156  1.00  0.00     0.031 C 
ATOM     23  C   UNL A   1      38.502  33.569  34.320  1.00  0.00     0.029 A 
ATOM     24  N   UNL A   1      40.121  32.039  34.126  1.00  0.00    -0.354 N 
ATOM     25  C   UNL A   1      40.265  29.400  30.685  1.00  0.00     0.074 A 
ATOM     26  C   UNL A   1      39.205  29.720  29.750  1.00  0.00     0.031 C 
ATOM     27  C   UNL A   1      39.280  33.671  35.406  1.00  0.00     0.029 A 
ATOM     28  C   UNL A   1      40.305  32.636  35.351  1.00  0.00     0.049 A 
ATOM     29  H   UNL A   1      40.717  31.343  33.767  1.00  0.00     0.167 HD
ATOM     30  C   UNL A   1      41.197  28.430  30.498  1.00  0.00     0.034 A 
ATOM     31  C   UNL A   1      41.167  32.350  36.346  1.00  0.00     0.034 A 
ATOM     32  C   UNL A   1      42.237  28.131  31.455  1.00  0.00     0.049 A 
ATOM     33  C   UNL A   1      42.149  31.230  36.153  1.00  0.00     0.074 A 
ATOM     34  C   UNL A   1      43.256  27.198  31.360  1.00  0.00     0.029 A 
ATOM     35  N   UNL A   1      42.381  28.746  32.695  1.00  0.00    -0.354 N 
ATOM     36  N   UNL A   1      42.283  30.422  35.127  1.00  0.00    -0.248 NA
ATOM     37  C   UNL A   1      43.097  30.984  37.245  1.00  0.00     0.031 C 
ATOM     38  C   UNL A   1      43.963  27.194  32.567  1.00  0.00     0.029 A 
ATOM     39  C   UNL A   1      43.445  28.186  33.387  1.00  0.00     0.049 A 
ATOM     40  H   UNL A   1      41.810  29.473  33.032  1.00  0.00     0.167 HD
ATOM     41  C   UNL A   1      43.351  29.588  35.438  1.00  0.00     0.074 A 
ATOM     42  C   UNL A   1      43.823  29.992  36.748  1.00  0.00     0.031 C 
ATOM     43  C   UNL A   1      43.899  28.590  34.699  1.00  0.00     0.034 A 
BRANCH  30  44
ATOM     44  C   UNL A   1      41.083  27.592  29.244  1.00  0.00     0.023 A 
ATOM     45  C   UNL A   1      41.981  27.734  28.171  1.00  0.00     0.031 A 
ATOM     46  C   UNL A   1      40.023  26.681  29.092  1.00  0.00     0.131 A 
ATOM     47  C   UNL A   1      41.745  27.059  26.963  1.00  0.00     0.055 A 
ATOM     48  C   UNL A   1      39.848  25.938  27.922  1.00  0.00     0.041 A 
ATOM     49  F   UNL A   1      39.118  26.513  30.070  1.00  0.00    -0.206 F 
ATOM     50  C   UNL A   1      40.699  26.141  26.839  1.00  0.00     0.022 A 
BRANCH  47  51
ATOM     51  S   UNL A   1      42.703  27.544  25.500  1.00  0.00     0.124 S 
ATOM     52  O   UNL A   1      42.031  28.779  25.099  1.00  0.00    -0.237 OA
ATOM     53  O   UNL A   1      44.048  27.697  26.039  1.00  0.00    -0.237 OA
ATOM     54  O   UNL A   1      42.519  26.423  24.581  1.00  0.00    -0.744 OA
ENDBRANCH  47  51
ENDBRANCH  30  44
BRANCH  31  55
ATOM     55  C   UNL A   1      41.084  33.111  37.622  1.00  0.00     0.023 A 
ATOM     56  C   UNL A   1      40.218  32.717  38.651  1.00  0.00     0.031 A 
ATOM     57  C   UNL A   1      41.912  34.229  37.840  1.00  0.00     0.131 A 
ATOM     58  C   UNL A   1      40.184  33.449  39.849  1.00  0.00     0.055 A 
ATOM     59  C   UNL A   1      41.908  34.924  39.050  1.00  0.00     0.041 A 
ATOM     60  F   UNL A   1      42.767  34.636  36.890  1.00  0.00    -0.206 F 
ATOM     61  C   UNL A   1      41.034  34.538  40.061  1.00  0.00     0.022 A 
BRANCH  58  62
ATOM     62  S   UNL A   1      38.984  32.975  41.122  1.00  0.00     0.124 S 
ATOM     63  O   UNL A   1      39.168  31.531  41.181  1.00  0.00    -0.237 OA
ATOM     64  O   UNL A   1      39.454  33.732  42.279  1.00  0.00    -0.237 OA
ATOM     65  O   UNL A   1      37.707  33.421  40.568  1.00  0.00    -0.744 OA
ENDBRANCH  58  62
ENDBRANCH  31  55
BRANCH  43  66
ATOM     66  C   UNL A   1      45.115  27.901  35.265  1.00  0.00     0.023 A 
ATOM     67  C   UNL A   1      46.418  28.372  35.030  1.00  0.00     0.031 A 
ATOM     68  C   UNL A   1      44.955  26.766  36.080  1.00  0.00     0.131 A 
ATOM     69  C   UNL A   1      47.514  27.689  35.579  1.00  0.00     0.055 A 
ATOM     70  C   UNL A   1      46.045  26.122  36.666  1.00  0.00     0.041 A 
ATOM     71  F   UNL A   1      43.732  26.273  36.332  1.00  0.00    -0.206 F 
ATOM     72  C   UNL A   1      47.335  26.580  36.411  1.00  0.00     0.022 A 
BRANCH  69  73
ATOM     73  S   UNL A   1      49.190  28.238  35.154  1.00  0.00     0.124 S 
ATOM     74  O   UNL A   1      49.978  27.680  36.250  1.00  0.00    -0.237 OA
ATOM     75  O   UNL A   1      49.398  27.628  33.845  1.00  0.00    -0.237 OA
ATOM     76  O   UNL A   1      49.083  29.695  35.148  1.00  0.00    -0.744 OA
ENDBRANCH  69  73
ENDBRANCH  43  66
ENDBRANCH  17  18
ENDBRANCH  10  12
ENDBRANCH   7   8
ENDBRANCH   6   7
ENDBRANCH   5   6
ENDBRANCH   1   5
BRANCH   2  77
ATOM     77  C   UNL A   1      32.552  30.029  26.319  1.00  0.00     0.131 A 
ATOM     78  N   UNL A   1      31.512  30.862  26.621  1.00  0.00    -0.272 N 
ATOM     79  C   UNL A   1      32.264  29.493  25.068  1.00  0.00     0.057 A 
ATOM     80  N   UNL A   1      30.682  31.075  25.591  1.00  0.00    -0.183 NA
ATOM     81  H   UNL A   1      31.386  31.266  27.510  1.00  0.00     0.190 HD
ATOM     82  C   UNL A   1      31.166  30.281  24.636  1.00  0.00     0.145 A 
BRANCH  79  83
ATOM     83  C   UNL A   1      33.048  28.453  24.323  1.00  0.00     0.303 C 
BRANCH  83  84
ATOM     84  N   UNL A   1      33.217  27.166  25.008  1.00  0.00    -0.330 N 
ATOM     85  C   UNL A   1      31.972  26.559  25.468  1.00  0.00     0.262 C 
ATOM     86  C   UNL A   1      34.042  26.235  24.253  1.00  0.00     0.274 C 
ATOM     87  H   UNL A   1      33.726  27.395  25.862  1.00  0.00     0.348 HD
ATOM     88  C   UNL A   1      32.294  25.344  26.341  1.00  0.00     0.062 C 
ATOM     89  C   UNL A   1      34.451  24.985  25.035  1.00  0.00     0.116 C 
ATOM     90  C   UNL A   1      33.184  24.331  25.615  1.00  0.00     0.023 C 
BRANCH  89  91
ATOM     91  C   UNL A   1      35.201  23.969  24.153  1.00  0.00     0.171 C 
ATOM     92  O   UNL A   1      34.844  23.702  23.005  1.00  0.00    -0.294 OA
BRANCH  91  93
ATOM     93  C   UNL A   1      36.422  23.296  24.671  1.00  0.00     0.018 A 
ATOM     94  C   UNL A   1      37.114  23.898  25.724  1.00  0.00     0.015 A 
ATOM     95  C   UNL A   1      36.827  22.046  24.195  1.00  0.00     0.015 A 
ATOM     96  C   UNL A   1      38.176  23.221  26.331  1.00  0.00     0.048 A 
ATOM     97  C   UNL A   1      37.862  21.354  24.835  1.00  0.00     0.048 A 
ATOM     98  C   UNL A   1      38.549  21.941  25.902  1.00  0.00     0.127 A 
BRANCH  98  99
ATOM     99  O   UNL A   1      39.577  21.371  26.623  1.00  0.00    -0.457 OA
BRANCH  99 100
ATOM    100  C   UNL A   1      40.706  22.103  26.902  1.00  0.00     0.127 A 
ATOM    101  C   UNL A   1      41.577  22.374  25.846  1.00  0.00     0.047 A 
ATOM    102  C   UNL A   1      41.046  22.470  28.206  1.00  0.00     0.047 A 
ATOM    103  C   UNL A   1      42.763  23.070  26.086  1.00  0.00     0.004 A 
ATOM    104  C   UNL A   1      42.222  23.184  28.440  1.00  0.00     0.004 A 
ATOM    105  C   UNL A   1      43.078  23.485  27.381  1.00  0.00     0.000 A 
ENDBRANCH  99 100
ENDBRANCH  98  99
ENDBRANCH  91  93
ENDBRANCH  89  91
ENDBRANCH  83  84
ENDBRANCH  79  83
ENDBRANCH   2  77
TORSDOF 19
ENDMDL
MODEL 2
REMARK VINA RESULT:     -11.1      4.401     10.640
REMARK SMILES O=C(NCCCNC(=O)c1[nH]ncc1C[N@H+]1CCC[C@@H](C(=O)c2ccc(Oc3ccccc3)cc2)C1)c1ccc(-c2c3nc(c(-c4cc(S(=O)(=O)[O-])ccc4F)c4ccc([nH]4)c(-c4cc(S(=O)(=O)[O-])ccc4F)c4nc(c(-c5cc(S(=O)(=O)[O-])ccc5F)c5ccc2[nH]5)C=C4)C=C3)cc1
REMARK SMILES IDX 7 1 8 2 9 3 6 5 5 6 4 7 3 8 1 9 2 10 37 12 38 13 99 14 39 15
REMARK SMILES IDX 98 16 40 17 41 18 42 19 92 20 43 21 97 22 91 23 93 24 44 25
REMARK SMILES IDX 96 26 90 27 89 28 45 30 77 31 57 32 76 33 58 34 61 35 75 36
REMARK SMILES IDX 94 37 59 38 60 39 74 41 95 42 62 43 46 44 47 45 55 46 48 47
REMARK SMILES IDX 54 48 56 49 53 50 49 51 50 52 51 53 52 54 78 55 79 56 87 57
REMARK SMILES IDX 80 58 86 59 88 60 85 61 81 62 82 63 83 64 84 65 63 66 64 67
REMARK SMILES IDX 72 68 65 69 71 70 73 71 70 72 66 73 67 74 68 75 69 76 10 77
REMARK SMILES IDX 11 78 14 79 12 80 13 82 15 83 16 84 17 85 36 86 18 88 20 89
REMARK SMILES IDX 19 90 21 91 22 92 23 93 24 94 35 95 25 96 34 97 26 98 27 99
REMARK SMILES IDX 28 100 29 101 33 102 30 103 32 104 31 105
REMARK H PARENT 7 4 3 11 93 29 61 40 11 81 16 87
REMARK Flexibility Score: inf
ROOT
ATOM      1  N   UNL A   1      44.614  21.800  24.655  1.00  0.00    -0.351 N 
ATOM      2  C   UNL A   1      43.598  22.053  25.540  1.00  0.00     0.269 C 
ATOM      3  O   UNL A   1      42.525  21.470  25.399  1.00  0.00    -0.268 OA
ATOM      4  H   UNL A   1      44.354  21.308  23.843  1.00  0.00     0.163 HD
ENDROOT
BRANCH   1   5
ATOM      5  C   UNL A   1      46.026  22.156  24.745  1.00  0.00     0.118 C 
BRANCH   5   6
ATOM      6  C   UNL A   1      46.342  23.499  24.114  1.00  0.00     0.042 C 
BRANCH   6   7
ATOM      7  C   UNL A   1      46.861  24.529  25.103  1.00  0.00     0.118 C 
BRANCH   7   8
ATOM      8  N   UNL A   1      47.553  25.632  24.449  1.00  0.00    -0.352 N 
ATOM      9  O   UNL A   1      47.969  27.755  23.843  1.00  0.00    -0.269 OA
ATOM     10  C   UNL A   1      47.451  26.987  24.649  1.00  0.00     0.251 C 
ATOM     11  H   UNL A   1      48.195  25.363  23.754  1.00  0.00     0.163 HD
BRANCH  10  12
ATOM     12  C   UNL A   1      46.712  27.516  25.815  1.00  0.00     0.039 A 
ATOM     13  C   UNL A   1      45.315  27.548  25.824  1.00  0.00     0.014 A 
ATOM     14  C   UNL A   1      47.428  27.958  26.931  1.00  0.00     0.014 A 
ATOM     15  C   UNL A   1      44.641  28.164  26.871  1.00  0.00     0.010 A 
ATOM     16  C   UNL A   1      46.744  28.483  28.028  1.00  0.00     0.010 A 
ATOM     17  C   UNL A   1      45.345  28.617  27.994  1.00  0.00    -0.014 A 
BRANCH  17  18
ATOM     18  C   UNL A   1      44.610  29.181  29.154  1.00  0.00     0.031 A 
ATOM     19  C   UNL A   1      44.147  30.608  29.145  1.00  0.00     0.074 A 
ATOM     20  C   UNL A   1      44.387  28.399  30.228  1.00  0.00     0.049 A 
ATOM     21  N   UNL A   1      43.595  31.305  30.103  1.00  0.00    -0.248 NA
ATOM     22  C   UNL A   1      44.349  31.354  27.894  1.00  0.00     0.031 C 
ATOM     23  C   UNL A   1      44.785  26.993  30.342  1.00  0.00     0.029 A 
ATOM     24  N   UNL A   1      43.788  28.673  31.430  1.00  0.00    -0.354 N 
ATOM     25  C   UNL A   1      43.404  32.582  29.585  1.00  0.00     0.074 A 
ATOM     26  C   UNL A   1      43.935  32.565  28.236  1.00  0.00     0.031 C 
ATOM     27  C   UNL A   1      44.415  26.528  31.542  1.00  0.00     0.029 A 
ATOM     28  C   UNL A   1      43.828  27.618  32.311  1.00  0.00     0.049 A 
ATOM     29  H   UNL A   1      43.370  29.539  31.641  1.00  0.00     0.167 HD
ATOM     30  C   UNL A   1      42.835  33.660  30.181  1.00  0.00     0.034 A 
ATOM     31  C   UNL A   1      43.482  27.546  33.610  1.00  0.00     0.034 A 
ATOM     32  C   UNL A   1      42.322  33.646  31.532  1.00  0.00     0.049 A 
ATOM     33  C   UNL A   1      42.915  28.767  34.277  1.00  0.00     0.074 A 
ATOM     34  C   UNL A   1      41.694  34.664  32.229  1.00  0.00     0.029 A 
ATOM     35  N   UNL A   1      42.397  32.562  32.401  1.00  0.00    -0.354 N 
ATOM     36  N   UNL A   1      42.727  29.965  33.774  1.00  0.00    -0.248 NA
ATOM     37  C   UNL A   1      42.511  28.629  35.681  1.00  0.00     0.031 C 
ATOM     38  C   UNL A   1      41.462  34.224  33.536  1.00  0.00     0.029 A 
ATOM     39  C   UNL A   1      41.863  32.900  33.636  1.00  0.00     0.049 A 
ATOM     40  H   UNL A   1      42.775  31.682  32.174  1.00  0.00     0.167 HD
ATOM     41  C   UNL A   1      42.155  30.719  34.793  1.00  0.00     0.074 A 
ATOM     42  C   UNL A   1      42.031  29.839  35.938  1.00  0.00     0.031 C 
ATOM     43  C   UNL A   1      41.755  32.016  34.775  1.00  0.00     0.034 A 
BRANCH  30  44
ATOM     44  C   UNL A   1      42.802  34.951  29.392  1.00  0.00     0.023 A 
ATOM     45  C   UNL A   1      43.913  35.810  29.325  1.00  0.00     0.031 A 
ATOM     46  C   UNL A   1      41.621  35.360  28.749  1.00  0.00     0.131 A 
ATOM     47  C   UNL A   1      43.790  37.072  28.724  1.00  0.00     0.055 A 
ATOM     48  C   UNL A   1      41.534  36.576  28.067  1.00  0.00     0.041 A 
ATOM     49  F   UNL A   1      40.517  34.596  28.792  1.00  0.00    -0.206 F 
ATOM     50  C   UNL A   1      42.616  37.451  28.071  1.00  0.00     0.022 A 
BRANCH  47  51
ATOM     51  S   UNL A   1      45.118  38.284  28.978  1.00  0.00     0.124 S 
ATOM     52  O   UNL A   1      44.428  39.544  28.706  1.00  0.00    -0.237 OA
ATOM     53  O   UNL A   1      45.497  38.051  30.367  1.00  0.00    -0.237 OA
ATOM     54  O   UNL A   1      46.120  37.910  27.983  1.00  0.00    -0.744 OA
ENDBRANCH  47  51
ENDBRANCH  30  44
BRANCH  31  55
ATOM     55  C   UNL A   1      43.722  26.283  34.360  1.00  0.00     0.023 A 
ATOM     56  C   UNL A   1      45.019  25.860  34.681  1.00  0.00     0.031 A 
ATOM     57  C   UNL A   1      42.638  25.499  34.800  1.00  0.00     0.131 A 
ATOM     58  C   UNL A   1      45.202  24.673  35.407  1.00  0.00     0.055 A 
ATOM     59  C   UNL A   1      42.825  24.346  35.562  1.00  0.00     0.041 A 
ATOM     60  F   UNL A   1      41.378  25.870  34.529  1.00  0.00    -0.206 F 
ATOM     61  C   UNL A   1      44.115  23.923  35.864  1.00  0.00     0.022 A 
BRANCH  58  62
ATOM     62  S   UNL A   1      46.894  24.101  35.722  1.00  0.00     0.124 S 
ATOM     63  O   UNL A   1      47.435  25.198  36.515  1.00  0.00    -0.237 OA
ATOM     64  O   UNL A   1      46.662  22.847  36.433  1.00  0.00    -0.237 OA
ATOM     65  O   UNL A   1      47.459  23.958  34.382  1.00  0.00    -0.744 OA
ENDBRANCH  58  62
ENDBRANCH  31  55
BRANCH  43  66
ATOM     66  C   UNL A   1      41.087  32.548  36.018  1.00  0.00     0.023 A 
ATOM     67  C   UNL A   1      39.765  32.214  36.357  1.00  0.00     0.031 A 
ATOM     68  C   UNL A   1      41.806  33.385  36.890  1.00  0.00     0.131 A 
ATOM     69  C   UNL A   1      39.192  32.741  37.524  1.00  0.00     0.055 A 
ATOM     70  C   UNL A   1      41.248  33.864  38.076  1.00  0.00     0.041 A 
ATOM     71  F   UNL A   1      43.071  33.738  36.610  1.00  0.00    -0.206 F 
ATOM     72  C   UNL A   1      39.931  33.547  38.395  1.00  0.00     0.022 A 
BRANCH  69  73
ATOM     73  S   UNL A   1      37.444  32.402  37.873  1.00  0.00     0.124 S 
ATOM     74  O   UNL A   1      37.403  30.944  37.823  1.00  0.00    -0.237 OA
ATOM     75  O   UNL A   1      37.264  33.001  39.191  1.00  0.00    -0.237 OA
ATOM     76  O   UNL A   1      36.740  33.079  36.786  1.00  0.00    -0.744 OA
ENDBRANCH  69  73
ENDBRANCH  43  66
ENDBRANCH  17  18
ENDBRANCH  10  12
ENDBRANCH   7   8
ENDBRANCH   6   7
ENDBRANCH   5   6
ENDBRANCH   1   5
BRANCH   2  77
ATOM     77  C   UNL A   1      43.850  22.949  26.626  1.00  0.00     0.131 A 
ATOM     78  N   UNL A   1      44.591  22.578  27.713  1.00  0.00    -0.272 N 
ATOM     79  C   UNL A   1      43.462  24.264  26.860  1.00  0.00     0.057 A 
ATOM     80  N   UNL A   1      44.893  23.597  28.528  1.00  0.00    -0.183 NA
ATOM     81  H   UNL A   1      44.876  21.650  27.879  1.00  0.00     0.190 HD
ATOM     82  C   UNL A   1      44.246  24.628  27.984  1.00  0.00     0.145 A 
BRANCH  79  83
ATOM     83  C   UNL A   1      42.558  25.109  26.009  1.00  0.00     0.303 C 
BRANCH  83  84
ATOM     84  N   UNL A   1      41.279  25.492  26.618  1.00  0.00    -0.330 N 
ATOM     85  C   UNL A   1      40.446  24.367  27.028  1.00  0.00     0.262 C 
ATOM     86  C   UNL A   1      41.438  26.479  27.675  1.00  0.00     0.274 C 
ATOM     87  H   UNL A   1      40.759  25.940  25.864  1.00  0.00     0.348 HD
ATOM     88  C   UNL A   1      39.068  24.886  27.449  1.00  0.00     0.062 C 
ATOM     89  C   UNL A   1      40.123  27.091  28.164  1.00  0.00     0.116 C 
ATOM     90  C   UNL A   1      39.161  25.951  28.545  1.00  0.00     0.023 C 
BRANCH  89  91
ATOM     91  C   UNL A   1      40.330  28.021  29.374  1.00  0.00     0.171 C 
ATOM     92  O   UNL A   1      41.138  27.770  30.267  1.00  0.00    -0.294 OA
BRANCH  91  93
ATOM     93  C   UNL A   1      39.560  29.290  29.474  1.00  0.00     0.018 A 
ATOM     94  C   UNL A   1      40.116  30.348  30.197  1.00  0.00     0.015 A 
ATOM     95  C   UNL A   1      38.355  29.471  28.789  1.00  0.00     0.015 A 
ATOM     96  C   UNL A   1      39.490  31.598  30.186  1.00  0.00     0.048 A 
ATOM     97  C   UNL A   1      37.758  30.736  28.745  1.00  0.00     0.048 A 
ATOM     98  C   UNL A   1      38.316  31.805  29.451  1.00  0.00     0.127 A 
BRANCH  98  99
ATOM     99  O   UNL A   1      37.837  33.098  29.489  1.00  0.00    -0.457 OA
BRANCH  99 100
ATOM    100  C   UNL A   1      37.194  33.558  30.612  1.00  0.00     0.127 A 
ATOM    101  C   UNL A   1      37.974  34.145  31.609  1.00  0.00     0.047 A 
ATOM    102  C   UNL A   1      35.828  33.350  30.819  1.00  0.00     0.047 A 
ATOM    103  C   UNL A   1      37.374  34.583  32.791  1.00  0.00     0.004 A 
ATOM    104  C   UNL A   1      35.228  33.807  31.993  1.00  0.00     0.004 A 
ATOM    105  C   UNL A   1      36.001  34.425  32.977  1.00  0.00     0.000 A 
ENDBRANCH  99 100
ENDBRANCH  98  99
ENDBRANCH  91  93
ENDBRANCH  89  91
ENDBRANCH  83  84
ENDBRANCH  79  83
ENDBRANCH   2  77
TORSDOF 19
ENDMDL
MODEL 3
REMARK VINA RESULT:     -10.9      2.534      8.199
REMARK SMILES O=C(NCCCNC(=O)c1[nH]ncc1C[N@H+]1CCC[C@@H](C(=O)c2ccc(Oc3ccccc3)cc2)C1)c1ccc(-c2c3nc(c(-c4cc(S(=O)(=O)[O-])ccc4F)c4ccc([nH]4)c(-c4cc(S(=O)(=O)[O-])ccc4F)c4nc(c(-c5cc(S(=O)(=O)[O-])ccc5F)c5ccc2[nH]5)C=C4)C=C3)cc1
REMARK SMILES IDX 7 1 8 2 9 3 6 5 5 6 4 7 3 8 1 9 2 10 37 12 38 13 99 14 39 15
REMARK SMILES IDX 98 16 40 17 41 18 42 19 92 20 43 21 97 22 91 23 93 24 44 25
REMARK SMILES IDX 96 26 90 27 89 28 45 30 77 31 57 32 76 33 58 34 61 35 75 36
REMARK SMILES IDX 94 37 59 38 60 39 74 41 95 42 62 43 46 44 47 45 55 46 48 47
REMARK SMILES IDX 54 48 56 49 53 50 49 51 50 52 51 53 52 54 78 55 79 56 87 57
REMARK SMILES IDX 80 58 86 59 88 60 85 61 81 62 82 63 83 64 84 65 63 66 64 67
REMARK SMILES IDX 72 68 65 69 71 70 73 71 70 72 66 73 67 74 68 75 69 76 10 77
REMARK SMILES IDX 11 78 14 79 12 80 13 82 15 83 16 84 17 85 36 86 18 88 20 89
REMARK SMILES IDX 19 90 21 91 22 92 23 93 24 94 35 95 25 96 34 97 26 98 27 99
REMARK SMILES IDX 28 100 29 101 33 102 30 103 32 104 31 105
REMARK H PARENT 7 4 3 11 93 29 61 40 11 81 16 87
REMARK Flexibility Score: inf
ROOT
ATOM      1  N   UNL A   1      35.060  32.474  28.184  1.00  0.00    -0.351 N 
ATOM      2  C   UNL A   1      34.752  31.164  27.922  1.00  0.00     0.269 C 
ATOM      3  O   UNL A   1      35.512  30.282  28.317  1.00  0.00    -0.268 OA
ATOM      4  H   UNL A   1      35.976  32.636  28.507  1.00  0.00     0.163 HD
ENDROOT
BRANCH   1   5
ATOM      5  C   UNL A   1      34.224  33.662  28.053  1.00  0.00     0.118 C 
BRANCH   5   6
ATOM      6  C   UNL A   1      33.667  34.145  29.379  1.00  0.00     0.042 C 
BRANCH   6   7
ATOM      7  C   UNL A   1      33.554  35.657  29.478  1.00  0.00     0.118 C 
BRANCH   7   8
ATOM      8  N   UNL A   1      32.781  36.085  30.636  1.00  0.00    -0.352 N 
ATOM      9  O   UNL A   1      32.007  36.051  32.745  1.00  0.00    -0.269 OA
ATOM     10  C   UNL A   1      32.898  35.738  31.959  1.00  0.00     0.251 C 
ATOM     11  H   UNL A   1      32.060  36.726  30.438  1.00  0.00     0.163 HD
BRANCH  10  12
ATOM     12  C   UNL A   1      34.076  34.980  32.432  1.00  0.00     0.039 A 
ATOM     13  C   UNL A   1      35.358  35.531  32.362  1.00  0.00     0.014 A 
ATOM     14  C   UNL A   1      33.891  33.709  32.984  1.00  0.00     0.014 A 
ATOM     15  C   UNL A   1      36.465  34.759  32.691  1.00  0.00     0.010 A 
ATOM     16  C   UNL A   1      34.997  32.973  33.411  1.00  0.00     0.010 A 
ATOM     17  C   UNL A   1      36.296  33.481  33.241  1.00  0.00    -0.014 A 
BRANCH  17  18
ATOM     18  C   UNL A   1      37.479  32.702  33.685  1.00  0.00     0.031 A 
ATOM     19  C   UNL A   1      38.190  33.053  34.959  1.00  0.00     0.074 A 
ATOM     20  C   UNL A   1      37.922  31.691  32.913  1.00  0.00     0.049 A 
ATOM     21  N   UNL A   1      39.300  32.564  35.449  1.00  0.00    -0.248 NA
ATOM     22  C   UNL A   1      37.578  34.105  35.783  1.00  0.00     0.031 C 
ATOM     23  C   UNL A   1      37.303  31.258  31.658  1.00  0.00     0.029 A 
ATOM     24  N   UNL A   1      38.999  30.856  33.058  1.00  0.00    -0.354 N 
ATOM     25  C   UNL A   1      39.538  33.265  36.626  1.00  0.00     0.074 A 
ATOM     26  C   UNL A   1      38.470  34.237  36.753  1.00  0.00     0.031 C 
ATOM     27  C   UNL A   1      38.004  30.236  31.151  1.00  0.00     0.029 A 
ATOM     28  C   UNL A   1      39.165  29.994  32.000  1.00  0.00     0.049 A 
ATOM     29  H   UNL A   1      39.595  30.872  33.842  1.00  0.00     0.167 HD
ATOM     30  C   UNL A   1      40.551  33.105  37.516  1.00  0.00     0.034 A 
ATOM     31  C   UNL A   1      40.166  29.140  31.712  1.00  0.00     0.034 A 
ATOM     32  C   UNL A   1      41.606  32.131  37.356  1.00  0.00     0.049 A 
ATOM     33  C   UNL A   1      41.315  29.022  32.672  1.00  0.00     0.074 A 
ATOM     34  C   UNL A   1      42.662  31.853  38.205  1.00  0.00     0.029 A 
ATOM     35  N   UNL A   1      41.750  31.286  36.259  1.00  0.00    -0.354 N 
ATOM     36  N   UNL A   1      41.524  29.680  33.789  1.00  0.00    -0.248 NA
ATOM     37  C   UNL A   1      42.360  28.047  32.339  1.00  0.00     0.031 C 
ATOM     38  C   UNL A   1      43.484  30.902  37.591  1.00  0.00     0.029 A 
ATOM     39  C   UNL A   1      42.897  30.517  36.395  1.00  0.00     0.049 A 
ATOM     40  H   UNL A   1      41.129  31.240  35.498  1.00  0.00     0.167 HD
ATOM     41  C   UNL A   1      42.712  29.177  34.308  1.00  0.00     0.074 A 
ATOM     42  C   UNL A   1      43.173  28.163  33.381  1.00  0.00     0.031 C 
ATOM     43  C   UNL A   1      43.353  29.516  35.456  1.00  0.00     0.034 A 
BRANCH  30  44
ATOM     44  C   UNL A   1      40.590  34.049  38.698  1.00  0.00     0.023 A 
ATOM     45  C   UNL A   1      39.894  33.778  39.890  1.00  0.00     0.031 A 
ATOM     46  C   UNL A   1      41.284  35.269  38.610  1.00  0.00     0.131 A 
ATOM     47  C   UNL A   1      39.821  34.751  40.897  1.00  0.00     0.055 A 
ATOM     48  C   UNL A   1      41.288  36.193  39.657  1.00  0.00     0.041 A 
ATOM     49  F   UNL A   1      41.951  35.598  37.493  1.00  0.00    -0.206 F 
ATOM     50  C   UNL A   1      40.535  35.948  40.801  1.00  0.00     0.022 A 
BRANCH  47  51
ATOM     51  S   UNL A   1      38.626  34.515  42.243  1.00  0.00     0.124 S 
ATOM     52  O   UNL A   1      39.388  34.970  43.404  1.00  0.00    -0.237 OA
ATOM     53  O   UNL A   1      37.517  35.369  41.833  1.00  0.00    -0.237 OA
ATOM     54  O   UNL A   1      38.355  33.079  42.214  1.00  0.00    -0.744 OA
ENDBRANCH  47  51
ENDBRANCH  30  44
BRANCH  31  55
ATOM     55  C   UNL A   1      40.133  28.384  30.430  1.00  0.00     0.023 A 
ATOM     56  C   UNL A   1      40.933  28.758  29.341  1.00  0.00     0.031 A 
ATOM     57  C   UNL A   1      39.319  27.243  30.297  1.00  0.00     0.131 A 
ATOM     58  C   UNL A   1      40.889  28.006  28.157  1.00  0.00     0.055 A 
ATOM     59  C   UNL A   1      39.315  26.473  29.134  1.00  0.00     0.041 A 
ATOM     60  F   UNL A   1      38.546  26.838  31.316  1.00  0.00    -0.206 F 
ATOM     61  C   UNL A   1      40.099  26.858  28.051  1.00  0.00     0.022 A 
BRANCH  58  62
ATOM     62  S   UNL A   1      41.860  28.571  26.734  1.00  0.00     0.124 S 
ATOM     63  O   UNL A   1      40.820  29.079  25.848  1.00  0.00    -0.237 OA
ATOM     64  O   UNL A   1      42.733  29.571  27.340  1.00  0.00    -0.237 OA
ATOM     65  O   UNL A   1      42.532  27.356  26.277  1.00  0.00    -0.744 OA
ENDBRANCH  58  62
ENDBRANCH  31  55
BRANCH  43  66
ATOM     66  C   UNL A   1      44.595  28.737  35.807  1.00  0.00     0.023 A 
ATOM     67  C   UNL A   1      44.539  27.496  36.462  1.00  0.00     0.031 A 
ATOM     68  C   UNL A   1      45.858  29.243  35.448  1.00  0.00     0.131 A 
ATOM     69  C   UNL A   1      45.728  26.816  36.767  1.00  0.00     0.055 A 
ATOM     70  C   UNL A   1      47.033  28.538  35.707  1.00  0.00     0.041 A 
ATOM     71  F   UNL A   1      45.967  30.427  34.824  1.00  0.00    -0.206 F 
ATOM     72  C   UNL A   1      46.972  27.319  36.377  1.00  0.00     0.022 A 
BRANCH  69  73
ATOM     73  S   UNL A   1      45.638  25.280  37.729  1.00  0.00     0.124 S 
ATOM     74  O   UNL A   1      46.910  24.643  37.403  1.00  0.00    -0.237 OA
ATOM     75  O   UNL A   1      45.503  25.773  39.096  1.00  0.00    -0.237 OA
ATOM     76  O   UNL A   1      44.454  24.609  37.195  1.00  0.00    -0.744 OA
ENDBRANCH  69  73
ENDBRANCH  43  66
ENDBRANCH  17  18
ENDBRANCH  10  12
ENDBRANCH   7   8
ENDBRANCH   6   7
ENDBRANCH   5   6
ENDBRANCH   1   5
BRANCH   2  77
ATOM     77  C   UNL A   1      33.526  30.876  27.244  1.00  0.00     0.131 A 
ATOM     78  N   UNL A   1      32.446  31.711  27.317  1.00  0.00    -0.272 N 
ATOM     79  C   UNL A   1      33.133  29.812  26.439  1.00  0.00     0.057 A 
ATOM     80  N   UNL A   1      31.464  31.390  26.464  1.00  0.00    -0.183 NA
ATOM     81  H   UNL A   1      32.397  32.474  27.937  1.00  0.00     0.190 HD
ATOM     82  C   UNL A   1      31.903  30.265  25.898  1.00  0.00     0.145 A 
BRANCH  79  83
ATOM     83  C   UNL A   1      33.925  28.578  26.115  1.00  0.00     0.303 C 
BRANCH  83  84
ATOM     84  N   UNL A   1      33.218  27.550  25.342  1.00  0.00    -0.330 N 
ATOM     85  C   UNL A   1      33.867  27.189  24.086  1.00  0.00     0.262 C 
ATOM     86  C   UNL A   1      32.875  26.386  26.144  1.00  0.00     0.274 C 
ATOM     87  H   UNL A   1      32.342  27.993  25.064  1.00  0.00     0.348 HD
ATOM     88  C   UNL A   1      32.938  26.276  23.282  1.00  0.00     0.062 C 
ATOM     89  C   UNL A   1      31.925  25.406  25.450  1.00  0.00     0.116 C 
ATOM     90  C   UNL A   1      32.514  25.038  24.077  1.00  0.00     0.023 C 
BRANCH  89  91
ATOM     91  C   UNL A   1      31.704  24.127  26.279  1.00  0.00     0.171 C 
ATOM     92  O   UNL A   1      30.973  24.100  27.269  1.00  0.00    -0.294 OA
BRANCH  91  93
ATOM     93  C   UNL A   1      32.362  22.856  25.870  1.00  0.00     0.018 A 
ATOM     94  C   UNL A   1      31.681  22.010  24.992  1.00  0.00     0.015 A 
ATOM     95  C   UNL A   1      33.666  22.546  26.267  1.00  0.00     0.015 A 
ATOM     96  C   UNL A   1      32.328  20.885  24.473  1.00  0.00     0.048 A 
ATOM     97  C   UNL A   1      34.324  21.444  25.709  1.00  0.00     0.048 A 
ATOM     98  C   UNL A   1      33.657  20.601  24.816  1.00  0.00     0.127 A 
BRANCH  98  99
ATOM     99  O   UNL A   1      34.185  19.491  24.191  1.00  0.00    -0.457 OA
BRANCH  99 100
ATOM    100  C   UNL A   1      33.893  18.234  24.664  1.00  0.00     0.127 A 
ATOM    101  C   UNL A   1      34.819  17.220  24.416  1.00  0.00     0.047 A 
ATOM    102  C   UNL A   1      32.669  17.937  25.269  1.00  0.00     0.047 A 
ATOM    103  C   UNL A   1      34.546  15.915  24.831  1.00  0.00     0.004 A 
ATOM    104  C   UNL A   1      32.408  16.636  25.701  1.00  0.00     0.004 A 
ATOM    105  C   UNL A   1      33.347  15.627  25.484  1.00  0.00     0.000 A 
ENDBRANCH  99 100
ENDBRANCH  98  99
ENDBRANCH  91  93
ENDBRANCH  89  91
ENDBRANCH  83  84
ENDBRANCH  79  83
ENDBRANCH   2  77
TORSDOF 19
ENDMDL
