MODEL 1
REMARK VINA RESULT:     -12.4      0.000      0.000
REMARK SMILES O=C(NCCCNC(=O)c1ccccc1Nc1cccc(C(F)(F)F)c1)c1ccc(-c2c3nc(c(-c4cc(S(=O)(=O)[O-])ccc4F)c4ccc([nH]4)c(-c4cc(S(=O)(=O)[O-])ccc4F)c4nc(c(-c5cc(S(=O)(=O)[O-])ccc5F)c5ccc2[nH]5)C=C4)C=C3)cc1
REMARK SMILES IDX 5 1 4 2 3 3 1 4 2 5 27 7 28 8 89 9 29 10 88 11 30 12 31 13
REMARK SMILES IDX 32 14 82 15 33 16 87 17 81 18 83 19 34 20 86 21 80 22 79 23
REMARK SMILES IDX 35 25 67 26 47 27 66 28 48 29 51 30 65 31 84 32 49 33 50 34
REMARK SMILES IDX 64 36 85 37 52 38 36 39 37 40 45 41 38 42 44 43 46 44 43 45
REMARK SMILES IDX 39 46 40 47 41 48 42 49 68 50 69 51 77 52 70 53 76 54 78 55
REMARK SMILES IDX 75 56 71 57 72 58 73 59 74 60 53 61 54 62 62 63 55 64 61 65
REMARK SMILES IDX 63 66 60 67 56 68 57 69 58 70 59 71 6 72 7 73 8 74 9 76
REMARK SMILES IDX 10 77 11 78 15 79 12 80 14 81 13 82 16 83 17 85 18 86 26 87
REMARK SMILES IDX 19 88 21 89 20 90 22 91 23 92 24 93 25 94
REMARK H PARENT 3 6 83 24 51 35 7 75 16 84
REMARK Flexibility Score: inf
ROOT
ATOM      1  C   UNL A   1      31.833  28.192  26.357  1.00  0.00     0.042 C 
ENDROOT
BRANCH   1   2
ATOM      2  C   UNL A   1      32.786  29.207  25.744  1.00  0.00     0.118 C 
BRANCH   2   3
ATOM      3  N   UNL A   1      32.464  30.586  26.087  1.00  0.00    -0.352 N 
ATOM      4  O   UNL A   1      32.533  32.529  27.224  1.00  0.00    -0.269 OA
ATOM      5  C   UNL A   1      33.056  31.442  26.988  1.00  0.00     0.251 C 
ATOM      6  H   UNL A   1      31.701  30.968  25.595  1.00  0.00     0.163 HD
BRANCH   5   7
ATOM      7  C   UNL A   1      34.299  31.048  27.688  1.00  0.00     0.039 A 
ATOM      8  C   UNL A   1      34.483  29.740  28.137  1.00  0.00     0.014 A 
ATOM      9  C   UNL A   1      35.303  32.001  27.890  1.00  0.00     0.014 A 
ATOM     10  C   UNL A   1      35.573  29.431  28.941  1.00  0.00     0.010 A 
ATOM     11  C   UNL A   1      36.455  31.657  28.606  1.00  0.00     0.010 A 
ATOM     12  C   UNL A   1      36.583  30.379  29.170  1.00  0.00    -0.014 A 
BRANCH  12  13
ATOM     13  C   UNL A   1      37.783  29.983  29.952  1.00  0.00     0.031 A 
ATOM     14  C   UNL A   1      38.830  29.075  29.368  1.00  0.00     0.074 A 
ATOM     15  C   UNL A   1      37.933  30.478  31.197  1.00  0.00     0.049 A 
ATOM     16  N   UNL A   1      39.934  28.630  29.914  1.00  0.00    -0.248 NA
ATOM     17  C   UNL A   1      38.603  28.593  27.999  1.00  0.00     0.031 C 
ATOM     18  C   UNL A   1      36.972  31.357  31.870  1.00  0.00     0.029 A 
ATOM     19  N   UNL A   1      38.942  30.330  32.112  1.00  0.00    -0.354 N 
ATOM     20  C   UNL A   1      40.523  27.799  28.968  1.00  0.00     0.074 A 
ATOM     21  C   UNL A   1      39.633  27.777  27.825  1.00  0.00     0.031 C 
ATOM     22  C   UNL A   1      37.456  31.702  33.070  1.00  0.00     0.029 A 
ATOM     23  C   UNL A   1      38.722  31.011  33.286  1.00  0.00     0.049 A 
ATOM     24  H   UNL A   1      39.747  29.789  31.944  1.00  0.00     0.167 HD
ATOM     25  C   UNL A   1      41.698  27.123  29.047  1.00  0.00     0.034 A 
ATOM     26  C   UNL A   1      39.436  31.051  34.426  1.00  0.00     0.034 A 
ATOM     27  C   UNL A   1      42.573  27.165  30.197  1.00  0.00     0.049 A 
ATOM     28  C   UNL A   1      40.720  30.274  34.500  1.00  0.00     0.074 A 
ATOM     29  C   UNL A   1      43.807  26.560  30.366  1.00  0.00     0.029 A 
ATOM     30  N   UNL A   1      42.299  27.840  31.382  1.00  0.00    -0.354 N 
ATOM     31  N   UNL A   1      41.275  29.513  33.585  1.00  0.00    -0.248 NA
ATOM     32  C   UNL A   1      41.473  30.363  35.755  1.00  0.00     0.031 C 
ATOM     33  C   UNL A   1      44.245  26.810  31.672  1.00  0.00     0.029 A 
ATOM     34  C   UNL A   1      43.323  27.635  32.296  1.00  0.00     0.049 A 
ATOM     35  H   UNL A   1      41.497  28.385  31.548  1.00  0.00     0.167 HD
ATOM     36  C   UNL A   1      42.451  29.037  34.153  1.00  0.00     0.074 A 
ATOM     37  C   UNL A   1      42.535  29.619  35.480  1.00  0.00     0.031 C 
ATOM     38  C   UNL A   1      43.378  28.198  33.627  1.00  0.00     0.034 A 
BRANCH  25  39
ATOM     39  C   UNL A   1      42.076  26.244  27.875  1.00  0.00     0.023 A 
ATOM     40  C   UNL A   1      41.599  24.928  27.744  1.00  0.00     0.031 A 
ATOM     41  C   UNL A   1      42.956  26.723  26.887  1.00  0.00     0.131 A 
ATOM     42  C   UNL A   1      42.060  24.114  26.699  1.00  0.00     0.055 A 
ATOM     43  C   UNL A   1      43.351  25.933  25.804  1.00  0.00     0.041 A 
ATOM     44  F   UNL A   1      43.461  27.964  26.965  1.00  0.00    -0.206 F 
ATOM     45  C   UNL A   1      42.916  24.615  25.714  1.00  0.00     0.022 A 
BRANCH  42  46
ATOM     46  S   UNL A   1      41.649  22.347  26.728  1.00  0.00     0.124 S 
ATOM     47  O   UNL A   1      40.202  22.382  26.935  1.00  0.00    -0.237 OA
ATOM     48  O   UNL A   1      42.095  21.898  25.415  1.00  0.00    -0.237 OA
ATOM     49  O   UNL A   1      42.419  21.833  27.859  1.00  0.00    -0.744 OA
ENDBRANCH  42  46
ENDBRANCH  25  39
BRANCH  26  50
ATOM     50  C   UNL A   1      38.919  31.815  35.596  1.00  0.00     0.023 A 
ATOM     51  C   UNL A   1      38.264  31.173  36.657  1.00  0.00     0.031 A 
ATOM     52  C   UNL A   1      39.085  33.211  35.666  1.00  0.00     0.131 A 
ATOM     53  C   UNL A   1      37.776  31.930  37.733  1.00  0.00     0.055 A 
ATOM     54  C   UNL A   1      38.643  33.952  36.761  1.00  0.00     0.041 A 
ATOM     55  F   UNL A   1      39.714  33.870  34.679  1.00  0.00    -0.206 F 
ATOM     56  C   UNL A   1      37.975  33.312  37.800  1.00  0.00     0.022 A 
BRANCH  53  57
ATOM     57  S   UNL A   1      36.824  31.089  39.027  1.00  0.00     0.124 S 
ATOM     58  O   UNL A   1      37.715  31.204  40.175  1.00  0.00    -0.237 OA
ATOM     59  O   UNL A   1      35.607  31.892  39.077  1.00  0.00    -0.237 OA
ATOM     60  O   UNL A   1      36.655  29.736  38.500  1.00  0.00    -0.744 OA
ENDBRANCH  53  57
ENDBRANCH  26  50
BRANCH  38  61
ATOM     61  C   UNL A   1      44.573  27.883  34.491  1.00  0.00     0.023 A 
ATOM     62  C   UNL A   1      44.581  26.781  35.362  1.00  0.00     0.031 A 
ATOM     63  C   UNL A   1      45.706  28.715  34.461  1.00  0.00     0.131 A 
ATOM     64  C   UNL A   1      45.680  26.568  36.208  1.00  0.00     0.055 A 
ATOM     65  C   UNL A   1      46.820  28.466  35.264  1.00  0.00     0.041 A 
ATOM     66  F   UNL A   1      45.748  29.784  33.650  1.00  0.00    -0.206 F 
ATOM     67  C   UNL A   1      46.806  27.395  36.153  1.00  0.00     0.022 A 
BRANCH  64  68
ATOM     68  S   UNL A   1      45.584  25.247  37.447  1.00  0.00     0.124 S 
ATOM     69  O   UNL A   1      44.145  25.141  37.665  1.00  0.00    -0.237 OA
ATOM     70  O   UNL A   1      46.211  24.125  36.757  1.00  0.00    -0.237 OA
ATOM     71  O   UNL A   1      46.342  25.781  38.577  1.00  0.00    -0.744 OA
ENDBRANCH  64  68
ENDBRANCH  38  61
ENDBRANCH  12  13
ENDBRANCH   5   7
ENDBRANCH   2   3
ENDBRANCH   1   2
BRANCH   1  72
ATOM     72  C   UNL A   1      32.281  26.745  26.227  1.00  0.00     0.118 C 
BRANCH  72  73
ATOM     73  N   UNL A   1      31.394  25.809  26.903  1.00  0.00    -0.352 N 
ATOM     74  C   UNL A   1      30.971  24.566  26.505  1.00  0.00     0.253 C 
ATOM     75  H   UNL A   1      31.046  26.112  27.773  1.00  0.00     0.163 HD
ATOM     76  O   UNL A   1      30.148  23.957  27.184  1.00  0.00    -0.269 OA
BRANCH  74  77
ATOM     77  C   UNL A   1      31.485  23.950  25.264  1.00  0.00     0.063 A 
ATOM     78  C   UNL A   1      32.545  23.042  25.420  1.00  0.00     0.016 A 
ATOM     79  C   UNL A   1      30.993  24.282  23.985  1.00  0.00     0.051 A 
ATOM     80  C   UNL A   1      33.097  22.414  24.307  1.00  0.00     0.001 A 
ATOM     81  C   UNL A   1      31.557  23.621  22.883  1.00  0.00     0.027 A 
ATOM     82  C   UNL A   1      32.598  22.700  23.040  1.00  0.00     0.002 A 
BRANCH  79  83
ATOM     83  N   UNL A   1      29.948  25.215  23.810  1.00  0.00    -0.355 N 
ATOM     84  H   UNL A   1      29.051  24.855  23.991  1.00  0.00     0.167 HD
BRANCH  83  85
ATOM     85  C   UNL A   1      29.961  26.565  23.420  1.00  0.00     0.039 A 
ATOM     86  C   UNL A   1      31.148  27.113  22.918  1.00  0.00     0.026 A 
ATOM     87  C   UNL A   1      28.824  27.384  23.474  1.00  0.00     0.039 A 
ATOM     88  C   UNL A   1      31.203  28.438  22.482  1.00  0.00     0.003 A 
ATOM     89  C   UNL A   1      28.864  28.722  23.046  1.00  0.00     0.058 A 
ATOM     90  C   UNL A   1      30.064  29.239  22.541  1.00  0.00     0.013 A 
BRANCH  89  91
ATOM     91  C   UNL A   1      27.631  29.590  23.096  1.00  0.00     0.416 C 
ATOM     92  F   UNL A   1      27.794  30.692  23.880  1.00  0.00    -0.166 F 
ATOM     93  F   UNL A   1      27.286  30.059  21.864  1.00  0.00    -0.166 F 
ATOM     94  F   UNL A   1      26.528  28.949  23.572  1.00  0.00    -0.166 F 
ENDBRANCH  89  91
ENDBRANCH  83  85
ENDBRANCH  79  83
ENDBRANCH  74  77
ENDBRANCH  72  73
ENDBRANCH   1  72
TORSDOF 16
ENDMDL
MODEL 2
REMARK VINA RESULT:     -12.3      1.570      7.654
REMARK SMILES O=C(NCCCNC(=O)c1ccccc1Nc1cccc(C(F)(F)F)c1)c1ccc(-c2c3nc(c(-c4cc(S(=O)(=O)[O-])ccc4F)c4ccc([nH]4)c(-c4cc(S(=O)(=O)[O-])ccc4F)c4nc(c(-c5cc(S(=O)(=O)[O-])ccc5F)c5ccc2[nH]5)C=C4)C=C3)cc1
REMARK SMILES IDX 5 1 4 2 3 3 1 4 2 5 27 7 28 8 89 9 29 10 88 11 30 12 31 13
REMARK SMILES IDX 32 14 82 15 33 16 87 17 81 18 83 19 34 20 86 21 80 22 79 23
REMARK SMILES IDX 35 25 67 26 47 27 66 28 48 29 51 30 65 31 84 32 49 33 50 34
REMARK SMILES IDX 64 36 85 37 52 38 36 39 37 40 45 41 38 42 44 43 46 44 43 45
REMARK SMILES IDX 39 46 40 47 41 48 42 49 68 50 69 51 77 52 70 53 76 54 78 55
REMARK SMILES IDX 75 56 71 57 72 58 73 59 74 60 53 61 54 62 62 63 55 64 61 65
REMARK SMILES IDX 63 66 60 67 56 68 57 69 58 70 59 71 6 72 7 73 8 74 9 76
REMARK SMILES IDX 10 77 11 78 15 79 12 80 14 81 13 82 16 83 17 85 18 86 26 87
REMARK SMILES IDX 19 88 21 89 20 90 22 91 23 92 24 93 25 94
REMARK H PARENT 3 6 83 24 51 35 7 75 16 84
REMARK Flexibility Score: inf
ROOT
ATOM      1  C   UNL A   1      31.870  28.171  26.248  1.00  0.00     0.042 C 
ENDROOT
BRANCH   1   2
ATOM      2  C   UNL A   1      32.944  29.175  25.856  1.00  0.00     0.118 C 
BRANCH   2   3
ATOM      3  N   UNL A   1      32.598  30.553  26.184  1.00  0.00    -0.352 N 
ATOM      4  O   UNL A   1      32.659  32.519  27.279  1.00  0.00    -0.269 OA
ATOM      5  C   UNL A   1      33.201  31.441  27.045  1.00  0.00     0.251 C 
ATOM      6  H   UNL A   1      31.808  30.904  25.715  1.00  0.00     0.163 HD
BRANCH   5   7
ATOM      7  C   UNL A   1      34.480  31.094  27.705  1.00  0.00     0.039 A 
ATOM      8  C   UNL A   1      34.722  29.797  28.157  1.00  0.00     0.014 A 
ATOM      9  C   UNL A   1      35.458  32.081  27.864  1.00  0.00     0.014 A 
ATOM     10  C   UNL A   1      35.848  29.531  28.926  1.00  0.00     0.010 A 
ATOM     11  C   UNL A   1      36.645  31.781  28.542  1.00  0.00     0.010 A 
ATOM     12  C   UNL A   1      36.834  30.513  29.111  1.00  0.00    -0.014 A 
BRANCH  12  13
ATOM     13  C   UNL A   1      38.073  30.163  29.855  1.00  0.00     0.031 A 
ATOM     14  C   UNL A   1      38.318  30.678  31.246  1.00  0.00     0.074 A 
ATOM     15  C   UNL A   1      38.969  29.346  29.266  1.00  0.00     0.049 A 
ATOM     16  N   UNL A   1      39.345  30.473  32.032  1.00  0.00    -0.248 NA
ATOM     17  C   UNL A   1      37.286  31.548  31.825  1.00  0.00     0.031 C 
ATOM     18  C   UNL A   1      38.840  28.797  27.912  1.00  0.00     0.029 A 
ATOM     19  N   UNL A   1      40.151  28.824  29.722  1.00  0.00    -0.354 N 
ATOM     20  C   UNL A   1      39.096  31.203  33.189  1.00  0.00     0.074 A 
ATOM     21  C   UNL A   1      37.834  31.884  32.985  1.00  0.00     0.031 C 
ATOM     22  C   UNL A   1      39.876  27.986  27.665  1.00  0.00     0.029 A 
ATOM     23  C   UNL A   1      40.783  28.015  28.807  1.00  0.00     0.049 A 
ATOM     24  H   UNL A   1      40.512  29.010  30.619  1.00  0.00     0.167 HD
ATOM     25  C   UNL A   1      39.849  31.292  34.316  1.00  0.00     0.034 A 
ATOM     26  C   UNL A   1      41.974  27.391  28.860  1.00  0.00     0.034 A 
ATOM     27  C   UNL A   1      41.104  30.597  34.499  1.00  0.00     0.049 A 
ATOM     28  C   UNL A   1      42.802  27.524  30.107  1.00  0.00     0.074 A 
ATOM     29  C   UNL A   1      41.925  30.576  35.614  1.00  0.00     0.029 A 
ATOM     30  N   UNL A   1      41.728  29.812  33.535  1.00  0.00    -0.354 N 
ATOM     31  N   UNL A   1      42.538  28.199  31.201  1.00  0.00    -0.248 NA
ATOM     32  C   UNL A   1      44.083  26.812  30.126  1.00  0.00     0.031 C 
ATOM     33  C   UNL A   1      43.073  29.839  35.302  1.00  0.00     0.029 A 
ATOM     34  C   UNL A   1      42.939  29.335  34.019  1.00  0.00     0.049 A 
ATOM     35  H   UNL A   1      41.365  29.622  32.641  1.00  0.00     0.167 HD
ATOM     36  C   UNL A   1      43.621  27.985  32.047  1.00  0.00     0.074 A 
ATOM     37  C   UNL A   1      44.527  27.099  31.341  1.00  0.00     0.031 C 
ATOM     38  C   UNL A   1      43.846  28.475  33.292  1.00  0.00     0.034 A 
BRANCH  25  39
ATOM     39  C   UNL A   1      39.356  32.208  35.413  1.00  0.00     0.023 A 
ATOM     40  C   UNL A   1      39.757  33.553  35.498  1.00  0.00     0.031 A 
ATOM     41  C   UNL A   1      38.493  31.718  36.410  1.00  0.00     0.131 A 
ATOM     42  C   UNL A   1      39.360  34.336  36.593  1.00  0.00     0.055 A 
ATOM     43  C   UNL A   1      38.037  32.525  37.455  1.00  0.00     0.041 A 
ATOM     44  F   UNL A   1      38.089  30.437  36.394  1.00  0.00    -0.206 F 
ATOM     45  C   UNL A   1      38.484  33.838  37.561  1.00  0.00     0.022 A 
BRANCH  42  46
ATOM     46  S   UNL A   1      40.127  35.965  36.818  1.00  0.00     0.124 S 
ATOM     47  O   UNL A   1      39.438  36.455  38.011  1.00  0.00    -0.237 OA
ATOM     48  O   UNL A   1      41.536  35.630  36.988  1.00  0.00    -0.237 OA
ATOM     49  O   UNL A   1      39.797  36.675  35.583  1.00  0.00    -0.744 OA
ENDBRANCH  42  46
ENDBRANCH  25  39
BRANCH  26  50
ATOM     50  C   UNL A   1      42.464  26.633  27.676  1.00  0.00     0.023 A 
ATOM     51  C   UNL A   1      42.133  25.283  27.483  1.00  0.00     0.031 A 
ATOM     52  C   UNL A   1      43.271  27.263  26.710  1.00  0.00     0.131 A 
ATOM     53  C   UNL A   1      42.630  24.599  26.362  1.00  0.00     0.055 A 
ATOM     54  C   UNL A   1      43.719  26.592  25.573  1.00  0.00     0.041 A 
ATOM     55  F   UNL A   1      43.607  28.556  26.845  1.00  0.00    -0.206 F 
ATOM     56  C   UNL A   1      43.406  25.249  25.398  1.00  0.00     0.022 A 
BRANCH  53  57
ATOM     57  S   UNL A   1      42.290  22.825  26.206  1.00  0.00     0.124 S 
ATOM     58  O   UNL A   1      43.062  22.275  27.313  1.00  0.00    -0.237 OA
ATOM     59  O   UNL A   1      40.838  22.782  26.351  1.00  0.00    -0.237 OA
ATOM     60  O   UNL A   1      42.790  22.499  24.871  1.00  0.00    -0.744 OA
ENDBRANCH  53  57
ENDBRANCH  26  50
BRANCH  38  61
ATOM     61  C   UNL A   1      45.118  28.035  33.971  1.00  0.00     0.023 A 
ATOM     62  C   UNL A   1      45.162  26.886  34.778  1.00  0.00     0.031 A 
ATOM     63  C   UNL A   1      46.294  28.793  33.830  1.00  0.00     0.131 A 
ATOM     64  C   UNL A   1      46.343  26.555  35.459  1.00  0.00     0.055 A 
ATOM     65  C   UNL A   1      47.482  28.428  34.464  1.00  0.00     0.041 A 
ATOM     66  F   UNL A   1      46.306  29.902  33.074  1.00  0.00    -0.206 F 
ATOM     67  C   UNL A   1      47.509  27.310  35.293  1.00  0.00     0.022 A 
BRANCH  64  68
ATOM     68  S   UNL A   1      46.316  25.174  36.634  1.00  0.00     0.124 S 
ATOM     69  O   UNL A   1      45.270  25.588  37.563  1.00  0.00    -0.237 OA
ATOM     70  O   UNL A   1      45.994  24.039  35.775  1.00  0.00    -0.237 OA
ATOM     71  O   UNL A   1      47.669  25.167  37.187  1.00  0.00    -0.744 OA
ENDBRANCH  64  68
ENDBRANCH  38  61
ENDBRANCH  12  13
ENDBRANCH   5   7
ENDBRANCH   2   3
ENDBRANCH   1   2
BRANCH   1  72
ATOM     72  C   UNL A   1      32.364  26.740  26.391  1.00  0.00     0.118 C 
BRANCH  72  73
ATOM     73  N   UNL A   1      31.373  25.850  26.980  1.00  0.00    -0.352 N 
ATOM     74  C   UNL A   1      30.940  24.622  26.551  1.00  0.00     0.253 C 
ATOM     75  H   UNL A   1      30.952  26.179  27.808  1.00  0.00     0.163 HD
ATOM     76  O   UNL A   1      30.026  24.056  27.147  1.00  0.00    -0.269 OA
BRANCH  74  77
ATOM     77  C   UNL A   1      31.551  23.970  25.374  1.00  0.00     0.063 A 
ATOM     78  C   UNL A   1      32.628  23.108  25.637  1.00  0.00     0.016 A 
ATOM     79  C   UNL A   1      31.130  24.227  24.053  1.00  0.00     0.051 A 
ATOM     80  C   UNL A   1      33.269  22.452  24.590  1.00  0.00     0.001 A 
ATOM     81  C   UNL A   1      31.783  23.539  23.019  1.00  0.00     0.027 A 
ATOM     82  C   UNL A   1      32.842  22.663  23.282  1.00  0.00     0.002 A 
BRANCH  79  83
ATOM     83  N   UNL A   1      30.068  25.114  23.771  1.00  0.00    -0.355 N 
ATOM     84  H   UNL A   1      29.173  24.714  23.860  1.00  0.00     0.167 HD
BRANCH  83  85
ATOM     85  C   UNL A   1      30.060  26.465  23.383  1.00  0.00     0.039 A 
ATOM     86  C   UNL A   1      31.252  27.044  22.928  1.00  0.00     0.026 A 
ATOM     87  C   UNL A   1      28.902  27.254  23.394  1.00  0.00     0.039 A 
ATOM     88  C   UNL A   1      31.289  28.370  22.495  1.00  0.00     0.003 A 
ATOM     89  C   UNL A   1      28.923  28.594  22.968  1.00  0.00     0.058 A 
ATOM     90  C   UNL A   1      30.129  29.142  22.511  1.00  0.00     0.013 A 
BRANCH  89  91
ATOM     91  C   UNL A   1      27.667  29.429  22.972  1.00  0.00     0.416 C 
ATOM     92  F   UNL A   1      26.548  28.695  23.222  1.00  0.00    -0.166 F 
ATOM     93  F   UNL A   1      27.700  30.395  23.934  1.00  0.00    -0.166 F 
ATOM     94  F   UNL A   1      27.438  30.080  21.799  1.00  0.00    -0.166 F 
ENDBRANCH  89  91
ENDBRANCH  83  85
ENDBRANCH  79  83
ENDBRANCH  74  77
ENDBRANCH  72  73
ENDBRANCH   1  72
TORSDOF 16
ENDMDL
MODEL 3
REMARK VINA RESULT:     -12.2      1.499      1.772
REMARK SMILES O=C(NCCCNC(=O)c1ccccc1Nc1cccc(C(F)(F)F)c1)c1ccc(-c2c3nc(c(-c4cc(S(=O)(=O)[O-])ccc4F)c4ccc([nH]4)c(-c4cc(S(=O)(=O)[O-])ccc4F)c4nc(c(-c5cc(S(=O)(=O)[O-])ccc5F)c5ccc2[nH]5)C=C4)C=C3)cc1
REMARK SMILES IDX 5 1 4 2 3 3 1 4 2 5 27 7 28 8 89 9 29 10 88 11 30 12 31 13
REMARK SMILES IDX 32 14 82 15 33 16 87 17 81 18 83 19 34 20 86 21 80 22 79 23
REMARK SMILES IDX 35 25 67 26 47 27 66 28 48 29 51 30 65 31 84 32 49 33 50 34
REMARK SMILES IDX 64 36 85 37 52 38 36 39 37 40 45 41 38 42 44 43 46 44 43 45
REMARK SMILES IDX 39 46 40 47 41 48 42 49 68 50 69 51 77 52 70 53 76 54 78 55
REMARK SMILES IDX 75 56 71 57 72 58 73 59 74 60 53 61 54 62 62 63 55 64 61 65
REMARK SMILES IDX 63 66 60 67 56 68 57 69 58 70 59 71 6 72 7 73 8 74 9 76
REMARK SMILES IDX 10 77 11 78 15 79 12 80 14 81 13 82 16 83 17 85 18 86 26 87
REMARK SMILES IDX 19 88 21 89 20 90 22 91 23 92 24 93 25 94
REMARK H PARENT 3 6 83 24 51 35 7 75 16 84
REMARK Flexibility Score: inf
ROOT
ATOM      1  C   UNL A   1      31.815  28.110  26.124  1.00  0.00     0.042 C 
ENDROOT
BRANCH   1   2
ATOM      2  C   UNL A   1      32.858  29.135  25.704  1.00  0.00     0.118 C 
BRANCH   2   3
ATOM      3  N   UNL A   1      32.515  30.500  26.082  1.00  0.00    -0.352 N 
ATOM      4  O   UNL A   1      32.579  32.424  27.250  1.00  0.00    -0.269 OA
ATOM      5  C   UNL A   1      33.118  31.354  26.977  1.00  0.00     0.251 C 
ATOM      6  H   UNL A   1      31.728  30.872  25.623  1.00  0.00     0.163 HD
BRANCH   5   7
ATOM      7  C   UNL A   1      34.393  30.978  27.628  1.00  0.00     0.039 A 
ATOM      8  C   UNL A   1      34.595  29.686  28.112  1.00  0.00     0.014 A 
ATOM      9  C   UNL A   1      35.409  31.932  27.746  1.00  0.00     0.014 A 
ATOM     10  C   UNL A   1      35.723  29.399  28.870  1.00  0.00     0.010 A 
ATOM     11  C   UNL A   1      36.595  31.607  28.414  1.00  0.00     0.010 A 
ATOM     12  C   UNL A   1      36.747  30.348  29.015  1.00  0.00    -0.014 A 
BRANCH  12  13
ATOM     13  C   UNL A   1      37.984  29.973  29.750  1.00  0.00     0.031 A 
ATOM     14  C   UNL A   1      38.992  29.033  29.149  1.00  0.00     0.074 A 
ATOM     15  C   UNL A   1      38.201  30.517  30.963  1.00  0.00     0.049 A 
ATOM     16  N   UNL A   1      40.119  28.600  29.655  1.00  0.00    -0.248 NA
ATOM     17  C   UNL A   1      38.690  28.498  27.815  1.00  0.00     0.031 C 
ATOM     18  C   UNL A   1      37.284  31.432  31.649  1.00  0.00     0.029 A 
ATOM     19  N   UNL A   1      39.256  30.397  31.830  1.00  0.00    -0.354 N 
ATOM     20  C   UNL A   1      40.652  27.725  28.714  1.00  0.00     0.074 A 
ATOM     21  C   UNL A   1      39.704  27.666  27.621  1.00  0.00     0.031 C 
ATOM     22  C   UNL A   1      37.832  31.820  32.808  1.00  0.00     0.029 A 
ATOM     23  C   UNL A   1      39.102  31.126  32.986  1.00  0.00     0.049 A 
ATOM     24  H   UNL A   1      40.047  29.842  31.643  1.00  0.00     0.167 HD
ATOM     25  C   UNL A   1      41.825  27.042  28.760  1.00  0.00     0.034 A 
ATOM     26  C   UNL A   1      39.876  31.206  34.084  1.00  0.00     0.034 A 
ATOM     27  C   UNL A   1      42.759  27.123  29.860  1.00  0.00     0.049 A 
ATOM     28  C   UNL A   1      41.156  30.421  34.123  1.00  0.00     0.074 A 
ATOM     29  C   UNL A   1      43.996  26.513  29.990  1.00  0.00     0.029 A 
ATOM     30  N   UNL A   1      42.553  27.848  31.029  1.00  0.00    -0.354 N 
ATOM     31  N   UNL A   1      41.657  29.619  33.213  1.00  0.00    -0.248 NA
ATOM     32  C   UNL A   1      41.975  30.554  35.332  1.00  0.00     0.031 C 
ATOM     33  C   UNL A   1      44.504  26.813  31.259  1.00  0.00     0.029 A 
ATOM     34  C   UNL A   1      43.621  27.670  31.897  1.00  0.00     0.049 A 
ATOM     35  H   UNL A   1      41.764  28.407  31.214  1.00  0.00     0.167 HD
ATOM     36  C   UNL A   1      42.858  29.155  33.737  1.00  0.00     0.074 A 
ATOM     37  C   UNL A   1      43.015  29.789  35.033  1.00  0.00     0.031 C 
ATOM     38  C   UNL A   1      43.750  28.286  33.199  1.00  0.00     0.034 A 
BRANCH  25  39
ATOM     39  C   UNL A   1      42.135  26.114  27.607  1.00  0.00     0.023 A 
ATOM     40  C   UNL A   1      41.646  24.796  27.558  1.00  0.00     0.031 A 
ATOM     41  C   UNL A   1      42.961  26.545  26.553  1.00  0.00     0.131 A 
ATOM     42  C   UNL A   1      42.046  23.936  26.523  1.00  0.00     0.055 A 
ATOM     43  C   UNL A   1      43.293  25.709  25.484  1.00  0.00     0.041 A 
ATOM     44  F   UNL A   1      43.475  27.786  26.552  1.00  0.00    -0.206 F 
ATOM     45  C   UNL A   1      42.849  24.391  25.473  1.00  0.00     0.022 A 
BRANCH  42  46
ATOM     46  S   UNL A   1      41.630  22.175  26.649  1.00  0.00     0.124 S 
ATOM     47  O   UNL A   1      40.184  22.196  26.443  1.00  0.00    -0.237 OA
ATOM     48  O   UNL A   1      42.419  21.587  25.573  1.00  0.00    -0.237 OA
ATOM     49  O   UNL A   1      42.054  21.817  28.002  1.00  0.00    -0.744 OA
ENDBRANCH  42  46
ENDBRANCH  25  39
BRANCH  26  50
ATOM     50  C   UNL A   1      39.426  32.022  35.247  1.00  0.00     0.023 A 
ATOM     51  C   UNL A   1      39.828  33.356  35.404  1.00  0.00     0.031 A 
ATOM     52  C   UNL A   1      38.571  31.467  36.218  1.00  0.00     0.131 A 
ATOM     53  C   UNL A   1      39.396  34.085  36.523  1.00  0.00     0.055 A 
ATOM     54  C   UNL A   1      38.104  32.212  37.301  1.00  0.00     0.041 A 
ATOM     55  F   UNL A   1      38.151  30.197  36.107  1.00  0.00    -0.206 F 
ATOM     56  C   UNL A   1      38.524  33.527  37.463  1.00  0.00     0.022 A 
BRANCH  53  57
ATOM     57  S   UNL A   1      40.033  35.765  36.764  1.00  0.00     0.124 S 
ATOM     58  O   UNL A   1      39.315  36.187  37.961  1.00  0.00    -0.237 OA
ATOM     59  O   UNL A   1      41.463  35.526  36.924  1.00  0.00    -0.237 OA
ATOM     60  O   UNL A   1      39.653  36.454  35.532  1.00  0.00    -0.744 OA
ENDBRANCH  53  57
ENDBRANCH  26  50
BRANCH  38  61
ATOM     61  C   UNL A   1      44.986  27.996  34.012  1.00  0.00     0.023 A 
ATOM     62  C   UNL A   1      45.031  26.932  34.928  1.00  0.00     0.031 A 
ATOM     63  C   UNL A   1      46.124  28.812  33.885  1.00  0.00     0.131 A 
ATOM     64  C   UNL A   1      46.170  26.744  35.725  1.00  0.00     0.055 A 
ATOM     65  C   UNL A   1      47.276  28.586  34.639  1.00  0.00     0.041 A 
ATOM     66  F   UNL A   1      46.132  29.845  33.027  1.00  0.00    -0.206 F 
ATOM     67  C   UNL A   1      47.300  27.554  35.573  1.00  0.00     0.022 A 
BRANCH  64  68
ATOM     68  S   UNL A   1      46.128  25.479  37.023  1.00  0.00     0.124 S 
ATOM     69  O   UNL A   1      47.549  25.238  37.257  1.00  0.00    -0.237 OA
ATOM     70  O   UNL A   1      45.411  26.157  38.098  1.00  0.00    -0.237 OA
ATOM     71  O   UNL A   1      45.407  24.371  36.400  1.00  0.00    -0.744 OA
ENDBRANCH  64  68
ENDBRANCH  38  61
ENDBRANCH  12  13
ENDBRANCH   5   7
ENDBRANCH   2   3
ENDBRANCH   1   2
BRANCH   1  72
ATOM     72  C   UNL A   1      32.326  26.680  26.196  1.00  0.00     0.118 C 
BRANCH  72  73
ATOM     73  N   UNL A   1      31.412  25.780  26.884  1.00  0.00    -0.352 N 
ATOM     74  C   UNL A   1      30.947  24.548  26.501  1.00  0.00     0.253 C 
ATOM     75  H   UNL A   1      31.077  26.104  27.752  1.00  0.00     0.163 HD
ATOM     76  O   UNL A   1      30.107  23.973  27.189  1.00  0.00    -0.269 OA
BRANCH  74  77
ATOM     77  C   UNL A   1      31.436  23.903  25.265  1.00  0.00     0.063 A 
ATOM     78  C   UNL A   1      32.483  22.981  25.423  1.00  0.00     0.016 A 
ATOM     79  C   UNL A   1      30.935  24.222  23.985  1.00  0.00     0.051 A 
ATOM     80  C   UNL A   1      33.011  22.326  24.314  1.00  0.00     0.001 A 
ATOM     81  C   UNL A   1      31.475  23.534  22.888  1.00  0.00     0.027 A 
ATOM     82  C   UNL A   1      32.502  22.598  23.048  1.00  0.00     0.002 A 
BRANCH  79  83
ATOM     83  N   UNL A   1      29.903  25.169  23.807  1.00  0.00    -0.355 N 
ATOM     84  H   UNL A   1      29.002  24.828  24.012  1.00  0.00     0.167 HD
BRANCH  83  85
ATOM     85  C   UNL A   1      29.931  26.510  23.387  1.00  0.00     0.039 A 
ATOM     86  C   UNL A   1      31.116  27.022  22.844  1.00  0.00     0.026 A 
ATOM     87  C   UNL A   1      28.812  27.351  23.450  1.00  0.00     0.039 A 
ATOM     88  C   UNL A   1      31.186  28.336  22.376  1.00  0.00     0.003 A 
ATOM     89  C   UNL A   1      28.867  28.679  22.991  1.00  0.00     0.058 A 
ATOM     90  C   UNL A   1      30.065  29.160  22.445  1.00  0.00     0.013 A 
BRANCH  89  91
ATOM     91  C   UNL A   1      27.653  29.572  23.052  1.00  0.00     0.416 C 
ATOM     92  F   UNL A   1      27.308  30.076  21.835  1.00  0.00    -0.166 F 
ATOM     93  F   UNL A   1      26.552  28.906  23.503  1.00  0.00    -0.166 F 
ATOM     94  F   UNL A   1      27.802  30.645  23.876  1.00  0.00    -0.166 F 
ENDBRANCH  89  91
ENDBRANCH  83  85
ENDBRANCH  79  83
ENDBRANCH  74  77
ENDBRANCH  72  73
ENDBRANCH   1  72
TORSDOF 16
ENDMDL
