MODEL 1
REMARK VINA RESULT:     -12.2      0.000      0.000
REMARK SMILES COc1cccc([C@@H]2C[N@@H+](Cc3nccn3C)C[C@H]2C(=O)NCCCNC(=O)c2ccc(-c3c4nc(c(-c5cc(S(=O)(=O)[O-])ccc5F)c5ccc([nH]5)c(-c5cc(S(=O)(=O)[O-])ccc5F)c5nc(c(-c6cc(S(=O)(=O)[O-])ccc6F)c6ccc3[nH]6)C=C5)C=C4)cc2)c1
REMARK SMILES IDX 24 1 23 2 22 3 20 4 21 5 19 7 8 8 9 9 10 10 18 11 7 13 3 14
REMARK SMILES IDX 4 15 92 16 5 17 6 18 2 19 1 20 11 21 12 22 13 23 16 24 14 25
REMARK SMILES IDX 15 26 17 27 25 28 26 29 27 30 28 32 29 33 30 34 91 35 31 36
REMARK SMILES IDX 90 37 32 38 33 39 34 40 84 41 35 42 89 43 83 44 85 45 36 46
REMARK SMILES IDX 88 47 82 48 81 49 37 51 69 52 49 53 68 54 50 55 53 56 67 57
REMARK SMILES IDX 86 58 51 59 52 60 66 62 87 63 54 64 38 65 39 66 47 67 40 68
REMARK SMILES IDX 46 69 48 70 45 71 41 72 42 73 43 74 44 75 70 76 71 77 79 78
REMARK SMILES IDX 72 79 78 80 80 81 77 82 73 83 74 84 75 85 76 86 55 87 56 88
REMARK SMILES IDX 64 89 57 90 63 91 65 92 62 93 58 94 59 95 60 96 61 97
REMARK H PARENT 22 6 10 12 26 31 85 50 53 61
REMARK Flexibility Score: inf
ROOT
ATOM      1  C   UNL A   1      32.867  27.749  26.305  1.00  0.00     0.042 C 
ENDROOT
BRANCH   1   2
ATOM      2  C   UNL A   1      31.428  27.541  26.801  1.00  0.00     0.117 C 
BRANCH   2   3
ATOM      3  N   UNL A   1      30.970  26.134  26.839  1.00  0.00    -0.356 N 
ATOM      4  C   UNL A   1      30.874  24.951  26.204  1.00  0.00     0.229 C 
ATOM      5  O   UNL A   1      30.694  24.052  27.059  1.00  0.00    -0.275 OA
ATOM      6  H   UNL A   1      30.548  26.007  27.720  1.00  0.00     0.163 HD
BRANCH   4   7
ATOM      7  C   UNL A   1      30.872  24.439  24.735  1.00  0.00     0.146 C 
ATOM      8  C   UNL A   1      31.303  25.415  23.631  1.00  0.00     0.092 C 
ATOM      9  C   UNL A   1      31.497  24.513  22.389  1.00  0.00     0.271 C 
ATOM     10  N   UNL A   1      31.790  23.152  22.864  1.00  0.00    -0.327 N 
ATOM     11  C   UNL A   1      31.311  23.053  24.253  1.00  0.00     0.277 C 
ATOM     12  H   UNL A   1      31.273  22.443  22.345  1.00  0.00     0.348 HD
BRANCH   8  13
ATOM     13  C   UNL A   1      30.300  26.521  23.324  1.00  0.00    -0.035 A 
ATOM     14  C   UNL A   1      29.768  28.711  22.375  1.00  0.00     0.119 A 
ATOM     15  C   UNL A   1      28.483  28.624  22.903  1.00  0.00     0.046 A 
ATOM     16  C   UNL A   1      30.671  27.671  22.595  1.00  0.00     0.050 A 
ATOM     17  C   UNL A   1      28.093  27.488  23.612  1.00  0.00     0.004 A 
ATOM     18  C   UNL A   1      28.995  26.442  23.822  1.00  0.00     0.004 A 
BRANCH  14  19
ATOM     19  O   UNL A   1      30.069  29.874  21.717  1.00  0.00    -0.497 OA
ATOM     20  C   UNL A   1      29.010  30.824  21.677  1.00  0.00     0.278 C 
ENDBRANCH  14  19
ENDBRANCH   8  13
BRANCH  10  21
ATOM     21  C   UNL A   1      33.157  22.700  22.545  1.00  0.00     0.339 C 
BRANCH  21  22
ATOM     22  C   UNL A   1      34.163  23.114  23.564  1.00  0.00     0.164 A 
ATOM     23  N   UNL A   1      34.685  24.324  23.689  1.00  0.00    -0.236 NA
ATOM     24  N   UNL A   1      34.420  22.373  24.682  1.00  0.00    -0.333 N 
ATOM     25  C   UNL A   1      34.943  24.458  25.021  1.00  0.00     0.131 A 
ATOM     26  C   UNL A   1      34.637  23.288  25.661  1.00  0.00     0.107 A 
ATOM     27  C   UNL A   1      34.306  20.945  24.811  1.00  0.00     0.151 C 
ENDBRANCH  21  22
ENDBRANCH  10  21
ENDBRANCH   4   7
ENDBRANCH   2   3
ENDBRANCH   1   2
BRANCH   1  28
ATOM     28  C   UNL A   1      33.079  28.882  25.305  1.00  0.00     0.118 C 
BRANCH  28  29
ATOM     29  N   UNL A   1      32.500  30.155  25.754  1.00  0.00    -0.352 N 
ATOM     30  C   UNL A   1      32.850  31.039  26.762  1.00  0.00     0.251 C 
ATOM     31  H   UNL A   1      31.710  30.435  25.239  1.00  0.00     0.163 HD
ATOM     32  O   UNL A   1      32.055  31.930  27.051  1.00  0.00    -0.269 OA
BRANCH  30  33
ATOM     33  C   UNL A   1      34.131  30.927  27.511  1.00  0.00     0.039 A 
ATOM     34  C   UNL A   1      34.960  32.048  27.669  1.00  0.00     0.014 A 
ATOM     35  C   UNL A   1      34.563  29.707  28.015  1.00  0.00     0.014 A 
ATOM     36  C   UNL A   1      36.168  31.944  28.380  1.00  0.00     0.010 A 
ATOM     37  C   UNL A   1      35.666  29.639  28.856  1.00  0.00     0.010 A 
ATOM     38  C   UNL A   1      36.517  30.741  29.013  1.00  0.00    -0.014 A 
BRANCH  38  39
ATOM     39  C   UNL A   1      37.803  30.536  29.742  1.00  0.00     0.031 A 
ATOM     40  C   UNL A   1      38.861  29.646  29.118  1.00  0.00     0.074 A 
ATOM     41  C   UNL A   1      37.998  31.048  30.974  1.00  0.00     0.049 A 
ATOM     42  N   UNL A   1      39.937  29.129  29.650  1.00  0.00    -0.248 NA
ATOM     43  C   UNL A   1      38.632  29.230  27.722  1.00  0.00     0.031 C 
ATOM     44  C   UNL A   1      37.048  31.891  31.704  1.00  0.00     0.029 A 
ATOM     45  N   UNL A   1      39.055  30.921  31.841  1.00  0.00    -0.354 N 
ATOM     46  C   UNL A   1      40.481  28.300  28.672  1.00  0.00     0.074 A 
ATOM     47  C   UNL A   1      39.564  28.306  27.555  1.00  0.00     0.031 C 
ATOM     48  C   UNL A   1      37.578  32.227  32.892  1.00  0.00     0.029 A 
ATOM     49  C   UNL A   1      38.877  31.578  33.039  1.00  0.00     0.049 A 
ATOM     50  H   UNL A   1      39.868  30.408  31.627  1.00  0.00     0.167 HD
ATOM     51  C   UNL A   1      41.661  27.632  28.676  1.00  0.00     0.034 A 
ATOM     52  C   UNL A   1      39.663  31.633  34.135  1.00  0.00     0.034 A 
ATOM     53  C   UNL A   1      42.597  27.692  29.768  1.00  0.00     0.049 A 
ATOM     54  C   UNL A   1      40.978  30.885  34.117  1.00  0.00     0.074 A 
ATOM     55  C   UNL A   1      43.842  27.096  29.873  1.00  0.00     0.029 A 
ATOM     56  N   UNL A   1      42.399  28.411  30.938  1.00  0.00    -0.354 N 
ATOM     57  N   UNL A   1      41.482  30.121  33.174  1.00  0.00    -0.248 NA
ATOM     58  C   UNL A   1      41.837  31.019  35.301  1.00  0.00     0.031 C 
ATOM     59  C   UNL A   1      44.374  27.415  31.125  1.00  0.00     0.029 A 
ATOM     60  C   UNL A   1      43.495  28.271  31.771  1.00  0.00     0.049 A 
ATOM     61  H   UNL A   1      41.597  28.943  31.146  1.00  0.00     0.167 HD
ATOM     62  C   UNL A   1      42.735  29.723  33.636  1.00  0.00     0.074 A 
ATOM     63  C   UNL A   1      42.915  30.344  34.932  1.00  0.00     0.031 C 
ATOM     64  C   UNL A   1      43.657  28.921  33.049  1.00  0.00     0.034 A 
BRANCH  51  65
ATOM     65  C   UNL A   1      42.005  26.803  27.461  1.00  0.00     0.023 A 
ATOM     66  C   UNL A   1      41.666  25.440  27.382  1.00  0.00     0.031 A 
ATOM     67  C   UNL A   1      42.693  27.370  26.373  1.00  0.00     0.131 A 
ATOM     68  C   UNL A   1      42.083  24.674  26.283  1.00  0.00     0.055 A 
ATOM     69  C   UNL A   1      43.025  26.623  25.241  1.00  0.00     0.041 A 
ATOM     70  F   UNL A   1      43.064  28.661  26.396  1.00  0.00    -0.206 F 
ATOM     71  C   UNL A   1      42.733  25.263  25.197  1.00  0.00     0.022 A 
BRANCH  68  72
ATOM     72  S   UNL A   1      41.880  22.875  26.361  1.00  0.00     0.124 S 
ATOM     73  O   UNL A   1      42.476  22.457  25.094  1.00  0.00    -0.237 OA
ATOM     74  O   UNL A   1      42.621  22.522  27.564  1.00  0.00    -0.237 OA
ATOM     75  O   UNL A   1      40.429  22.698  26.446  1.00  0.00    -0.744 OA
ENDBRANCH  68  72
ENDBRANCH  51  65
BRANCH  52  76
ATOM     76  C   UNL A   1      39.248  32.406  35.344  1.00  0.00     0.023 A 
ATOM     77  C   UNL A   1      39.611  33.755  35.498  1.00  0.00     0.031 A 
ATOM     78  C   UNL A   1      38.550  31.794  36.400  1.00  0.00     0.131 A 
ATOM     79  C   UNL A   1      39.347  34.421  36.705  1.00  0.00     0.055 A 
ATOM     80  C   UNL A   1      38.224  32.484  37.571  1.00  0.00     0.041 A 
ATOM     81  F   UNL A   1      38.173  30.508  36.311  1.00  0.00    -0.206 F 
ATOM     82  C   UNL A   1      38.642  33.800  37.737  1.00  0.00     0.022 A 
BRANCH  79  83
ATOM     83  S   UNL A   1      40.066  36.068  36.959  1.00  0.00     0.124 S 
ATOM     84  O   UNL A   1      41.463  35.743  37.224  1.00  0.00    -0.237 OA
ATOM     85  O   UNL A   1      39.790  36.718  35.683  1.00  0.00    -0.237 OA
ATOM     86  O   UNL A   1      39.320  36.592  38.101  1.00  0.00    -0.744 OA
ENDBRANCH  79  83
ENDBRANCH  52  76
BRANCH  64  87
ATOM     87  C   UNL A   1      44.970  28.736  33.765  1.00  0.00     0.023 A 
ATOM     88  C   UNL A   1      45.192  27.662  34.642  1.00  0.00     0.031 A 
ATOM     89  C   UNL A   1      46.021  29.647  33.549  1.00  0.00     0.131 A 
ATOM     90  C   UNL A   1      46.419  27.554  35.314  1.00  0.00     0.055 A 
ATOM     91  C   UNL A   1      47.259  29.499  34.172  1.00  0.00     0.041 A 
ATOM     92  F   UNL A   1      45.860  30.690  32.720  1.00  0.00    -0.206 F 
ATOM     93  C   UNL A   1      47.460  28.454  35.070  1.00  0.00     0.022 A 
BRANCH  90  94
ATOM     94  S   UNL A   1      46.608  26.267  36.576  1.00  0.00     0.124 S 
ATOM     95  O   UNL A   1      47.876  25.653  36.194  1.00  0.00    -0.237 OA
ATOM     96  O   UNL A   1      46.622  27.041  37.812  1.00  0.00    -0.237 OA
ATOM     97  O   UNL A   1      45.430  25.424  36.386  1.00  0.00    -0.744 OA
ENDBRANCH  90  94
ENDBRANCH  64  87
ENDBRANCH  38  39
ENDBRANCH  30  33
ENDBRANCH  28  29
ENDBRANCH   1  28
TORSDOF 17
ENDMDL
MODEL 2
REMARK VINA RESULT:     -12.0      4.834      9.726
REMARK SMILES COc1cccc([C@@H]2C[N@@H+](Cc3nccn3C)C[C@H]2C(=O)NCCCNC(=O)c2ccc(-c3c4nc(c(-c5cc(S(=O)(=O)[O-])ccc5F)c5ccc([nH]5)c(-c5cc(S(=O)(=O)[O-])ccc5F)c5nc(c(-c6cc(S(=O)(=O)[O-])ccc6F)c6ccc3[nH]6)C=C5)C=C4)cc2)c1
REMARK SMILES IDX 24 1 23 2 22 3 20 4 21 5 19 7 8 8 9 9 10 10 18 11 7 13 3 14
REMARK SMILES IDX 4 15 92 16 5 17 6 18 2 19 1 20 11 21 12 22 13 23 16 24 14 25
REMARK SMILES IDX 15 26 17 27 25 28 26 29 27 30 28 32 29 33 30 34 91 35 31 36
REMARK SMILES IDX 90 37 32 38 33 39 34 40 84 41 35 42 89 43 83 44 85 45 36 46
REMARK SMILES IDX 88 47 82 48 81 49 37 51 69 52 49 53 68 54 50 55 53 56 67 57
REMARK SMILES IDX 86 58 51 59 52 60 66 62 87 63 54 64 38 65 39 66 47 67 40 68
REMARK SMILES IDX 46 69 48 70 45 71 41 72 42 73 43 74 44 75 70 76 71 77 79 78
REMARK SMILES IDX 72 79 78 80 80 81 77 82 73 83 74 84 75 85 76 86 55 87 56 88
REMARK SMILES IDX 64 89 57 90 63 91 65 92 62 93 58 94 59 95 60 96 61 97
REMARK H PARENT 22 6 10 12 26 31 85 50 53 61
REMARK Flexibility Score: inf
ROOT
ATOM      1  C   UNL A   1      35.942  23.563  24.917  1.00  0.00     0.042 C 
ENDROOT
BRANCH   1   2
ATOM      2  C   UNL A   1      36.174  22.952  23.527  1.00  0.00     0.117 C 
BRANCH   2   3
ATOM      3  N   UNL A   1      35.009  22.994  22.616  1.00  0.00    -0.356 N 
ATOM      4  C   UNL A   1      33.671  23.048  22.481  1.00  0.00     0.229 C 
ATOM      5  O   UNL A   1      33.401  23.470  21.332  1.00  0.00    -0.275 OA
ATOM      6  H   UNL A   1      35.375  22.975  21.702  1.00  0.00     0.163 HD
BRANCH   4   7
ATOM      7  C   UNL A   1      32.421  22.679  23.332  1.00  0.00     0.146 C 
ATOM      8  C   UNL A   1      32.614  21.734  24.526  1.00  0.00     0.092 C 
ATOM      9  C   UNL A   1      31.286  21.848  25.312  1.00  0.00     0.271 C 
ATOM     10  N   UNL A   1      30.690  23.155  24.998  1.00  0.00    -0.327 N 
ATOM     11  C   UNL A   1      31.284  23.623  23.735  1.00  0.00     0.277 C 
ATOM     12  H   UNL A   1      29.688  23.089  24.821  1.00  0.00     0.348 HD
BRANCH   8  13
ATOM     13  C   UNL A   1      32.882  20.280  24.156  1.00  0.00    -0.035 A 
ATOM     14  C   UNL A   1      34.215  18.240  24.362  1.00  0.00     0.119 A 
ATOM     15  C   UNL A   1      33.463  17.650  23.350  1.00  0.00     0.046 A 
ATOM     16  C   UNL A   1      33.931  19.548  24.753  1.00  0.00     0.050 A 
ATOM     17  C   UNL A   1      32.410  18.351  22.761  1.00  0.00     0.004 A 
ATOM     18  C   UNL A   1      32.120  19.658  23.161  1.00  0.00     0.004 A 
BRANCH  14  19
ATOM     19  O   UNL A   1      35.243  17.486  24.863  1.00  0.00    -0.497 OA
ATOM     20  C   UNL A   1      34.932  16.109  25.050  1.00  0.00     0.278 C 
ENDBRANCH  14  19
ENDBRANCH   8  13
BRANCH  10  21
ATOM     21  C   UNL A   1      30.646  24.073  26.152  1.00  0.00     0.339 C 
BRANCH  21  22
ATOM     22  C   UNL A   1      31.677  25.147  26.083  1.00  0.00     0.164 A 
ATOM     23  N   UNL A   1      32.949  25.022  26.428  1.00  0.00    -0.236 NA
ATOM     24  N   UNL A   1      31.497  26.290  25.357  1.00  0.00    -0.333 N 
ATOM     25  C   UNL A   1      33.620  25.884  25.612  1.00  0.00     0.131 A 
ATOM     26  C   UNL A   1      32.721  26.567  24.839  1.00  0.00     0.107 A 
ATOM     27  C   UNL A   1      30.245  26.939  25.073  1.00  0.00     0.151 C 
ENDBRANCH  21  22
ENDBRANCH  10  21
ENDBRANCH   4   7
ENDBRANCH   2   3
ENDBRANCH   1   2
BRANCH   1  28
ATOM     28  C   UNL A   1      35.973  22.594  26.095  1.00  0.00     0.118 C 
BRANCH  28  29
ATOM     29  N   UNL A   1      36.952  21.513  25.919  1.00  0.00    -0.352 N 
ATOM     30  C   UNL A   1      38.336  21.487  25.961  1.00  0.00     0.251 C 
ATOM     31  H   UNL A   1      36.544  20.636  25.735  1.00  0.00     0.163 HD
ATOM     32  O   UNL A   1      38.908  20.474  25.566  1.00  0.00    -0.269 OA
BRANCH  30  33
ATOM     33  C   UNL A   1      39.140  22.643  26.441  1.00  0.00     0.039 A 
ATOM     34  C   UNL A   1      40.132  22.460  27.417  1.00  0.00     0.014 A 
ATOM     35  C   UNL A   1      38.890  23.931  25.983  1.00  0.00     0.014 A 
ATOM     36  C   UNL A   1      40.895  23.552  27.867  1.00  0.00     0.010 A 
ATOM     37  C   UNL A   1      39.750  24.974  26.300  1.00  0.00     0.010 A 
ATOM     38  C   UNL A   1      40.734  24.819  27.285  1.00  0.00    -0.014 A 
BRANCH  38  39
ATOM     39  C   UNL A   1      41.468  26.035  27.741  1.00  0.00     0.031 A 
ATOM     40  C   UNL A   1      40.713  27.090  28.526  1.00  0.00     0.074 A 
ATOM     41  C   UNL A   1      42.752  26.250  27.389  1.00  0.00     0.049 A 
ATOM     42  N   UNL A   1      41.056  28.318  28.820  1.00  0.00    -0.248 NA
ATOM     43  C   UNL A   1      39.358  26.729  28.982  1.00  0.00     0.031 C 
ATOM     44  C   UNL A   1      43.583  25.334  26.605  1.00  0.00     0.029 A 
ATOM     45  N   UNL A   1      43.581  27.318  27.630  1.00  0.00    -0.354 N 
ATOM     46  C   UNL A   1      39.947  28.879  29.450  1.00  0.00     0.074 A 
ATOM     47  C   UNL A   1      38.893  27.892  29.405  1.00  0.00     0.031 C 
ATOM     48  C   UNL A   1      44.808  25.866  26.457  1.00  0.00     0.029 A 
ATOM     49  C   UNL A   1      44.837  27.186  27.079  1.00  0.00     0.049 A 
ATOM     50  H   UNL A   1      43.304  28.107  28.150  1.00  0.00     0.167 HD
ATOM     51  C   UNL A   1      39.829  30.085  30.058  1.00  0.00     0.034 A 
ATOM     52  C   UNL A   1      45.882  28.040  27.062  1.00  0.00     0.034 A 
ATOM     53  C   UNL A   1      40.911  31.029  30.155  1.00  0.00     0.049 A 
ATOM     54  C   UNL A   1      45.730  29.378  27.751  1.00  0.00     0.074 A 
ATOM     55  C   UNL A   1      40.927  32.263  30.781  1.00  0.00     0.029 A 
ATOM     56  N   UNL A   1      42.180  30.831  29.629  1.00  0.00    -0.354 N 
ATOM     57  N   UNL A   1      44.679  29.882  28.357  1.00  0.00    -0.248 NA
ATOM     58  C   UNL A   1      46.908  30.256  27.768  1.00  0.00     0.031 C 
ATOM     59  C   UNL A   1      42.190  32.832  30.592  1.00  0.00     0.029 A 
ATOM     60  C   UNL A   1      42.985  31.920  29.912  1.00  0.00     0.049 A 
ATOM     61  H   UNL A   1      42.466  30.033  29.127  1.00  0.00     0.167 HD
ATOM     62  C   UNL A   1      45.087  31.114  28.864  1.00  0.00     0.074 A 
ATOM     63  C   UNL A   1      46.481  31.268  28.507  1.00  0.00     0.031 C 
ATOM     64  C   UNL A   1      44.380  32.037  29.563  1.00  0.00     0.034 A 
BRANCH  51  65
ATOM     65  C   UNL A   1      38.494  30.434  30.674  1.00  0.00     0.023 A 
ATOM     66  C   UNL A   1      37.500  31.105  29.940  1.00  0.00     0.031 A 
ATOM     67  C   UNL A   1      38.212  30.110  32.013  1.00  0.00     0.131 A 
ATOM     68  C   UNL A   1      36.309  31.500  30.567  1.00  0.00     0.055 A 
ATOM     69  C   UNL A   1      36.988  30.426  32.606  1.00  0.00     0.041 A 
ATOM     70  F   UNL A   1      39.128  29.488  32.774  1.00  0.00    -0.206 F 
ATOM     71  C   UNL A   1      36.033  31.139  31.887  1.00  0.00     0.022 A 
BRANCH  68  72
ATOM     72  S   UNL A   1      35.191  32.610  29.671  1.00  0.00     0.124 S 
ATOM     73  O   UNL A   1      34.526  31.682  28.758  1.00  0.00    -0.237 OA
ATOM     74  O   UNL A   1      34.365  33.161  30.736  1.00  0.00    -0.237 OA
ATOM     75  O   UNL A   1      36.098  33.562  29.027  1.00  0.00    -0.744 OA
ENDBRANCH  68  72
ENDBRANCH  51  65
BRANCH  52  76
ATOM     76  C   UNL A   1      47.159  27.681  26.375  1.00  0.00     0.023 A 
ATOM     77  C   UNL A   1      47.344  27.952  25.009  1.00  0.00     0.031 A 
ATOM     78  C   UNL A   1      48.184  26.994  27.048  1.00  0.00     0.131 A 
ATOM     79  C   UNL A   1      48.484  27.472  24.344  1.00  0.00     0.055 A 
ATOM     80  C   UNL A   1      49.351  26.581  26.399  1.00  0.00     0.041 A 
ATOM     81  F   UNL A   1      48.067  26.708  28.355  1.00  0.00    -0.206 F 
ATOM     82  C   UNL A   1      49.496  26.802  25.032  1.00  0.00     0.022 A 
BRANCH  79  83
ATOM     83  S   UNL A   1      48.554  27.612  22.536  1.00  0.00     0.124 S 
ATOM     84  O   UNL A   1      49.788  28.366  22.346  1.00  0.00    -0.237 OA
ATOM     85  O   UNL A   1      48.588  26.212  22.126  1.00  0.00    -0.237 OA
ATOM     86  O   UNL A   1      47.326  28.330  22.203  1.00  0.00    -0.744 OA
ENDBRANCH  79  83
ENDBRANCH  52  76
BRANCH  64  87
ATOM     87  C   UNL A   1      45.124  33.252  30.055  1.00  0.00     0.023 A 
ATOM     88  C   UNL A   1      45.195  34.434  29.299  1.00  0.00     0.031 A 
ATOM     89  C   UNL A   1      45.758  33.225  31.310  1.00  0.00     0.131 A 
ATOM     90  C   UNL A   1      45.931  35.525  29.783  1.00  0.00     0.055 A 
ATOM     91  C   UNL A   1      46.435  34.336  31.813  1.00  0.00     0.041 A 
ATOM     92  F   UNL A   1      45.719  32.121  32.072  1.00  0.00    -0.206 F 
ATOM     93  C   UNL A   1      46.535  35.490  31.043  1.00  0.00     0.022 A 
BRANCH  90  94
ATOM     94  S   UNL A   1      46.158  36.965  28.706  1.00  0.00     0.124 S 
ATOM     95  O   UNL A   1      46.010  36.377  27.378  1.00  0.00    -0.237 OA
ATOM     96  O   UNL A   1      45.080  37.850  29.134  1.00  0.00    -0.237 OA
ATOM     97  O   UNL A   1      47.505  37.428  29.032  1.00  0.00    -0.744 OA
ENDBRANCH  90  94
ENDBRANCH  64  87
ENDBRANCH  38  39
ENDBRANCH  30  33
ENDBRANCH  28  29
ENDBRANCH   1  28
TORSDOF 17
ENDMDL
MODEL 3
REMARK VINA RESULT:     -11.7      2.658      8.155
REMARK SMILES COc1cccc([C@@H]2C[N@@H+](Cc3nccn3C)C[C@H]2C(=O)NCCCNC(=O)c2ccc(-c3c4nc(c(-c5cc(S(=O)(=O)[O-])ccc5F)c5ccc([nH]5)c(-c5cc(S(=O)(=O)[O-])ccc5F)c5nc(c(-c6cc(S(=O)(=O)[O-])ccc6F)c6ccc3[nH]6)C=C5)C=C4)cc2)c1
REMARK SMILES IDX 24 1 23 2 22 3 20 4 21 5 19 7 8 8 9 9 10 10 18 11 7 13 3 14
REMARK SMILES IDX 4 15 92 16 5 17 6 18 2 19 1 20 11 21 12 22 13 23 16 24 14 25
REMARK SMILES IDX 15 26 17 27 25 28 26 29 27 30 28 32 29 33 30 34 91 35 31 36
REMARK SMILES IDX 90 37 32 38 33 39 34 40 84 41 35 42 89 43 83 44 85 45 36 46
REMARK SMILES IDX 88 47 82 48 81 49 37 51 69 52 49 53 68 54 50 55 53 56 67 57
REMARK SMILES IDX 86 58 51 59 52 60 66 62 87 63 54 64 38 65 39 66 47 67 40 68
REMARK SMILES IDX 46 69 48 70 45 71 41 72 42 73 43 74 44 75 70 76 71 77 79 78
REMARK SMILES IDX 72 79 78 80 80 81 77 82 73 83 74 84 75 85 76 86 55 87 56 88
REMARK SMILES IDX 64 89 57 90 63 91 65 92 62 93 58 94 59 95 60 96 61 97
REMARK H PARENT 22 6 10 12 26 31 85 50 53 61
REMARK Flexibility Score: inf
ROOT
ATOM      1  C   UNL A   1      33.594  27.795  26.568  1.00  0.00     0.042 C 
ENDROOT
BRANCH   1   2
ATOM      2  C   UNL A   1      32.107  27.740  26.946  1.00  0.00     0.117 C 
BRANCH   2   3
ATOM      3  N   UNL A   1      31.508  26.387  26.964  1.00  0.00    -0.356 N 
ATOM      4  C   UNL A   1      31.252  25.247  26.296  1.00  0.00     0.229 C 
ATOM      5  O   UNL A   1      31.031  24.336  27.128  1.00  0.00    -0.275 OA
ATOM      6  H   UNL A   1      31.128  26.268  27.865  1.00  0.00     0.163 HD
BRANCH   4   7
ATOM      7  C   UNL A   1      31.110  24.798  24.813  1.00  0.00     0.146 C 
ATOM      8  C   UNL A   1      32.003  25.478  23.765  1.00  0.00     0.092 C 
ATOM      9  C   UNL A   1      31.845  24.592  22.507  1.00  0.00     0.271 C 
ATOM     10  N   UNL A   1      31.462  23.244  22.953  1.00  0.00    -0.327 N 
ATOM     11  C   UNL A   1      30.906  23.366  24.311  1.00  0.00     0.277 C 
ATOM     12  H   UNL A   1      30.713  22.848  22.385  1.00  0.00     0.348 HD
BRANCH   8  13
ATOM     13  C   UNL A   1      31.629  26.920  23.442  1.00  0.00    -0.035 A 
ATOM     14  C   UNL A   1      29.977  28.719  23.332  1.00  0.00     0.119 A 
ATOM     15  C   UNL A   1      30.908  29.532  22.693  1.00  0.00     0.046 A 
ATOM     16  C   UNL A   1      30.334  27.420  23.693  1.00  0.00     0.050 A 
ATOM     17  C   UNL A   1      32.199  29.062  22.452  1.00  0.00     0.004 A 
ATOM     18  C   UNL A   1      32.559  27.764  22.824  1.00  0.00     0.004 A 
BRANCH  14  19
ATOM     19  O   UNL A   1      28.728  29.256  23.504  1.00  0.00    -0.497 OA
ATOM     20  C   UNL A   1      27.689  28.573  22.812  1.00  0.00     0.278 C 
ENDBRANCH  14  19
ENDBRANCH   8  13
BRANCH  10  21
ATOM     21  C   UNL A   1      32.495  22.223  22.692  1.00  0.00     0.339 C 
BRANCH  21  22
ATOM     22  C   UNL A   1      32.866  21.444  23.907  1.00  0.00     0.164 A 
ATOM     23  N   UNL A   1      32.372  20.265  24.252  1.00  0.00    -0.236 NA
ATOM     24  N   UNL A   1      33.990  21.713  24.634  1.00  0.00    -0.333 N 
ATOM     25  C   UNL A   1      33.383  19.643  24.920  1.00  0.00     0.131 A 
ATOM     26  C   UNL A   1      34.448  20.496  25.027  1.00  0.00     0.107 A 
ATOM     27  C   UNL A   1      34.629  22.993  24.788  1.00  0.00     0.151 C 
ENDBRANCH  21  22
ENDBRANCH  10  21
ENDBRANCH   4   7
ENDBRANCH   2   3
ENDBRANCH   1   2
BRANCH   1  28
ATOM     28  C   UNL A   1      34.054  29.039  25.813  1.00  0.00     0.118 C 
BRANCH  28  29
ATOM     29  N   UNL A   1      33.884  30.273  26.590  1.00  0.00    -0.352 N 
ATOM     30  C   UNL A   1      34.554  30.789  27.687  1.00  0.00     0.251 C 
ATOM     31  H   UNL A   1      33.150  30.845  26.269  1.00  0.00     0.163 HD
ATOM     32  O   UNL A   1      34.059  31.752  28.267  1.00  0.00    -0.269 OA
BRANCH  30  33
ATOM     33  C   UNL A   1      35.826  30.204  28.191  1.00  0.00     0.039 A 
ATOM     34  C   UNL A   1      35.873  29.587  29.450  1.00  0.00     0.014 A 
ATOM     35  C   UNL A   1      37.003  30.308  27.460  1.00  0.00     0.014 A 
ATOM     36  C   UNL A   1      37.073  29.030  29.924  1.00  0.00     0.010 A 
ATOM     37  C   UNL A   1      38.142  29.616  27.850  1.00  0.00     0.010 A 
ATOM     38  C   UNL A   1      38.216  29.009  29.110  1.00  0.00    -0.014 A 
BRANCH  38  39
ATOM     39  C   UNL A   1      39.539  28.484  29.558  1.00  0.00     0.031 A 
ATOM     40  C   UNL A   1      40.293  29.234  30.639  1.00  0.00     0.074 A 
ATOM     41  C   UNL A   1      40.108  27.419  28.958  1.00  0.00     0.049 A 
ATOM     42  N   UNL A   1      41.538  29.121  31.021  1.00  0.00    -0.248 NA
ATOM     43  C   UNL A   1      39.556  30.306  31.333  1.00  0.00     0.031 C 
ATOM     44  C   UNL A   1      39.507  26.628  27.882  1.00  0.00     0.029 A 
ATOM     45  N   UNL A   1      41.331  26.825  29.156  1.00  0.00    -0.354 N 
ATOM     46  C   UNL A   1      41.738  30.129  31.962  1.00  0.00     0.074 A 
ATOM     47  C   UNL A   1      40.519  30.903  32.016  1.00  0.00     0.031 C 
ATOM     48  C   UNL A   1      40.350  25.639  27.537  1.00  0.00     0.029 A 
ATOM     49  C   UNL A   1      41.575  25.757  28.320  1.00  0.00     0.049 A 
ATOM     50  H   UNL A   1      41.975  27.134  29.834  1.00  0.00     0.167 HD
ATOM     51  C   UNL A   1      42.817  30.362  32.748  1.00  0.00     0.034 A 
ATOM     52  C   UNL A   1      42.669  24.978  28.191  1.00  0.00     0.034 A 
ATOM     53  C   UNL A   1      43.998  29.540  32.732  1.00  0.00     0.049 A 
ATOM     54  C   UNL A   1      43.860  25.252  29.082  1.00  0.00     0.074 A 
ATOM     55  C   UNL A   1      45.137  29.649  33.510  1.00  0.00     0.029 A 
ATOM     56  N   UNL A   1      44.181  28.438  31.908  1.00  0.00    -0.354 N 
ATOM     57  N   UNL A   1      44.022  26.200  29.977  1.00  0.00    -0.248 NA
ATOM     58  C   UNL A   1      45.009  24.345  28.957  1.00  0.00     0.031 C 
ATOM     59  C   UNL A   1      46.028  28.643  33.123  1.00  0.00     0.029 A 
ATOM     60  C   UNL A   1      45.414  27.862  32.156  1.00  0.00     0.049 A 
ATOM     61  H   UNL A   1      43.529  28.114  31.245  1.00  0.00     0.167 HD
ATOM     62  C   UNL A   1      45.270  25.971  30.552  1.00  0.00     0.074 A 
ATOM     63  C   UNL A   1      45.810  24.789  29.913  1.00  0.00     0.031 C 
ATOM     64  C   UNL A   1      45.917  26.668  31.519  1.00  0.00     0.034 A 
BRANCH  51  65
ATOM     65  C   UNL A   1      42.756  31.538  33.696  1.00  0.00     0.023 A 
ATOM     66  C   UNL A   1      42.233  31.407  34.995  1.00  0.00     0.031 A 
ATOM     67  C   UNL A   1      43.209  32.808  33.298  1.00  0.00     0.131 A 
ATOM     68  C   UNL A   1      42.101  32.537  35.817  1.00  0.00     0.055 A 
ATOM     69  C   UNL A   1      43.160  33.910  34.154  1.00  0.00     0.041 A 
ATOM     70  F   UNL A   1      43.701  33.003  32.063  1.00  0.00    -0.206 F 
ATOM     71  C   UNL A   1      42.589  33.782  35.417  1.00  0.00     0.022 A 
BRANCH  68  72
ATOM     72  S   UNL A   1      41.159  32.375  37.357  1.00  0.00     0.124 S 
ATOM     73  O   UNL A   1      40.969  33.774  37.732  1.00  0.00    -0.237 OA
ATOM     74  O   UNL A   1      39.964  31.661  36.927  1.00  0.00    -0.237 OA
ATOM     75  O   UNL A   1      42.059  31.620  38.230  1.00  0.00    -0.744 OA
ENDBRANCH  68  72
ENDBRANCH  51  65
BRANCH  52  76
ATOM     76  C   UNL A   1      42.713  23.872  27.186  1.00  0.00     0.023 A 
ATOM     77  C   UNL A   1      42.078  22.643  27.438  1.00  0.00     0.031 A 
ATOM     78  C   UNL A   1      43.452  23.993  25.997  1.00  0.00     0.131 A 
ATOM     79  C   UNL A   1      42.257  21.565  26.557  1.00  0.00     0.055 A 
ATOM     80  C   UNL A   1      43.567  22.939  25.086  1.00  0.00     0.041 A 
ATOM     81  F   UNL A   1      44.079  25.142  25.699  1.00  0.00    -0.206 F 
ATOM     82  C   UNL A   1      42.985  21.709  25.374  1.00  0.00     0.022 A 
BRANCH  79  83
ATOM     83  S   UNL A   1      41.644  19.932  27.053  1.00  0.00     0.124 S 
ATOM     84  O   UNL A   1      42.823  19.353  27.689  1.00  0.00    -0.237 OA
ATOM     85  O   UNL A   1      40.541  20.280  27.942  1.00  0.00    -0.237 OA
ATOM     86  O   UNL A   1      41.253  19.316  25.787  1.00  0.00    -0.744 OA
ENDBRANCH  79  83
ENDBRANCH  52  76
BRANCH  64  87
ATOM     87  C   UNL A   1      47.238  26.125  31.999  1.00  0.00     0.023 A 
ATOM     88  C   UNL A   1      48.448  26.449  31.364  1.00  0.00     0.031 A 
ATOM     89  C   UNL A   1      47.282  25.279  33.123  1.00  0.00     0.131 A 
ATOM     90  C   UNL A   1      49.648  25.888  31.825  1.00  0.00     0.055 A 
ATOM     91  C   UNL A   1      48.485  24.775  33.615  1.00  0.00     0.041 A 
ATOM     92  F   UNL A   1      46.154  24.940  33.767  1.00  0.00    -0.206 F 
ATOM     93  C   UNL A   1      49.676  25.068  32.958  1.00  0.00     0.022 A 
BRANCH  90  94
ATOM     94  S   UNL A   1      51.164  26.176  30.875  1.00  0.00     0.124 S 
ATOM     95  O   UNL A   1      50.735  25.855  29.517  1.00  0.00    -0.237 OA
ATOM     96  O   UNL A   1      51.437  27.584  31.140  1.00  0.00    -0.237 OA
ATOM     97  O   UNL A   1      52.120  25.239  31.460  1.00  0.00    -0.744 OA
ENDBRANCH  90  94
ENDBRANCH  64  87
ENDBRANCH  38  39
ENDBRANCH  30  33
ENDBRANCH  28  29
ENDBRANCH   1  28
TORSDOF 17
ENDMDL
