MODEL 1
REMARK VINA RESULT:     -11.1      0.000      0.000
REMARK SMILES CC[C@@H](C)c1ccccc1OCC(C)(C)C(=O)NCCCNC(=O)c1ccc(-c2c3nc(c(-c4cc(S(=O)(=O)[O-])ccc4F)c4ccc([nH]4)c(-c4cc(S(=O)(=O)[O-])ccc4F)c4nc(c(-c5cc(S(=O)(=O)[O-])ccc5F)c5ccc2[nH]5)C=C4)C=C3)cc1
REMARK SMILES IDX 19 1 18 2 16 3 17 4 13 6 14 7 15 8 12 9 11 10 10 11 5 12
REMARK SMILES IDX 6 13 7 14 9 15 8 16 3 17 4 18 2 19 1 20 20 21 21 22 22 23
REMARK SMILES IDX 23 24 24 26 25 27 26 28 87 29 27 30 86 31 28 32 29 33 30 34
REMARK SMILES IDX 80 35 31 36 85 37 79 38 81 39 32 40 84 41 78 42 77 43 33 45
REMARK SMILES IDX 65 46 45 47 64 48 46 49 49 50 63 51 82 52 47 53 48 54 62 56
REMARK SMILES IDX 83 57 50 58 34 59 35 60 43 61 36 62 42 63 44 64 41 65 37 66
REMARK SMILES IDX 38 67 39 68 40 69 66 70 67 71 75 72 68 73 74 74 76 75 73 76
REMARK SMILES IDX 69 77 70 78 71 79 72 80 51 81 52 82 60 83 53 84 59 85 61 86
REMARK SMILES IDX 58 87 54 88 55 89 56 90 57 91
REMARK H PARENT 18 5 22 25 81 44 49 55
REMARK Flexibility Score: inf
ROOT
ATOM      1  C   UNL A   1      34.898  22.929  24.048  1.00  0.00     0.117 C 
ENDROOT
BRANCH   1   2
ATOM      2  N   UNL A   1      33.759  22.014  24.038  1.00  0.00    -0.355 N 
ATOM      3  C   UNL A   1      32.607  22.018  24.769  1.00  0.00     0.229 C 
ATOM      4  O   UNL A   1      31.795  21.119  24.549  1.00  0.00    -0.274 OA
ATOM      5  H   UNL A   1      33.835  21.272  23.396  1.00  0.00     0.163 HD
BRANCH   3   6
ATOM      6  C   UNL A   1      32.367  23.109  25.815  1.00  0.00     0.077 C 
ATOM      7  C   UNL A   1      33.486  22.974  26.875  1.00  0.00     0.025 C 
ATOM      8  C   UNL A   1      30.954  22.876  26.409  1.00  0.00     0.025 C 
BRANCH   6   9
ATOM      9  C   UNL A   1      32.381  24.486  25.067  1.00  0.00     0.245 C 
BRANCH   9  10
ATOM     10  O   UNL A   1      31.816  25.608  25.761  1.00  0.00    -0.492 OA
BRANCH  10  11
ATOM     11  C   UNL A   1      30.929  26.384  25.061  1.00  0.00     0.122 A 
ATOM     12  C   UNL A   1      31.353  27.683  24.688  1.00  0.00    -0.003 A 
ATOM     13  C   UNL A   1      30.514  28.384  23.797  1.00  0.00     0.008 A 
ATOM     14  C   UNL A   1      29.296  27.851  23.356  1.00  0.00     0.001 A 
ATOM     15  C   UNL A   1      29.684  25.873  24.665  1.00  0.00     0.047 A 
ATOM     16  C   UNL A   1      28.870  26.606  23.806  1.00  0.00     0.004 A 
BRANCH  12  17
ATOM     17  C   UNL A   1      32.763  28.185  25.051  1.00  0.00     0.019 C 
ATOM     18  C   UNL A   1      32.832  29.703  25.328  1.00  0.00     0.013 C 
BRANCH  17  19
ATOM     19  C   UNL A   1      33.919  27.809  24.094  1.00  0.00     0.005 C 
ATOM     20  C   UNL A   1      33.832  28.593  22.784  1.00  0.00     0.004 C 
ENDBRANCH  17  19
ENDBRANCH  12  17
ENDBRANCH  10  11
ENDBRANCH   9  10
ENDBRANCH   6   9
ENDBRANCH   3   6
ENDBRANCH   1   2
BRANCH   1  21
ATOM     21  C   UNL A   1      36.213  22.191  24.106  1.00  0.00     0.042 C 
BRANCH  21  22
ATOM     22  C   UNL A   1      36.719  22.044  25.524  1.00  0.00     0.118 C 
BRANCH  22  23
ATOM     23  N   UNL A   1      37.705  20.975  25.652  1.00  0.00    -0.352 N 
ATOM     24  C   UNL A   1      39.026  21.062  26.010  1.00  0.00     0.251 C 
ATOM     25  H   UNL A   1      37.378  20.069  25.453  1.00  0.00     0.163 HD
ATOM     26  O   UNL A   1      39.778  20.107  25.832  1.00  0.00    -0.269 OA
BRANCH  24  27
ATOM     27  C   UNL A   1      39.517  22.327  26.581  1.00  0.00     0.039 A 
ATOM     28  C   UNL A   1      40.543  22.301  27.523  1.00  0.00     0.014 A 
ATOM     29  C   UNL A   1      39.001  23.542  26.122  1.00  0.00     0.014 A 
ATOM     30  C   UNL A   1      41.101  23.505  27.948  1.00  0.00     0.010 A 
ATOM     31  C   UNL A   1      39.648  24.724  26.439  1.00  0.00     0.010 A 
ATOM     32  C   UNL A   1      40.690  24.722  27.372  1.00  0.00    -0.014 A 
BRANCH  32  33
ATOM     33  C   UNL A   1      41.324  26.004  27.759  1.00  0.00     0.031 A 
ATOM     34  C   UNL A   1      42.745  26.285  27.350  1.00  0.00     0.074 A 
ATOM     35  C   UNL A   1      40.632  26.888  28.505  1.00  0.00     0.049 A 
ATOM     36  N   UNL A   1      43.487  27.330  27.610  1.00  0.00    -0.248 NA
ATOM     37  C   UNL A   1      43.440  25.238  26.580  1.00  0.00     0.031 C 
ATOM     38  C   UNL A   1      39.270  26.685  29.012  1.00  0.00     0.029 A 
ATOM     39  N   UNL A   1      40.969  28.135  28.962  1.00  0.00    -0.354 N 
ATOM     40  C   UNL A   1      44.726  27.066  27.036  1.00  0.00     0.074 A 
ATOM     41  C   UNL A   1      44.666  25.728  26.495  1.00  0.00     0.031 C 
ATOM     42  C   UNL A   1      38.875  27.787  29.667  1.00  0.00     0.029 A 
ATOM     43  C   UNL A   1      39.965  28.755  29.672  1.00  0.00     0.049 A 
ATOM     44  H   UNL A   1      41.846  28.549  28.798  1.00  0.00     0.167 HD
ATOM     45  C   UNL A   1      45.802  27.882  26.931  1.00  0.00     0.034 A 
ATOM     46  C   UNL A   1      39.935  29.966  30.262  1.00  0.00     0.034 A 
ATOM     47  C   UNL A   1      45.835  29.221  27.463  1.00  0.00     0.049 A 
ATOM     48  C   UNL A   1      41.152  30.849  30.142  1.00  0.00     0.074 A 
ATOM     49  C   UNL A   1      46.854  30.152  27.387  1.00  0.00     0.029 A 
ATOM     50  N   UNL A   1      44.801  29.818  28.173  1.00  0.00    -0.354 N 
ATOM     51  N   UNL A   1      42.295  30.604  29.540  1.00  0.00    -0.248 NA
ATOM     52  C   UNL A   1      41.069  32.175  30.762  1.00  0.00     0.031 C 
ATOM     53  C   UNL A   1      46.463  31.287  28.105  1.00  0.00     0.029 A 
ATOM     54  C   UNL A   1      45.167  31.097  28.560  1.00  0.00     0.049 A 
ATOM     55  H   UNL A   1      43.934  29.395  28.369  1.00  0.00     0.167 HD
ATOM     56  C   UNL A   1      43.056  31.761  29.689  1.00  0.00     0.074 A 
ATOM     57  C   UNL A   1      42.226  32.710  30.403  1.00  0.00     0.031 C 
ATOM     58  C   UNL A   1      44.325  32.019  29.283  1.00  0.00     0.034 A 
BRANCH  45  59
ATOM     59  C   UNL A   1      47.019  27.345  26.219  1.00  0.00     0.023 A 
ATOM     60  C   UNL A   1      47.983  26.573  26.893  1.00  0.00     0.031 A 
ATOM     61  C   UNL A   1      47.225  27.609  24.855  1.00  0.00     0.131 A 
ATOM     62  C   UNL A   1      49.136  26.146  26.218  1.00  0.00     0.055 A 
ATOM     63  C   UNL A   1      48.335  27.113  24.168  1.00  0.00     0.041 A 
ATOM     64  F   UNL A   1      46.352  28.362  24.165  1.00  0.00    -0.206 F 
ATOM     65  C   UNL A   1      49.305  26.386  24.854  1.00  0.00     0.022 A 
BRANCH  62  66
ATOM     66  S   UNL A   1      50.468  25.376  27.179  1.00  0.00     0.124 S 
ATOM     67  O   UNL A   1      51.389  24.958  26.125  1.00  0.00    -0.237 OA
ATOM     68  O   UNL A   1      50.922  26.474  28.026  1.00  0.00    -0.237 OA
ATOM     69  O   UNL A   1      49.797  24.284  27.880  1.00  0.00    -0.744 OA
ENDBRANCH  62  66
ENDBRANCH  45  59
BRANCH  46  70
ATOM     70  C   UNL A   1      38.734  30.418  31.024  1.00  0.00     0.023 A 
ATOM     71  C   UNL A   1      37.657  31.045  30.376  1.00  0.00     0.031 A 
ATOM     72  C   UNL A   1      38.674  30.294  32.424  1.00  0.00     0.131 A 
ATOM     73  C   UNL A   1      36.604  31.588  31.130  1.00  0.00     0.055 A 
ATOM     74  C   UNL A   1      37.592  30.775  33.164  1.00  0.00     0.041 A 
ATOM     75  F   UNL A   1      39.672  29.699  33.097  1.00  0.00    -0.206 F 
ATOM     76  C   UNL A   1      36.558  31.445  32.519  1.00  0.00     0.022 A 
BRANCH  73  77
ATOM     77  S   UNL A   1      35.361  32.599  30.281  1.00  0.00     0.124 S 
ATOM     78  O   UNL A   1      34.986  31.735  29.167  1.00  0.00    -0.237 OA
ATOM     79  O   UNL A   1      34.354  32.777  31.322  1.00  0.00    -0.237 OA
ATOM     80  O   UNL A   1      36.098  33.806  29.916  1.00  0.00    -0.744 OA
ENDBRANCH  73  77
ENDBRANCH  46  70
BRANCH  58  81
ATOM     81  C   UNL A   1      44.865  33.396  29.580  1.00  0.00     0.023 A 
ATOM     82  C   UNL A   1      44.640  34.476  28.709  1.00  0.00     0.031 A 
ATOM     83  C   UNL A   1      45.644  33.624  30.729  1.00  0.00     0.131 A 
ATOM     84  C   UNL A   1      45.257  35.711  28.955  1.00  0.00     0.055 A 
ATOM     85  C   UNL A   1      46.190  34.876  31.009  1.00  0.00     0.041 A 
ATOM     86  F   UNL A   1      45.891  32.628  31.596  1.00  0.00    -0.206 F 
ATOM     87  C   UNL A   1      46.015  35.924  30.110  1.00  0.00     0.022 A 
BRANCH  84  88
ATOM     88  S   UNL A   1      45.161  36.996  27.679  1.00  0.00     0.124 S 
ATOM     89  O   UNL A   1      45.279  38.216  28.470  1.00  0.00    -0.237 OA
ATOM     90  O   UNL A   1      46.302  36.675  26.827  1.00  0.00    -0.237 OA
ATOM     91  O   UNL A   1      43.851  36.776  27.070  1.00  0.00    -0.744 OA
ENDBRANCH  84  88
ENDBRANCH  58  81
ENDBRANCH  32  33
ENDBRANCH  24  27
ENDBRANCH  22  23
ENDBRANCH  21  22
ENDBRANCH   1  21
TORSDOF 18
ENDMDL
MODEL 2
REMARK VINA RESULT:     -10.9      2.178      2.490
REMARK SMILES CC[C@@H](C)c1ccccc1OCC(C)(C)C(=O)NCCCNC(=O)c1ccc(-c2c3nc(c(-c4cc(S(=O)(=O)[O-])ccc4F)c4ccc([nH]4)c(-c4cc(S(=O)(=O)[O-])ccc4F)c4nc(c(-c5cc(S(=O)(=O)[O-])ccc5F)c5ccc2[nH]5)C=C4)C=C3)cc1
REMARK SMILES IDX 19 1 18 2 16 3 17 4 13 6 14 7 15 8 12 9 11 10 10 11 5 12
REMARK SMILES IDX 6 13 7 14 9 15 8 16 3 17 4 18 2 19 1 20 20 21 21 22 22 23
REMARK SMILES IDX 23 24 24 26 25 27 26 28 87 29 27 30 86 31 28 32 29 33 30 34
REMARK SMILES IDX 80 35 31 36 85 37 79 38 81 39 32 40 84 41 78 42 77 43 33 45
REMARK SMILES IDX 65 46 45 47 64 48 46 49 49 50 63 51 82 52 47 53 48 54 62 56
REMARK SMILES IDX 83 57 50 58 34 59 35 60 43 61 36 62 42 63 44 64 41 65 37 66
REMARK SMILES IDX 38 67 39 68 40 69 66 70 67 71 75 72 68 73 74 74 76 75 73 76
REMARK SMILES IDX 69 77 70 78 71 79 72 80 51 81 52 82 60 83 53 84 59 85 61 86
REMARK SMILES IDX 58 87 54 88 55 89 56 90 57 91
REMARK H PARENT 18 5 22 25 81 44 49 55
REMARK Flexibility Score: inf
ROOT
ATOM      1  C   UNL A   1      35.417  23.024  23.917  1.00  0.00     0.117 C 
ENDROOT
BRANCH   1   2
ATOM      2  N   UNL A   1      34.571  22.381  24.920  1.00  0.00    -0.355 N 
ATOM      3  C   UNL A   1      33.485  22.847  25.600  1.00  0.00     0.229 C 
ATOM      4  O   UNL A   1      32.942  22.078  26.395  1.00  0.00    -0.274 OA
ATOM      5  H   UNL A   1      34.827  21.455  25.140  1.00  0.00     0.163 HD
BRANCH   3   6
ATOM      6  C   UNL A   1      32.988  24.275  25.366  1.00  0.00     0.077 C 
ATOM      7  C   UNL A   1      32.686  24.406  23.854  1.00  0.00     0.025 C 
ATOM      8  C   UNL A   1      34.109  25.238  25.834  1.00  0.00     0.025 C 
BRANCH   6   9
ATOM      9  C   UNL A   1      31.727  24.486  26.272  1.00  0.00     0.245 C 
BRANCH   9  10
ATOM     10  O   UNL A   1      31.380  25.841  26.597  1.00  0.00    -0.492 OA
BRANCH  10  11
ATOM     11  C   UNL A   1      30.719  26.557  25.633  1.00  0.00     0.122 A 
ATOM     12  C   UNL A   1      31.202  27.856  25.341  1.00  0.00    -0.003 A 
ATOM     13  C   UNL A   1      30.645  28.493  24.213  1.00  0.00     0.008 A 
ATOM     14  C   UNL A   1      29.624  27.899  23.460  1.00  0.00     0.001 A 
ATOM     15  C   UNL A   1      29.658  25.986  24.915  1.00  0.00     0.047 A 
ATOM     16  C   UNL A   1      29.115  26.657  23.822  1.00  0.00     0.004 A 
BRANCH  12  17
ATOM     17  C   UNL A   1      32.431  28.422  26.078  1.00  0.00     0.019 C 
ATOM     18  C   UNL A   1      32.088  29.522  27.107  1.00  0.00     0.013 C 
BRANCH  17  19
ATOM     19  C   UNL A   1      33.614  28.914  25.211  1.00  0.00     0.005 C 
ATOM     20  C   UNL A   1      33.709  28.124  23.904  1.00  0.00     0.004 C 
ENDBRANCH  17  19
ENDBRANCH  12  17
ENDBRANCH  10  11
ENDBRANCH   9  10
ENDBRANCH   6   9
ENDBRANCH   3   6
ENDBRANCH   1   2
BRANCH   1  21
ATOM     21  C   UNL A   1      36.847  23.149  24.384  1.00  0.00     0.042 C 
BRANCH  21  22
ATOM     22  C   UNL A   1      37.004  22.768  25.840  1.00  0.00     0.118 C 
BRANCH  22  23
ATOM     23  N   UNL A   1      37.983  21.702  26.030  1.00  0.00    -0.352 N 
ATOM     24  C   UNL A   1      39.312  21.804  26.355  1.00  0.00     0.251 C 
ATOM     25  H   UNL A   1      37.644  20.786  25.909  1.00  0.00     0.163 HD
ATOM     26  O   UNL A   1      40.052  20.830  26.236  1.00  0.00    -0.269 OA
BRANCH  24  27
ATOM     27  C   UNL A   1      39.826  23.104  26.817  1.00  0.00     0.039 A 
ATOM     28  C   UNL A   1      40.679  23.152  27.917  1.00  0.00     0.014 A 
ATOM     29  C   UNL A   1      39.510  24.265  26.106  1.00  0.00     0.014 A 
ATOM     30  C   UNL A   1      41.275  24.365  28.256  1.00  0.00     0.010 A 
ATOM     31  C   UNL A   1      40.211  25.433  26.359  1.00  0.00     0.010 A 
ATOM     32  C   UNL A   1      41.083  25.503  27.450  1.00  0.00    -0.014 A 
BRANCH  32  33
ATOM     33  C   UNL A   1      41.768  26.781  27.754  1.00  0.00     0.031 A 
ATOM     34  C   UNL A   1      43.163  27.019  27.240  1.00  0.00     0.074 A 
ATOM     35  C   UNL A   1      41.148  27.699  28.520  1.00  0.00     0.049 A 
ATOM     36  N   UNL A   1      43.942  28.054  27.418  1.00  0.00    -0.248 NA
ATOM     37  C   UNL A   1      43.780  25.935  26.454  1.00  0.00     0.031 C 
ATOM     38  C   UNL A   1      39.821  27.541  29.126  1.00  0.00     0.029 A 
ATOM     39  N   UNL A   1      41.541  28.951  28.916  1.00  0.00    -0.354 N 
ATOM     40  C   UNL A   1      45.132  27.746  26.767  1.00  0.00     0.074 A 
ATOM     41  C   UNL A   1      45.008  26.395  26.271  1.00  0.00     0.031 C 
ATOM     42  C   UNL A   1      39.495  28.670  29.775  1.00  0.00     0.029 A 
ATOM     43  C   UNL A   1      40.602  29.612  29.676  1.00  0.00     0.049 A 
ATOM     44  H   UNL A   1      42.413  29.341  28.680  1.00  0.00     0.167 HD
ATOM     45  C   UNL A   1      46.214  28.535  26.564  1.00  0.00     0.034 A 
ATOM     46  C   UNL A   1      40.638  30.839  30.232  1.00  0.00     0.034 A 
ATOM     47  C   UNL A   1      46.311  29.887  27.053  1.00  0.00     0.049 A 
ATOM     48  C   UNL A   1      41.861  31.692  30.001  1.00  0.00     0.074 A 
ATOM     49  C   UNL A   1      47.342  30.793  26.880  1.00  0.00     0.029 A 
ATOM     50  N   UNL A   1      45.342  30.527  27.815  1.00  0.00    -0.354 N 
ATOM     51  N   UNL A   1      42.954  31.405  29.329  1.00  0.00    -0.248 NA
ATOM     52  C   UNL A   1      41.848  33.036  30.587  1.00  0.00     0.031 C 
ATOM     53  C   UNL A   1      47.024  31.955  27.590  1.00  0.00     0.029 A 
ATOM     54  C   UNL A   1      45.760  31.807  28.139  1.00  0.00     0.049 A 
ATOM     55  H   UNL A   1      44.483  30.128  28.084  1.00  0.00     0.167 HD
ATOM     56  C   UNL A   1      43.746  32.548  29.392  1.00  0.00     0.074 A 
ATOM     57  C   UNL A   1      42.988  33.535  30.133  1.00  0.00     0.031 C 
ATOM     58  C   UNL A   1      44.990  32.767  28.892  1.00  0.00     0.034 A 
BRANCH  45  59
ATOM     59  C   UNL A   1      47.367  27.951  25.785  1.00  0.00     0.023 A 
ATOM     60  C   UNL A   1      47.491  28.147  24.397  1.00  0.00     0.031 A 
ATOM     61  C   UNL A   1      48.351  27.184  26.431  1.00  0.00     0.131 A 
ATOM     62  C   UNL A   1      48.538  27.533  23.693  1.00  0.00     0.055 A 
ATOM     63  C   UNL A   1      49.436  26.643  25.737  1.00  0.00     0.041 A 
ATOM     64  F   UNL A   1      48.272  26.942  27.750  1.00  0.00    -0.206 F 
ATOM     65  C   UNL A   1      49.526  26.806  24.358  1.00  0.00     0.022 A 
BRANCH  62  66
ATOM     66  S   UNL A   1      48.519  27.599  21.881  1.00  0.00     0.124 S 
ATOM     67  O   UNL A   1      47.189  28.145  21.620  1.00  0.00    -0.237 OA
ATOM     68  O   UNL A   1      49.641  28.482  21.584  1.00  0.00    -0.237 OA
ATOM     69  O   UNL A   1      48.701  26.204  21.486  1.00  0.00    -0.744 OA
ENDBRANCH  62  66
ENDBRANCH  45  59
BRANCH  46  70
ATOM     70  C   UNL A   1      39.502  31.339  31.061  1.00  0.00     0.023 A 
ATOM     71  C   UNL A   1      39.558  31.306  32.464  1.00  0.00     0.031 A 
ATOM     72  C   UNL A   1      38.312  31.791  30.463  1.00  0.00     0.131 A 
ATOM     73  C   UNL A   1      38.425  31.647  33.220  1.00  0.00     0.055 A 
ATOM     74  C   UNL A   1      37.210  32.194  31.220  1.00  0.00     0.041 A 
ATOM     75  F   UNL A   1      38.201  31.849  29.126  1.00  0.00    -0.206 F 
ATOM     76  C   UNL A   1      37.256  32.104  32.608  1.00  0.00     0.022 A 
BRANCH  73  77
ATOM     77  S   UNL A   1      38.458  31.359  35.010  1.00  0.00     0.124 S 
ATOM     78  O   UNL A   1      37.246  32.045  35.444  1.00  0.00    -0.237 OA
ATOM     79  O   UNL A   1      38.432  29.902  35.082  1.00  0.00    -0.237 OA
ATOM     80  O   UNL A   1      39.712  31.980  35.430  1.00  0.00    -0.744 OA
ENDBRANCH  73  77
ENDBRANCH  46  70
BRANCH  58  81
ATOM     81  C   UNL A   1      45.576  34.140  29.110  1.00  0.00     0.023 A 
ATOM     82  C   UNL A   1      45.208  35.232  28.307  1.00  0.00     0.031 A 
ATOM     83  C   UNL A   1      46.543  34.350  30.110  1.00  0.00     0.131 A 
ATOM     84  C   UNL A   1      45.861  36.463  28.459  1.00  0.00     0.055 A 
ATOM     85  C   UNL A   1      47.133  35.598  30.309  1.00  0.00     0.041 A 
ATOM     86  F   UNL A   1      46.933  33.342  30.907  1.00  0.00    -0.206 F 
ATOM     87  C   UNL A   1      46.807  36.659  29.469  1.00  0.00     0.022 A 
BRANCH  84  88
ATOM     88  S   UNL A   1      45.549  37.766  27.238  1.00  0.00     0.124 S 
ATOM     89  O   UNL A   1      45.726  38.976  28.035  1.00  0.00    -0.237 OA
ATOM     90  O   UNL A   1      46.578  37.507  26.235  1.00  0.00    -0.237 OA
ATOM     91  O   UNL A   1      44.179  37.505  26.801  1.00  0.00    -0.744 OA
ENDBRANCH  84  88
ENDBRANCH  58  81
ENDBRANCH  32  33
ENDBRANCH  24  27
ENDBRANCH  22  23
ENDBRANCH  21  22
ENDBRANCH   1  21
TORSDOF 18
ENDMDL
MODEL 3
REMARK VINA RESULT:     -10.9      1.870      7.834
REMARK SMILES CC[C@@H](C)c1ccccc1OCC(C)(C)C(=O)NCCCNC(=O)c1ccc(-c2c3nc(c(-c4cc(S(=O)(=O)[O-])ccc4F)c4ccc([nH]4)c(-c4cc(S(=O)(=O)[O-])ccc4F)c4nc(c(-c5cc(S(=O)(=O)[O-])ccc5F)c5ccc2[nH]5)C=C4)C=C3)cc1
REMARK SMILES IDX 19 1 18 2 16 3 17 4 13 6 14 7 15 8 12 9 11 10 10 11 5 12
REMARK SMILES IDX 6 13 7 14 9 15 8 16 3 17 4 18 2 19 1 20 20 21 21 22 22 23
REMARK SMILES IDX 23 24 24 26 25 27 26 28 87 29 27 30 86 31 28 32 29 33 30 34
REMARK SMILES IDX 80 35 31 36 85 37 79 38 81 39 32 40 84 41 78 42 77 43 33 45
REMARK SMILES IDX 65 46 45 47 64 48 46 49 49 50 63 51 82 52 47 53 48 54 62 56
REMARK SMILES IDX 83 57 50 58 34 59 35 60 43 61 36 62 42 63 44 64 41 65 37 66
REMARK SMILES IDX 38 67 39 68 40 69 66 70 67 71 75 72 68 73 74 74 76 75 73 76
REMARK SMILES IDX 69 77 70 78 71 79 72 80 51 81 52 82 60 83 53 84 59 85 61 86
REMARK SMILES IDX 58 87 54 88 55 89 56 90 57 91
REMARK H PARENT 18 5 22 25 81 44 49 55
REMARK Flexibility Score: inf
ROOT
ATOM      1  C   UNL A   1      35.177  22.086  24.390  1.00  0.00     0.117 C 
ENDROOT
BRANCH   1   2
ATOM      2  N   UNL A   1      33.758  21.758  24.498  1.00  0.00    -0.355 N 
ATOM      3  C   UNL A   1      32.814  22.171  25.391  1.00  0.00     0.229 C 
ATOM      4  O   UNL A   1      31.669  21.741  25.244  1.00  0.00    -0.274 OA
ATOM      5  H   UNL A   1      33.428  21.135  23.810  1.00  0.00     0.163 HD
BRANCH   3   6
ATOM      6  C   UNL A   1      33.195  23.130  26.521  1.00  0.00     0.077 C 
ATOM      7  C   UNL A   1      33.795  22.271  27.660  1.00  0.00     0.025 C 
ATOM      8  C   UNL A   1      31.905  23.873  26.953  1.00  0.00     0.025 C 
BRANCH   6   9
ATOM      9  C   UNL A   1      34.207  24.171  25.930  1.00  0.00     0.245 C 
BRANCH   9  10
ATOM     10  O   UNL A   1      33.771  25.537  25.869  1.00  0.00    -0.492 OA
BRANCH  10  11
ATOM     11  C   UNL A   1      33.427  26.021  24.634  1.00  0.00     0.122 A 
ATOM     12  C   UNL A   1      32.819  27.300  24.580  1.00  0.00    -0.003 A 
ATOM     13  C   UNL A   1      32.664  27.866  23.298  1.00  0.00     0.008 A 
ATOM     14  C   UNL A   1      33.030  27.174  22.136  1.00  0.00     0.001 A 
ATOM     15  C   UNL A   1      33.742  25.305  23.469  1.00  0.00     0.047 A 
ATOM     16  C   UNL A   1      33.549  25.887  22.219  1.00  0.00     0.004 A 
BRANCH  12  17
ATOM     17  C   UNL A   1      32.573  28.108  25.868  1.00  0.00     0.019 C 
ATOM     18  C   UNL A   1      31.493  27.498  26.789  1.00  0.00     0.013 C 
BRANCH  17  19
ATOM     19  C   UNL A   1      32.289  29.620  25.714  1.00  0.00     0.005 C 
ATOM     20  C   UNL A   1      32.483  30.359  27.039  1.00  0.00     0.004 C 
ENDBRANCH  17  19
ENDBRANCH  12  17
ENDBRANCH  10  11
ENDBRANCH   9  10
ENDBRANCH   6   9
ENDBRANCH   3   6
ENDBRANCH   1   2
BRANCH   1  21
ATOM     21  C   UNL A   1      36.051  21.012  24.991  1.00  0.00     0.042 C 
BRANCH  21  22
ATOM     22  C   UNL A   1      37.483  21.472  25.156  1.00  0.00     0.118 C 
BRANCH  22  23
ATOM     23  N   UNL A   1      38.354  20.407  25.645  1.00  0.00    -0.352 N 
ATOM     24  C   UNL A   1      39.590  20.508  26.230  1.00  0.00     0.251 C 
ATOM     25  H   UNL A   1      38.007  19.492  25.539  1.00  0.00     0.163 HD
ATOM     26  O   UNL A   1      40.295  19.510  26.359  1.00  0.00    -0.269 OA
BRANCH  24  27
ATOM     27  C   UNL A   1      40.054  21.835  26.669  1.00  0.00     0.039 A 
ATOM     28  C   UNL A   1      41.150  21.930  27.522  1.00  0.00     0.014 A 
ATOM     29  C   UNL A   1      39.436  22.985  26.169  1.00  0.00     0.014 A 
ATOM     30  C   UNL A   1      41.672  23.188  27.815  1.00  0.00     0.010 A 
ATOM     31  C   UNL A   1      40.040  24.218  26.348  1.00  0.00     0.010 A 
ATOM     32  C   UNL A   1      41.150  24.337  27.190  1.00  0.00    -0.014 A 
BRANCH  32  33
ATOM     33  C   UNL A   1      41.741  25.674  27.433  1.00  0.00     0.031 A 
ATOM     34  C   UNL A   1      40.967  26.699  28.218  1.00  0.00     0.074 A 
ATOM     35  C   UNL A   1      42.949  25.969  26.914  1.00  0.00     0.049 A 
ATOM     36  N   UNL A   1      41.294  27.930  28.515  1.00  0.00    -0.248 NA
ATOM     37  C   UNL A   1      39.632  26.303  28.702  1.00  0.00     0.031 C 
ATOM     38  C   UNL A   1      43.755  25.071  26.079  1.00  0.00     0.029 A 
ATOM     39  N   UNL A   1      43.717  27.100  27.013  1.00  0.00    -0.354 N 
ATOM     40  C   UNL A   1      40.211  28.448  29.218  1.00  0.00     0.074 A 
ATOM     41  C   UNL A   1      39.183  27.434  29.223  1.00  0.00     0.031 C 
ATOM     42  C   UNL A   1      44.920  25.669  25.786  1.00  0.00     0.029 A 
ATOM     43  C   UNL A   1      44.928  27.006  26.365  1.00  0.00     0.049 A 
ATOM     44  H   UNL A   1      43.430  27.903  27.503  1.00  0.00     0.167 HD
ATOM     45  C   UNL A   1      40.101  29.647  29.840  1.00  0.00     0.034 A 
ATOM     46  C   UNL A   1      45.927  27.904  26.250  1.00  0.00     0.034 A 
ATOM     47  C   UNL A   1      41.146  30.639  29.837  1.00  0.00     0.049 A 
ATOM     48  C   UNL A   1      45.772  29.236  26.941  1.00  0.00     0.074 A 
ATOM     49  C   UNL A   1      41.163  31.874  30.461  1.00  0.00     0.029 A 
ATOM     50  N   UNL A   1      42.360  30.511  29.174  1.00  0.00    -0.354 N 
ATOM     51  N   UNL A   1      44.764  29.686  27.654  1.00  0.00    -0.248 NA
ATOM     52  C   UNL A   1      46.896  30.172  26.828  1.00  0.00     0.031 C 
ATOM     53  C   UNL A   1      42.358  32.516  30.123  1.00  0.00     0.029 A 
ATOM     54  C   UNL A   1      43.124  31.653  29.355  1.00  0.00     0.049 A 
ATOM     55  H   UNL A   1      42.638  29.723  28.654  1.00  0.00     0.167 HD
ATOM     56  C   UNL A   1      45.147  30.949  28.096  1.00  0.00     0.074 A 
ATOM     57  C   UNL A   1      46.490  31.169  27.599  1.00  0.00     0.031 C 
ATOM     58  C   UNL A   1      44.456  31.853  28.837  1.00  0.00     0.034 A 
BRANCH  45  59
ATOM     59  C   UNL A   1      38.812  29.940  30.566  1.00  0.00     0.023 A 
ATOM     60  C   UNL A   1      37.823  30.768  30.003  1.00  0.00     0.031 A 
ATOM     61  C   UNL A   1      38.567  29.396  31.838  1.00  0.00     0.131 A 
ATOM     62  C   UNL A   1      36.666  31.075  30.734  1.00  0.00     0.055 A 
ATOM     63  C   UNL A   1      37.376  29.640  32.527  1.00  0.00     0.041 A 
ATOM     64  F   UNL A   1      39.485  28.620  32.437  1.00  0.00    -0.206 F 
ATOM     65  C   UNL A   1      36.423  30.494  31.979  1.00  0.00     0.022 A 
BRANCH  62  66
ATOM     66  S   UNL A   1      35.540  32.339  30.083  1.00  0.00     0.124 S 
ATOM     67  O   UNL A   1      36.390  33.527  30.097  1.00  0.00    -0.237 OA
ATOM     68  O   UNL A   1      35.200  31.813  28.766  1.00  0.00    -0.237 OA
ATOM     69  O   UNL A   1      34.445  32.353  31.051  1.00  0.00    -0.744 OA
ENDBRANCH  62  66
ENDBRANCH  45  59
BRANCH  46  70
ATOM     70  C   UNL A   1      47.148  27.593  25.451  1.00  0.00     0.023 A 
ATOM     71  C   UNL A   1      47.242  27.954  24.097  1.00  0.00     0.031 A 
ATOM     72  C   UNL A   1      48.214  26.865  26.011  1.00  0.00     0.131 A 
ATOM     73  C   UNL A   1      48.339  27.526  23.332  1.00  0.00     0.055 A 
ATOM     74  C   UNL A   1      49.335  26.500  25.263  1.00  0.00     0.041 A 
ATOM     75  F   UNL A   1      48.182  26.496  27.302  1.00  0.00    -0.206 F 
ATOM     76  C   UNL A   1      49.392  26.813  23.908  1.00  0.00     0.022 A 
BRANCH  73  77
ATOM     77  S   UNL A   1      48.305  27.802  21.539  1.00  0.00     0.124 S 
ATOM     78  O   UNL A   1      49.360  28.795  21.372  1.00  0.00    -0.237 OA
ATOM     79  O   UNL A   1      48.592  26.467  21.023  1.00  0.00    -0.237 OA
ATOM     80  O   UNL A   1      46.947  28.283  21.296  1.00  0.00    -0.744 OA
ENDBRANCH  73  77
ENDBRANCH  46  70
BRANCH  58  81
ATOM     81  C   UNL A   1      45.167  33.139  29.173  1.00  0.00     0.023 A 
ATOM     82  C   UNL A   1      45.102  34.258  28.325  1.00  0.00     0.031 A 
ATOM     83  C   UNL A   1      45.951  33.237  30.338  1.00  0.00     0.131 A 
ATOM     84  C   UNL A   1      45.873  35.395  28.608  1.00  0.00     0.055 A 
ATOM     85  C   UNL A   1      46.653  34.400  30.655  1.00  0.00     0.041 A 
ATOM     86  F   UNL A   1      46.049  32.199  31.185  1.00  0.00    -0.206 F 
ATOM     87  C   UNL A   1      46.633  35.480  29.778  1.00  0.00     0.022 A 
BRANCH  84  88
ATOM     88  S   UNL A   1      45.969  36.707  27.361  1.00  0.00     0.124 S 
ATOM     89  O   UNL A   1      44.636  37.297  27.441  1.00  0.00    -0.237 OA
ATOM     90  O   UNL A   1      47.062  37.534  27.862  1.00  0.00    -0.237 OA
ATOM     91  O   UNL A   1      46.254  35.984  26.124  1.00  0.00    -0.744 OA
ENDBRANCH  84  88
ENDBRANCH  58  81
ENDBRANCH  32  33
ENDBRANCH  24  27
ENDBRANCH  22  23
ENDBRANCH  21  22
ENDBRANCH   1  21
TORSDOF 18
ENDMDL
