MODEL 1
REMARK VINA RESULT:     -12.4      0.000      0.000
REMARK SMILES Cc1[nH]cnc1C[NH+]1CCC(Oc2cccc(F)c2)(C(=O)NCCCNC(=O)c2ccc(-c3c4nc(c(-c5cc(S(=O)(=O)[O-])ccc5F)c5ccc([nH]5)c(-c5cc(S(=O)(=O)[O-])ccc5F)c5nc(c(-c6cc(S(=O)(=O)[O-])ccc6F)c6ccc3[nH]6)C=C5)C=C4)cc2)CC1
REMARK SMILES IDX 24 1 23 2 22 3 20 4 21 5 11 7 8 8 9 9 93 10 10 12 92 13 7 14
REMARK SMILES IDX 6 15 1 16 2 17 3 18 4 19 5 21 12 22 13 23 14 24 19 25 15 26
REMARK SMILES IDX 17 27 16 28 18 29 25 30 26 31 27 32 28 34 29 35 30 36 91 37
REMARK SMILES IDX 31 38 90 39 32 40 33 41 34 42 84 43 35 44 89 45 83 46 85 47
REMARK SMILES IDX 36 48 88 49 82 50 81 51 37 53 69 54 49 55 68 56 50 57 53 58
REMARK SMILES IDX 67 59 86 60 51 61 52 62 66 64 87 65 54 66 38 67 39 68 47 69
REMARK SMILES IDX 40 70 46 71 48 72 45 73 41 74 42 75 43 76 44 77 70 78 71 79
REMARK SMILES IDX 79 80 72 81 78 82 80 83 77 84 73 85 74 86 75 87 76 88 55 89
REMARK SMILES IDX 56 90 64 91 57 92 63 93 65 94 62 95 58 96 59 97 60 98 61 99
REMARK H PARENT 22 6 8 11 3 20 26 33 85 52 53 63
REMARK Flexibility Score: inf
ROOT
ATOM      1  C   UNL A   1      31.558  31.931  26.459  1.00  0.00     0.042 C 
ENDROOT
BRANCH   1   2
ATOM      2  C   UNL A   1      31.609  30.445  26.121  1.00  0.00     0.118 C 
BRANCH   2   3
ATOM      3  N   UNL A   1      32.767  30.104  25.314  1.00  0.00    -0.353 N 
ATOM      4  C   UNL A   1      32.883  29.316  24.203  1.00  0.00     0.264 C 
ATOM      5  O   UNL A   1      33.977  29.365  23.630  1.00  0.00    -0.270 OA
ATOM      6  H   UNL A   1      33.610  30.510  25.617  1.00  0.00     0.163 HD
BRANCH   4   7
ATOM      7  C   UNL A   1      31.706  28.432  23.693  1.00  0.00     0.197 C 
ATOM      8  N   UNL A   1      31.964  25.814  24.987  1.00  0.00    -0.330 N 
ATOM      9  C   UNL A   1      31.560  26.981  25.772  1.00  0.00     0.267 C 
ATOM     10  C   UNL A   1      32.903  26.180  23.919  1.00  0.00     0.267 C 
ATOM     11  H   UNL A   1      31.121  25.461  24.535  1.00  0.00     0.348 HD
ATOM     12  C   UNL A   1      30.825  27.961  24.863  1.00  0.00     0.120 C 
ATOM     13  C   UNL A   1      32.270  27.194  22.958  1.00  0.00     0.120 C 
BRANCH   8  14
ATOM     14  C   UNL A   1      32.463  24.703  25.825  1.00  0.00     0.321 C 
BRANCH  14  15
ATOM     15  C   UNL A   1      31.428  23.673  26.178  1.00  0.00     0.115 A 
ATOM     16  C   UNL A   1      32.052  21.550  24.757  1.00  0.00     0.066 C 
ATOM     17  C   UNL A   1      31.276  22.379  25.706  1.00  0.00     0.040 A 
ATOM     18  N   UNL A   1      30.142  21.908  26.324  1.00  0.00    -0.348 N 
ATOM     19  C   UNL A   1      29.680  22.889  27.150  1.00  0.00     0.197 A 
ATOM     20  H   UNL A   1      29.735  21.022  26.191  1.00  0.00     0.167 HD
ATOM     21  N   UNL A   1      30.449  23.950  27.112  1.00  0.00    -0.236 NA
ENDBRANCH  14  15
ENDBRANCH   8  14
BRANCH   7  22
ATOM     22  O   UNL A   1      31.056  29.355  22.776  1.00  0.00    -0.477 OA
BRANCH  22  23
ATOM     23  C   UNL A   1      29.802  29.791  23.075  1.00  0.00     0.123 A 
ATOM     24  C   UNL A   1      29.550  31.128  23.381  1.00  0.00     0.046 A 
ATOM     25  C   UNL A   1      28.745  28.900  22.912  1.00  0.00     0.085 A 
ATOM     26  C   UNL A   1      28.244  31.555  23.629  1.00  0.00     0.007 A 
ATOM     27  C   UNL A   1      27.447  29.338  23.141  1.00  0.00     0.126 A 
ATOM     28  C   UNL A   1      27.188  30.653  23.514  1.00  0.00     0.039 A 
ATOM     29  F   UNL A   1      26.426  28.484  22.991  1.00  0.00    -0.207 F 
ENDBRANCH  22  23
ENDBRANCH   7  22
ENDBRANCH   4   7
ENDBRANCH   2   3
ENDBRANCH   1   2
BRANCH   1  30
ATOM     30  C   UNL A   1      32.778  32.441  27.216  1.00  0.00     0.118 C 
BRANCH  30  31
ATOM     31  N   UNL A   1      32.634  33.824  27.646  1.00  0.00    -0.352 N 
ATOM     32  C   UNL A   1      33.268  34.505  28.652  1.00  0.00     0.251 C 
ATOM     33  H   UNL A   1      31.980  34.352  27.134  1.00  0.00     0.163 HD
ATOM     34  O   UNL A   1      32.847  35.618  28.979  1.00  0.00    -0.269 OA
BRANCH  32  35
ATOM     35  C   UNL A   1      34.427  33.916  29.359  1.00  0.00     0.039 A 
ATOM     36  C   UNL A   1      34.194  33.026  30.412  1.00  0.00     0.014 A 
ATOM     37  C   UNL A   1      35.738  34.254  29.013  1.00  0.00     0.014 A 
ATOM     38  C   UNL A   1      35.272  32.424  31.066  1.00  0.00     0.010 A 
ATOM     39  C   UNL A   1      36.809  33.593  29.611  1.00  0.00     0.010 A 
ATOM     40  C   UNL A   1      36.588  32.672  30.645  1.00  0.00    -0.014 A 
BRANCH  40  41
ATOM     41  C   UNL A   1      37.743  31.977  31.272  1.00  0.00     0.031 A 
ATOM     42  C   UNL A   1      38.259  32.423  32.614  1.00  0.00     0.074 A 
ATOM     43  C   UNL A   1      38.356  30.974  30.612  1.00  0.00     0.049 A 
ATOM     44  N   UNL A   1      39.304  32.000  33.278  1.00  0.00    -0.248 NA
ATOM     45  C   UNL A   1      37.517  33.501  33.286  1.00  0.00     0.031 C 
ATOM     46  C   UNL A   1      37.964  30.464  29.296  1.00  0.00     0.029 A 
ATOM     47  N   UNL A   1      39.439  30.202  30.955  1.00  0.00    -0.354 N 
ATOM     48  C   UNL A   1      39.352  32.763  34.438  1.00  0.00     0.074 A 
ATOM     49  C   UNL A   1      38.260  33.711  34.364  1.00  0.00     0.031 C 
ATOM     50  C   UNL A   1      38.768  29.443  28.962  1.00  0.00     0.029 A 
ATOM     51  C   UNL A   1      39.766  29.257  30.010  1.00  0.00     0.049 A 
ATOM     52  H   UNL A   1      39.935  30.314  31.797  1.00  0.00     0.167 HD
ATOM     53  C   UNL A   1      40.212  32.667  35.480  1.00  0.00     0.034 A 
ATOM     54  C   UNL A   1      40.763  28.350  29.982  1.00  0.00     0.034 A 
ATOM     55  C   UNL A   1      41.279  31.701  35.557  1.00  0.00     0.049 A 
ATOM     56  C   UNL A   1      41.727  28.284  31.136  1.00  0.00     0.074 A 
ATOM     57  C   UNL A   1      42.174  31.493  36.592  1.00  0.00     0.029 A 
ATOM     58  N   UNL A   1      41.593  30.781  34.567  1.00  0.00    -0.354 N 
ATOM     59  N   UNL A   1      41.756  29.016  32.225  1.00  0.00    -0.248 NA
ATOM     60  C   UNL A   1      42.793  27.276  31.058  1.00  0.00     0.031 C 
ATOM     61  C   UNL A   1      43.068  30.492  36.203  1.00  0.00     0.029 A 
ATOM     62  C   UNL A   1      42.688  30.025  34.955  1.00  0.00     0.049 A 
ATOM     63  H   UNL A   1      41.112  30.681  33.715  1.00  0.00     0.167 HD
ATOM     64  C   UNL A   1      42.829  28.542  32.972  1.00  0.00     0.074 A 
ATOM     65  C   UNL A   1      43.421  27.460  32.212  1.00  0.00     0.031 C 
ATOM     66  C   UNL A   1      43.278  28.959  34.181  1.00  0.00     0.034 A 
BRANCH  53  67
ATOM     67  C   UNL A   1      40.046  33.638  36.620  1.00  0.00     0.023 A 
ATOM     68  C   UNL A   1      39.412  33.264  37.816  1.00  0.00     0.031 A 
ATOM     69  C   UNL A   1      40.558  34.944  36.520  1.00  0.00     0.131 A 
ATOM     70  C   UNL A   1      39.268  34.200  38.851  1.00  0.00     0.055 A 
ATOM     71  C   UNL A   1      40.469  35.850  37.578  1.00  0.00     0.041 A 
ATOM     72  F   UNL A   1      41.156  35.358  35.392  1.00  0.00    -0.206 F 
ATOM     73  C   UNL A   1      39.815  35.482  38.751  1.00  0.00     0.022 A 
BRANCH  70  74
ATOM     74  S   UNL A   1      38.288  33.744  40.307  1.00  0.00     0.124 S 
ATOM     75  O   UNL A   1      38.081  35.044  40.940  1.00  0.00    -0.237 OA
ATOM     76  O   UNL A   1      37.107  33.127  39.715  1.00  0.00    -0.237 OA
ATOM     77  O   UNL A   1      39.166  32.833  41.039  1.00  0.00    -0.744 OA
ENDBRANCH  70  74
ENDBRANCH  53  67
BRANCH  54  78
ATOM     78  C   UNL A   1      40.902  27.436  28.815  1.00  0.00     0.023 A 
ATOM     79  C   UNL A   1      41.875  27.666  27.830  1.00  0.00     0.031 A 
ATOM     80  C   UNL A   1      40.071  26.310  28.676  1.00  0.00     0.131 A 
ATOM     81  C   UNL A   1      41.981  26.793  26.737  1.00  0.00     0.055 A 
ATOM     82  C   UNL A   1      40.206  25.423  27.607  1.00  0.00     0.041 A 
ATOM     83  F   UNL A   1      39.132  26.042  29.598  1.00  0.00    -0.206 F 
ATOM     84  C   UNL A   1      41.162  25.665  26.626  1.00  0.00     0.022 A 
BRANCH  81  85
ATOM     85  S   UNL A   1      43.195  27.161  25.441  1.00  0.00     0.124 S 
ATOM     86  O   UNL A   1      44.249  27.821  26.202  1.00  0.00    -0.237 OA
ATOM     87  O   UNL A   1      43.508  25.831  24.929  1.00  0.00    -0.237 OA
ATOM     88  O   UNL A   1      42.457  28.021  24.520  1.00  0.00    -0.744 OA
ENDBRANCH  81  85
ENDBRANCH  54  78
BRANCH  66  89
ATOM     89  C   UNL A   1      44.451  28.230  34.779  1.00  0.00     0.023 A 
ATOM     90  C   UNL A   1      44.277  27.094  35.585  1.00  0.00     0.031 A 
ATOM     91  C   UNL A   1      45.763  28.650  34.490  1.00  0.00     0.131 A 
ATOM     92  C   UNL A   1      45.400  26.425  36.095  1.00  0.00     0.055 A 
ATOM     93  C   UNL A   1      46.875  27.954  34.962  1.00  0.00     0.041 A 
ATOM     94  F   UNL A   1      45.980  29.729  33.721  1.00  0.00    -0.206 F 
ATOM     95  C   UNL A   1      46.697  26.837  35.774  1.00  0.00     0.022 A 
BRANCH  92  96
ATOM     96  S   UNL A   1      45.145  25.019  37.212  1.00  0.00     0.124 S 
ATOM     97  O   UNL A   1      43.915  25.399  37.899  1.00  0.00    -0.237 OA
ATOM     98  O   UNL A   1      45.036  23.896  36.287  1.00  0.00    -0.237 OA
ATOM     99  O   UNL A   1      46.346  25.020  38.045  1.00  0.00    -0.744 OA
ENDBRANCH  92  96
ENDBRANCH  66  89
ENDBRANCH  40  41
ENDBRANCH  32  35
ENDBRANCH  30  31
ENDBRANCH   1  30
TORSDOF 17
ENDMDL
MODEL 2
REMARK VINA RESULT:     -12.3      1.273      7.486
REMARK SMILES Cc1[nH]cnc1C[NH+]1CCC(Oc2cccc(F)c2)(C(=O)NCCCNC(=O)c2ccc(-c3c4nc(c(-c5cc(S(=O)(=O)[O-])ccc5F)c5ccc([nH]5)c(-c5cc(S(=O)(=O)[O-])ccc5F)c5nc(c(-c6cc(S(=O)(=O)[O-])ccc6F)c6ccc3[nH]6)C=C5)C=C4)cc2)CC1
REMARK SMILES IDX 24 1 23 2 22 3 20 4 21 5 11 7 8 8 9 9 93 10 10 12 92 13 7 14
REMARK SMILES IDX 6 15 1 16 2 17 3 18 4 19 5 21 12 22 13 23 14 24 19 25 15 26
REMARK SMILES IDX 17 27 16 28 18 29 25 30 26 31 27 32 28 34 29 35 30 36 91 37
REMARK SMILES IDX 31 38 90 39 32 40 33 41 34 42 84 43 35 44 89 45 83 46 85 47
REMARK SMILES IDX 36 48 88 49 82 50 81 51 37 53 69 54 49 55 68 56 50 57 53 58
REMARK SMILES IDX 67 59 86 60 51 61 52 62 66 64 87 65 54 66 38 67 39 68 47 69
REMARK SMILES IDX 40 70 46 71 48 72 45 73 41 74 42 75 43 76 44 77 70 78 71 79
REMARK SMILES IDX 79 80 72 81 78 82 80 83 77 84 73 85 74 86 75 87 76 88 55 89
REMARK SMILES IDX 56 90 64 91 57 92 63 93 65 94 62 95 58 96 59 97 60 98 61 99
REMARK H PARENT 22 6 8 11 3 20 26 33 85 52 53 63
REMARK Flexibility Score: inf
ROOT
ATOM      1  C   UNL A   1      31.650  31.634  26.399  1.00  0.00     0.042 C 
ENDROOT
BRANCH   1   2
ATOM      2  C   UNL A   1      31.794  30.163  26.023  1.00  0.00     0.118 C 
BRANCH   2   3
ATOM      3  N   UNL A   1      32.861  29.943  25.062  1.00  0.00    -0.353 N 
ATOM      4  C   UNL A   1      32.905  29.171  23.934  1.00  0.00     0.264 C 
ATOM      5  O   UNL A   1      33.900  29.333  23.221  1.00  0.00    -0.270 OA
ATOM      6  H   UNL A   1      33.692  30.433  25.255  1.00  0.00     0.163 HD
BRANCH   4   7
ATOM      7  C   UNL A   1      31.765  28.172  23.575  1.00  0.00     0.197 C 
ATOM      8  N   UNL A   1      32.256  25.715  25.097  1.00  0.00    -0.330 N 
ATOM      9  C   UNL A   1      31.814  26.926  25.788  1.00  0.00     0.267 C 
ATOM     10  C   UNL A   1      33.117  26.030  23.950  1.00  0.00     0.267 C 
ATOM     11  H   UNL A   1      31.417  25.268  24.726  1.00  0.00     0.348 HD
ATOM     12  C   UNL A   1      30.974  27.766  24.831  1.00  0.00     0.120 C 
ATOM     13  C   UNL A   1      32.373  26.905  22.931  1.00  0.00     0.120 C 
BRANCH   8  14
ATOM     14  C   UNL A   1      32.867  24.724  26.008  1.00  0.00     0.321 C 
BRANCH  14  15
ATOM     15  C   UNL A   1      32.462  23.301  25.745  1.00  0.00     0.115 A 
ATOM     16  C   UNL A   1      30.081  23.048  26.836  1.00  0.00     0.066 C 
ATOM     17  C   UNL A   1      31.305  22.631  26.115  1.00  0.00     0.040 A 
ATOM     18  N   UNL A   1      31.481  21.346  25.663  1.00  0.00    -0.348 N 
ATOM     19  C   UNL A   1      32.683  21.290  25.023  1.00  0.00     0.197 A 
ATOM     20  H   UNL A   1      30.852  20.598  25.782  1.00  0.00     0.167 HD
ATOM     21  N   UNL A   1      33.282  22.455  25.025  1.00  0.00    -0.236 NA
ENDBRANCH  14  15
ENDBRANCH   8  14
BRANCH   7  22
ATOM     22  O   UNL A   1      31.012  28.959  22.612  1.00  0.00    -0.477 OA
BRANCH  22  23
ATOM     23  C   UNL A   1      29.807  29.467  22.988  1.00  0.00     0.123 A 
ATOM     24  C   UNL A   1      29.643  30.825  23.261  1.00  0.00     0.046 A 
ATOM     25  C   UNL A   1      28.700  28.625  22.939  1.00  0.00     0.085 A 
ATOM     26  C   UNL A   1      28.382  31.325  23.591  1.00  0.00     0.007 A 
ATOM     27  C   UNL A   1      27.446  29.134  23.250  1.00  0.00     0.126 A 
ATOM     28  C   UNL A   1      27.279  30.472  23.590  1.00  0.00     0.039 A 
ATOM     29  F   UNL A   1      26.378  28.328  23.210  1.00  0.00    -0.207 F 
ENDBRANCH  22  23
ENDBRANCH   7  22
ENDBRANCH   4   7
ENDBRANCH   2   3
ENDBRANCH   1   2
BRANCH   1  30
ATOM     30  C   UNL A   1      32.794  32.177  27.245  1.00  0.00     0.118 C 
BRANCH  30  31
ATOM     31  N   UNL A   1      32.637  33.589  27.561  1.00  0.00    -0.352 N 
ATOM     32  C   UNL A   1      33.262  34.355  28.510  1.00  0.00     0.251 C 
ATOM     33  H   UNL A   1      31.980  34.068  27.007  1.00  0.00     0.163 HD
ATOM     34  O   UNL A   1      32.831  35.487  28.745  1.00  0.00    -0.269 OA
BRANCH  32  35
ATOM     35  C   UNL A   1      34.423  33.835  29.266  1.00  0.00     0.039 A 
ATOM     36  C   UNL A   1      34.203  32.904  30.285  1.00  0.00     0.014 A 
ATOM     37  C   UNL A   1      35.722  34.277  28.997  1.00  0.00     0.014 A 
ATOM     38  C   UNL A   1      35.288  32.367  30.983  1.00  0.00     0.010 A 
ATOM     39  C   UNL A   1      36.807  33.683  29.638  1.00  0.00     0.010 A 
ATOM     40  C   UNL A   1      36.603  32.722  30.639  1.00  0.00    -0.014 A 
BRANCH  40  41
ATOM     41  C   UNL A   1      37.772  32.098  31.312  1.00  0.00     0.031 A 
ATOM     42  C   UNL A   1      38.536  30.992  30.633  1.00  0.00     0.074 A 
ATOM     43  C   UNL A   1      38.117  32.495  32.553  1.00  0.00     0.049 A 
ATOM     44  N   UNL A   1      39.524  30.269  31.095  1.00  0.00    -0.248 NA
ATOM     45  C   UNL A   1      38.119  30.637  29.267  1.00  0.00     0.031 C 
ATOM     46  C   UNL A   1      37.442  33.541  33.324  1.00  0.00     0.029 A 
ATOM     47  N   UNL A   1      39.121  32.067  33.386  1.00  0.00    -0.354 N 
ATOM     48  C   UNL A   1      39.841  29.370  30.083  1.00  0.00     0.074 A 
ATOM     49  C   UNL A   1      38.906  29.604  29.004  1.00  0.00     0.031 C 
ATOM     50  C   UNL A   1      38.073  33.699  34.498  1.00  0.00     0.029 A 
ATOM     51  C   UNL A   1      39.163  32.733  34.590  1.00  0.00     0.049 A 
ATOM     52  H   UNL A   1      39.752  31.351  33.145  1.00  0.00     0.167 HD
ATOM     53  C   UNL A   1      40.835  28.450  30.050  1.00  0.00     0.034 A 
ATOM     54  C   UNL A   1      39.976  32.578  35.653  1.00  0.00     0.034 A 
ATOM     55  C   UNL A   1      41.778  28.244  31.120  1.00  0.00     0.049 A 
ATOM     56  C   UNL A   1      41.053  31.526  35.605  1.00  0.00     0.074 A 
ATOM     57  C   UNL A   1      42.850  27.369  31.160  1.00  0.00     0.029 A 
ATOM     58  N   UNL A   1      41.768  28.919  32.331  1.00  0.00    -0.354 N 
ATOM     59  N   UNL A   1      41.336  30.684  34.640  1.00  0.00    -0.248 NA
ATOM     60  C   UNL A   1      41.915  31.400  36.788  1.00  0.00     0.031 C 
ATOM     61  C   UNL A   1      43.449  27.470  32.419  1.00  0.00     0.029 A 
ATOM     62  C   UNL A   1      42.796  28.458  33.139  1.00  0.00     0.049 A 
ATOM     63  H   UNL A   1      41.125  29.620  32.582  1.00  0.00     0.167 HD
ATOM     64  C   UNL A   1      42.424  29.943  35.090  1.00  0.00     0.074 A 
ATOM     65  C   UNL A   1      42.747  30.438  36.413  1.00  0.00     0.031 C 
ATOM     66  C   UNL A   1      43.098  28.949  34.461  1.00  0.00     0.034 A 
BRANCH  53  67
ATOM     67  C   UNL A   1      40.950  27.586  28.821  1.00  0.00     0.023 A 
ATOM     68  C   UNL A   1      41.932  27.823  27.845  1.00  0.00     0.031 A 
ATOM     69  C   UNL A   1      40.087  26.490  28.641  1.00  0.00     0.131 A 
ATOM     70  C   UNL A   1      42.001  27.002  26.710  1.00  0.00     0.055 A 
ATOM     71  C   UNL A   1      40.203  25.638  27.542  1.00  0.00     0.041 A 
ATOM     72  F   UNL A   1      39.119  26.230  29.533  1.00  0.00    -0.206 F 
ATOM     73  C   UNL A   1      41.161  25.896  26.564  1.00  0.00     0.022 A 
BRANCH  70  74
ATOM     74  S   UNL A   1      43.158  27.443  25.386  1.00  0.00     0.124 S 
ATOM     75  O   UNL A   1      43.532  26.126  24.873  1.00  0.00    -0.237 OA
ATOM     76  O   UNL A   1      42.335  28.261  24.504  1.00  0.00    -0.237 OA
ATOM     77  O   UNL A   1      44.223  28.158  26.086  1.00  0.00    -0.744 OA
ENDBRANCH  70  74
ENDBRANCH  53  67
BRANCH  54  78
ATOM     78  C   UNL A   1      39.798  33.436  36.856  1.00  0.00     0.023 A 
ATOM     79  C   UNL A   1      40.633  34.541  37.084  1.00  0.00     0.031 A 
ATOM     80  C   UNL A   1      38.780  33.171  37.788  1.00  0.00     0.131 A 
ATOM     81  C   UNL A   1      40.447  35.330  38.230  1.00  0.00     0.055 A 
ATOM     82  C   UNL A   1      38.575  33.981  38.906  1.00  0.00     0.041 A 
ATOM     83  F   UNL A   1      37.949  32.131  37.607  1.00  0.00    -0.206 F 
ATOM     84  C   UNL A   1      39.415  35.065  39.135  1.00  0.00     0.022 A 
BRANCH  81  85
ATOM     85  S   UNL A   1      41.592  36.703  38.538  1.00  0.00     0.124 S 
ATOM     86  O   UNL A   1      40.699  37.714  39.092  1.00  0.00    -0.237 OA
ATOM     87  O   UNL A   1      42.542  36.104  39.470  1.00  0.00    -0.237 OA
ATOM     88  O   UNL A   1      42.128  37.001  37.212  1.00  0.00    -0.744 OA
ENDBRANCH  81  85
ENDBRANCH  54  78
BRANCH  66  89
ATOM     89  C   UNL A   1      44.274  28.342  35.178  1.00  0.00     0.023 A 
ATOM     90  C   UNL A   1      44.138  27.192  35.970  1.00  0.00     0.031 A 
ATOM     91  C   UNL A   1      45.558  28.895  35.019  1.00  0.00     0.131 A 
ATOM     92  C   UNL A   1      45.266  26.639  36.596  1.00  0.00     0.055 A 
ATOM     93  C   UNL A   1      46.683  28.316  35.605  1.00  0.00     0.041 A 
ATOM     94  F   UNL A   1      45.740  29.993  34.268  1.00  0.00    -0.206 F 
ATOM     95  C   UNL A   1      46.539  27.184  36.403  1.00  0.00     0.022 A 
BRANCH  92  96
ATOM     96  S   UNL A   1      45.045  25.211  37.691  1.00  0.00     0.124 S 
ATOM     97  O   UNL A   1      43.932  25.643  38.529  1.00  0.00    -0.237 OA
ATOM     98  O   UNL A   1      44.753  24.134  36.751  1.00  0.00    -0.237 OA
ATOM     99  O   UNL A   1      46.332  25.101  38.376  1.00  0.00    -0.744 OA
ENDBRANCH  92  96
ENDBRANCH  66  89
ENDBRANCH  40  41
ENDBRANCH  32  35
ENDBRANCH  30  31
ENDBRANCH   1  30
TORSDOF 17
ENDMDL
MODEL 3
REMARK VINA RESULT:     -12.2      1.231      7.479
REMARK SMILES Cc1[nH]cnc1C[NH+]1CCC(Oc2cccc(F)c2)(C(=O)NCCCNC(=O)c2ccc(-c3c4nc(c(-c5cc(S(=O)(=O)[O-])ccc5F)c5ccc([nH]5)c(-c5cc(S(=O)(=O)[O-])ccc5F)c5nc(c(-c6cc(S(=O)(=O)[O-])ccc6F)c6ccc3[nH]6)C=C5)C=C4)cc2)CC1
REMARK SMILES IDX 24 1 23 2 22 3 20 4 21 5 11 7 8 8 9 9 93 10 10 12 92 13 7 14
REMARK SMILES IDX 6 15 1 16 2 17 3 18 4 19 5 21 12 22 13 23 14 24 19 25 15 26
REMARK SMILES IDX 17 27 16 28 18 29 25 30 26 31 27 32 28 34 29 35 30 36 91 37
REMARK SMILES IDX 31 38 90 39 32 40 33 41 34 42 84 43 35 44 89 45 83 46 85 47
REMARK SMILES IDX 36 48 88 49 82 50 81 51 37 53 69 54 49 55 68 56 50 57 53 58
REMARK SMILES IDX 67 59 86 60 51 61 52 62 66 64 87 65 54 66 38 67 39 68 47 69
REMARK SMILES IDX 40 70 46 71 48 72 45 73 41 74 42 75 43 76 44 77 70 78 71 79
REMARK SMILES IDX 79 80 72 81 78 82 80 83 77 84 73 85 74 86 75 87 76 88 55 89
REMARK SMILES IDX 56 90 64 91 57 92 63 93 65 94 62 95 58 96 59 97 60 98 61 99
REMARK H PARENT 22 6 8 11 3 20 26 33 85 52 53 63
REMARK Flexibility Score: inf
ROOT
ATOM      1  C   UNL A   1      31.451  31.501  26.336  1.00  0.00     0.042 C 
ENDROOT
BRANCH   1   2
ATOM      2  C   UNL A   1      31.612  30.051  25.891  1.00  0.00     0.118 C 
BRANCH   2   3
ATOM      3  N   UNL A   1      32.722  29.879  24.971  1.00  0.00    -0.353 N 
ATOM      4  C   UNL A   1      32.805  29.203  23.785  1.00  0.00     0.264 C 
ATOM      5  O   UNL A   1      33.841  29.392  23.139  1.00  0.00    -0.270 OA
ATOM      6  H   UNL A   1      33.555  30.324  25.247  1.00  0.00     0.163 HD
BRANCH   4   7
ATOM      7  C   UNL A   1      31.659  28.273  23.284  1.00  0.00     0.197 C 
ATOM      8  N   UNL A   1      32.081  25.643  24.508  1.00  0.00    -0.330 N 
ATOM      9  C   UNL A   1      31.641  26.770  25.331  1.00  0.00     0.267 C 
ATOM     10  C   UNL A   1      32.972  26.079  23.426  1.00  0.00     0.267 C 
ATOM     11  H   UNL A   1      31.244  25.259  24.070  1.00  0.00     0.348 HD
ATOM     12  C   UNL A   1      30.834  27.733  24.465  1.00  0.00     0.120 C 
ATOM     13  C   UNL A   1      32.264  27.083  22.505  1.00  0.00     0.120 C 
BRANCH   8  14
ATOM     14  C   UNL A   1      32.656  24.540  25.306  1.00  0.00     0.321 C 
BRANCH  14  15
ATOM     15  C   UNL A   1      31.643  23.594  25.887  1.00  0.00     0.115 A 
ATOM     16  C   UNL A   1      32.077  21.294  24.688  1.00  0.00     0.066 C 
ATOM     17  C   UNL A   1      31.419  22.257  25.599  1.00  0.00     0.040 A 
ATOM     18  N   UNL A   1      30.346  21.903  26.380  1.00  0.00    -0.348 N 
ATOM     19  C   UNL A   1      29.990  22.991  27.119  1.00  0.00     0.197 A 
ATOM     20  H   UNL A   1      29.910  21.020  26.401  1.00  0.00     0.167 HD
ATOM     21  N   UNL A   1      30.771  24.014  26.872  1.00  0.00    -0.236 NA
ENDBRANCH  14  15
ENDBRANCH   8  14
BRANCH   7  22
ATOM     22  O   UNL A   1      30.940  29.183  22.407  1.00  0.00    -0.477 OA
BRANCH  22  23
ATOM     23  C   UNL A   1      29.749  29.687  22.830  1.00  0.00     0.123 A 
ATOM     24  C   UNL A   1      29.596  31.040  23.132  1.00  0.00     0.046 A 
ATOM     25  C   UNL A   1      28.639  28.848  22.801  1.00  0.00     0.085 A 
ATOM     26  C   UNL A   1      28.348  31.536  23.510  1.00  0.00     0.007 A 
ATOM     27  C   UNL A   1      27.396  29.354  23.160  1.00  0.00     0.126 A 
ATOM     28  C   UNL A   1      27.243  30.686  23.529  1.00  0.00     0.039 A 
ATOM     29  F   UNL A   1      26.325  28.550  23.140  1.00  0.00    -0.207 F 
ENDBRANCH  22  23
ENDBRANCH   7  22
ENDBRANCH   4   7
ENDBRANCH   2   3
ENDBRANCH   1   2
BRANCH   1  30
ATOM     30  C   UNL A   1      32.707  32.109  26.946  1.00  0.00     0.118 C 
BRANCH  30  31
ATOM     31  N   UNL A   1      32.532  33.508  27.310  1.00  0.00    -0.352 N 
ATOM     32  C   UNL A   1      33.146  34.248  28.288  1.00  0.00     0.251 C 
ATOM     33  H   UNL A   1      31.871  33.998  26.772  1.00  0.00     0.163 HD
ATOM     34  O   UNL A   1      32.701  35.365  28.560  1.00  0.00    -0.269 OA
BRANCH  32  35
ATOM     35  C   UNL A   1      34.312  33.716  29.027  1.00  0.00     0.039 A 
ATOM     36  C   UNL A   1      34.110  32.698  29.964  1.00  0.00     0.014 A 
ATOM     37  C   UNL A   1      35.596  34.230  28.826  1.00  0.00     0.014 A 
ATOM     38  C   UNL A   1      35.201  32.150  30.643  1.00  0.00     0.010 A 
ATOM     39  C   UNL A   1      36.691  33.629  29.444  1.00  0.00     0.010 A 
ATOM     40  C   UNL A   1      36.506  32.583  30.360  1.00  0.00    -0.014 A 
BRANCH  40  41
ATOM     41  C   UNL A   1      37.686  31.955  31.010  1.00  0.00     0.031 A 
ATOM     42  C   UNL A   1      38.503  30.931  30.268  1.00  0.00     0.074 A 
ATOM     43  C   UNL A   1      37.994  32.271  32.283  1.00  0.00     0.049 A 
ATOM     44  N   UNL A   1      39.510  30.213  30.696  1.00  0.00    -0.248 NA
ATOM     45  C   UNL A   1      38.125  30.663  28.872  1.00  0.00     0.031 C 
ATOM     46  C   UNL A   1      37.266  33.233  33.115  1.00  0.00     0.029 A 
ATOM     47  N   UNL A   1      38.999  31.821  33.103  1.00  0.00    -0.354 N 
ATOM     48  C   UNL A   1      39.879  29.403  29.628  1.00  0.00     0.074 A 
ATOM     49  C   UNL A   1      38.956  29.681  28.549  1.00  0.00     0.031 C 
ATOM     50  C   UNL A   1      37.869  33.327  34.310  1.00  0.00     0.029 A 
ATOM     51  C   UNL A   1      38.993  32.397  34.353  1.00  0.00     0.049 A 
ATOM     52  H   UNL A   1      39.660  31.148  32.825  1.00  0.00     0.167 HD
ATOM     53  C   UNL A   1      40.908  28.525  29.548  1.00  0.00     0.034 A 
ATOM     54  C   UNL A   1      39.793  32.193  35.419  1.00  0.00     0.034 A 
ATOM     55  C   UNL A   1      41.839  28.275  30.619  1.00  0.00     0.049 A 
ATOM     56  C   UNL A   1      40.909  31.188  35.317  1.00  0.00     0.074 A 
ATOM     57  C   UNL A   1      42.942  27.439  30.618  1.00  0.00     0.029 A 
ATOM     58  N   UNL A   1      41.781  28.858  31.877  1.00  0.00    -0.354 N 
ATOM     59  N   UNL A   1      41.242  30.431  34.299  1.00  0.00    -0.248 NA
ATOM     60  C   UNL A   1      41.754  31.007  36.505  1.00  0.00     0.031 C 
ATOM     61  C   UNL A   1      43.514  27.468  31.893  1.00  0.00     0.029 A 
ATOM     62  C   UNL A   1      42.811  28.377  32.669  1.00  0.00     0.049 A 
ATOM     63  H   UNL A   1      41.108  29.515  32.164  1.00  0.00     0.167 HD
ATOM     64  C   UNL A   1      42.348  29.699  34.716  1.00  0.00     0.074 A 
ATOM     65  C   UNL A   1      42.629  30.106  36.077  1.00  0.00     0.031 C 
ATOM     66  C   UNL A   1      43.071  28.779  34.030  1.00  0.00     0.034 A 
BRANCH  53  67
ATOM     67  C   UNL A   1      41.078  27.758  28.262  1.00  0.00     0.023 A 
ATOM     68  C   UNL A   1      40.680  26.416  28.149  1.00  0.00     0.031 A 
ATOM     69  C   UNL A   1      41.615  28.389  27.126  1.00  0.00     0.131 A 
ATOM     70  C   UNL A   1      40.864  25.734  26.937  1.00  0.00     0.055 A 
ATOM     71  C   UNL A   1      41.734  27.724  25.905  1.00  0.00     0.041 A 
ATOM     72  F   UNL A   1      42.028  29.665  27.185  1.00  0.00    -0.206 F 
ATOM     73  C   UNL A   1      41.363  26.385  25.807  1.00  0.00     0.022 A 
BRANCH  70  74
ATOM     74  S   UNL A   1      40.508  23.957  26.877  1.00  0.00     0.124 S 
ATOM     75  O   UNL A   1      41.475  23.499  25.881  1.00  0.00    -0.237 OA
ATOM     76  O   UNL A   1      40.759  23.536  28.250  1.00  0.00    -0.237 OA
ATOM     77  O   UNL A   1      39.111  23.901  26.453  1.00  0.00    -0.744 OA
ENDBRANCH  70  74
ENDBRANCH  53  67
BRANCH  54  78
ATOM     78  C   UNL A   1      39.560  32.954  36.678  1.00  0.00     0.023 A 
ATOM     79  C   UNL A   1      38.683  32.470  37.661  1.00  0.00     0.031 A 
ATOM     80  C   UNL A   1      40.224  34.169  36.921  1.00  0.00     0.131 A 
ATOM     81  C   UNL A   1      38.477  33.210  38.835  1.00  0.00     0.055 A 
ATOM     82  C   UNL A   1      40.045  34.882  38.107  1.00  0.00     0.041 A 
ATOM     83  F   UNL A   1      41.081  34.667  36.014  1.00  0.00    -0.206 F 
ATOM     84  C   UNL A   1      39.162  34.405  39.071  1.00  0.00     0.022 A 
BRANCH  81  85
ATOM     85  S   UNL A   1      37.277  32.600  40.051  1.00  0.00     0.124 S 
ATOM     86  O   UNL A   1      36.077  32.454  39.235  1.00  0.00    -0.237 OA
ATOM     87  O   UNL A   1      37.903  31.361  40.501  1.00  0.00    -0.237 OA
ATOM     88  O   UNL A   1      37.230  33.667  41.047  1.00  0.00    -0.744 OA
ENDBRANCH  81  85
ENDBRANCH  54  78
BRANCH  66  89
ATOM     89  C   UNL A   1      44.256  28.165  34.725  1.00  0.00     0.023 A 
ATOM     90  C   UNL A   1      44.147  26.959  35.435  1.00  0.00     0.031 A 
ATOM     91  C   UNL A   1      45.522  28.769  34.626  1.00  0.00     0.131 A 
ATOM     92  C   UNL A   1      45.284  26.403  36.042  1.00  0.00     0.055 A 
ATOM     93  C   UNL A   1      46.657  28.189  35.191  1.00  0.00     0.041 A 
ATOM     94  F   UNL A   1      45.678  29.921  33.954  1.00  0.00    -0.206 F 
ATOM     95  C   UNL A   1      46.541  27.001  35.908  1.00  0.00     0.022 A 
BRANCH  92  96
ATOM     96  S   UNL A   1      45.096  24.897  37.034  1.00  0.00     0.124 S 
ATOM     97  O   UNL A   1      43.676  24.931  37.368  1.00  0.00    -0.237 OA
ATOM     98  O   UNL A   1      45.506  23.851  36.102  1.00  0.00    -0.237 OA
ATOM     99  O   UNL A   1      46.004  25.112  38.159  1.00  0.00    -0.744 OA
ENDBRANCH  92  96
ENDBRANCH  66  89
ENDBRANCH  40  41
ENDBRANCH  32  35
ENDBRANCH  30  31
ENDBRANCH   1  30
TORSDOF 17
ENDMDL
