MODEL 1
REMARK VINA RESULT:     -12.4      0.000      0.000
REMARK SMILES O=C(CN1C(=O)S/C(=C\c2cccn2-c2cccc(C(=O)NCCCNC(=O)c3ccc(-c4c5nc(c(-c6cc(S(=O)(=O)[O-])ccc6F)c6ccc([nH]6)c(-c6cc(S(=O)(=O)[O-])ccc6F)c6nc(c(-c7cc(S(=O)(=O)[O-])ccc7F)c7ccc4[nH]7)C=C6)C=C5)cc3)c2)C1=O)Nc1ccc(Cl)cc1
REMARK SMILES IDX 23 1 22 2 20 3 21 4 19 6 15 7 16 8 92 9 17 10 18 11 14 12
REMARK SMILES IDX 10 13 11 14 12 15 13 16 9 17 4 18 5 19 93 20 6 21 7 22 8 23
REMARK SMILES IDX 94 24 3 25 2 26 1 27 95 28 96 30 97 31 102 32 98 33 101 34
REMARK SMILES IDX 99 35 100 36 24 37 25 38 26 39 27 40 28 42 29 43 30 44 91 45
REMARK SMILES IDX 31 46 90 47 32 48 33 49 34 50 84 51 35 52 89 53 83 54 85 55
REMARK SMILES IDX 36 56 88 57 82 58 81 59 37 61 69 62 49 63 68 64 50 65 53 66
REMARK SMILES IDX 67 67 86 68 51 69 52 70 66 72 87 73 54 74 38 75 39 76 47 77
REMARK SMILES IDX 40 78 46 79 48 80 45 81 41 82 42 83 43 84 44 85 70 86 71 87
REMARK SMILES IDX 79 88 72 89 78 90 80 91 77 92 73 93 74 94 75 95 76 96 55 97
REMARK SMILES IDX 56 98 64 99 57 100 63 101 65 102 62 103 58 104 59 105 60 106
REMARK SMILES IDX 61 107
REMARK H PARENT 22 5 95 29 26 41 85 60 53 71
REMARK Flexibility Score: inf
ROOT
ATOM      1  C   UNL A   1      39.688  23.900  27.508  1.00  0.00     0.118 C 
ENDROOT
BRANCH   1   2
ATOM      2  N   UNL A   1      39.825  22.557  26.968  1.00  0.00    -0.352 N 
ATOM      3  C   UNL A   1      39.101  21.764  26.109  1.00  0.00     0.251 C 
ATOM      4  O   UNL A   1      39.575  20.660  25.835  1.00  0.00    -0.269 OA
ATOM      5  H   UNL A   1      40.633  22.104  27.299  1.00  0.00     0.163 HD
BRANCH   3   6
ATOM      6  C   UNL A   1      37.763  22.111  25.553  1.00  0.00     0.041 A 
ATOM      7  C   UNL A   1      35.441  21.579  25.063  1.00  0.00     0.046 A 
ATOM      8  C   UNL A   1      35.382  22.660  24.175  1.00  0.00     0.026 A 
ATOM      9  C   UNL A   1      36.600  21.395  25.821  1.00  0.00     0.040 A 
ATOM     10  C   UNL A   1      36.486  23.499  24.019  1.00  0.00     0.003 A 
ATOM     11  C   UNL A   1      37.682  23.201  24.675  1.00  0.00     0.014 A 
BRANCH   7  12
ATOM     12  N   UNL A   1      34.431  20.558  25.047  1.00  0.00    -0.317 N 
ATOM     13  C   UNL A   1      33.187  20.498  25.701  1.00  0.00     0.047 A 
ATOM     14  C   UNL A   1      32.735  19.188  25.621  1.00  0.00     0.028 A 
ATOM     15  C   UNL A   1      33.669  18.434  24.890  1.00  0.00     0.020 A 
ATOM     16  C   UNL A   1      34.665  19.299  24.508  1.00  0.00     0.092 A 
BRANCH  13  17
ATOM     17  C   UNL A   1      32.538  21.651  26.237  1.00  0.00     0.048 C 
ATOM     18  N   UNL A   1      30.670  24.553  25.144  1.00  0.00    -0.259 N 
ATOM     19  C   UNL A   1      30.793  24.134  23.845  1.00  0.00     0.294 C 
ATOM     20  C   UNL A   1      31.267  23.778  26.111  1.00  0.00     0.268 C 
ATOM     21  O   UNL A   1      30.394  24.690  22.854  1.00  0.00    -0.261 OA
ATOM     22  S   UNL A   1      31.670  22.615  23.791  1.00  0.00    -0.022 SA
ATOM     23  C   UNL A   1      31.916  22.583  25.494  1.00  0.00     0.085 C 
ATOM     24  O   UNL A   1      31.296  24.019  27.308  1.00  0.00    -0.268 OA
BRANCH  18  25
ATOM     25  C   UNL A   1      30.111  25.857  25.459  1.00  0.00     0.230 C 
BRANCH  25  26
ATOM     26  C   UNL A   1      31.085  27.037  25.441  1.00  0.00     0.244 C 
ATOM     27  O   UNL A   1      31.144  27.740  24.432  1.00  0.00    -0.273 OA
ATOM     28  N   UNL A   1      31.737  27.300  26.633  1.00  0.00    -0.325 N 
ATOM     29  H   UNL A   1      31.602  26.665  27.372  1.00  0.00     0.169 HD
BRANCH  28  30
ATOM     30  C   UNL A   1      32.585  28.410  26.877  1.00  0.00     0.041 A 
ATOM     31  C   UNL A   1      31.986  29.658  27.074  1.00  0.00     0.027 A 
ATOM     32  C   UNL A   1      33.980  28.328  26.919  1.00  0.00     0.027 A 
ATOM     33  C   UNL A   1      32.757  30.796  27.335  1.00  0.00     0.022 A 
ATOM     34  C   UNL A   1      34.756  29.468  27.163  1.00  0.00     0.022 A 
ATOM     35  C   UNL A   1      34.142  30.695  27.380  1.00  0.00     0.041 A 
ATOM     36  Cl  UNL A   1      35.092  32.087  27.716  1.00  0.00    -0.084 Cl
ENDBRANCH  28  30
ENDBRANCH  25  26
ENDBRANCH  18  25
ENDBRANCH  13  17
ENDBRANCH   7  12
ENDBRANCH   3   6
ENDBRANCH   1   2
BRANCH   1  37
ATOM     37  C   UNL A   1      40.945  24.768  27.417  1.00  0.00     0.042 C 
BRANCH  37  38
ATOM     38  C   UNL A   1      42.128  24.118  28.133  1.00  0.00     0.118 C 
BRANCH  38  39
ATOM     39  N   UNL A   1      43.245  23.927  27.212  1.00  0.00    -0.352 N 
ATOM     40  C   UNL A   1      44.273  24.756  26.846  1.00  0.00     0.251 C 
ATOM     41  H   UNL A   1      43.262  23.045  26.774  1.00  0.00     0.163 HD
ATOM     42  O   UNL A   1      45.072  24.349  26.007  1.00  0.00    -0.269 OA
BRANCH  40  43
ATOM     43  C   UNL A   1      44.419  26.113  27.407  1.00  0.00     0.039 A 
ATOM     44  C   UNL A   1      44.142  27.188  26.555  1.00  0.00     0.014 A 
ATOM     45  C   UNL A   1      44.837  26.347  28.721  1.00  0.00     0.014 A 
ATOM     46  C   UNL A   1      44.188  28.487  27.048  1.00  0.00     0.010 A 
ATOM     47  C   UNL A   1      44.869  27.643  29.225  1.00  0.00     0.010 A 
ATOM     48  C   UNL A   1      44.511  28.708  28.394  1.00  0.00    -0.014 A 
BRANCH  48  49
ATOM     49  C   UNL A   1      44.251  30.048  28.967  1.00  0.00     0.031 A 
ATOM     50  C   UNL A   1      45.569  30.861  29.087  1.00  0.00     0.074 A 
ATOM     51  C   UNL A   1      42.957  30.330  29.317  1.00  0.00     0.049 A 
ATOM     52  N   UNL A   1      45.939  31.749  29.958  1.00  0.00    -0.248 NA
ATOM     53  C   UNL A   1      46.690  30.557  28.148  1.00  0.00     0.031 C 
ATOM     54  C   UNL A   1      41.796  29.437  29.080  1.00  0.00     0.029 A 
ATOM     55  N   UNL A   1      42.341  31.401  29.931  1.00  0.00    -0.354 N 
ATOM     56  C   UNL A   1      47.186  32.282  29.531  1.00  0.00     0.074 A 
ATOM     57  C   UNL A   1      47.662  31.397  28.514  1.00  0.00     0.031 C 
ATOM     58  C   UNL A   1      40.662  29.953  29.608  1.00  0.00     0.029 A 
ATOM     59  C   UNL A   1      40.954  31.232  30.225  1.00  0.00     0.049 A 
ATOM     60  H   UNL A   1      42.827  32.229  30.153  1.00  0.00     0.167 HD
ATOM     61  C   UNL A   1      47.655  33.508  29.924  1.00  0.00     0.034 A 
ATOM     62  C   UNL A   1      40.117  32.046  30.947  1.00  0.00     0.034 A 
ATOM     63  C   UNL A   1      46.717  34.097  30.819  1.00  0.00     0.049 A 
ATOM     64  C   UNL A   1      40.917  33.253  31.198  1.00  0.00     0.074 A 
ATOM     65  C   UNL A   1      46.338  33.809  32.101  1.00  0.00     0.029 A 
ATOM     66  N   UNL A   1      45.802  34.962  30.262  1.00  0.00    -0.354 N 
ATOM     67  N   UNL A   1      41.194  34.154  30.308  1.00  0.00    -0.248 NA
ATOM     68  C   UNL A   1      41.512  33.442  32.528  1.00  0.00     0.031 C 
ATOM     69  C   UNL A   1      44.956  34.083  32.086  1.00  0.00     0.029 A 
ATOM     70  C   UNL A   1      44.610  34.728  30.890  1.00  0.00     0.049 A 
ATOM     71  H   UNL A   1      45.973  35.621  29.550  1.00  0.00     0.167 HD
ATOM     72  C   UNL A   1      42.242  34.824  30.882  1.00  0.00     0.074 A 
ATOM     73  C   UNL A   1      42.151  34.587  32.307  1.00  0.00     0.031 C 
ATOM     74  C   UNL A   1      43.384  35.003  30.169  1.00  0.00     0.034 A 
BRANCH  61  75
ATOM     75  C   UNL A   1      48.748  34.432  29.425  1.00  0.00     0.023 A 
ATOM     76  C   UNL A   1      48.553  34.981  28.128  1.00  0.00     0.031 A 
ATOM     77  C   UNL A   1      50.039  34.550  29.949  1.00  0.00     0.131 A 
ATOM     78  C   UNL A   1      49.621  35.441  27.347  1.00  0.00     0.055 A 
ATOM     79  C   UNL A   1      51.098  35.088  29.195  1.00  0.00     0.041 A 
ATOM     80  F   UNL A   1      50.354  34.083  31.163  1.00  0.00    -0.206 F 
ATOM     81  C   UNL A   1      50.903  35.493  27.874  1.00  0.00     0.022 A 
BRANCH  78  82
ATOM     82  S   UNL A   1      49.320  35.762  25.583  1.00  0.00     0.124 S 
ATOM     83  O   UNL A   1      48.213  34.858  25.292  1.00  0.00    -0.237 OA
ATOM     84  O   UNL A   1      48.998  37.186  25.585  1.00  0.00    -0.237 OA
ATOM     85  O   UNL A   1      50.592  35.415  24.954  1.00  0.00    -0.744 OA
ENDBRANCH  78  82
ENDBRANCH  61  75
BRANCH  62  86
ATOM     86  C   UNL A   1      38.724  32.054  31.572  1.00  0.00     0.023 A 
ATOM     87  C   UNL A   1      37.716  33.017  31.395  1.00  0.00     0.031 A 
ATOM     88  C   UNL A   1      38.331  30.938  32.385  1.00  0.00     0.131 A 
ATOM     89  C   UNL A   1      36.411  32.798  31.933  1.00  0.00     0.055 A 
ATOM     90  C   UNL A   1      37.034  30.684  32.825  1.00  0.00     0.041 A 
ATOM     91  F   UNL A   1      39.202  30.011  32.804  1.00  0.00    -0.206 F 
ATOM     92  C   UNL A   1      36.056  31.614  32.586  1.00  0.00     0.022 A 
BRANCH  89  93
ATOM     93  S   UNL A   1      35.092  34.046  31.806  1.00  0.00     0.124 S 
ATOM     94  O   UNL A   1      33.950  33.335  32.370  1.00  0.00    -0.237 OA
ATOM     95  O   UNL A   1      35.612  35.158  32.593  1.00  0.00    -0.237 OA
ATOM     96  O   UNL A   1      35.014  34.298  30.366  1.00  0.00    -0.744 OA
ENDBRANCH  89  93
ENDBRANCH  62  86
BRANCH  74  97
ATOM     97  C   UNL A   1      43.194  35.019  28.650  1.00  0.00     0.023 A 
ATOM     98  C   UNL A   1      43.771  34.012  27.850  1.00  0.00     0.031 A 
ATOM     99  C   UNL A   1      42.559  36.061  27.951  1.00  0.00     0.131 A 
ATOM    100  C   UNL A   1      43.729  34.085  26.443  1.00  0.00     0.055 A 
ATOM    101  C   UNL A   1      42.509  36.135  26.551  1.00  0.00     0.041 A 
ATOM    102  F   UNL A   1      41.969  37.063  28.600  1.00  0.00    -0.206 F 
ATOM    103  C   UNL A   1      43.101  35.144  25.788  1.00  0.00     0.022 A 
BRANCH 100 104
ATOM    104  S   UNL A   1      44.487  32.762  25.458  1.00  0.00     0.124 S 
ATOM    105  O   UNL A   1      44.166  33.155  24.091  1.00  0.00    -0.237 OA
ATOM    106  O   UNL A   1      45.893  32.853  25.837  1.00  0.00    -0.237 OA
ATOM    107  O   UNL A   1      43.806  31.555  25.926  1.00  0.00    -0.744 OA
ENDBRANCH 100 104
ENDBRANCH  74  97
ENDBRANCH  48  49
ENDBRANCH  40  43
ENDBRANCH  38  39
ENDBRANCH  37  38
ENDBRANCH   1  37
TORSDOF 18
ENDMDL
MODEL 2
REMARK VINA RESULT:     -12.2      2.549      7.935
REMARK SMILES O=C(CN1C(=O)S/C(=C\c2cccn2-c2cccc(C(=O)NCCCNC(=O)c3ccc(-c4c5nc(c(-c6cc(S(=O)(=O)[O-])ccc6F)c6ccc([nH]6)c(-c6cc(S(=O)(=O)[O-])ccc6F)c6nc(c(-c7cc(S(=O)(=O)[O-])ccc7F)c7ccc4[nH]7)C=C6)C=C5)cc3)c2)C1=O)Nc1ccc(Cl)cc1
REMARK SMILES IDX 23 1 22 2 20 3 21 4 19 6 15 7 16 8 92 9 17 10 18 11 14 12
REMARK SMILES IDX 10 13 11 14 12 15 13 16 9 17 4 18 5 19 93 20 6 21 7 22 8 23
REMARK SMILES IDX 94 24 3 25 2 26 1 27 95 28 96 30 97 31 102 32 98 33 101 34
REMARK SMILES IDX 99 35 100 36 24 37 25 38 26 39 27 40 28 42 29 43 30 44 91 45
REMARK SMILES IDX 31 46 90 47 32 48 33 49 34 50 84 51 35 52 89 53 83 54 85 55
REMARK SMILES IDX 36 56 88 57 82 58 81 59 37 61 69 62 49 63 68 64 50 65 53 66
REMARK SMILES IDX 67 67 86 68 51 69 52 70 66 72 87 73 54 74 38 75 39 76 47 77
REMARK SMILES IDX 40 78 46 79 48 80 45 81 41 82 42 83 43 84 44 85 70 86 71 87
REMARK SMILES IDX 79 88 72 89 78 90 80 91 77 92 73 93 74 94 75 95 76 96 55 97
REMARK SMILES IDX 56 98 64 99 57 100 63 101 65 102 62 103 58 104 59 105 60 106
REMARK SMILES IDX 61 107
REMARK H PARENT 22 5 95 29 26 41 85 60 53 71
REMARK Flexibility Score: inf
ROOT
ATOM      1  C   UNL A   1      39.000  21.643  26.087  1.00  0.00     0.118 C 
ENDROOT
BRANCH   1   2
ATOM      2  N   UNL A   1      38.306  22.865  25.712  1.00  0.00    -0.352 N 
ATOM      3  C   UNL A   1      37.004  23.306  25.742  1.00  0.00     0.251 C 
ATOM      4  O   UNL A   1      36.799  24.465  25.377  1.00  0.00    -0.269 OA
ATOM      5  H   UNL A   1      38.919  23.543  25.347  1.00  0.00     0.163 HD
BRANCH   3   6
ATOM      6  C   UNL A   1      35.829  22.466  26.108  1.00  0.00     0.041 A 
ATOM      7  C   UNL A   1      34.110  20.834  25.569  1.00  0.00     0.046 A 
ATOM      8  C   UNL A   1      33.410  21.188  26.729  1.00  0.00     0.026 A 
ATOM      9  C   UNL A   1      35.366  21.401  25.341  1.00  0.00     0.040 A 
ATOM     10  C   UNL A   1      33.944  22.134  27.606  1.00  0.00     0.003 A 
ATOM     11  C   UNL A   1      35.127  22.797  27.276  1.00  0.00     0.014 A 
BRANCH   7  12
ATOM     12  N   UNL A   1      33.473  20.073  24.529  1.00  0.00    -0.317 N 
ATOM     13  C   UNL A   1      32.816  20.500  23.362  1.00  0.00     0.047 A 
ATOM     14  C   UNL A   1      32.107  19.417  22.861  1.00  0.00     0.028 A 
ATOM     15  C   UNL A   1      32.344  18.304  23.687  1.00  0.00     0.020 A 
ATOM     16  C   UNL A   1      33.217  18.714  24.664  1.00  0.00     0.092 A 
BRANCH  13  17
ATOM     17  C   UNL A   1      32.986  21.806  22.812  1.00  0.00     0.048 C 
ATOM     18  N   UNL A   1      31.628  25.149  23.107  1.00  0.00    -0.259 N 
ATOM     19  C   UNL A   1      30.759  24.703  24.069  1.00  0.00     0.294 C 
ATOM     20  C   UNL A   1      32.470  24.219  22.545  1.00  0.00     0.268 C 
ATOM     21  O   UNL A   1      29.912  25.338  24.643  1.00  0.00    -0.261 OA
ATOM     22  S   UNL A   1      31.030  22.996  24.370  1.00  0.00    -0.022 SA
ATOM     23  C   UNL A   1      32.256  22.877  23.167  1.00  0.00     0.085 C 
ATOM     24  O   UNL A   1      33.274  24.426  21.649  1.00  0.00    -0.268 OA
BRANCH  18  25
ATOM     25  C   UNL A   1      31.518  26.494  22.567  1.00  0.00     0.230 C 
BRANCH  25  26
ATOM     26  C   UNL A   1      32.273  27.593  23.317  1.00  0.00     0.244 C 
ATOM     27  O   UNL A   1      32.893  28.435  22.667  1.00  0.00    -0.273 OA
ATOM     28  N   UNL A   1      32.086  27.626  24.688  1.00  0.00    -0.325 N 
ATOM     29  H   UNL A   1      31.562  26.897  25.091  1.00  0.00     0.169 HD
BRANCH  28  30
ATOM     30  C   UNL A   1      32.588  28.624  25.561  1.00  0.00     0.041 A 
ATOM     31  C   UNL A   1      33.857  28.432  26.112  1.00  0.00     0.027 A 
ATOM     32  C   UNL A   1      31.880  29.779  25.908  1.00  0.00     0.027 A 
ATOM     33  C   UNL A   1      34.424  29.381  26.970  1.00  0.00     0.022 A 
ATOM     34  C   UNL A   1      32.436  30.725  26.778  1.00  0.00     0.022 A 
ATOM     35  C   UNL A   1      33.709  30.526  27.299  1.00  0.00     0.041 A 
ATOM     36  Cl  UNL A   1      34.408  31.703  28.339  1.00  0.00    -0.084 Cl
ENDBRANCH  28  30
ENDBRANCH  25  26
ENDBRANCH  18  25
ENDBRANCH  13  17
ENDBRANCH   7  12
ENDBRANCH   3   6
ENDBRANCH   1   2
BRANCH   1  37
ATOM     37  C   UNL A   1      40.044  21.801  27.194  1.00  0.00     0.042 C 
BRANCH  37  38
ATOM     38  C   UNL A   1      40.505  23.252  27.327  1.00  0.00     0.118 C 
BRANCH  38  39
ATOM     39  N   UNL A   1      41.664  23.503  26.476  1.00  0.00    -0.352 N 
ATOM     40  C   UNL A   1      42.369  24.649  26.216  1.00  0.00     0.251 C 
ATOM     41  H   UNL A   1      42.000  22.707  26.005  1.00  0.00     0.163 HD
ATOM     42  O   UNL A   1      43.299  24.586  25.416  1.00  0.00    -0.269 OA
BRANCH  40  43
ATOM     43  C   UNL A   1      42.020  25.939  26.842  1.00  0.00     0.039 A 
ATOM     44  C   UNL A   1      42.608  26.227  28.079  1.00  0.00     0.014 A 
ATOM     45  C   UNL A   1      41.125  26.844  26.260  1.00  0.00     0.014 A 
ATOM     46  C   UNL A   1      42.377  27.459  28.681  1.00  0.00     0.010 A 
ATOM     47  C   UNL A   1      40.904  28.084  26.849  1.00  0.00     0.010 A 
ATOM     48  C   UNL A   1      41.558  28.400  28.043  1.00  0.00    -0.014 A 
BRANCH  48  49
ATOM     49  C   UNL A   1      41.579  29.797  28.536  1.00  0.00     0.031 A 
ATOM     50  C   UNL A   1      40.206  30.184  29.151  1.00  0.00     0.074 A 
ATOM     51  C   UNL A   1      42.738  30.502  28.348  1.00  0.00     0.049 A 
ATOM     52  N   UNL A   1      39.585  31.322  29.185  1.00  0.00    -0.248 NA
ATOM     53  C   UNL A   1      39.346  29.107  29.728  1.00  0.00     0.031 C 
ATOM     54  C   UNL A   1      43.991  29.946  27.776  1.00  0.00     0.029 A 
ATOM     55  N   UNL A   1      43.118  31.806  28.588  1.00  0.00    -0.354 N 
ATOM     56  C   UNL A   1      38.424  31.160  29.988  1.00  0.00     0.074 A 
ATOM     57  C   UNL A   1      38.254  29.749  30.150  1.00  0.00     0.031 C 
ATOM     58  C   UNL A   1      44.936  30.905  27.639  1.00  0.00     0.029 A 
ATOM     59  C   UNL A   1      44.415  32.170  28.116  1.00  0.00     0.049 A 
ATOM     60  H   UNL A   1      42.531  32.445  29.055  1.00  0.00     0.167 HD
ATOM     61  C   UNL A   1      37.784  32.202  30.607  1.00  0.00     0.034 A 
ATOM     62  C   UNL A   1      45.006  33.409  28.079  1.00  0.00     0.034 A 
ATOM     63  C   UNL A   1      38.453  33.415  30.280  1.00  0.00     0.049 A 
ATOM     64  C   UNL A   1      44.077  34.273  28.820  1.00  0.00     0.074 A 
ATOM     65  C   UNL A   1      38.563  34.142  29.127  1.00  0.00     0.029 A 
ATOM     66  N   UNL A   1      39.396  33.854  31.182  1.00  0.00    -0.354 N 
ATOM     67  N   UNL A   1      43.931  34.269  30.109  1.00  0.00    -0.248 NA
ATOM     68  C   UNL A   1      43.192  35.170  28.065  1.00  0.00     0.031 C 
ATOM     69  C   UNL A   1      39.889  34.616  29.184  1.00  0.00     0.029 A 
ATOM     70  C   UNL A   1      40.437  34.354  30.447  1.00  0.00     0.049 A 
ATOM     71  H   UNL A   1      39.334  33.817  32.163  1.00  0.00     0.167 HD
ATOM     72  C   UNL A   1      42.733  34.912  30.273  1.00  0.00     0.074 A 
ATOM     73  C   UNL A   1      42.528  35.710  29.083  1.00  0.00     0.031 C 
ATOM     74  C   UNL A   1      41.765  34.327  31.025  1.00  0.00     0.034 A 
BRANCH  61  75
ATOM     75  C   UNL A   1      36.758  32.303  31.718  1.00  0.00     0.023 A 
ATOM     76  C   UNL A   1      35.608  33.091  31.431  1.00  0.00     0.031 A 
ATOM     77  C   UNL A   1      36.957  31.983  33.064  1.00  0.00     0.131 A 
ATOM     78  C   UNL A   1      34.830  33.666  32.445  1.00  0.00     0.055 A 
ATOM     79  C   UNL A   1      36.125  32.493  34.078  1.00  0.00     0.041 A 
ATOM     80  F   UNL A   1      37.995  31.240  33.467  1.00  0.00    -0.206 F 
ATOM     81  C   UNL A   1      35.087  33.374  33.777  1.00  0.00     0.022 A 
BRANCH  78  82
ATOM     82  S   UNL A   1      33.629  34.949  31.982  1.00  0.00     0.124 S 
ATOM     83  O   UNL A   1      33.435  34.688  30.559  1.00  0.00    -0.237 OA
ATOM     84  O   UNL A   1      32.498  34.634  32.849  1.00  0.00    -0.237 OA
ATOM     85  O   UNL A   1      34.325  36.194  32.297  1.00  0.00    -0.744 OA
ENDBRANCH  78  82
ENDBRANCH  61  75
BRANCH  62  86
ATOM     86  C   UNL A   1      46.223  34.122  27.494  1.00  0.00     0.023 A 
ATOM     87  C   UNL A   1      47.435  34.410  28.143  1.00  0.00     0.031 A 
ATOM     88  C   UNL A   1      46.197  34.497  26.108  1.00  0.00     0.131 A 
ATOM     89  C   UNL A   1      48.534  34.950  27.406  1.00  0.00     0.055 A 
ATOM     90  C   UNL A   1      47.298  34.932  25.375  1.00  0.00     0.041 A 
ATOM     91  F   UNL A   1      45.077  34.458  25.373  1.00  0.00    -0.206 F 
ATOM     92  C   UNL A   1      48.486  35.148  26.023  1.00  0.00     0.022 A 
BRANCH  89  93
ATOM     93  S   UNL A   1      50.098  35.419  28.209  1.00  0.00     0.124 S 
ATOM     94  O   UNL A   1      51.065  35.191  27.141  1.00  0.00    -0.237 OA
ATOM     95  O   UNL A   1      49.871  36.810  28.587  1.00  0.00    -0.237 OA
ATOM     96  O   UNL A   1      50.185  34.485  29.332  1.00  0.00    -0.744 OA
ENDBRANCH  89  93
ENDBRANCH  62  86
BRANCH  74  97
ATOM     97  C   UNL A   1      42.281  33.367  32.099  1.00  0.00     0.023 A 
ATOM     98  C   UNL A   1      41.963  31.995  32.040  1.00  0.00     0.031 A 
ATOM     99  C   UNL A   1      42.982  33.779  33.247  1.00  0.00     0.131 A 
ATOM    100  C   UNL A   1      42.308  31.120  33.090  1.00  0.00     0.055 A 
ATOM    101  C   UNL A   1      43.332  32.912  34.292  1.00  0.00     0.041 A 
ATOM    102  F   UNL A   1      43.346  35.049  33.409  1.00  0.00    -0.206 F 
ATOM    103  C   UNL A   1      42.990  31.572  34.219  1.00  0.00     0.022 A 
BRANCH 100 104
ATOM    104  S   UNL A   1      41.876  29.361  32.965  1.00  0.00     0.124 S 
ATOM    105  O   UNL A   1      40.420  29.394  32.882  1.00  0.00    -0.237 OA
ATOM    106  O   UNL A   1      42.578  28.951  31.753  1.00  0.00    -0.237 OA
ATOM    107  O   UNL A   1      42.409  28.789  34.201  1.00  0.00    -0.744 OA
ENDBRANCH 100 104
ENDBRANCH  74  97
ENDBRANCH  48  49
ENDBRANCH  40  43
ENDBRANCH  38  39
ENDBRANCH  37  38
ENDBRANCH   1  37
TORSDOF 18
ENDMDL
MODEL 3
REMARK VINA RESULT:     -11.5      5.340     11.412
REMARK SMILES O=C(CN1C(=O)S/C(=C\c2cccn2-c2cccc(C(=O)NCCCNC(=O)c3ccc(-c4c5nc(c(-c6cc(S(=O)(=O)[O-])ccc6F)c6ccc([nH]6)c(-c6cc(S(=O)(=O)[O-])ccc6F)c6nc(c(-c7cc(S(=O)(=O)[O-])ccc7F)c7ccc4[nH]7)C=C6)C=C5)cc3)c2)C1=O)Nc1ccc(Cl)cc1
REMARK SMILES IDX 23 1 22 2 20 3 21 4 19 6 15 7 16 8 92 9 17 10 18 11 14 12
REMARK SMILES IDX 10 13 11 14 12 15 13 16 9 17 4 18 5 19 93 20 6 21 7 22 8 23
REMARK SMILES IDX 94 24 3 25 2 26 1 27 95 28 96 30 97 31 102 32 98 33 101 34
REMARK SMILES IDX 99 35 100 36 24 37 25 38 26 39 27 40 28 42 29 43 30 44 91 45
REMARK SMILES IDX 31 46 90 47 32 48 33 49 34 50 84 51 35 52 89 53 83 54 85 55
REMARK SMILES IDX 36 56 88 57 82 58 81 59 37 61 69 62 49 63 68 64 50 65 53 66
REMARK SMILES IDX 67 67 86 68 51 69 52 70 66 72 87 73 54 74 38 75 39 76 47 77
REMARK SMILES IDX 40 78 46 79 48 80 45 81 41 82 42 83 43 84 44 85 70 86 71 87
REMARK SMILES IDX 79 88 72 89 78 90 80 91 77 92 73 93 74 94 75 95 76 96 55 97
REMARK SMILES IDX 56 98 64 99 57 100 63 101 65 102 62 103 58 104 59 105 60 106
REMARK SMILES IDX 61 107
REMARK H PARENT 22 5 95 29 26 41 85 60 53 71
REMARK Flexibility Score: inf
ROOT
ATOM      1  C   UNL A   1      44.455  28.509  36.979  1.00  0.00     0.118 C 
ENDROOT
BRANCH   1   2
ATOM      2  N   UNL A   1      43.035  28.495  36.666  1.00  0.00    -0.352 N 
ATOM      3  C   UNL A   1      42.115  29.419  36.230  1.00  0.00     0.251 C 
ATOM      4  O   UNL A   1      40.972  29.011  36.018  1.00  0.00    -0.269 OA
ATOM      5  H   UNL A   1      42.634  27.606  36.800  1.00  0.00     0.163 HD
BRANCH   3   6
ATOM      6  C   UNL A   1      42.382  30.876  36.071  1.00  0.00     0.041 A 
ATOM      7  C   UNL A   1      41.969  33.205  36.637  1.00  0.00     0.046 A 
ATOM      8  C   UNL A   1      42.650  33.606  35.481  1.00  0.00     0.026 A 
ATOM      9  C   UNL A   1      41.948  31.848  36.968  1.00  0.00     0.040 A 
ATOM     10  C   UNL A   1      43.245  32.652  34.654  1.00  0.00     0.003 A 
ATOM     11  C   UNL A   1      43.077  31.293  34.927  1.00  0.00     0.014 A 
BRANCH   7  12
ATOM     12  N   UNL A   1      41.133  34.126  37.355  1.00  0.00    -0.317 N 
ATOM     13  C   UNL A   1      39.780  34.462  37.169  1.00  0.00     0.047 A 
ATOM     14  C   UNL A   1      39.531  35.616  37.898  1.00  0.00     0.028 A 
ATOM     15  C   UNL A   1      40.709  35.986  38.569  1.00  0.00     0.020 A 
ATOM     16  C   UNL A   1      41.654  35.038  38.264  1.00  0.00     0.092 A 
BRANCH  13  17
ATOM     17  C   UNL A   1      38.876  33.646  36.424  1.00  0.00     0.048 C 
ATOM     18  N   UNL A   1      37.726  33.151  33.027  1.00  0.00    -0.259 N 
ATOM     19  C   UNL A   1      38.566  34.149  32.605  1.00  0.00     0.294 C 
ATOM     20  C   UNL A   1      37.709  32.876  34.374  1.00  0.00     0.268 C 
ATOM     21  O   UNL A   1      38.692  34.577  31.487  1.00  0.00    -0.261 OA
ATOM     22  S   UNL A   1      39.473  34.779  33.969  1.00  0.00    -0.022 SA
ATOM     23  C   UNL A   1      38.681  33.748  35.098  1.00  0.00     0.085 C 
ATOM     24  O   UNL A   1      36.996  32.054  34.930  1.00  0.00    -0.268 OA
BRANCH  18  25
ATOM     25  C   UNL A   1      36.757  32.558  32.121  1.00  0.00     0.230 C 
BRANCH  25  26
ATOM     26  C   UNL A   1      37.038  31.124  31.666  1.00  0.00     0.244 C 
ATOM     27  O   UNL A   1      36.170  30.268  31.837  1.00  0.00    -0.273 OA
ATOM     28  N   UNL A   1      38.218  30.933  30.968  1.00  0.00    -0.325 N 
ATOM     29  H   UNL A   1      38.828  31.701  30.892  1.00  0.00     0.169 HD
BRANCH  28  30
ATOM     30  C   UNL A   1      38.619  29.722  30.351  1.00  0.00     0.041 A 
ATOM     31  C   UNL A   1      38.163  29.466  29.055  1.00  0.00     0.027 A 
ATOM     32  C   UNL A   1      39.432  28.767  30.969  1.00  0.00     0.027 A 
ATOM     33  C   UNL A   1      38.529  28.299  28.376  1.00  0.00     0.022 A 
ATOM     34  C   UNL A   1      39.788  27.589  30.300  1.00  0.00     0.022 A 
ATOM     35  C   UNL A   1      39.343  27.364  29.003  1.00  0.00     0.041 A 
ATOM     36  Cl  UNL A   1      39.809  25.936  28.168  1.00  0.00    -0.084 Cl
ENDBRANCH  28  30
ENDBRANCH  25  26
ENDBRANCH  18  25
ENDBRANCH  13  17
ENDBRANCH   7  12
ENDBRANCH   3   6
ENDBRANCH   1   2
BRANCH   1  37
ATOM     37  C   UNL A   1      44.962  27.291  37.754  1.00  0.00     0.042 C 
BRANCH  37  38
ATOM     38  C   UNL A   1      43.836  26.298  38.039  1.00  0.00     0.118 C 
BRANCH  38  39
ATOM     39  N   UNL A   1      44.270  24.933  37.757  1.00  0.00    -0.352 N 
ATOM     40  C   UNL A   1      44.522  24.285  36.577  1.00  0.00     0.251 C 
ATOM     41  H   UNL A   1      44.407  24.379  38.560  1.00  0.00     0.163 HD
ATOM     42  O   UNL A   1      44.847  23.101  36.626  1.00  0.00    -0.269 OA
BRANCH  40  43
ATOM     43  C   UNL A   1      44.383  24.959  35.271  1.00  0.00     0.039 A 
ATOM     44  C   UNL A   1      45.561  25.236  34.568  1.00  0.00     0.014 A 
ATOM     45  C   UNL A   1      43.144  25.339  34.745  1.00  0.00     0.014 A 
ATOM     46  C   UNL A   1      45.490  25.800  33.300  1.00  0.00     0.010 A 
ATOM     47  C   UNL A   1      43.065  25.888  33.469  1.00  0.00     0.010 A 
ATOM     48  C   UNL A   1      44.239  26.086  32.737  1.00  0.00    -0.014 A 
BRANCH  48  49
ATOM     49  C   UNL A   1      44.174  26.387  31.288  1.00  0.00     0.031 A 
ATOM     50  C   UNL A   1      43.965  27.907  31.050  1.00  0.00     0.074 A 
ATOM     51  C   UNL A   1      44.268  25.323  30.431  1.00  0.00     0.049 A 
ATOM     52  N   UNL A   1      43.330  28.537  30.110  1.00  0.00    -0.248 NA
ATOM     53  C   UNL A   1      44.451  28.871  32.082  1.00  0.00     0.031 C 
ATOM     54  C   UNL A   1      44.521  23.918  30.841  1.00  0.00     0.029 A 
ATOM     55  N   UNL A   1      44.177  25.182  29.062  1.00  0.00    -0.354 N 
ATOM     56  C   UNL A   1      43.560  29.928  30.288  1.00  0.00     0.074 A 
ATOM     57  C   UNL A   1      44.113  30.069  31.599  1.00  0.00     0.031 C 
ATOM     58  C   UNL A   1      44.478  23.081  29.778  1.00  0.00     0.029 A 
ATOM     59  C   UNL A   1      44.213  23.841  28.573  1.00  0.00     0.049 A 
ATOM     60  H   UNL A   1      44.093  25.958  28.460  1.00  0.00     0.167 HD
ATOM     61  C   UNL A   1      43.440  30.847  29.278  1.00  0.00     0.034 A 
ATOM     62  C   UNL A   1      44.004  23.379  27.297  1.00  0.00     0.034 A 
ATOM     63  C   UNL A   1      43.032  30.177  28.089  1.00  0.00     0.049 A 
ATOM     64  C   UNL A   1      43.924  24.599  26.482  1.00  0.00     0.074 A 
ATOM     65  C   UNL A   1      41.864  29.576  27.708  1.00  0.00     0.029 A 
ATOM     66  N   UNL A   1      44.035  29.805  27.223  1.00  0.00    -0.354 N 
ATOM     67  N   UNL A   1      44.938  25.340  26.158  1.00  0.00    -0.248 NA
ATOM     68  C   UNL A   1      42.603  25.071  26.044  1.00  0.00     0.031 C 
ATOM     69  C   UNL A   1      42.315  28.468  26.963  1.00  0.00     0.029 A 
ATOM     70  C   UNL A   1      43.694  28.573  26.736  1.00  0.00     0.049 A 
ATOM     71  H   UNL A   1      44.841  30.324  26.998  1.00  0.00     0.167 HD
ATOM     72  C   UNL A   1      44.339  26.508  25.768  1.00  0.00     0.074 A 
ATOM     73  C   UNL A   1      42.981  26.171  25.398  1.00  0.00     0.031 C 
ATOM     74  C   UNL A   1      44.754  27.680  26.314  1.00  0.00     0.034 A 
BRANCH  61  75
ATOM     75  C   UNL A   1      43.892  32.282  29.094  1.00  0.00     0.023 A 
ATOM     76  C   UNL A   1      43.777  32.806  27.776  1.00  0.00     0.031 A 
ATOM     77  C   UNL A   1      44.683  33.023  29.977  1.00  0.00     0.131 A 
ATOM     78  C   UNL A   1      44.551  33.887  27.336  1.00  0.00     0.055 A 
ATOM     79  C   UNL A   1      45.397  34.160  29.556  1.00  0.00     0.041 A 
ATOM     80  F   UNL A   1      44.866  32.645  31.248  1.00  0.00    -0.206 F 
ATOM     81  C   UNL A   1      45.372  34.569  28.223  1.00  0.00     0.022 A 
BRANCH  78  82
ATOM     82  S   UNL A   1      44.611  34.231  25.552  1.00  0.00     0.124 S 
ATOM     83  O   UNL A   1      44.866  32.908  24.993  1.00  0.00    -0.237 OA
ATOM     84  O   UNL A   1      43.282  34.783  25.305  1.00  0.00    -0.237 OA
ATOM     85  O   UNL A   1      45.711  35.183  25.427  1.00  0.00    -0.744 OA
ENDBRANCH  78  82
ENDBRANCH  61  75
BRANCH  62  86
ATOM     86  C   UNL A   1      43.789  22.076  26.532  1.00  0.00     0.023 A 
ATOM     87  C   UNL A   1      44.756  21.321  25.847  1.00  0.00     0.031 A 
ATOM     88  C   UNL A   1      42.482  21.482  26.542  1.00  0.00     0.131 A 
ATOM     89  C   UNL A   1      44.419  20.041  25.307  1.00  0.00     0.055 A 
ATOM     90  C   UNL A   1      42.183  20.196  26.100  1.00  0.00     0.041 A 
ATOM     91  F   UNL A   1      41.401  22.131  26.994  1.00  0.00    -0.206 F 
ATOM     92  C   UNL A   1      43.162  19.457  25.489  1.00  0.00     0.022 A 
BRANCH  89  93
ATOM     93  S   UNL A   1      45.606  19.057  24.341  1.00  0.00     0.124 S 
ATOM     94  O   UNL A   1      44.871  18.832  23.101  1.00  0.00    -0.237 OA
ATOM     95  O   UNL A   1      46.767  19.935  24.251  1.00  0.00    -0.237 OA
ATOM     96  O   UNL A   1      45.800  17.866  25.170  1.00  0.00    -0.744 OA
ENDBRANCH  89  93
ENDBRANCH  62  86
BRANCH  74  97
ATOM     97  C   UNL A   1      46.205  27.680  26.801  1.00  0.00     0.023 A 
ATOM     98  C   UNL A   1      46.495  27.795  28.176  1.00  0.00     0.031 A 
ATOM     99  C   UNL A   1      47.320  27.687  25.943  1.00  0.00     0.131 A 
ATOM    100  C   UNL A   1      47.821  27.940  28.633  1.00  0.00     0.055 A 
ATOM    101  C   UNL A   1      48.641  27.824  26.393  1.00  0.00     0.041 A 
ATOM    102  F   UNL A   1      47.171  27.574  24.625  1.00  0.00    -0.206 F 
ATOM    103  C   UNL A   1      48.897  27.957  27.747  1.00  0.00     0.022 A 
BRANCH 100 104
ATOM    104  S   UNL A   1      48.140  28.083  30.414  1.00  0.00     0.124 S 
ATOM    105  O   UNL A   1      47.536  26.867  30.947  1.00  0.00    -0.237 OA
ATOM    106  O   UNL A   1      49.596  28.154  30.468  1.00  0.00    -0.237 OA
ATOM    107  O   UNL A   1      47.456  29.323  30.785  1.00  0.00    -0.744 OA
ENDBRANCH 100 104
ENDBRANCH  74  97
ENDBRANCH  48  49
ENDBRANCH  40  43
ENDBRANCH  38  39
ENDBRANCH  37  38
ENDBRANCH   1  37
TORSDOF 18
ENDMDL
