MODEL 1
REMARK VINA RESULT:     -12.5      0.000      0.000
REMARK SMILES O=C(NCCCNC(=O)[C@H](NC(=O)c1ccc(Br)nc1)c1ccccc1)c1ccc(-c2c3nc(c(-c4cc(S(=O)(=O)[O-])ccc4F)c4ccc([nH]4)c(-c4cc(S(=O)(=O)[O-])ccc4F)c4nc(c(-c5cc(S(=O)(=O)[O-])ccc5F)c5ccc2[nH]5)C=C4)C=C3)cc1
REMARK SMILES IDX 4 1 3 2 1 3 2 4 27 6 28 7 89 8 29 9 88 10 30 11 31 12 32 13
REMARK SMILES IDX 82 14 33 15 87 16 81 17 83 18 34 19 86 20 80 21 79 22 35 24
REMARK SMILES IDX 67 25 47 26 66 27 48 28 51 29 65 30 84 31 49 32 50 33 64 35
REMARK SMILES IDX 85 36 52 37 36 38 37 39 45 40 38 41 44 42 46 43 43 44 39 45
REMARK SMILES IDX 40 46 41 47 42 48 68 49 69 50 77 51 70 52 76 53 78 54 75 55
REMARK SMILES IDX 71 56 72 57 73 58 74 59 53 60 54 61 62 62 55 63 61 64 63 65
REMARK SMILES IDX 60 66 56 67 57 68 58 69 59 70 5 71 6 72 7 73 8 74 9 76 10 77
REMARK SMILES IDX 21 78 22 79 26 80 23 81 25 82 24 83 11 84 12 85 13 87 14 88
REMARK SMILES IDX 15 89 20 90 16 91 19 92 17 93 18 94
REMARK H PARENT 3 5 83 23 51 34 7 75 11 86
REMARK Flexibility Score: inf
ROOT
ATOM      1  C   UNL A   1      32.645  31.671  27.024  1.00  0.00     0.118 C 
ENDROOT
BRANCH   1   2
ATOM      2  N   UNL A   1      32.568  33.098  27.298  1.00  0.00    -0.352 N 
ATOM      3  O   UNL A   1      32.910  35.026  28.400  1.00  0.00    -0.269 OA
ATOM      4  C   UNL A   1      33.268  33.865  28.197  1.00  0.00     0.251 C 
ATOM      5  H   UNL A   1      31.911  33.591  26.754  1.00  0.00     0.163 HD
BRANCH   4   6
ATOM      6  C   UNL A   1      34.429  33.309  28.929  1.00  0.00     0.039 A 
ATOM      7  C   UNL A   1      34.255  32.360  29.938  1.00  0.00     0.014 A 
ATOM      8  C   UNL A   1      35.720  33.709  28.571  1.00  0.00     0.014 A 
ATOM      9  C   UNL A   1      35.345  31.931  30.686  1.00  0.00     0.010 A 
ATOM     10  C   UNL A   1      36.827  33.192  29.254  1.00  0.00     0.010 A 
ATOM     11  C   UNL A   1      36.647  32.315  30.335  1.00  0.00    -0.014 A 
BRANCH  11  12
ATOM     12  C   UNL A   1      37.800  31.717  31.059  1.00  0.00     0.031 A 
ATOM     13  C   UNL A   1      38.648  30.647  30.429  1.00  0.00     0.074 A 
ATOM     14  C   UNL A   1      38.089  32.172  32.295  1.00  0.00     0.049 A 
ATOM     15  N   UNL A   1      39.686  30.023  30.923  1.00  0.00    -0.248 NA
ATOM     16  C   UNL A   1      38.278  30.217  29.074  1.00  0.00     0.031 C 
ATOM     17  C   UNL A   1      37.332  33.207  33.007  1.00  0.00     0.029 A 
ATOM     18  N   UNL A   1      39.097  31.845  33.165  1.00  0.00    -0.354 N 
ATOM     19  C   UNL A   1      40.090  29.116  29.949  1.00  0.00     0.074 A 
ATOM     20  C   UNL A   1      39.156  29.249  28.849  1.00  0.00     0.031 C 
ATOM     21  C   UNL A   1      37.929  33.462  34.179  1.00  0.00     0.029 A 
ATOM     22  C   UNL A   1      39.058  32.554  34.344  1.00  0.00     0.049 A 
ATOM     23  H   UNL A   1      39.782  31.166  32.966  1.00  0.00     0.167 HD
ATOM     24  C   UNL A   1      41.145  28.263  29.969  1.00  0.00     0.034 A 
ATOM     25  C   UNL A   1      39.823  32.468  35.448  1.00  0.00     0.034 A 
ATOM     26  C   UNL A   1      42.059  28.142  31.083  1.00  0.00     0.049 A 
ATOM     27  C   UNL A   1      40.945  31.465  35.470  1.00  0.00     0.074 A 
ATOM     28  C   UNL A   1      43.175  27.331  31.196  1.00  0.00     0.029 A 
ATOM     29  N   UNL A   1      41.956  28.838  32.281  1.00  0.00    -0.354 N 
ATOM     30  N   UNL A   1      41.326  30.632  34.529  1.00  0.00    -0.248 NA
ATOM     31  C   UNL A   1      41.742  31.395  36.700  1.00  0.00     0.031 C 
ATOM     32  C   UNL A   1      43.696  27.475  32.487  1.00  0.00     0.029 A 
ATOM     33  C   UNL A   1      42.963  28.444  33.152  1.00  0.00     0.049 A 
ATOM     34  H   UNL A   1      41.268  29.513  32.484  1.00  0.00     0.167 HD
ATOM     35  C   UNL A   1      42.424  29.954  35.048  1.00  0.00     0.074 A 
ATOM     36  C   UNL A   1      42.655  30.494  36.373  1.00  0.00     0.031 C 
ATOM     37  C   UNL A   1      43.174  28.976  34.480  1.00  0.00     0.034 A 
BRANCH  24  38
ATOM     38  C   UNL A   1      41.338  27.361  28.771  1.00  0.00     0.023 A 
ATOM     39  C   UNL A   1      42.341  27.599  27.815  1.00  0.00     0.031 A 
ATOM     40  C   UNL A   1      40.495  26.252  28.573  1.00  0.00     0.131 A 
ATOM     41  C   UNL A   1      42.431  26.788  26.674  1.00  0.00     0.055 A 
ATOM     42  C   UNL A   1      40.642  25.399  27.478  1.00  0.00     0.041 A 
ATOM     43  F   UNL A   1      39.504  25.984  29.437  1.00  0.00    -0.206 F 
ATOM     44  C   UNL A   1      41.606  25.672  26.511  1.00  0.00     0.022 A 
BRANCH  41  45
ATOM     45  S   UNL A   1      43.541  27.298  25.333  1.00  0.00     0.124 S 
ATOM     46  O   UNL A   1      44.311  28.364  25.973  1.00  0.00    -0.237 OA
ATOM     47  O   UNL A   1      44.272  26.071  25.043  1.00  0.00    -0.237 OA
ATOM     48  O   UNL A   1      42.629  27.745  24.283  1.00  0.00    -0.744 OA
ENDBRANCH  41  45
ENDBRANCH  24  38
BRANCH  25  49
ATOM     49  C   UNL A   1      39.527  33.321  36.635  1.00  0.00     0.023 A 
ATOM     50  C   UNL A   1      38.837  32.807  37.743  1.00  0.00     0.031 A 
ATOM     51  C   UNL A   1      39.905  34.676  36.663  1.00  0.00     0.131 A 
ATOM     52  C   UNL A   1      38.505  33.654  38.812  1.00  0.00     0.055 A 
ATOM     53  C   UNL A   1      39.629  35.498  37.756  1.00  0.00     0.041 A 
ATOM     54  F   UNL A   1      40.568  35.218  35.630  1.00  0.00    -0.206 F 
ATOM     55  C   UNL A   1      38.912  34.990  38.834  1.00  0.00     0.022 A 
BRANCH  52  56
ATOM     56  S   UNL A   1      37.448  33.006  40.135  1.00  0.00     0.124 S 
ATOM     57  O   UNL A   1      36.190  32.790  39.431  1.00  0.00    -0.237 OA
ATOM     58  O   UNL A   1      38.172  31.804  40.539  1.00  0.00    -0.237 OA
ATOM     59  O   UNL A   1      37.436  34.085  41.120  1.00  0.00    -0.744 OA
ENDBRANCH  52  56
ENDBRANCH  25  49
BRANCH  37  60
ATOM     60  C   UNL A   1      44.344  28.460  35.283  1.00  0.00     0.023 A 
ATOM     61  C   UNL A   1      44.192  27.458  36.256  1.00  0.00     0.031 A 
ATOM     62  C   UNL A   1      45.629  28.999  35.087  1.00  0.00     0.131 A 
ATOM     63  C   UNL A   1      45.289  27.071  37.041  1.00  0.00     0.055 A 
ATOM     64  C   UNL A   1      46.731  28.561  35.821  1.00  0.00     0.041 A 
ATOM     65  F   UNL A   1      45.834  29.964  34.176  1.00  0.00    -0.206 F 
ATOM     66  C   UNL A   1      46.562  27.601  36.816  1.00  0.00     0.022 A 
BRANCH  63  67
ATOM     67  S   UNL A   1      45.010  25.941  38.433  1.00  0.00     0.124 S 
ATOM     68  O   UNL A   1      44.152  26.740  39.302  1.00  0.00    -0.237 OA
ATOM     69  O   UNL A   1      44.374  24.798  37.785  1.00  0.00    -0.237 OA
ATOM     70  O   UNL A   1      46.356  25.692  38.947  1.00  0.00    -0.744 OA
ENDBRANCH  63  67
ENDBRANCH  37  60
ENDBRANCH  11  12
ENDBRANCH   4   6
ENDBRANCH   1   2
BRANCH   1  71
ATOM     71  C   UNL A   1      31.518  31.183  26.131  1.00  0.00     0.042 C 
BRANCH  71  72
ATOM     72  C   UNL A   1      31.708  29.767  25.599  1.00  0.00     0.117 C 
BRANCH  72  73
ATOM     73  N   UNL A   1      32.653  29.716  24.494  1.00  0.00    -0.354 N 
ATOM     74  C   UNL A   1      32.732  28.922  23.385  1.00  0.00     0.247 C 
ATOM     75  H   UNL A   1      33.376  30.381  24.558  1.00  0.00     0.163 HD
ATOM     76  O   UNL A   1      33.790  28.974  22.746  1.00  0.00    -0.272 OA
BRANCH  74  77
ATOM     77  C   UNL A   1      31.608  27.932  22.964  1.00  0.00     0.202 C 
BRANCH  77  78
ATOM     78  C   UNL A   1      30.288  28.643  22.725  1.00  0.00    -0.016 A 
ATOM     79  C   UNL A   1      29.074  28.188  23.259  1.00  0.00     0.006 A 
ATOM     80  C   UNL A   1      30.267  29.819  21.951  1.00  0.00     0.006 A 
ATOM     81  C   UNL A   1      27.879  28.872  23.023  1.00  0.00     0.000 A 
ATOM     82  C   UNL A   1      29.078  30.523  21.744  1.00  0.00     0.000 A 
ATOM     83  C   UNL A   1      27.883  30.045  22.275  1.00  0.00     0.000 A 
ENDBRANCH  77  78
BRANCH  77  84
ATOM     84  N   UNL A   1      32.042  27.019  21.901  1.00  0.00    -0.336 N 
ATOM     85  C   UNL A   1      32.814  25.890  21.983  1.00  0.00     0.253 C 
ATOM     86  H   UNL A   1      31.734  27.251  20.995  1.00  0.00     0.165 HD
ATOM     87  O   UNL A   1      33.393  25.467  20.987  1.00  0.00    -0.269 OA
BRANCH  85  88
ATOM     88  C   UNL A   1      32.994  25.196  23.261  1.00  0.00     0.058 A 
ATOM     89  C   UNL A   1      34.056  25.484  24.112  1.00  0.00     0.018 A 
ATOM     90  C   UNL A   1      32.052  24.269  23.674  1.00  0.00     0.126 A 
ATOM     91  C   UNL A   1      34.202  24.753  25.288  1.00  0.00     0.037 A 
ATOM     92  N   UNL A   1      32.157  23.554  24.821  1.00  0.00    -0.249 NA
ATOM     93  C   UNL A   1      33.242  23.800  25.593  1.00  0.00     0.106 A 
ATOM     94  Br  UNL A   1      33.449  22.771  27.173  1.00  0.00    -0.029 Br
ENDBRANCH  85  88
ENDBRANCH  77  84
ENDBRANCH  74  77
ENDBRANCH  72  73
ENDBRANCH  71  72
ENDBRANCH   1  71
TORSDOF 16
ENDMDL
MODEL 2
REMARK VINA RESULT:     -12.4      1.467      7.716
REMARK SMILES O=C(NCCCNC(=O)[C@H](NC(=O)c1ccc(Br)nc1)c1ccccc1)c1ccc(-c2c3nc(c(-c4cc(S(=O)(=O)[O-])ccc4F)c4ccc([nH]4)c(-c4cc(S(=O)(=O)[O-])ccc4F)c4nc(c(-c5cc(S(=O)(=O)[O-])ccc5F)c5ccc2[nH]5)C=C4)C=C3)cc1
REMARK SMILES IDX 4 1 3 2 1 3 2 4 27 6 28 7 89 8 29 9 88 10 30 11 31 12 32 13
REMARK SMILES IDX 82 14 33 15 87 16 81 17 83 18 34 19 86 20 80 21 79 22 35 24
REMARK SMILES IDX 67 25 47 26 66 27 48 28 51 29 65 30 84 31 49 32 50 33 64 35
REMARK SMILES IDX 85 36 52 37 36 38 37 39 45 40 38 41 44 42 46 43 43 44 39 45
REMARK SMILES IDX 40 46 41 47 42 48 68 49 69 50 77 51 70 52 76 53 78 54 75 55
REMARK SMILES IDX 71 56 72 57 73 58 74 59 53 60 54 61 62 62 55 63 61 64 63 65
REMARK SMILES IDX 60 66 56 67 57 68 58 69 59 70 5 71 6 72 7 73 8 74 9 76 10 77
REMARK SMILES IDX 21 78 22 79 26 80 23 81 25 82 24 83 11 84 12 85 13 87 14 88
REMARK SMILES IDX 15 89 20 90 16 91 19 92 17 93 18 94
REMARK H PARENT 3 5 83 23 51 34 7 75 11 86
REMARK Flexibility Score: inf
ROOT
ATOM      1  C   UNL A   1      32.554  31.577  27.073  1.00  0.00     0.118 C 
ENDROOT
BRANCH   1   2
ATOM      2  N   UNL A   1      32.613  33.016  27.283  1.00  0.00    -0.352 N 
ATOM      3  O   UNL A   1      33.202  34.953  28.256  1.00  0.00    -0.269 OA
ATOM      4  C   UNL A   1      33.448  33.760  28.081  1.00  0.00     0.251 C 
ATOM      5  H   UNL A   1      31.952  33.539  26.772  1.00  0.00     0.163 HD
BRANCH   4   6
ATOM      6  C   UNL A   1      34.621  33.140  28.739  1.00  0.00     0.039 A 
ATOM      7  C   UNL A   1      34.462  32.257  29.808  1.00  0.00     0.014 A 
ATOM      8  C   UNL A   1      35.903  33.410  28.250  1.00  0.00     0.014 A 
ATOM      9  C   UNL A   1      35.577  31.771  30.482  1.00  0.00     0.010 A 
ATOM     10  C   UNL A   1      37.021  32.833  28.862  1.00  0.00     0.010 A 
ATOM     11  C   UNL A   1      36.869  32.025  29.999  1.00  0.00    -0.014 A 
BRANCH  11  12
ATOM     12  C   UNL A   1      38.030  31.364  30.652  1.00  0.00     0.031 A 
ATOM     13  C   UNL A   1      38.431  31.702  32.061  1.00  0.00     0.074 A 
ATOM     14  C   UNL A   1      38.711  30.429  29.959  1.00  0.00     0.049 A 
ATOM     15  N   UNL A   1      39.415  31.220  32.775  1.00  0.00    -0.248 NA
ATOM     16  C   UNL A   1      37.628  32.720  32.755  1.00  0.00     0.031 C 
ATOM     17  C   UNL A   1      38.414  30.023  28.582  1.00  0.00     0.029 A 
ATOM     18  N   UNL A   1      39.777  29.641  30.312  1.00  0.00    -0.354 N 
ATOM     19  C   UNL A   1      39.363  31.879  33.999  1.00  0.00     0.074 A 
ATOM     20  C   UNL A   1      38.269  32.826  33.911  1.00  0.00     0.031 C 
ATOM     21  C   UNL A   1      39.241  29.031  28.226  1.00  0.00     0.029 A 
ATOM     22  C   UNL A   1      40.183  28.787  29.313  1.00  0.00     0.049 A 
ATOM     23  H   UNL A   1      40.209  29.683  31.194  1.00  0.00     0.167 HD
ATOM     24  C   UNL A   1      40.147  31.703  35.092  1.00  0.00     0.034 A 
ATOM     25  C   UNL A   1      41.215  27.924  29.258  1.00  0.00     0.034 A 
ATOM     26  C   UNL A   1      41.239  30.757  35.153  1.00  0.00     0.049 A 
ATOM     27  C   UNL A   1      42.110  27.797  30.461  1.00  0.00     0.074 A 
ATOM     28  C   UNL A   1      42.079  30.479  36.218  1.00  0.00     0.029 A 
ATOM     29  N   UNL A   1      41.656  29.948  34.103  1.00  0.00    -0.354 N 
ATOM     30  N   UNL A   1      42.031  28.413  31.618  1.00  0.00    -0.248 NA
ATOM     31  C   UNL A   1      43.232  26.857  30.351  1.00  0.00     0.031 C 
ATOM     32  C   UNL A   1      43.049  29.567  35.788  1.00  0.00     0.029 A 
ATOM     33  C   UNL A   1      42.763  29.202  34.483  1.00  0.00     0.049 A 
ATOM     34  H   UNL A   1      41.227  29.909  33.216  1.00  0.00     0.167 HD
ATOM     35  C   UNL A   1      43.081  27.915  32.383  1.00  0.00     0.074 A 
ATOM     36  C   UNL A   1      43.762  26.933  31.563  1.00  0.00     0.031 C 
ATOM     37  C   UNL A   1      43.447  28.238  33.650  1.00  0.00     0.034 A 
BRANCH  24  38
ATOM     38  C   UNL A   1      39.882  32.583  36.292  1.00  0.00     0.023 A 
ATOM     39  C   UNL A   1      38.999  32.199  37.316  1.00  0.00     0.031 A 
ATOM     40  C   UNL A   1      40.513  33.835  36.409  1.00  0.00     0.131 A 
ATOM     41  C   UNL A   1      38.716  33.082  38.369  1.00  0.00     0.055 A 
ATOM     42  C   UNL A   1      40.292  34.675  37.501  1.00  0.00     0.041 A 
ATOM     43  F   UNL A   1      41.351  34.271  35.454  1.00  0.00    -0.206 F 
ATOM     44  C   UNL A   1      39.376  34.308  38.483  1.00  0.00     0.022 A 
BRANCH  41  45
ATOM     45  S   UNL A   1      37.362  32.671  39.505  1.00  0.00     0.124 S 
ATOM     46  O   UNL A   1      37.709  31.307  39.900  1.00  0.00    -0.237 OA
ATOM     47  O   UNL A   1      37.498  33.688  40.540  1.00  0.00    -0.237 OA
ATOM     48  O   UNL A   1      36.167  32.784  38.671  1.00  0.00    -0.744 OA
ENDBRANCH  41  45
ENDBRANCH  24  38
BRANCH  25  49
ATOM     49  C   UNL A   1      41.482  27.148  28.013  1.00  0.00     0.023 A 
ATOM     50  C   UNL A   1      41.156  25.787  27.923  1.00  0.00     0.031 A 
ATOM     51  C   UNL A   1      42.099  27.754  26.902  1.00  0.00     0.131 A 
ATOM     52  C   UNL A   1      41.491  25.065  26.767  1.00  0.00     0.055 A 
ATOM     53  C   UNL A   1      42.371  27.047  25.732  1.00  0.00     0.041 A 
ATOM     54  F   UNL A   1      42.430  29.054  26.934  1.00  0.00    -0.206 F 
ATOM     55  C   UNL A   1      42.078  25.689  25.664  1.00  0.00     0.022 A 
BRANCH  52  56
ATOM     56  S   UNL A   1      41.230  23.270  26.761  1.00  0.00     0.124 S 
ATOM     57  O   UNL A   1      42.093  22.849  25.663  1.00  0.00    -0.237 OA
ATOM     58  O   UNL A   1      41.669  22.896  28.102  1.00  0.00    -0.237 OA
ATOM     59  O   UNL A   1      39.796  23.136  26.516  1.00  0.00    -0.744 OA
ENDBRANCH  52  56
ENDBRANCH  25  49
BRANCH  37  60
ATOM     60  C   UNL A   1      44.617  27.484  34.234  1.00  0.00     0.023 A 
ATOM     61  C   UNL A   1      44.446  26.284  34.946  1.00  0.00     0.031 A 
ATOM     62  C   UNL A   1      45.923  27.989  34.096  1.00  0.00     0.131 A 
ATOM     63  C   UNL A   1      45.551  25.663  35.548  1.00  0.00     0.055 A 
ATOM     64  C   UNL A   1      47.028  27.330  34.636  1.00  0.00     0.041 A 
ATOM     65  F   UNL A   1      46.147  29.134  33.432  1.00  0.00    -0.206 F 
ATOM     66  C   UNL A   1      46.844  26.167  35.380  1.00  0.00     0.022 A 
BRANCH  63  67
ATOM     67  S   UNL A   1      45.265  24.245  36.642  1.00  0.00     0.124 S 
ATOM     68  O   UNL A   1      44.470  23.364  35.792  1.00  0.00    -0.237 OA
ATOM     69  O   UNL A   1      46.622  23.797  36.934  1.00  0.00    -0.237 OA
ATOM     70  O   UNL A   1      44.547  24.827  37.776  1.00  0.00    -0.744 OA
ENDBRANCH  63  67
ENDBRANCH  37  60
ENDBRANCH  11  12
ENDBRANCH   4   6
ENDBRANCH   1   2
BRANCH   1  71
ATOM     71  C   UNL A   1      31.447  31.170  26.116  1.00  0.00     0.042 C 
BRANCH  71  72
ATOM     72  C   UNL A   1      31.602  29.768  25.539  1.00  0.00     0.117 C 
BRANCH  72  73
ATOM     73  N   UNL A   1      32.545  29.728  24.431  1.00  0.00    -0.354 N 
ATOM     74  C   UNL A   1      32.617  28.952  23.309  1.00  0.00     0.247 C 
ATOM     75  H   UNL A   1      33.273  30.388  24.505  1.00  0.00     0.163 HD
ATOM     76  O   UNL A   1      33.674  29.009  22.669  1.00  0.00    -0.272 OA
BRANCH  74  77
ATOM     77  C   UNL A   1      31.485  27.978  22.874  1.00  0.00     0.202 C 
BRANCH  77  78
ATOM     78  C   UNL A   1      30.173  28.704  22.634  1.00  0.00    -0.016 A 
ATOM     79  C   UNL A   1      30.077  29.848  21.830  1.00  0.00     0.006 A 
ATOM     80  C   UNL A   1      28.994  28.211  23.223  1.00  0.00     0.006 A 
ATOM     81  C   UNL A   1      28.851  30.487  21.626  1.00  0.00     0.000 A 
ATOM     82  C   UNL A   1      27.761  28.829  22.991  1.00  0.00     0.000 A 
ATOM     83  C   UNL A   1      27.692  29.971  22.198  1.00  0.00     0.000 A 
ENDBRANCH  77  78
BRANCH  77  84
ATOM     84  N   UNL A   1      31.916  27.070  21.804  1.00  0.00    -0.336 N 
ATOM     85  C   UNL A   1      32.698  25.948  21.876  1.00  0.00     0.253 C 
ATOM     86  H   UNL A   1      31.595  27.301  20.902  1.00  0.00     0.165 HD
ATOM     87  O   UNL A   1      33.271  25.532  20.873  1.00  0.00    -0.269 OA
BRANCH  85  88
ATOM     88  C   UNL A   1      32.900  25.254  23.150  1.00  0.00     0.058 A 
ATOM     89  C   UNL A   1      33.989  25.523  23.972  1.00  0.00     0.018 A 
ATOM     90  C   UNL A   1      31.951  24.347  23.591  1.00  0.00     0.126 A 
ATOM     91  C   UNL A   1      34.152  24.792  25.145  1.00  0.00     0.037 A 
ATOM     92  N   UNL A   1      32.072  23.632  24.737  1.00  0.00    -0.249 NA
ATOM     93  C   UNL A   1      33.182  23.859  25.480  1.00  0.00     0.106 A 
ATOM     94  Br  UNL A   1      33.411  22.831  27.056  1.00  0.00    -0.029 Br
ENDBRANCH  85  88
ENDBRANCH  77  84
ENDBRANCH  74  77
ENDBRANCH  72  73
ENDBRANCH  71  72
ENDBRANCH   1  71
TORSDOF 16
ENDMDL
MODEL 3
REMARK VINA RESULT:     -12.2      3.190      8.311
REMARK SMILES O=C(NCCCNC(=O)[C@H](NC(=O)c1ccc(Br)nc1)c1ccccc1)c1ccc(-c2c3nc(c(-c4cc(S(=O)(=O)[O-])ccc4F)c4ccc([nH]4)c(-c4cc(S(=O)(=O)[O-])ccc4F)c4nc(c(-c5cc(S(=O)(=O)[O-])ccc5F)c5ccc2[nH]5)C=C4)C=C3)cc1
REMARK SMILES IDX 4 1 3 2 1 3 2 4 27 6 28 7 89 8 29 9 88 10 30 11 31 12 32 13
REMARK SMILES IDX 82 14 33 15 87 16 81 17 83 18 34 19 86 20 80 21 79 22 35 24
REMARK SMILES IDX 67 25 47 26 66 27 48 28 51 29 65 30 84 31 49 32 50 33 64 35
REMARK SMILES IDX 85 36 52 37 36 38 37 39 45 40 38 41 44 42 46 43 43 44 39 45
REMARK SMILES IDX 40 46 41 47 42 48 68 49 69 50 77 51 70 52 76 53 78 54 75 55
REMARK SMILES IDX 71 56 72 57 73 58 74 59 53 60 54 61 62 62 55 63 61 64 63 65
REMARK SMILES IDX 60 66 56 67 57 68 58 69 59 70 5 71 6 72 7 73 8 74 9 76 10 77
REMARK SMILES IDX 21 78 22 79 26 80 23 81 25 82 24 83 11 84 12 85 13 87 14 88
REMARK SMILES IDX 15 89 20 90 16 91 19 92 17 93 18 94
REMARK H PARENT 3 5 83 23 51 34 7 75 11 86
REMARK Flexibility Score: inf
ROOT
ATOM      1  C   UNL A   1      33.532  29.535  27.088  1.00  0.00     0.118 C 
ENDROOT
BRANCH   1   2
ATOM      2  N   UNL A   1      33.538  30.963  27.371  1.00  0.00    -0.352 N 
ATOM      3  O   UNL A   1      34.135  32.881  28.376  1.00  0.00    -0.269 OA
ATOM      4  C   UNL A   1      34.422  31.715  28.106  1.00  0.00     0.251 C 
ATOM      5  H   UNL A   1      32.793  31.469  26.972  1.00  0.00     0.163 HD
BRANCH   4   6
ATOM      6  C   UNL A   1      35.698  31.135  28.584  1.00  0.00     0.039 A 
ATOM      7  C   UNL A   1      36.914  31.775  28.339  1.00  0.00     0.014 A 
ATOM      8  C   UNL A   1      35.676  29.952  29.328  1.00  0.00     0.014 A 
ATOM      9  C   UNL A   1      38.108  31.161  28.700  1.00  0.00     0.010 A 
ATOM     10  C   UNL A   1      36.874  29.391  29.786  1.00  0.00     0.010 A 
ATOM     11  C   UNL A   1      38.104  29.979  29.455  1.00  0.00    -0.014 A 
BRANCH  11  12
ATOM     12  C   UNL A   1      39.394  29.433  29.955  1.00  0.00     0.031 A 
ATOM     13  C   UNL A   1      40.080  30.024  31.155  1.00  0.00     0.074 A 
ATOM     14  C   UNL A   1      39.932  28.372  29.319  1.00  0.00     0.049 A 
ATOM     15  N   UNL A   1      41.206  29.668  31.718  1.00  0.00    -0.248 NA
ATOM     16  C   UNL A   1      39.421  31.168  31.801  1.00  0.00     0.031 C 
ATOM     17  C   UNL A   1      39.355  27.718  28.141  1.00  0.00     0.029 A 
ATOM     18  N   UNL A   1      41.067  27.646  29.576  1.00  0.00    -0.354 N 
ATOM     19  C   UNL A   1      41.402  30.547  32.777  1.00  0.00     0.074 A 
ATOM     20  C   UNL A   1      40.292  31.479  32.751  1.00  0.00     0.031 C 
ATOM     21  C   UNL A   1      40.110  26.662  27.808  1.00  0.00     0.029 A 
ATOM     22  C   UNL A   1      41.269  26.611  28.692  1.00  0.00     0.049 A 
ATOM     23  H   UNL A   1      41.678  27.846  30.321  1.00  0.00     0.167 HD
ATOM     24  C   UNL A   1      42.407  30.566  33.689  1.00  0.00     0.034 A 
ATOM     25  C   UNL A   1      42.285  25.735  28.580  1.00  0.00     0.034 A 
ATOM     26  C   UNL A   1      43.509  29.630  33.690  1.00  0.00     0.049 A 
ATOM     27  C   UNL A   1      43.421  25.822  29.564  1.00  0.00     0.074 A 
ATOM     28  C   UNL A   1      44.564  29.543  34.582  1.00  0.00     0.029 A 
ATOM     29  N   UNL A   1      43.709  28.630  32.746  1.00  0.00    -0.354 N 
ATOM     30  N   UNL A   1      43.578  26.646  30.573  1.00  0.00    -0.248 NA
ATOM     31  C   UNL A   1      44.515  24.858  29.394  1.00  0.00     0.031 C 
ATOM     32  C   UNL A   1      45.440  28.549  34.132  1.00  0.00     0.029 A 
ATOM     33  C   UNL A   1      44.889  27.949  33.012  1.00  0.00     0.049 A 
ATOM     34  H   UNL A   1      43.101  28.431  31.997  1.00  0.00     0.167 HD
ATOM     35  C   UNL A   1      44.779  26.284  31.174  1.00  0.00     0.074 A 
ATOM     36  C   UNL A   1      45.290  25.152  30.426  1.00  0.00     0.031 C 
ATOM     37  C   UNL A   1      45.401  26.833  32.248  1.00  0.00     0.034 A 
BRANCH  24  38
ATOM     38  C   UNL A   1      42.385  31.662  34.730  1.00  0.00     0.023 A 
ATOM     39  C   UNL A   1      41.502  31.632  35.823  1.00  0.00     0.031 A 
ATOM     40  C   UNL A   1      43.254  32.764  34.621  1.00  0.00     0.131 A 
ATOM     41  C   UNL A   1      41.455  32.711  36.719  1.00  0.00     0.055 A 
ATOM     42  C   UNL A   1      43.261  33.795  35.563  1.00  0.00     0.041 A 
ATOM     43  F   UNL A   1      44.106  32.863  33.589  1.00  0.00    -0.206 F 
ATOM     44  C   UNL A   1      42.347  33.780  36.612  1.00  0.00     0.022 A 
BRANCH  41  45
ATOM     45  S   UNL A   1      40.112  32.768  37.938  1.00  0.00     0.124 S 
ATOM     46  O   UNL A   1      39.728  34.177  37.892  1.00  0.00    -0.237 OA
ATOM     47  O   UNL A   1      39.146  31.825  37.388  1.00  0.00    -0.237 OA
ATOM     48  O   UNL A   1      40.757  32.347  39.180  1.00  0.00    -0.744 OA
ENDBRANCH  41  45
ENDBRANCH  24  38
BRANCH  25  49
ATOM     49  C   UNL A   1      42.296  24.734  27.475  1.00  0.00     0.023 A 
ATOM     50  C   UNL A   1      41.570  23.538  27.574  1.00  0.00     0.031 A 
ATOM     51  C   UNL A   1      43.063  24.946  26.315  1.00  0.00     0.131 A 
ATOM     52  C   UNL A   1      41.663  22.580  26.552  1.00  0.00     0.055 A 
ATOM     53  C   UNL A   1      43.101  24.019  25.274  1.00  0.00     0.041 A 
ATOM     54  F   UNL A   1      43.777  26.074  26.168  1.00  0.00    -0.206 F 
ATOM     55  C   UNL A   1      42.407  22.820  25.395  1.00  0.00     0.022 A 
BRANCH  52  56
ATOM     56  S   UNL A   1      40.866  20.969  26.801  1.00  0.00     0.124 S 
ATOM     57  O   UNL A   1      39.620  21.139  26.063  1.00  0.00    -0.237 OA
ATOM     58  O   UNL A   1      41.841  20.055  26.214  1.00  0.00    -0.237 OA
ATOM     59  O   UNL A   1      40.726  20.880  28.252  1.00  0.00    -0.744 OA
ENDBRANCH  52  56
ENDBRANCH  25  49
BRANCH  37  60
ATOM     60  C   UNL A   1      46.687  26.183  32.698  1.00  0.00     0.023 A 
ATOM     61  C   UNL A   1      47.927  26.521  32.130  1.00  0.00     0.031 A 
ATOM     62  C   UNL A   1      46.666  25.191  33.695  1.00  0.00     0.131 A 
ATOM     63  C   UNL A   1      49.086  25.830  32.516  1.00  0.00     0.055 A 
ATOM     64  C   UNL A   1      47.831  24.555  34.125  1.00  0.00     0.041 A 
ATOM     65  F   UNL A   1      45.509  24.821  34.268  1.00  0.00    -0.206 F 
ATOM     66  C   UNL A   1      49.049  24.863  33.525  1.00  0.00     0.022 A 
BRANCH  63  67
ATOM     67  S   UNL A   1      50.626  26.135  31.608  1.00  0.00     0.124 S 
ATOM     68  O   UNL A   1      50.946  24.803  31.102  1.00  0.00    -0.237 OA
ATOM     69  O   UNL A   1      50.212  27.114  30.609  1.00  0.00    -0.237 OA
ATOM     70  O   UNL A   1      51.535  26.643  32.635  1.00  0.00    -0.744 OA
ENDBRANCH  63  67
ENDBRANCH  37  60
ENDBRANCH  11  12
ENDBRANCH   4   6
ENDBRANCH   1   2
BRANCH   1  71
ATOM     71  C   UNL A   1      32.161  29.025  26.678  1.00  0.00     0.042 C 
BRANCH  71  72
ATOM     72  C   UNL A   1      31.604  29.672  25.414  1.00  0.00     0.117 C 
BRANCH  72  73
ATOM     73  N   UNL A   1      32.549  29.625  24.309  1.00  0.00    -0.354 N 
ATOM     74  C   UNL A   1      32.620  28.845  23.189  1.00  0.00     0.247 C 
ATOM     75  H   UNL A   1      33.279  30.282  24.381  1.00  0.00     0.163 HD
ATOM     76  O   UNL A   1      33.678  28.895  22.551  1.00  0.00    -0.272 OA
BRANCH  74  77
ATOM     77  C   UNL A   1      31.486  27.873  22.756  1.00  0.00     0.202 C 
BRANCH  77  78
ATOM     78  C   UNL A   1      30.158  28.590  22.588  1.00  0.00    -0.016 A 
ATOM     79  C   UNL A   1      28.965  28.116  23.150  1.00  0.00     0.006 A 
ATOM     80  C   UNL A   1      30.110  29.791  21.855  1.00  0.00     0.006 A 
ATOM     81  C   UNL A   1      27.762  28.807  22.981  1.00  0.00     0.000 A 
ATOM     82  C   UNL A   1      28.914  30.500  21.714  1.00  0.00     0.000 A 
ATOM     83  C   UNL A   1      27.739  30.003  22.272  1.00  0.00     0.000 A 
ENDBRANCH  77  78
BRANCH  77  84
ATOM     84  N   UNL A   1      31.891  27.011  21.638  1.00  0.00    -0.336 N 
ATOM     85  C   UNL A   1      32.535  25.802  21.660  1.00  0.00     0.253 C 
ATOM     86  H   UNL A   1      31.666  27.351  20.742  1.00  0.00     0.165 HD
ATOM     87  O   UNL A   1      33.130  25.405  20.662  1.00  0.00    -0.269 OA
BRANCH  85  88
ATOM     88  C   UNL A   1      32.562  24.987  22.877  1.00  0.00     0.058 A 
ATOM     89  C   UNL A   1      31.563  24.064  23.167  1.00  0.00     0.018 A 
ATOM     90  C   UNL A   1      33.641  25.083  23.739  1.00  0.00     0.126 A 
ATOM     91  C   UNL A   1      31.618  23.358  24.365  1.00  0.00     0.037 A 
ATOM     92  N   UNL A   1      33.733  24.396  24.904  1.00  0.00    -0.249 NA
ATOM     93  C   UNL A   1      32.708  23.561  25.200  1.00  0.00     0.106 A 
ATOM     94  Br  UNL A   1      32.777  22.633  26.852  1.00  0.00    -0.029 Br
ENDBRANCH  85  88
ENDBRANCH  77  84
ENDBRANCH  74  77
ENDBRANCH  72  73
ENDBRANCH  71  72
ENDBRANCH   1  71
TORSDOF 16
ENDMDL
