MODEL 1
REMARK VINA RESULT:     -12.5      0.000      0.000
REMARK SMILES O=C(NCCCNC(=O)c1ccc(Cn2ccc3ccc(Br)cc32)nc1)c1ccc(-c2c3nc(c(-c4cc(S(=O)(=O)[O-])ccc4F)c4ccc([nH]4)c(-c4cc(S(=O)(=O)[O-])ccc4F)c4nc(c(-c5cc(S(=O)(=O)[O-])ccc5F)c5ccc2[nH]5)C=C4)C=C3)cc1
REMARK SMILES IDX 4 1 3 2 1 3 2 4 27 6 28 7 89 8 29 9 88 10 30 11 31 12 32 13
REMARK SMILES IDX 82 14 33 15 87 16 81 17 83 18 34 19 86 20 80 21 79 22 35 24
REMARK SMILES IDX 67 25 47 26 66 27 48 28 51 29 65 30 84 31 49 32 50 33 64 35
REMARK SMILES IDX 85 36 52 37 36 38 37 39 45 40 38 41 44 42 46 43 43 44 39 45
REMARK SMILES IDX 40 46 41 47 42 48 68 49 69 50 77 51 70 52 76 53 78 54 75 55
REMARK SMILES IDX 71 56 72 57 73 58 74 59 53 60 54 61 62 62 55 63 61 64 63 65
REMARK SMILES IDX 60 66 56 67 57 68 58 69 59 70 5 71 6 72 7 73 8 74 9 76 10 77
REMARK SMILES IDX 11 78 26 79 12 80 25 81 13 82 14 83 15 84 16 85 24 86 17 87
REMARK SMILES IDX 18 88 23 89 19 90 21 91 20 92 22 93
REMARK H PARENT 3 5 83 23 51 34 7 75
REMARK Flexibility Score: inf
ROOT
ATOM      1  C   UNL A   1      38.418  21.114  25.476  1.00  0.00     0.118 C 
ENDROOT
BRANCH   1   2
ATOM      2  N   UNL A   1      39.172  19.850  25.583  1.00  0.00    -0.352 N 
ATOM      3  O   UNL A   1      41.098  18.627  25.683  1.00  0.00    -0.269 OA
ATOM      4  C   UNL A   1      40.535  19.680  25.864  1.00  0.00     0.251 C 
ATOM      5  H   UNL A   1      38.654  19.024  25.440  1.00  0.00     0.163 HD
BRANCH   4   6
ATOM      6  C   UNL A   1      41.248  20.855  26.410  1.00  0.00     0.039 A 
ATOM      7  C   UNL A   1      41.793  21.878  25.633  1.00  0.00     0.014 A 
ATOM      8  C   UNL A   1      41.155  20.988  27.778  1.00  0.00     0.014 A 
ATOM      9  C   UNL A   1      42.127  23.079  26.270  1.00  0.00     0.010 A 
ATOM     10  C   UNL A   1      41.080  22.253  28.268  1.00  0.00     0.010 A 
ATOM     11  C   UNL A   1      41.735  23.270  27.603  1.00  0.00    -0.014 A 
BRANCH  11  12
ATOM     12  C   UNL A   1      41.992  24.484  28.373  1.00  0.00     0.031 A 
ATOM     13  C   UNL A   1      40.943  25.533  28.331  1.00  0.00     0.074 A 
ATOM     14  C   UNL A   1      43.045  24.604  29.218  1.00  0.00     0.049 A 
ATOM     15  N   UNL A   1      40.987  26.661  27.705  1.00  0.00    -0.248 NA
ATOM     16  C   UNL A   1      39.645  25.245  28.952  1.00  0.00     0.031 C 
ATOM     17  C   UNL A   1      44.031  23.598  29.663  1.00  0.00     0.029 A 
ATOM     18  N   UNL A   1      43.399  25.684  29.957  1.00  0.00    -0.354 N 
ATOM     19  C   UNL A   1      39.798  27.323  28.007  1.00  0.00     0.074 A 
ATOM     20  C   UNL A   1      38.947  26.336  28.627  1.00  0.00     0.031 C 
ATOM     21  C   UNL A   1      44.667  24.032  30.769  1.00  0.00     0.029 A 
ATOM     22  C   UNL A   1      44.326  25.423  30.953  1.00  0.00     0.049 A 
ATOM     23  H   UNL A   1      43.028  26.581  29.798  1.00  0.00     0.167 HD
ATOM     24  C   UNL A   1      39.682  28.679  27.897  1.00  0.00     0.034 A 
ATOM     25  C   UNL A   1      44.799  26.287  31.878  1.00  0.00     0.034 A 
ATOM     26  C   UNL A   1      40.810  29.243  27.199  1.00  0.00     0.049 A 
ATOM     27  C   UNL A   1      44.550  27.654  31.360  1.00  0.00     0.074 A 
ATOM     28  C   UNL A   1      41.323  29.109  25.925  1.00  0.00     0.029 A 
ATOM     29  N   UNL A   1      41.826  29.778  27.956  1.00  0.00    -0.354 N 
ATOM     30  N   UNL A   1      45.149  28.151  30.311  1.00  0.00    -0.248 NA
ATOM     31  C   UNL A   1      43.290  28.285  31.717  1.00  0.00     0.031 C 
ATOM     32  C   UNL A   1      42.738  29.095  26.102  1.00  0.00     0.029 A 
ATOM     33  C   UNL A   1      43.009  29.290  27.459  1.00  0.00     0.049 A 
ATOM     34  H   UNL A   1      41.724  30.397  28.715  1.00  0.00     0.167 HD
ATOM     35  C   UNL A   1      44.151  28.833  29.626  1.00  0.00     0.074 A 
ATOM     36  C   UNL A   1      43.056  28.962  30.590  1.00  0.00     0.031 C 
ATOM     37  C   UNL A   1      44.178  28.983  28.267  1.00  0.00     0.034 A 
BRANCH  24  38
ATOM     38  C   UNL A   1      38.708  29.530  28.674  1.00  0.00     0.023 A 
ATOM     39  C   UNL A   1      37.597  30.156  28.081  1.00  0.00     0.031 A 
ATOM     40  C   UNL A   1      38.753  29.570  30.084  1.00  0.00     0.131 A 
ATOM     41  C   UNL A   1      36.615  30.798  28.848  1.00  0.00     0.055 A 
ATOM     42  C   UNL A   1      37.737  30.151  30.855  1.00  0.00     0.041 A 
ATOM     43  F   UNL A   1      39.763  29.002  30.761  1.00  0.00    -0.206 F 
ATOM     44  C   UNL A   1      36.660  30.772  30.237  1.00  0.00     0.022 A 
BRANCH  41  45
ATOM     45  S   UNL A   1      35.255  31.681  28.035  1.00  0.00     0.124 S 
ATOM     46  O   UNL A   1      34.758  30.672  27.105  1.00  0.00    -0.237 OA
ATOM     47  O   UNL A   1      34.382  31.986  29.166  1.00  0.00    -0.237 OA
ATOM     48  O   UNL A   1      35.912  32.838  27.434  1.00  0.00    -0.744 OA
ENDBRANCH  41  45
ENDBRANCH  24  38
BRANCH  25  49
ATOM     49  C   UNL A   1      44.907  25.970  33.319  1.00  0.00     0.023 A 
ATOM     50  C   UNL A   1      43.802  26.182  34.170  1.00  0.00     0.031 A 
ATOM     51  C   UNL A   1      46.152  25.743  33.918  1.00  0.00     0.131 A 
ATOM     52  C   UNL A   1      43.970  26.224  35.559  1.00  0.00     0.055 A 
ATOM     53  C   UNL A   1      46.316  25.763  35.308  1.00  0.00     0.041 A 
ATOM     54  F   UNL A   1      47.245  25.560  33.162  1.00  0.00    -0.206 F 
ATOM     55  C   UNL A   1      45.225  26.021  36.135  1.00  0.00     0.022 A 
BRANCH  52  56
ATOM     56  S   UNL A   1      42.573  26.636  36.642  1.00  0.00     0.124 S 
ATOM     57  O   UNL A   1      42.640  25.577  37.645  1.00  0.00    -0.237 OA
ATOM     58  O   UNL A   1      42.945  27.967  37.107  1.00  0.00    -0.237 OA
ATOM     59  O   UNL A   1      41.418  26.574  35.751  1.00  0.00    -0.744 OA
ENDBRANCH  52  56
ENDBRANCH  25  49
BRANCH  37  60
ATOM     60  C   UNL A   1      45.418  28.562  27.496  1.00  0.00     0.023 A 
ATOM     61  C   UNL A   1      45.441  27.261  26.964  1.00  0.00     0.031 A 
ATOM     62  C   UNL A   1      46.632  29.278  27.488  1.00  0.00     0.131 A 
ATOM     63  C   UNL A   1      46.640  26.700  26.501  1.00  0.00     0.055 A 
ATOM     64  C   UNL A   1      47.814  28.740  26.966  1.00  0.00     0.041 A 
ATOM     65  F   UNL A   1      46.740  30.481  28.061  1.00  0.00    -0.206 F 
ATOM     66  C   UNL A   1      47.826  27.437  26.485  1.00  0.00     0.022 A 
BRANCH  63  67
ATOM     67  S   UNL A   1      46.721  24.947  26.056  1.00  0.00     0.124 S 
ATOM     68  O   UNL A   1      46.859  25.003  24.603  1.00  0.00    -0.237 OA
ATOM     69  O   UNL A   1      47.908  24.497  26.780  1.00  0.00    -0.237 OA
ATOM     70  O   UNL A   1      45.458  24.399  26.542  1.00  0.00    -0.744 OA
ENDBRANCH  63  67
ENDBRANCH  37  60
ENDBRANCH  11  12
ENDBRANCH   4   6
ENDBRANCH   1   2
BRANCH   1  71
ATOM     71  C   UNL A   1      37.179  21.043  24.610  1.00  0.00     0.042 C 
BRANCH  71  72
ATOM     72  C   UNL A   1      35.892  21.124  25.427  1.00  0.00     0.118 C 
BRANCH  72  73
ATOM     73  N   UNL A   1      35.052  19.934  25.356  1.00  0.00    -0.352 N 
ATOM     74  C   UNL A   1      33.732  19.816  24.995  1.00  0.00     0.252 C 
ATOM     75  H   UNL A   1      35.497  19.091  25.603  1.00  0.00     0.163 HD
ATOM     76  O   UNL A   1      33.174  18.727  24.971  1.00  0.00    -0.269 OA
BRANCH  74  77
ATOM     77  C   UNL A   1      32.986  21.022  24.630  1.00  0.00     0.058 A 
ATOM     78  C   UNL A   1      32.353  21.811  25.590  1.00  0.00     0.017 A 
ATOM     79  C   UNL A   1      32.878  21.368  23.300  1.00  0.00     0.125 A 
ATOM     80  C   UNL A   1      31.579  22.892  25.178  1.00  0.00     0.026 A 
ATOM     81  N   UNL A   1      32.104  22.395  22.880  1.00  0.00    -0.259 NA
ATOM     82  C   UNL A   1      31.477  23.157  23.813  1.00  0.00     0.060 A 
BRANCH  82  83
ATOM     83  C   UNL A   1      30.690  24.339  23.308  1.00  0.00     0.178 C 
BRANCH  83  84
ATOM     84  N   UNL A   1      31.570  25.445  22.943  1.00  0.00    -0.341 N 
ATOM     85  C   UNL A   1      32.141  25.610  21.704  1.00  0.00     0.087 A 
ATOM     86  C   UNL A   1      31.959  26.475  23.781  1.00  0.00     0.049 A 
ATOM     87  C   UNL A   1      32.866  26.778  21.725  1.00  0.00     0.028 A 
ATOM     88  C   UNL A   1      32.743  27.347  23.022  1.00  0.00    -0.000 A 
ATOM     89  C   UNL A   1      31.660  26.734  25.130  1.00  0.00     0.042 A 
ATOM     90  C   UNL A   1      33.225  28.529  23.620  1.00  0.00     0.011 A 
ATOM     91  C   UNL A   1      32.125  27.925  25.689  1.00  0.00     0.020 A 
ATOM     92  C   UNL A   1      32.896  28.815  24.951  1.00  0.00     0.016 A 
ATOM     93  Br  UNL A   1      31.678  28.340  27.480  1.00  0.00    -0.051 Br
ENDBRANCH  83  84
ENDBRANCH  82  83
ENDBRANCH  74  77
ENDBRANCH  72  73
ENDBRANCH  71  72
ENDBRANCH   1  71
TORSDOF 15
ENDMDL
MODEL 2
REMARK VINA RESULT:     -12.5      1.721      2.158
REMARK SMILES O=C(NCCCNC(=O)c1ccc(Cn2ccc3ccc(Br)cc32)nc1)c1ccc(-c2c3nc(c(-c4cc(S(=O)(=O)[O-])ccc4F)c4ccc([nH]4)c(-c4cc(S(=O)(=O)[O-])ccc4F)c4nc(c(-c5cc(S(=O)(=O)[O-])ccc5F)c5ccc2[nH]5)C=C4)C=C3)cc1
REMARK SMILES IDX 4 1 3 2 1 3 2 4 27 6 28 7 89 8 29 9 88 10 30 11 31 12 32 13
REMARK SMILES IDX 82 14 33 15 87 16 81 17 83 18 34 19 86 20 80 21 79 22 35 24
REMARK SMILES IDX 67 25 47 26 66 27 48 28 51 29 65 30 84 31 49 32 50 33 64 35
REMARK SMILES IDX 85 36 52 37 36 38 37 39 45 40 38 41 44 42 46 43 43 44 39 45
REMARK SMILES IDX 40 46 41 47 42 48 68 49 69 50 77 51 70 52 76 53 78 54 75 55
REMARK SMILES IDX 71 56 72 57 73 58 74 59 53 60 54 61 62 62 55 63 61 64 63 65
REMARK SMILES IDX 60 66 56 67 57 68 58 69 59 70 5 71 6 72 7 73 8 74 9 76 10 77
REMARK SMILES IDX 11 78 26 79 12 80 25 81 13 82 14 83 15 84 16 85 24 86 17 87
REMARK SMILES IDX 18 88 23 89 19 90 21 91 20 92 22 93
REMARK H PARENT 3 5 83 23 51 34 7 75
REMARK Flexibility Score: inf
ROOT
ATOM      1  C   UNL A   1      38.858  20.527  25.711  1.00  0.00     0.118 C 
ENDROOT
BRANCH   1   2
ATOM      2  N   UNL A   1      39.787  19.382  25.724  1.00  0.00    -0.352 N 
ATOM      3  O   UNL A   1      41.867  18.442  25.643  1.00  0.00    -0.269 OA
ATOM      4  C   UNL A   1      41.178  19.402  25.897  1.00  0.00     0.251 C 
ATOM      5  H   UNL A   1      39.381  18.493  25.597  1.00  0.00     0.163 HD
BRANCH   4   6
ATOM      6  C   UNL A   1      41.760  20.656  26.421  1.00  0.00     0.039 A 
ATOM      7  C   UNL A   1      42.122  21.748  25.631  1.00  0.00     0.014 A 
ATOM      8  C   UNL A   1      41.727  20.764  27.794  1.00  0.00     0.014 A 
ATOM      9  C   UNL A   1      42.331  22.977  26.267  1.00  0.00     0.010 A 
ATOM     10  C   UNL A   1      41.514  22.005  28.307  1.00  0.00     0.010 A 
ATOM     11  C   UNL A   1      41.992  23.104  27.623  1.00  0.00    -0.014 A 
BRANCH  11  12
ATOM     12  C   UNL A   1      42.130  24.335  28.396  1.00  0.00     0.031 A 
ATOM     13  C   UNL A   1      41.006  25.301  28.317  1.00  0.00     0.074 A 
ATOM     14  C   UNL A   1      43.142  24.536  29.275  1.00  0.00     0.049 A 
ATOM     15  N   UNL A   1      40.984  26.429  27.688  1.00  0.00    -0.248 NA
ATOM     16  C   UNL A   1      39.714  24.915  28.896  1.00  0.00     0.031 C 
ATOM     17  C   UNL A   1      44.187  23.610  29.755  1.00  0.00     0.029 A 
ATOM     18  N   UNL A   1      43.389  25.641  30.021  1.00  0.00    -0.354 N 
ATOM     19  C   UNL A   1      39.739  26.997  27.949  1.00  0.00     0.074 A 
ATOM     20  C   UNL A   1      38.946  25.949  28.544  1.00  0.00     0.031 C 
ATOM     21  C   UNL A   1      44.752  24.092  30.881  1.00  0.00     0.029 A 
ATOM     22  C   UNL A   1      44.299  25.453  31.048  1.00  0.00     0.049 A 
ATOM     23  H   UNL A   1      42.956  26.507  29.847  1.00  0.00     0.167 HD
ATOM     24  C   UNL A   1      39.523  28.341  27.830  1.00  0.00     0.034 A 
ATOM     25  C   UNL A   1      44.674  26.352  31.984  1.00  0.00     0.034 A 
ATOM     26  C   UNL A   1      40.627  28.988  27.167  1.00  0.00     0.049 A 
ATOM     27  C   UNL A   1      44.339  27.696  31.454  1.00  0.00     0.074 A 
ATOM     28  C   UNL A   1      41.191  28.893  25.911  1.00  0.00     0.029 A 
ATOM     29  N   UNL A   1      41.574  29.601  27.955  1.00  0.00    -0.354 N 
ATOM     30  N   UNL A   1      44.932  28.235  30.423  1.00  0.00    -0.248 NA
ATOM     31  C   UNL A   1      43.023  28.228  31.767  1.00  0.00     0.031 C 
ATOM     32  C   UNL A   1      42.596  28.987  26.134  1.00  0.00     0.029 A 
ATOM     33  C   UNL A   1      42.807  29.204  27.499  1.00  0.00     0.049 A 
ATOM     34  H   UNL A   1      41.400  30.211  28.708  1.00  0.00     0.167 HD
ATOM     35  C   UNL A   1      43.909  28.839  29.704  1.00  0.00     0.074 A 
ATOM     36  C   UNL A   1      42.776  28.884  30.630  1.00  0.00     0.031 C 
ATOM     37  C   UNL A   1      43.969  28.988  28.345  1.00  0.00     0.034 A 
BRANCH  24  38
ATOM     38  C   UNL A   1      38.462  29.115  28.572  1.00  0.00     0.023 A 
ATOM     39  C   UNL A   1      38.413  29.192  29.976  1.00  0.00     0.031 A 
ATOM     40  C   UNL A   1      37.580  29.973  27.880  1.00  0.00     0.131 A 
ATOM     41  C   UNL A   1      37.525  30.051  30.637  1.00  0.00     0.055 A 
ATOM     42  C   UNL A   1      36.741  30.883  28.539  1.00  0.00     0.041 A 
ATOM     43  F   UNL A   1      37.542  29.991  26.539  1.00  0.00    -0.206 F 
ATOM     44  C   UNL A   1      36.709  30.924  29.926  1.00  0.00     0.022 A 
BRANCH  41  45
ATOM     45  S   UNL A   1      37.424  30.042  32.448  1.00  0.00     0.124 S 
ATOM     46  O   UNL A   1      38.722  30.594  32.821  1.00  0.00    -0.237 OA
ATOM     47  O   UNL A   1      36.274  30.910  32.685  1.00  0.00    -0.237 OA
ATOM     48  O   UNL A   1      37.211  28.634  32.769  1.00  0.00    -0.744 OA
ENDBRANCH  41  45
ENDBRANCH  24  38
BRANCH  25  49
ATOM     49  C   UNL A   1      44.759  26.046  33.430  1.00  0.00     0.023 A 
ATOM     50  C   UNL A   1      43.579  25.932  34.194  1.00  0.00     0.031 A 
ATOM     51  C   UNL A   1      45.972  26.152  34.121  1.00  0.00     0.131 A 
ATOM     52  C   UNL A   1      43.627  25.989  35.591  1.00  0.00     0.055 A 
ATOM     53  C   UNL A   1      46.022  26.187  35.520  1.00  0.00     0.041 A 
ATOM     54  F   UNL A   1      47.126  26.288  33.450  1.00  0.00    -0.206 F 
ATOM     55  C   UNL A   1      44.845  26.122  36.261  1.00  0.00     0.022 A 
BRANCH  52  56
ATOM     56  S   UNL A   1      42.096  25.984  36.565  1.00  0.00     0.124 S 
ATOM     57  O   UNL A   1      41.670  24.591  36.460  1.00  0.00    -0.237 OA
ATOM     58  O   UNL A   1      42.582  26.395  37.878  1.00  0.00    -0.237 OA
ATOM     59  O   UNL A   1      41.246  26.947  35.872  1.00  0.00    -0.744 OA
ENDBRANCH  52  56
ENDBRANCH  25  49
BRANCH  37  60
ATOM     60  C   UNL A   1      45.261  28.663  27.616  1.00  0.00     0.023 A 
ATOM     61  C   UNL A   1      45.378  27.385  27.040  1.00  0.00     0.031 A 
ATOM     62  C   UNL A   1      46.435  29.441  27.690  1.00  0.00     0.131 A 
ATOM     63  C   UNL A   1      46.624  26.907  26.611  1.00  0.00     0.055 A 
ATOM     64  C   UNL A   1      47.666  28.985  27.203  1.00  0.00     0.041 A 
ATOM     65  F   UNL A   1      46.453  30.624  28.310  1.00  0.00    -0.206 F 
ATOM     66  C   UNL A   1      47.768  27.704  26.676  1.00  0.00     0.022 A 
BRANCH  63  67
ATOM     67  S   UNL A   1      46.818  25.178  26.107  1.00  0.00     0.124 S 
ATOM     68  O   UNL A   1      45.550  24.589  26.529  1.00  0.00    -0.237 OA
ATOM     69  O   UNL A   1      47.004  25.294  24.663  1.00  0.00    -0.237 OA
ATOM     70  O   UNL A   1      47.994  24.724  26.846  1.00  0.00    -0.744 OA
ENDBRANCH  63  67
ENDBRANCH  37  60
ENDBRANCH  11  12
ENDBRANCH   4   6
ENDBRANCH   1   2
BRANCH   1  71
ATOM     71  C   UNL A   1      37.690  20.386  24.758  1.00  0.00     0.042 C 
BRANCH  71  72
ATOM     72  C   UNL A   1      36.442  21.112  25.256  1.00  0.00     0.118 C 
BRANCH  72  73
ATOM     73  N   UNL A   1      35.183  20.547  24.784  1.00  0.00    -0.352 N 
ATOM     74  C   UNL A   1      33.976  21.164  24.562  1.00  0.00     0.252 C 
ATOM     75  H   UNL A   1      35.201  19.580  24.597  1.00  0.00     0.163 HD
ATOM     76  O   UNL A   1      33.010  20.541  24.143  1.00  0.00    -0.269 OA
BRANCH  74  77
ATOM     77  C   UNL A   1      33.853  22.598  24.833  1.00  0.00     0.058 A 
ATOM     78  C   UNL A   1      34.329  23.558  23.939  1.00  0.00     0.017 A 
ATOM     79  C   UNL A   1      33.284  23.011  26.019  1.00  0.00     0.125 A 
ATOM     80  C   UNL A   1      34.271  24.902  24.292  1.00  0.00     0.026 A 
ATOM     81  N   UNL A   1      33.250  24.311  26.392  1.00  0.00    -0.259 NA
ATOM     82  C   UNL A   1      33.723  25.245  25.527  1.00  0.00     0.060 A 
BRANCH  82  83
ATOM     83  C   UNL A   1      33.593  26.687  25.946  1.00  0.00     0.178 C 
BRANCH  83  84
ATOM     84  N   UNL A   1      33.284  27.544  24.806  1.00  0.00    -0.341 N 
ATOM     85  C   UNL A   1      34.199  28.340  24.160  1.00  0.00     0.087 A 
ATOM     86  C   UNL A   1      32.039  27.685  24.218  1.00  0.00     0.049 A 
ATOM     87  C   UNL A   1      33.553  28.965  23.117  1.00  0.00     0.028 A 
ATOM     88  C   UNL A   1      32.196  28.544  23.128  1.00  0.00    -0.000 A 
ATOM     89  C   UNL A   1      30.797  27.103  24.530  1.00  0.00     0.042 A 
ATOM     90  C   UNL A   1      31.083  28.813  22.306  1.00  0.00     0.011 A 
ATOM     91  C   UNL A   1      29.720  27.363  23.682  1.00  0.00     0.020 A 
ATOM     92  C   UNL A   1      29.852  28.204  22.584  1.00  0.00     0.016 A 
ATOM     93  Br  UNL A   1      28.053  26.537  24.029  1.00  0.00    -0.051 Br
ENDBRANCH  83  84
ENDBRANCH  82  83
ENDBRANCH  74  77
ENDBRANCH  72  73
ENDBRANCH  71  72
ENDBRANCH   1  71
TORSDOF 15
ENDMDL
MODEL 3
REMARK VINA RESULT:     -12.5      2.928      6.989
REMARK SMILES O=C(NCCCNC(=O)c1ccc(Cn2ccc3ccc(Br)cc32)nc1)c1ccc(-c2c3nc(c(-c4cc(S(=O)(=O)[O-])ccc4F)c4ccc([nH]4)c(-c4cc(S(=O)(=O)[O-])ccc4F)c4nc(c(-c5cc(S(=O)(=O)[O-])ccc5F)c5ccc2[nH]5)C=C4)C=C3)cc1
REMARK SMILES IDX 4 1 3 2 1 3 2 4 27 6 28 7 89 8 29 9 88 10 30 11 31 12 32 13
REMARK SMILES IDX 82 14 33 15 87 16 81 17 83 18 34 19 86 20 80 21 79 22 35 24
REMARK SMILES IDX 67 25 47 26 66 27 48 28 51 29 65 30 84 31 49 32 50 33 64 35
REMARK SMILES IDX 85 36 52 37 36 38 37 39 45 40 38 41 44 42 46 43 43 44 39 45
REMARK SMILES IDX 40 46 41 47 42 48 68 49 69 50 77 51 70 52 76 53 78 54 75 55
REMARK SMILES IDX 71 56 72 57 73 58 74 59 53 60 54 61 62 62 55 63 61 64 63 65
REMARK SMILES IDX 60 66 56 67 57 68 58 69 59 70 5 71 6 72 7 73 8 74 9 76 10 77
REMARK SMILES IDX 11 78 26 79 12 80 25 81 13 82 14 83 15 84 16 85 24 86 17 87
REMARK SMILES IDX 18 88 23 89 19 90 21 91 20 92 22 93
REMARK H PARENT 3 5 83 23 51 34 7 75
REMARK Flexibility Score: inf
ROOT
ATOM      1  C   UNL A   1      38.402  22.174  25.647  1.00  0.00     0.118 C 
ENDROOT
BRANCH   1   2
ATOM      2  N   UNL A   1      39.346  21.548  26.592  1.00  0.00    -0.352 N 
ATOM      3  O   UNL A   1      41.247  21.520  27.858  1.00  0.00    -0.269 OA
ATOM      4  C   UNL A   1      40.382  22.162  27.309  1.00  0.00     0.251 C 
ATOM      5  H   UNL A   1      39.234  20.580  26.738  1.00  0.00     0.163 HD
BRANCH   4   6
ATOM      6  C   UNL A   1      40.356  23.639  27.373  1.00  0.00     0.039 A 
ATOM      7  C   UNL A   1      39.192  24.409  27.339  1.00  0.00     0.014 A 
ATOM      8  C   UNL A   1      41.567  24.214  27.688  1.00  0.00     0.014 A 
ATOM      9  C   UNL A   1      39.277  25.744  27.749  1.00  0.00     0.010 A 
ATOM     10  C   UNL A   1      41.534  25.331  28.461  1.00  0.00     0.010 A 
ATOM     11  C   UNL A   1      40.464  26.195  28.344  1.00  0.00    -0.014 A 
BRANCH  11  12
ATOM     12  C   UNL A   1      40.674  27.552  28.843  1.00  0.00     0.031 A 
ATOM     13  C   UNL A   1      41.791  28.318  28.237  1.00  0.00     0.074 A 
ATOM     14  C   UNL A   1      39.809  28.160  29.692  1.00  0.00     0.049 A 
ATOM     15  N   UNL A   1      42.928  28.607  28.778  1.00  0.00    -0.248 NA
ATOM     16  C   UNL A   1      41.688  28.703  26.825  1.00  0.00     0.031 C 
ATOM     17  C   UNL A   1      38.484  27.725  30.177  1.00  0.00     0.029 A 
ATOM     18  N   UNL A   1      39.914  29.394  30.241  1.00  0.00    -0.354 N 
ATOM     19  C   UNL A   1      43.618  29.381  27.847  1.00  0.00     0.074 A 
ATOM     20  C   UNL A   1      42.884  29.256  26.611  1.00  0.00     0.031 C 
ATOM     21  C   UNL A   1      37.815  28.774  30.698  1.00  0.00     0.029 A 
ATOM     22  C   UNL A   1      38.747  29.871  30.816  1.00  0.00     0.049 A 
ATOM     23  H   UNL A   1      40.751  29.911  30.232  1.00  0.00     0.167 HD
ATOM     24  C   UNL A   1      44.633  30.217  28.219  1.00  0.00     0.034 A 
ATOM     25  C   UNL A   1      38.543  31.088  31.367  1.00  0.00     0.034 A 
ATOM     26  C   UNL A   1      45.032  29.976  29.582  1.00  0.00     0.049 A 
ATOM     27  C   UNL A   1      39.878  31.643  31.697  1.00  0.00     0.074 A 
ATOM     28  C   UNL A   1      45.575  28.900  30.255  1.00  0.00     0.029 A 
ATOM     29  N   UNL A   1      44.515  30.800  30.555  1.00  0.00    -0.354 N 
ATOM     30  N   UNL A   1      40.660  31.146  32.618  1.00  0.00    -0.248 NA
ATOM     31  C   UNL A   1      40.539  32.443  30.680  1.00  0.00     0.031 C 
ATOM     32  C   UNL A   1      44.918  28.892  31.520  1.00  0.00     0.029 A 
ATOM     33  C   UNL A   1      44.067  29.999  31.576  1.00  0.00     0.049 A 
ATOM     34  H   UNL A   1      44.472  31.783  30.524  1.00  0.00     0.167 HD
ATOM     35  C   UNL A   1      41.931  31.188  32.060  1.00  0.00     0.074 A 
ATOM     36  C   UNL A   1      41.805  32.085  30.909  1.00  0.00     0.031 C 
ATOM     37  C   UNL A   1      42.900  30.282  32.395  1.00  0.00     0.034 A 
BRANCH  24  38
ATOM     38  C   UNL A   1      45.060  31.448  27.459  1.00  0.00     0.023 A 
ATOM     39  C   UNL A   1      44.262  32.603  27.363  1.00  0.00     0.031 A 
ATOM     40  C   UNL A   1      46.380  31.574  26.975  1.00  0.00     0.131 A 
ATOM     41  C   UNL A   1      44.747  33.790  26.799  1.00  0.00     0.055 A 
ATOM     42  C   UNL A   1      46.888  32.781  26.474  1.00  0.00     0.041 A 
ATOM     43  F   UNL A   1      47.234  30.540  27.019  1.00  0.00    -0.206 F 
ATOM     44  C   UNL A   1      46.069  33.898  26.383  1.00  0.00     0.022 A 
BRANCH  41  45
ATOM     45  S   UNL A   1      43.651  35.221  26.602  1.00  0.00     0.124 S 
ATOM     46  O   UNL A   1      42.982  34.913  25.342  1.00  0.00    -0.237 OA
ATOM     47  O   UNL A   1      42.820  35.126  27.800  1.00  0.00    -0.237 OA
ATOM     48  O   UNL A   1      44.570  36.354  26.578  1.00  0.00    -0.744 OA
ENDBRANCH  41  45
ENDBRANCH  24  38
BRANCH  25  49
ATOM     49  C   UNL A   1      37.359  31.930  31.083  1.00  0.00     0.023 A 
ATOM     50  C   UNL A   1      36.654  32.531  32.146  1.00  0.00     0.031 A 
ATOM     51  C   UNL A   1      36.746  31.914  29.824  1.00  0.00     0.131 A 
ATOM     52  C   UNL A   1      35.362  33.033  31.950  1.00  0.00     0.055 A 
ATOM     53  C   UNL A   1      35.463  32.436  29.623  1.00  0.00     0.041 A 
ATOM     54  F   UNL A   1      37.357  31.335  28.779  1.00  0.00    -0.206 F 
ATOM     55  C   UNL A   1      34.758  32.983  30.693  1.00  0.00     0.022 A 
BRANCH  52  56
ATOM     56  S   UNL A   1      34.403  33.677  33.350  1.00  0.00     0.124 S 
ATOM     57  O   UNL A   1      35.226  33.284  34.491  1.00  0.00    -0.237 OA
ATOM     58  O   UNL A   1      34.378  35.105  33.055  1.00  0.00    -0.237 OA
ATOM     59  O   UNL A   1      33.125  32.982  33.238  1.00  0.00    -0.744 OA
ENDBRANCH  52  56
ENDBRANCH  25  49
BRANCH  37  60
ATOM     60  C   UNL A   1      42.653  29.319  33.544  1.00  0.00     0.023 A 
ATOM     61  C   UNL A   1      43.322  29.568  34.755  1.00  0.00     0.031 A 
ATOM     62  C   UNL A   1      42.011  28.071  33.412  1.00  0.00     0.131 A 
ATOM     63  C   UNL A   1      43.381  28.586  35.753  1.00  0.00     0.055 A 
ATOM     64  C   UNL A   1      42.016  27.116  34.436  1.00  0.00     0.041 A 
ATOM     65  F   UNL A   1      41.435  27.697  32.266  1.00  0.00    -0.206 F 
ATOM     66  C   UNL A   1      42.719  27.364  35.608  1.00  0.00     0.022 A 
BRANCH  63  67
ATOM     67  S   UNL A   1      44.450  28.808  37.198  1.00  0.00     0.124 S 
ATOM     68  O   UNL A   1      44.216  27.577  37.948  1.00  0.00    -0.237 OA
ATOM     69  O   UNL A   1      45.774  28.927  36.590  1.00  0.00    -0.237 OA
ATOM     70  O   UNL A   1      43.948  30.027  37.826  1.00  0.00    -0.744 OA
ENDBRANCH  63  67
ENDBRANCH  37  60
ENDBRANCH  11  12
ENDBRANCH   4   6
ENDBRANCH   1   2
BRANCH   1  71
ATOM     71  C   UNL A   1      37.489  21.205  24.925  1.00  0.00     0.042 C 
BRANCH  71  72
ATOM     72  C   UNL A   1      36.014  21.465  25.221  1.00  0.00     0.118 C 
BRANCH  72  73
ATOM     73  N   UNL A   1      35.210  20.261  25.397  1.00  0.00    -0.352 N 
ATOM     74  C   UNL A   1      33.882  20.048  25.118  1.00  0.00     0.252 C 
ATOM     75  H   UNL A   1      35.689  19.487  25.771  1.00  0.00     0.163 HD
ATOM     76  O   UNL A   1      33.357  18.960  25.310  1.00  0.00    -0.269 OA
BRANCH  74  77
ATOM     77  C   UNL A   1      33.086  21.152  24.577  1.00  0.00     0.058 A 
ATOM     78  C   UNL A   1      32.644  21.160  23.254  1.00  0.00     0.017 A 
ATOM     79  C   UNL A   1      32.795  22.230  25.387  1.00  0.00     0.125 A 
ATOM     80  C   UNL A   1      31.973  22.278  22.768  1.00  0.00     0.026 A 
ATOM     81  N   UNL A   1      32.172  23.338  24.922  1.00  0.00    -0.259 NA
ATOM     82  C   UNL A   1      31.752  23.350  23.631  1.00  0.00     0.060 A 
BRANCH  82  83
ATOM     83  C   UNL A   1      30.993  24.570  23.176  1.00  0.00     0.178 C 
BRANCH  83  84
ATOM     84  N   UNL A   1      31.894  25.694  22.933  1.00  0.00    -0.341 N 
ATOM     85  C   UNL A   1      32.561  25.915  21.752  1.00  0.00     0.087 A 
ATOM     86  C   UNL A   1      32.208  26.686  23.844  1.00  0.00     0.049 A 
ATOM     87  C   UNL A   1      33.275  27.083  21.884  1.00  0.00     0.028 A 
ATOM     88  C   UNL A   1      33.045  27.592  23.190  1.00  0.00    -0.000 A 
ATOM     89  C   UNL A   1      31.799  26.883  25.175  1.00  0.00     0.042 A 
ATOM     90  C   UNL A   1      33.470  28.747  23.878  1.00  0.00     0.011 A 
ATOM     91  C   UNL A   1      32.210  28.049  25.822  1.00  0.00     0.020 A 
ATOM     92  C   UNL A   1      33.033  28.973  25.190  1.00  0.00     0.016 A 
ATOM     93  Br  UNL A   1      31.619  28.382  27.588  1.00  0.00    -0.051 Br
ENDBRANCH  83  84
ENDBRANCH  82  83
ENDBRANCH  74  77
ENDBRANCH  72  73
ENDBRANCH  71  72
ENDBRANCH   1  71
TORSDOF 15
ENDMDL
