MODEL 1
REMARK VINA RESULT:      -9.6      0.000      0.000
REMARK SMILES CC[C@@]1(C(=O)NCCCNC(=O)c2ccc(-c3c4nc(c(-c5cc(S(=O)(=O)[O-])ccc5F)c5ccc([nH]5)c(-c5cc(S(=O)(=O)[O-])ccc5F)c5nc(c(-c6cc(S(=O)(=O)[O-])ccc6F)c6ccc3[nH]6)C=C5)C=C4)cc2)CCN(C(=O)N(C)CCc2cccs2)C1
REMARK SMILES IDX 7 1 6 2 4 3 5 4 3 6 76 7 90 8 77 9 78 10 2 11 1 12 79 13
REMARK SMILES IDX 80 14 81 15 82 16 83 17 84 18 85 19 86 20 89 21 87 22 88 23
REMARK SMILES IDX 8 24 9 25 10 26 11 27 12 29 13 30 14 31 75 32 15 33 74 34
REMARK SMILES IDX 16 35 17 36 18 37 68 38 19 39 73 40 67 41 69 42 20 43 72 44
REMARK SMILES IDX 66 45 65 46 21 48 53 49 33 50 52 51 34 52 37 53 51 54 70 55
REMARK SMILES IDX 35 56 36 57 50 59 71 60 38 61 22 62 23 63 31 64 24 65 30 66
REMARK SMILES IDX 32 67 29 68 25 69 26 70 27 71 28 72 54 73 55 74 63 75 56 76
REMARK SMILES IDX 62 77 64 78 61 79 57 80 58 81 59 82 60 83 39 84 40 85 48 86
REMARK SMILES IDX 41 87 47 88 49 89 46 90 42 91 43 92 44 93 45 94
REMARK H PARENT 6 5 10 28 69 47 37 58
REMARK Flexibility Score: inf
ROOT
ATOM      1  C   UNL A   1      44.569  39.181  30.089  1.00  0.00     0.117 C 
ENDROOT
BRANCH   1   2
ATOM      2  N   UNL A   1      43.340  39.707  29.542  1.00  0.00    -0.355 N 
ATOM      3  C   UNL A   1      42.852  39.901  28.303  1.00  0.00     0.228 C 
ATOM      4  O   UNL A   1      41.776  40.522  28.282  1.00  0.00    -0.274 OA
ATOM      5  H   UNL A   1      42.709  39.992  30.242  1.00  0.00     0.163 HD
BRANCH   3   6
ATOM      6  C   UNL A   1      43.444  39.396  26.970  1.00  0.00     0.068 C 
ATOM      7  C   UNL A   1      44.840  39.792  26.477  1.00  0.00     0.040 C 
ATOM      8  C   UNL A   1      42.565  40.027  25.873  1.00  0.00     0.138 C 
ATOM      9  C   UNL A   1      44.676  41.152  25.814  1.00  0.00     0.122 C 
ATOM     10  N   UNL A   1      43.294  41.202  25.390  1.00  0.00    -0.324 N 
BRANCH   6  11
ATOM     11  C   UNL A   1      43.261  37.845  27.064  1.00  0.00     0.015 C 
ATOM     12  C   UNL A   1      41.870  37.272  26.832  1.00  0.00     0.005 C 
ENDBRANCH   6  11
BRANCH  10  13
ATOM     13  C   UNL A   1      42.640  42.070  24.548  1.00  0.00     0.319 C 
ATOM     14  O   UNL A   1      41.412  41.996  24.450  1.00  0.00    -0.248 OA
BRANCH  13  15
ATOM     15  N   UNL A   1      43.357  42.949  23.760  1.00  0.00    -0.327 N 
ATOM     16  C   UNL A   1      43.874  44.243  24.175  1.00  0.00     0.148 C 
BRANCH  15  17
ATOM     17  C   UNL A   1      43.431  42.659  22.315  1.00  0.00     0.126 C 
BRANCH  17  18
ATOM     18  C   UNL A   1      44.681  43.220  21.605  1.00  0.00     0.068 C 
BRANCH  18  19
ATOM     19  C   UNL A   1      44.413  44.193  20.487  1.00  0.00     0.006 A 
ATOM     20  C   UNL A   1      44.930  45.463  20.317  1.00  0.00     0.015 A 
ATOM     21  S   UNL A   1      43.302  43.808  19.233  1.00  0.00    -0.149 S 
ATOM     22  C   UNL A   1      44.537  46.049  19.078  1.00  0.00     0.012 A 
ATOM     23  C   UNL A   1      43.706  45.220  18.360  1.00  0.00     0.065 A 
ENDBRANCH  18  19
ENDBRANCH  17  18
ENDBRANCH  15  17
ENDBRANCH  13  15
ENDBRANCH  10  13
ENDBRANCH   3   6
ENDBRANCH   1   2
BRANCH   1  24
ATOM     24  C   UNL A   1      44.302  38.367  31.350  1.00  0.00     0.042 C 
BRANCH  24  25
ATOM     25  C   UNL A   1      45.491  37.498  31.748  1.00  0.00     0.118 C 
BRANCH  25  26
ATOM     26  N   UNL A   1      46.584  37.631  30.792  1.00  0.00    -0.352 N 
ATOM     27  C   UNL A   1      47.192  36.682  30.013  1.00  0.00     0.251 C 
ATOM     28  H   UNL A   1      46.940  38.544  30.690  1.00  0.00     0.163 HD
ATOM     29  O   UNL A   1      48.328  36.903  29.584  1.00  0.00    -0.269 OA
BRANCH  27  30
ATOM     30  C   UNL A   1      46.507  35.414  29.686  1.00  0.00     0.039 A 
ATOM     31  C   UNL A   1      45.605  35.377  28.617  1.00  0.00     0.014 A 
ATOM     32  C   UNL A   1      46.693  34.276  30.475  1.00  0.00     0.014 A 
ATOM     33  C   UNL A   1      44.929  34.191  28.319  1.00  0.00     0.010 A 
ATOM     34  C   UNL A   1      46.093  33.074  30.121  1.00  0.00     0.010 A 
ATOM     35  C   UNL A   1      45.188  33.022  29.052  1.00  0.00    -0.014 A 
BRANCH  35  36
ATOM     36  C   UNL A   1      44.496  31.743  28.747  1.00  0.00     0.031 A 
ATOM     37  C   UNL A   1      43.155  31.449  29.368  1.00  0.00     0.074 A 
ATOM     38  C   UNL A   1      45.107  30.824  27.976  1.00  0.00     0.049 A 
ATOM     39  N   UNL A   1      42.435  30.358  29.312  1.00  0.00    -0.248 NA
ATOM     40  C   UNL A   1      42.566  32.512  30.197  1.00  0.00     0.031 C 
ATOM     41  C   UNL A   1      46.430  30.978  27.365  1.00  0.00     0.029 A 
ATOM     42  N   UNL A   1      44.705  29.574  27.581  1.00  0.00    -0.354 N 
ATOM     43  C   UNL A   1      41.325  30.592  30.119  1.00  0.00     0.074 A 
ATOM     44  C   UNL A   1      41.502  31.906  30.701  1.00  0.00     0.031 C 
ATOM     45  C   UNL A   1      46.717  29.876  26.653  1.00  0.00     0.029 A 
ATOM     46  C   UNL A   1      45.622  28.922  26.790  1.00  0.00     0.049 A 
ATOM     47  H   UNL A   1      43.840  29.180  27.839  1.00  0.00     0.167 HD
ATOM     48  C   UNL A   1      40.247  29.797  30.333  1.00  0.00     0.034 A 
ATOM     49  C   UNL A   1      45.586  27.691  26.244  1.00  0.00     0.034 A 
ATOM     50  C   UNL A   1      40.078  28.504  29.717  1.00  0.00     0.049 A 
ATOM     51  C   UNL A   1      44.372  26.833  26.479  1.00  0.00     0.074 A 
ATOM     52  C   UNL A   1      39.003  27.638  29.804  1.00  0.00     0.029 A 
ATOM     53  N   UNL A   1      41.017  27.886  28.898  1.00  0.00    -0.354 N 
ATOM     54  N   UNL A   1      43.305  27.090  27.201  1.00  0.00    -0.248 NA
ATOM     55  C   UNL A   1      44.350  25.524  25.816  1.00  0.00     0.031 C 
ATOM     56  C   UNL A   1      39.313  26.477  29.085  1.00  0.00     0.029 A 
ATOM     57  C   UNL A   1      40.554  26.644  28.493  1.00  0.00     0.049 A 
ATOM     58  H   UNL A   1      41.885  28.276  28.643  1.00  0.00     0.167 HD
ATOM     59  C   UNL A   1      42.475  25.983  27.059  1.00  0.00     0.074 A 
ATOM     60  C   UNL A   1      43.156  25.068  26.165  1.00  0.00     0.031 C 
ATOM     61  C   UNL A   1      41.259  25.741  27.614  1.00  0.00     0.034 A 
BRANCH  48  62
ATOM     62  C   UNL A   1      39.188  30.304  31.285  1.00  0.00     0.023 A 
ATOM     63  C   UNL A   1      38.122  31.108  30.844  1.00  0.00     0.031 A 
ATOM     64  C   UNL A   1      39.265  30.012  32.658  1.00  0.00     0.131 A 
ATOM     65  C   UNL A   1      37.229  31.664  31.775  1.00  0.00     0.055 A 
ATOM     66  C   UNL A   1      38.322  30.497  33.569  1.00  0.00     0.041 A 
ATOM     67  F   UNL A   1      40.267  29.265  33.144  1.00  0.00    -0.206 F 
ATOM     68  C   UNL A   1      37.307  31.343  33.131  1.00  0.00     0.022 A 
BRANCH  65  69
ATOM     69  S   UNL A   1      36.062  32.929  31.204  1.00  0.00     0.124 S 
ATOM     70  O   UNL A   1      34.828  32.156  31.079  1.00  0.00    -0.237 OA
ATOM     71  O   UNL A   1      36.098  33.904  32.287  1.00  0.00    -0.237 OA
ATOM     72  O   UNL A   1      36.637  33.380  29.938  1.00  0.00    -0.744 OA
ENDBRANCH  65  69
ENDBRANCH  48  62
BRANCH  49  73
ATOM     73  C   UNL A   1      46.728  27.197  25.425  1.00  0.00     0.023 A 
ATOM     74  C   UNL A   1      46.970  27.711  24.141  1.00  0.00     0.031 A 
ATOM     75  C   UNL A   1      47.581  26.186  25.902  1.00  0.00     0.131 A 
ATOM     76  C   UNL A   1      48.011  27.184  23.361  1.00  0.00     0.055 A 
ATOM     77  C   UNL A   1      48.644  25.697  25.141  1.00  0.00     0.041 A 
ATOM     78  F   UNL A   1      47.402  25.670  27.129  1.00  0.00    -0.206 F 
ATOM     79  C   UNL A   1      48.856  26.189  23.856  1.00  0.00     0.022 A 
BRANCH  76  80
ATOM     80  S   UNL A   1      48.202  27.773  21.656  1.00  0.00     0.124 S 
ATOM     81  O   UNL A   1      46.951  28.495  21.448  1.00  0.00    -0.237 OA
ATOM     82  O   UNL A   1      49.406  28.592  21.754  1.00  0.00    -0.237 OA
ATOM     83  O   UNL A   1      48.350  26.541  20.886  1.00  0.00    -0.744 OA
ENDBRANCH  76  80
ENDBRANCH  49  73
BRANCH  61  84
ATOM     84  C   UNL A   1      40.587  24.445  27.234  1.00  0.00     0.023 A 
ATOM     85  C   UNL A   1      39.398  24.425  26.486  1.00  0.00     0.031 A 
ATOM     86  C   UNL A   1      41.132  23.217  27.648  1.00  0.00     0.131 A 
ATOM     87  C   UNL A   1      38.758  23.205  26.227  1.00  0.00     0.055 A 
ATOM     88  C   UNL A   1      40.523  22.002  27.334  1.00  0.00     0.041 A 
ATOM     89  F   UNL A   1      42.266  23.180  28.366  1.00  0.00    -0.206 F 
ATOM     90  C   UNL A   1      39.321  21.992  26.633  1.00  0.00     0.022 A 
BRANCH  87  91
ATOM     91  S   UNL A   1      37.125  23.231  25.438  1.00  0.00     0.124 S 
ATOM     92  O   UNL A   1      36.449  24.295  26.173  1.00  0.00    -0.237 OA
ATOM     93  O   UNL A   1      37.454  23.527  24.047  1.00  0.00    -0.237 OA
ATOM     94  O   UNL A   1      36.606  21.886  25.678  1.00  0.00    -0.744 OA
ENDBRANCH  87  91
ENDBRANCH  61  84
ENDBRANCH  35  36
ENDBRANCH  27  30
ENDBRANCH  25  26
ENDBRANCH  24  25
ENDBRANCH   1  24
TORSDOF 19
ENDMDL
MODEL 2
REMARK VINA RESULT:      -9.4      9.557     17.342
REMARK SMILES CC[C@@]1(C(=O)NCCCNC(=O)c2ccc(-c3c4nc(c(-c5cc(S(=O)(=O)[O-])ccc5F)c5ccc([nH]5)c(-c5cc(S(=O)(=O)[O-])ccc5F)c5nc(c(-c6cc(S(=O)(=O)[O-])ccc6F)c6ccc3[nH]6)C=C5)C=C4)cc2)CCN(C(=O)N(C)CCc2cccs2)C1
REMARK SMILES IDX 7 1 6 2 4 3 5 4 3 6 76 7 90 8 77 9 78 10 2 11 1 12 79 13
REMARK SMILES IDX 80 14 81 15 82 16 83 17 84 18 85 19 86 20 89 21 87 22 88 23
REMARK SMILES IDX 8 24 9 25 10 26 11 27 12 29 13 30 14 31 75 32 15 33 74 34
REMARK SMILES IDX 16 35 17 36 18 37 68 38 19 39 73 40 67 41 69 42 20 43 72 44
REMARK SMILES IDX 66 45 65 46 21 48 53 49 33 50 52 51 34 52 37 53 51 54 70 55
REMARK SMILES IDX 35 56 36 57 50 59 71 60 38 61 22 62 23 63 31 64 24 65 30 66
REMARK SMILES IDX 32 67 29 68 25 69 26 70 27 71 28 72 54 73 55 74 63 75 56 76
REMARK SMILES IDX 62 77 64 78 61 79 57 80 58 81 59 82 60 83 39 84 40 85 48 86
REMARK SMILES IDX 41 87 47 88 49 89 46 90 42 91 43 92 44 93 45 94
REMARK H PARENT 6 5 10 28 69 47 37 58
REMARK Flexibility Score: inf
ROOT
ATOM      1  C   UNL A   1      46.973  23.739  38.486  1.00  0.00     0.117 C 
ENDROOT
BRANCH   1   2
ATOM      2  N   UNL A   1      47.639  22.863  39.422  1.00  0.00    -0.355 N 
ATOM      3  C   UNL A   1      48.098  21.599  39.387  1.00  0.00     0.228 C 
ATOM      4  O   UNL A   1      48.493  21.181  40.488  1.00  0.00    -0.274 OA
ATOM      5  H   UNL A   1      47.794  23.294  40.294  1.00  0.00     0.163 HD
BRANCH   3   6
ATOM      6  C   UNL A   1      48.230  20.681  38.153  1.00  0.00     0.068 C 
ATOM      7  C   UNL A   1      47.361  20.841  36.900  1.00  0.00     0.040 C 
ATOM      8  C   UNL A   1      47.780  19.289  38.635  1.00  0.00     0.138 C 
ATOM      9  C   UNL A   1      46.052  20.129  37.209  1.00  0.00     0.122 C 
ATOM     10  N   UNL A   1      46.386  19.138  38.208  1.00  0.00    -0.324 N 
BRANCH   6  11
ATOM     11  C   UNL A   1      49.759  20.735  37.830  1.00  0.00     0.015 C 
ATOM     12  C   UNL A   1      50.430  19.469  37.317  1.00  0.00     0.005 C 
ENDBRANCH   6  11
BRANCH  10  13
ATOM     13  C   UNL A   1      45.673  18.066  38.689  1.00  0.00     0.319 C 
ATOM     14  O   UNL A   1      44.807  17.555  37.975  1.00  0.00    -0.248 OA
BRANCH  13  15
ATOM     15  N   UNL A   1      45.864  17.628  39.986  1.00  0.00    -0.327 N 
ATOM     16  C   UNL A   1      46.820  16.622  40.416  1.00  0.00     0.148 C 
BRANCH  15  17
ATOM     17  C   UNL A   1      44.878  18.056  40.998  1.00  0.00     0.126 C 
BRANCH  17  18
ATOM     18  C   UNL A   1      44.665  17.059  42.156  1.00  0.00     0.068 C 
BRANCH  18  19
ATOM     19  C   UNL A   1      43.552  16.063  41.960  1.00  0.00     0.006 A 
ATOM     20  C   UNL A   1      42.825  15.807  40.813  1.00  0.00     0.015 A 
ATOM     21  S   UNL A   1      42.994  15.099  43.270  1.00  0.00    -0.149 S 
ATOM     22  C   UNL A   1      41.925  14.713  40.972  1.00  0.00     0.012 A 
ATOM     23  C   UNL A   1      41.971  14.192  42.245  1.00  0.00     0.065 A 
ENDBRANCH  18  19
ENDBRANCH  17  18
ENDBRANCH  15  17
ENDBRANCH  13  15
ENDBRANCH  10  13
ENDBRANCH   3   6
ENDBRANCH   1   2
BRANCH   1  24
ATOM     24  C   UNL A   1      45.465  23.731  38.706  1.00  0.00     0.042 C 
BRANCH  24  25
ATOM     25  C   UNL A   1      44.769  24.907  38.030  1.00  0.00     0.118 C 
BRANCH  25  26
ATOM     26  N   UNL A   1      43.446  24.530  37.546  1.00  0.00    -0.352 N 
ATOM     27  C   UNL A   1      42.860  24.747  36.326  1.00  0.00     0.251 C 
ATOM     28  H   UNL A   1      42.887  24.045  38.197  1.00  0.00     0.163 HD
ATOM     29  O   UNL A   1      41.630  24.713  36.243  1.00  0.00    -0.269 OA
BRANCH  27  30
ATOM     30  C   UNL A   1      43.680  25.013  35.126  1.00  0.00     0.039 A 
ATOM     31  C   UNL A   1      43.447  26.172  34.378  1.00  0.00     0.014 A 
ATOM     32  C   UNL A   1      44.631  24.087  34.690  1.00  0.00     0.014 A 
ATOM     33  C   UNL A   1      44.197  26.418  33.225  1.00  0.00     0.010 A 
ATOM     34  C   UNL A   1      45.440  24.377  33.597  1.00  0.00     0.010 A 
ATOM     35  C   UNL A   1      45.218  25.535  32.840  1.00  0.00    -0.014 A 
BRANCH  35  36
ATOM     36  C   UNL A   1      46.041  25.778  31.627  1.00  0.00     0.031 A 
ATOM     37  C   UNL A   1      45.690  25.092  30.332  1.00  0.00     0.074 A 
ATOM     38  C   UNL A   1      47.139  26.553  31.713  1.00  0.00     0.049 A 
ATOM     39  N   UNL A   1      46.334  25.091  29.192  1.00  0.00    -0.248 NA
ATOM     40  C   UNL A   1      44.475  24.264  30.334  1.00  0.00     0.031 C 
ATOM     41  C   UNL A   1      47.606  27.225  32.929  1.00  0.00     0.029 A 
ATOM     42  N   UNL A   1      48.068  26.900  30.767  1.00  0.00    -0.354 N 
ATOM     43  C   UNL A   1      45.618  24.242  28.353  1.00  0.00     0.074 A 
ATOM     44  C   UNL A   1      44.529  23.700  29.137  1.00  0.00     0.031 C 
ATOM     45  C   UNL A   1      48.718  27.922  32.647  1.00  0.00     0.029 A 
ATOM     46  C   UNL A   1      49.068  27.715  31.246  1.00  0.00     0.049 A 
ATOM     47  H   UNL A   1      48.024  26.595  29.832  1.00  0.00     0.167 HD
ATOM     48  C   UNL A   1      45.834  23.963  27.043  1.00  0.00     0.034 A 
ATOM     49  C   UNL A   1      50.148  28.229  30.627  1.00  0.00     0.034 A 
ATOM     50  C   UNL A   1      46.909  24.539  26.273  1.00  0.00     0.049 A 
ATOM     51  C   UNL A   1      50.358  27.921  29.168  1.00  0.00     0.074 A 
ATOM     52  C   UNL A   1      47.189  24.385  24.927  1.00  0.00     0.029 A 
ATOM     53  N   UNL A   1      47.888  25.384  26.786  1.00  0.00    -0.354 N 
ATOM     54  N   UNL A   1      49.641  27.159  28.373  1.00  0.00    -0.248 NA
ATOM     55  C   UNL A   1      51.513  28.551  28.519  1.00  0.00     0.031 C 
ATOM     56  C   UNL A   1      48.364  25.088  24.638  1.00  0.00     0.029 A 
ATOM     57  C   UNL A   1      48.782  25.738  25.789  1.00  0.00     0.049 A 
ATOM     58  H   UNL A   1      47.936  25.686  27.722  1.00  0.00     0.167 HD
ATOM     59  C   UNL A   1      50.249  27.239  27.124  1.00  0.00     0.074 A 
ATOM     60  C   UNL A   1      51.375  28.140  27.268  1.00  0.00     0.031 C 
ATOM     61  C   UNL A   1      49.909  26.625  25.960  1.00  0.00     0.034 A 
BRANCH  48  62
ATOM     62  C   UNL A   1      44.899  22.977  26.379  1.00  0.00     0.023 A 
ATOM     63  C   UNL A   1      45.323  21.688  26.012  1.00  0.00     0.031 A 
ATOM     64  C   UNL A   1      43.576  23.344  26.072  1.00  0.00     0.131 A 
ATOM     65  C   UNL A   1      44.467  20.846  25.284  1.00  0.00     0.055 A 
ATOM     66  C   UNL A   1      42.700  22.470  25.424  1.00  0.00     0.041 A 
ATOM     67  F   UNL A   1      43.116  24.566  26.380  1.00  0.00    -0.206 F 
ATOM     68  C   UNL A   1      43.149  21.219  25.011  1.00  0.00     0.022 A 
BRANCH  65  69
ATOM     69  S   UNL A   1      45.149  19.325  24.573  1.00  0.00     0.124 S 
ATOM     70  O   UNL A   1      46.586  19.573  24.672  1.00  0.00    -0.237 OA
ATOM     71  O   UNL A   1      44.617  18.295  25.459  1.00  0.00    -0.237 OA
ATOM     72  O   UNL A   1      44.618  19.313  23.212  1.00  0.00    -0.744 OA
ENDBRANCH  65  69
ENDBRANCH  48  62
BRANCH  49  73
ATOM     73  C   UNL A   1      51.109  29.086  31.376  1.00  0.00     0.023 A 
ATOM     74  C   UNL A   1      52.225  28.526  32.018  1.00  0.00     0.031 A 
ATOM     75  C   UNL A   1      50.914  30.474  31.483  1.00  0.00     0.131 A 
ATOM     76  C   UNL A   1      53.080  29.343  32.774  1.00  0.00     0.055 A 
ATOM     77  C   UNL A   1      51.793  31.290  32.197  1.00  0.00     0.041 A 
ATOM     78  F   UNL A   1      49.870  31.062  30.876  1.00  0.00    -0.206 F 
ATOM     79  C   UNL A   1      52.878  30.722  32.858  1.00  0.00     0.022 A 
BRANCH  76  80
ATOM     80  S   UNL A   1      54.428  28.563  33.704  1.00  0.00     0.124 S 
ATOM     81  O   UNL A   1      53.758  27.402  34.282  1.00  0.00    -0.237 OA
ATOM     82  O   UNL A   1      55.399  28.285  32.652  1.00  0.00    -0.237 OA
ATOM     83  O   UNL A   1      54.824  29.596  34.658  1.00  0.00    -0.744 OA
ENDBRANCH  76  80
ENDBRANCH  49  73
BRANCH  61  84
ATOM     84  C   UNL A   1      50.756  26.944  24.755  1.00  0.00     0.023 A 
ATOM     85  C   UNL A   1      50.311  27.827  23.755  1.00  0.00     0.031 A 
ATOM     86  C   UNL A   1      52.014  26.337  24.591  1.00  0.00     0.131 A 
ATOM     87  C   UNL A   1      51.090  28.032  22.608  1.00  0.00     0.055 A 
ATOM     88  C   UNL A   1      52.812  26.592  23.476  1.00  0.00     0.041 A 
ATOM     89  F   UNL A   1      52.485  25.484  25.516  1.00  0.00    -0.206 F 
ATOM     90  C   UNL A   1      52.345  27.432  22.469  1.00  0.00     0.022 A 
BRANCH  87  91
ATOM     91  S   UNL A   1      50.397  29.015  21.250  1.00  0.00     0.124 S 
ATOM     92  O   UNL A   1      48.963  28.919  21.507  1.00  0.00    -0.237 OA
ATOM     93  O   UNL A   1      50.999  30.325  21.475  1.00  0.00    -0.237 OA
ATOM     94  O   UNL A   1      50.859  28.319  20.052  1.00  0.00    -0.744 OA
ENDBRANCH  87  91
ENDBRANCH  61  84
ENDBRANCH  35  36
ENDBRANCH  27  30
ENDBRANCH  25  26
ENDBRANCH  24  25
ENDBRANCH   1  24
TORSDOF 19
ENDMDL
MODEL 3
REMARK VINA RESULT:      -9.3      7.144     10.987
REMARK SMILES CC[C@@]1(C(=O)NCCCNC(=O)c2ccc(-c3c4nc(c(-c5cc(S(=O)(=O)[O-])ccc5F)c5ccc([nH]5)c(-c5cc(S(=O)(=O)[O-])ccc5F)c5nc(c(-c6cc(S(=O)(=O)[O-])ccc6F)c6ccc3[nH]6)C=C5)C=C4)cc2)CCN(C(=O)N(C)CCc2cccs2)C1
REMARK SMILES IDX 7 1 6 2 4 3 5 4 3 6 76 7 90 8 77 9 78 10 2 11 1 12 79 13
REMARK SMILES IDX 80 14 81 15 82 16 83 17 84 18 85 19 86 20 89 21 87 22 88 23
REMARK SMILES IDX 8 24 9 25 10 26 11 27 12 29 13 30 14 31 75 32 15 33 74 34
REMARK SMILES IDX 16 35 17 36 18 37 68 38 19 39 73 40 67 41 69 42 20 43 72 44
REMARK SMILES IDX 66 45 65 46 21 48 53 49 33 50 52 51 34 52 37 53 51 54 70 55
REMARK SMILES IDX 35 56 36 57 50 59 71 60 38 61 22 62 23 63 31 64 24 65 30 66
REMARK SMILES IDX 32 67 29 68 25 69 26 70 27 71 28 72 54 73 55 74 63 75 56 76
REMARK SMILES IDX 62 77 64 78 61 79 57 80 58 81 59 82 60 83 39 84 40 85 48 86
REMARK SMILES IDX 41 87 47 88 49 89 46 90 42 91 43 92 44 93 45 94
REMARK H PARENT 6 5 10 28 69 47 37 58
REMARK Flexibility Score: inf
ROOT
ATOM      1  C   UNL A   1      46.982  38.488  26.807  1.00  0.00     0.117 C 
ENDROOT
BRANCH   1   2
ATOM      2  N   UNL A   1      46.252  38.328  28.044  1.00  0.00    -0.355 N 
ATOM      3  C   UNL A   1      45.163  38.900  28.591  1.00  0.00     0.228 C 
ATOM      4  O   UNL A   1      44.952  38.549  29.763  1.00  0.00    -0.274 OA
ATOM      5  H   UNL A   1      46.644  37.638  28.625  1.00  0.00     0.163 HD
BRANCH   3   6
ATOM      6  C   UNL A   1      44.162  39.858  27.910  1.00  0.00     0.068 C 
ATOM      7  C   UNL A   1      44.589  41.179  27.257  1.00  0.00     0.040 C 
ATOM      8  C   UNL A   1      43.265  40.380  29.048  1.00  0.00     0.138 C 
ATOM      9  C   UNL A   1      44.687  42.189  28.391  1.00  0.00     0.122 C 
ATOM     10  N   UNL A   1      43.794  41.696  29.417  1.00  0.00    -0.324 N 
BRANCH   6  11
ATOM     11  C   UNL A   1      43.390  38.925  26.921  1.00  0.00     0.015 C 
ATOM     12  C   UNL A   1      41.892  39.137  26.756  1.00  0.00     0.005 C 
ENDBRANCH   6  11
BRANCH  10  13
ATOM     13  C   UNL A   1      43.304  42.298  30.552  1.00  0.00     0.319 C 
ATOM     14  O   UNL A   1      42.096  42.225  30.792  1.00  0.00    -0.248 OA
BRANCH  13  15
ATOM     15  N   UNL A   1      44.138  43.046  31.359  1.00  0.00    -0.327 N 
ATOM     16  C   UNL A   1      44.367  44.478  31.257  1.00  0.00     0.148 C 
BRANCH  15  17
ATOM     17  C   UNL A   1      45.038  42.313  32.270  1.00  0.00     0.126 C 
BRANCH  17  18
ATOM     18  C   UNL A   1      44.353  41.723  33.521  1.00  0.00     0.068 C 
BRANCH  18  19
ATOM     19  C   UNL A   1      44.257  40.221  33.563  1.00  0.00     0.006 A 
ATOM     20  C   UNL A   1      43.345  39.405  32.921  1.00  0.00     0.015 A 
ATOM     21  S   UNL A   1      45.331  39.297  34.537  1.00  0.00    -0.149 S 
ATOM     22  C   UNL A   1      43.631  38.020  33.104  1.00  0.00     0.012 A 
ATOM     23  C   UNL A   1      44.732  37.826  33.906  1.00  0.00     0.065 A 
ENDBRANCH  18  19
ENDBRANCH  17  18
ENDBRANCH  15  17
ENDBRANCH  13  15
ENDBRANCH  10  13
ENDBRANCH   3   6
ENDBRANCH   1   2
BRANCH   1  24
ATOM     24  C   UNL A   1      47.009  37.184  26.017  1.00  0.00     0.042 C 
BRANCH  24  25
ATOM     25  C   UNL A   1      46.246  36.063  26.714  1.00  0.00     0.118 C 
BRANCH  25  26
ATOM     26  N   UNL A   1      45.209  35.513  25.848  1.00  0.00    -0.352 N 
ATOM     27  C   UNL A   1      44.166  34.676  26.146  1.00  0.00     0.251 C 
ATOM     28  H   UNL A   1      45.268  35.786  24.903  1.00  0.00     0.163 HD
ATOM     29  O   UNL A   1      43.652  34.019  25.237  1.00  0.00    -0.269 OA
BRANCH  27  30
ATOM     30  C   UNL A   1      43.658  34.558  27.529  1.00  0.00     0.039 A 
ATOM     31  C   UNL A   1      43.561  33.295  28.120  1.00  0.00     0.014 A 
ATOM     32  C   UNL A   1      43.204  35.684  28.222  1.00  0.00     0.014 A 
ATOM     33  C   UNL A   1      43.053  33.170  29.416  1.00  0.00     0.010 A 
ATOM     34  C   UNL A   1      42.788  35.570  29.543  1.00  0.00     0.010 A 
ATOM     35  C   UNL A   1      42.687  34.310  30.148  1.00  0.00    -0.014 A 
BRANCH  35  36
ATOM     36  C   UNL A   1      42.159  34.209  31.533  1.00  0.00     0.031 A 
ATOM     37  C   UNL A   1      40.671  34.174  31.767  1.00  0.00     0.074 A 
ATOM     38  C   UNL A   1      43.013  34.225  32.574  1.00  0.00     0.049 A 
ATOM     39  N   UNL A   1      40.007  34.188  32.896  1.00  0.00    -0.248 NA
ATOM     40  C   UNL A   1      39.816  34.162  30.571  1.00  0.00     0.031 C 
ATOM     41  C   UNL A   1      44.472  34.312  32.468  1.00  0.00     0.029 A 
ATOM     42  N   UNL A   1      42.783  34.179  33.924  1.00  0.00    -0.354 N 
ATOM     43  C   UNL A   1      38.661  34.216  32.544  1.00  0.00     0.074 A 
ATOM     44  C   UNL A   1      38.607  34.280  31.099  1.00  0.00     0.031 C 
ATOM     45  C   UNL A   1      45.005  34.288  33.700  1.00  0.00     0.029 A 
ATOM     46  C   UNL A   1      43.929  34.226  34.683  1.00  0.00     0.049 A 
ATOM     47  H   UNL A   1      41.881  34.119  34.315  1.00  0.00     0.167 HD
ATOM     48  C   UNL A   1      37.571  34.166  33.350  1.00  0.00     0.034 A 
ATOM     49  C   UNL A   1      44.092  34.229  36.020  1.00  0.00     0.034 A 
ATOM     50  C   UNL A   1      37.649  34.072  34.788  1.00  0.00     0.049 A 
ATOM     51  C   UNL A   1      42.870  34.154  36.896  1.00  0.00     0.074 A 
ATOM     52  C   UNL A   1      36.620  33.948  35.704  1.00  0.00     0.029 A 
ATOM     53  N   UNL A   1      38.830  34.095  35.522  1.00  0.00    -0.354 N 
ATOM     54  N   UNL A   1      41.604  34.126  36.547  1.00  0.00    -0.248 NA
ATOM     55  C   UNL A   1      43.098  34.097  38.345  1.00  0.00     0.031 C 
ATOM     56  C   UNL A   1      37.172  33.952  36.990  1.00  0.00     0.029 A 
ATOM     57  C   UNL A   1      38.552  34.009  36.877  1.00  0.00     0.049 A 
ATOM     58  H   UNL A   1      39.733  34.161  35.133  1.00  0.00     0.167 HD
ATOM     59  C   UNL A   1      40.886  34.025  37.735  1.00  0.00     0.074 A 
ATOM     60  C   UNL A   1      41.862  33.975  38.805  1.00  0.00     0.031 C 
ATOM     61  C   UNL A   1      39.542  33.978  37.928  1.00  0.00     0.034 A 
BRANCH  48  62
ATOM     62  C   UNL A   1      36.213  34.234  32.690  1.00  0.00     0.023 A 
ATOM     63  C   UNL A   1      35.437  35.406  32.712  1.00  0.00     0.031 A 
ATOM     64  C   UNL A   1      35.667  33.099  32.062  1.00  0.00     0.131 A 
ATOM     65  C   UNL A   1      34.130  35.395  32.200  1.00  0.00     0.055 A 
ATOM     66  C   UNL A   1      34.399  33.119  31.477  1.00  0.00     0.041 A 
ATOM     67  F   UNL A   1      36.350  31.945  32.023  1.00  0.00    -0.206 F 
ATOM     68  C   UNL A   1      33.616  34.267  31.559  1.00  0.00     0.022 A 
BRANCH  65  69
ATOM     69  S   UNL A   1      33.064  36.826  32.519  1.00  0.00     0.124 S 
ATOM     70  O   UNL A   1      31.755  36.192  32.661  1.00  0.00    -0.237 OA
ATOM     71  O   UNL A   1      33.640  37.384  33.737  1.00  0.00    -0.237 OA
ATOM     72  O   UNL A   1      33.223  37.647  31.320  1.00  0.00    -0.744 OA
ENDBRANCH  65  69
ENDBRANCH  48  62
BRANCH  49  73
ATOM     73  C   UNL A   1      45.457  34.302  36.612  1.00  0.00     0.023 A 
ATOM     74  C   UNL A   1      46.009  35.533  37.002  1.00  0.00     0.031 A 
ATOM     75  C   UNL A   1      46.241  33.146  36.775  1.00  0.00     0.131 A 
ATOM     76  C   UNL A   1      47.322  35.585  37.495  1.00  0.00     0.055 A 
ATOM     77  C   UNL A   1      47.529  33.198  37.310  1.00  0.00     0.041 A 
ATOM     78  F   UNL A   1      45.755  31.942  36.432  1.00  0.00    -0.206 F 
ATOM     79  C   UNL A   1      48.082  34.425  37.663  1.00  0.00     0.022 A 
BRANCH  76  80
ATOM     80  S   UNL A   1      48.050  37.208  37.854  1.00  0.00     0.124 S 
ATOM     81  O   UNL A   1      46.996  38.113  37.408  1.00  0.00    -0.237 OA
ATOM     82  O   UNL A   1      48.263  37.131  39.295  1.00  0.00    -0.237 OA
ATOM     83  O   UNL A   1      49.267  37.219  37.046  1.00  0.00    -0.744 OA
ENDBRANCH  76  80
ENDBRANCH  49  73
BRANCH  61  84
ATOM     84  C   UNL A   1      39.067  33.833  39.351  1.00  0.00     0.023 A 
ATOM     85  C   UNL A   1      38.847  32.571  39.929  1.00  0.00     0.031 A 
ATOM     86  C   UNL A   1      38.808  34.974  40.132  1.00  0.00     0.131 A 
ATOM     87  C   UNL A   1      38.323  32.479  41.226  1.00  0.00     0.055 A 
ATOM     88  C   UNL A   1      38.345  34.875  41.444  1.00  0.00     0.041 A 
ATOM     89  F   UNL A   1      39.000  36.204  39.628  1.00  0.00    -0.206 F 
ATOM     90  C   UNL A   1      38.085  33.623  41.992  1.00  0.00     0.022 A 
BRANCH  87  91
ATOM     91  S   UNL A   1      37.861  30.844  41.863  1.00  0.00     0.124 S 
ATOM     92  O   UNL A   1      39.029  30.488  42.662  1.00  0.00    -0.237 OA
ATOM     93  O   UNL A   1      36.641  31.134  42.610  1.00  0.00    -0.237 OA
ATOM     94  O   UNL A   1      37.670  30.047  40.653  1.00  0.00    -0.744 OA
ENDBRANCH  87  91
ENDBRANCH  61  84
ENDBRANCH  35  36
ENDBRANCH  27  30
ENDBRANCH  25  26
ENDBRANCH  24  25
ENDBRANCH   1  24
TORSDOF 19
ENDMDL
