MODEL 1
REMARK VINA RESULT:     -13.0      0.000      0.000
REMARK SMILES C[C@H](NC(=O)N1CCN(/C=C/c2ccccc2)CC1)C(=O)NCCCNC(=O)c1ccc(-c2c3nc(c(-c4cc(S(=O)(=O)[O-])ccc4F)c4ccc([nH]4)c(-c4cc(S(=O)(=O)[O-])ccc4F)c4nc(c(-c5cc(S(=O)(=O)[O-])ccc5F)c5ccc2[nH]5)C=C4)C=C3)cc1
REMARK SMILES IDX 24 1 23 2 22 3 20 4 21 5 2 7 1 8 3 9 4 10 5 12 6 13 7 14
REMARK SMILES IDX 19 15 8 16 18 17 9 18 10 19 11 20 12 21 13 22 17 23 14 24
REMARK SMILES IDX 16 25 15 26 25 27 26 28 27 29 28 31 29 32 30 33 91 34 31 35
REMARK SMILES IDX 90 36 32 37 33 38 34 39 84 40 35 41 89 42 83 43 85 44 36 45
REMARK SMILES IDX 88 46 82 47 81 48 37 50 69 51 49 52 68 53 50 54 53 55 67 56
REMARK SMILES IDX 86 57 51 58 52 59 66 61 87 62 54 63 38 64 39 65 47 66 40 67
REMARK SMILES IDX 46 68 48 69 45 70 41 71 42 72 43 73 44 74 70 75 71 76 79 77
REMARK SMILES IDX 72 78 78 79 80 80 77 81 73 82 74 83 75 84 76 85 55 86 56 87
REMARK SMILES IDX 64 88 57 89 63 90 65 91 62 92 58 93 59 94 60 95 61 96
REMARK H PARENT 22 6 3 11 26 30 85 49 53 60
REMARK Flexibility Score: inf
ROOT
ATOM      1  C   UNL A   1      31.581  31.919  26.617  1.00  0.00     0.042 C 
ENDROOT
BRANCH   1   2
ATOM      2  C   UNL A   1      31.801  30.567  25.964  1.00  0.00     0.117 C 
BRANCH   2   3
ATOM      3  N   UNL A   1      31.599  29.473  26.893  1.00  0.00    -0.354 N 
ATOM      4  C   UNL A   1      31.621  28.130  26.686  1.00  0.00     0.242 C 
ATOM      5  O   UNL A   1      31.386  27.398  27.651  1.00  0.00    -0.273 OA
ATOM      6  H   UNL A   1      31.419  29.747  27.822  1.00  0.00     0.163 HD
BRANCH   4   7
ATOM      7  C   UNL A   1      31.933  27.543  25.305  1.00  0.00     0.170 C 
ATOM      8  C   UNL A   1      33.375  27.771  24.852  1.00  0.00     0.041 C 
BRANCH   7   9
ATOM      9  N   UNL A   1      30.960  27.960  24.296  1.00  0.00    -0.326 N 
ATOM     10  C   UNL A   1      30.796  27.349  23.092  1.00  0.00     0.318 C 
ATOM     11  H   UNL A   1      30.385  28.733  24.503  1.00  0.00     0.166 HD
ATOM     12  O   UNL A   1      30.555  28.036  22.102  1.00  0.00    -0.249 OA
ATOM     13  N   UNL A   1      31.042  26.011  23.035  1.00  0.00    -0.321 N 
ATOM     14  C   UNL A   1      31.827  25.454  21.947  1.00  0.00     0.143 C 
ATOM     15  C   UNL A   1      30.457  25.017  23.939  1.00  0.00     0.143 C 
ATOM     16  C   UNL A   1      32.962  24.603  22.542  1.00  0.00     0.137 C 
ATOM     17  C   UNL A   1      31.504  24.027  24.484  1.00  0.00     0.137 C 
ATOM     18  N   UNL A   1      32.416  23.539  23.416  1.00  0.00    -0.374 N 
BRANCH  18  19
ATOM     19  C   UNL A   1      32.824  22.217  23.377  1.00  0.00     0.081 C 
ATOM     20  C   UNL A   1      32.297  21.150  23.991  1.00  0.00     0.025 C 
BRANCH  20  21
ATOM     21  C   UNL A   1      32.883  19.808  23.940  1.00  0.00    -0.024 A 
ATOM     22  C   UNL A   1      34.064  19.551  24.646  1.00  0.00     0.008 A 
ATOM     23  C   UNL A   1      32.350  18.804  23.120  1.00  0.00     0.008 A 
ATOM     24  C   UNL A   1      34.695  18.311  24.544  1.00  0.00     0.001 A 
ATOM     25  C   UNL A   1      32.981  17.563  23.018  1.00  0.00     0.001 A 
ATOM     26  C   UNL A   1      34.154  17.318  23.728  1.00  0.00     0.000 A 
ENDBRANCH  20  21
ENDBRANCH  18  19
ENDBRANCH   7   9
ENDBRANCH   4   7
ENDBRANCH   2   3
ENDBRANCH   1   2
BRANCH   1  27
ATOM     27  C   UNL A   1      32.838  32.517  27.236  1.00  0.00     0.118 C 
BRANCH  27  28
ATOM     28  N   UNL A   1      32.664  33.911  27.620  1.00  0.00    -0.352 N 
ATOM     29  C   UNL A   1      33.248  34.620  28.638  1.00  0.00     0.251 C 
ATOM     30  H   UNL A   1      32.031  34.421  27.064  1.00  0.00     0.163 HD
ATOM     31  O   UNL A   1      32.805  35.731  28.928  1.00  0.00    -0.269 OA
BRANCH  29  32
ATOM     32  C   UNL A   1      34.383  34.046  29.390  1.00  0.00     0.039 A 
ATOM     33  C   UNL A   1      34.125  33.187  30.459  1.00  0.00     0.014 A 
ATOM     34  C   UNL A   1      35.701  34.360  29.047  1.00  0.00     0.014 A 
ATOM     35  C   UNL A   1      35.190  32.602  31.148  1.00  0.00     0.010 A 
ATOM     36  C   UNL A   1      36.756  33.696  29.663  1.00  0.00     0.010 A 
ATOM     37  C   UNL A   1      36.514  32.826  30.736  1.00  0.00    -0.014 A 
BRANCH  37  38
ATOM     38  C   UNL A   1      37.659  32.200  31.444  1.00  0.00     0.031 A 
ATOM     39  C   UNL A   1      38.415  31.071  30.791  1.00  0.00     0.074 A 
ATOM     40  C   UNL A   1      37.991  32.612  32.684  1.00  0.00     0.049 A 
ATOM     41  N   UNL A   1      39.400  30.352  31.263  1.00  0.00    -0.248 NA
ATOM     42  C   UNL A   1      37.979  30.678  29.442  1.00  0.00     0.031 C 
ATOM     43  C   UNL A   1      37.308  33.668  33.435  1.00  0.00     0.029 A 
ATOM     44  N   UNL A   1      38.984  32.192  33.533  1.00  0.00    -0.354 N 
ATOM     45  C   UNL A   1      39.691  29.416  30.276  1.00  0.00     0.074 A 
ATOM     46  C   UNL A   1      38.726  29.610  29.216  1.00  0.00     0.031 C 
ATOM     47  C   UNL A   1      37.925  33.837  34.615  1.00  0.00     0.029 A 
ATOM     48  C   UNL A   1      39.012  32.870  34.730  1.00  0.00     0.049 A 
ATOM     49  H   UNL A   1      39.616  31.472  33.308  1.00  0.00     0.167 HD
ATOM     50  C   UNL A   1      40.690  28.499  30.241  1.00  0.00     0.034 A 
ATOM     51  C   UNL A   1      39.816  32.722  35.802  1.00  0.00     0.034 A 
ATOM     52  C   UNL A   1      41.652  28.330  31.301  1.00  0.00     0.049 A 
ATOM     53  C   UNL A   1      40.902  31.675  35.755  1.00  0.00     0.074 A 
ATOM     54  C   UNL A   1      42.734  27.468  31.354  1.00  0.00     0.029 A 
ATOM     55  N   UNL A   1      41.647  29.032  32.500  1.00  0.00    -0.354 N 
ATOM     56  N   UNL A   1      41.195  30.831  34.792  1.00  0.00    -0.248 NA
ATOM     57  C   UNL A   1      41.773  31.573  36.931  1.00  0.00     0.031 C 
ATOM     58  C   UNL A   1      43.333  27.593  32.612  1.00  0.00     0.029 A 
ATOM     59  C   UNL A   1      42.686  28.599  33.311  1.00  0.00     0.049 A 
ATOM     60  H   UNL A   1      41.000  29.735  32.740  1.00  0.00     0.167 HD
ATOM     61  C   UNL A   1      42.311  30.124  35.235  1.00  0.00     0.074 A 
ATOM     62  C   UNL A   1      42.643  30.653  36.542  1.00  0.00     0.031 C 
ATOM     63  C   UNL A   1      43.002  29.133  34.616  1.00  0.00     0.034 A 
BRANCH  50  64
ATOM     64  C   UNL A   1      40.769  27.601  29.028  1.00  0.00     0.023 A 
ATOM     65  C   UNL A   1      41.727  27.804  28.018  1.00  0.00     0.031 A 
ATOM     66  C   UNL A   1      39.856  26.545  28.861  1.00  0.00     0.131 A 
ATOM     67  C   UNL A   1      41.696  27.022  26.853  1.00  0.00     0.055 A 
ATOM     68  C   UNL A   1      39.888  25.712  27.741  1.00  0.00     0.041 A 
ATOM     69  F   UNL A   1      38.903  26.315  29.777  1.00  0.00    -0.206 F 
ATOM     70  C   UNL A   1      40.801  25.959  26.721  1.00  0.00     0.022 A 
BRANCH  67  71
ATOM     71  S   UNL A   1      42.733  27.520  25.450  1.00  0.00     0.124 S 
ATOM     72  O   UNL A   1      41.956  28.621  24.885  1.00  0.00    -0.237 OA
ATOM     73  O   UNL A   1      43.986  27.888  26.099  1.00  0.00    -0.237 OA
ATOM     74  O   UNL A   1      42.788  26.317  24.621  1.00  0.00    -0.744 OA
ENDBRANCH  67  71
ENDBRANCH  50  64
BRANCH  51  75
ATOM     75  C   UNL A   1      39.632  33.575  37.012  1.00  0.00     0.023 A 
ATOM     76  C   UNL A   1      39.063  33.056  38.186  1.00  0.00     0.031 A 
ATOM     77  C   UNL A   1      39.975  34.939  36.997  1.00  0.00     0.131 A 
ATOM     78  C   UNL A   1      38.803  33.903  39.274  1.00  0.00     0.055 A 
ATOM     79  C   UNL A   1      39.772  35.765  38.104  1.00  0.00     0.041 A 
ATOM     80  F   UNL A   1      40.526  35.489  35.903  1.00  0.00    -0.206 F 
ATOM     81  C   UNL A   1      39.168  35.251  39.247  1.00  0.00     0.022 A 
BRANCH  78  82
ATOM     82  S   UNL A   1      37.888  33.239  40.693  1.00  0.00     0.124 S 
ATOM     83  O   UNL A   1      38.577  31.975  40.924  1.00  0.00    -0.237 OA
ATOM     84  O   UNL A   1      38.093  34.277  41.697  1.00  0.00    -0.237 OA
ATOM     85  O   UNL A   1      36.520  33.122  40.190  1.00  0.00    -0.744 OA
ENDBRANCH  78  82
ENDBRANCH  51  75
BRANCH  63  86
ATOM     86  C   UNL A   1      44.224  28.598  35.324  1.00  0.00     0.023 A 
ATOM     87  C   UNL A   1      44.149  27.539  36.246  1.00  0.00     0.031 A 
ATOM     88  C   UNL A   1      45.487  29.170  35.078  1.00  0.00     0.131 A 
ATOM     89  C   UNL A   1      45.301  27.127  36.932  1.00  0.00     0.055 A 
ATOM     90  C   UNL A   1      46.640  28.708  35.711  1.00  0.00     0.041 A 
ATOM     91  F   UNL A   1      45.619  30.186  34.210  1.00  0.00    -0.206 F 
ATOM     92  C   UNL A   1      46.549  27.690  36.656  1.00  0.00     0.022 A 
BRANCH  89  93
ATOM     93  S   UNL A   1      45.129  25.918  38.273  1.00  0.00     0.124 S 
ATOM     94  O   UNL A   1      44.510  24.789  37.585  1.00  0.00    -0.237 OA
ATOM     95  O   UNL A   1      46.512  25.724  38.697  1.00  0.00    -0.237 OA
ATOM     96  O   UNL A   1      44.273  26.598  39.242  1.00  0.00    -0.744 OA
ENDBRANCH  89  93
ENDBRANCH  63  86
ENDBRANCH  37  38
ENDBRANCH  29  32
ENDBRANCH  27  28
ENDBRANCH   1  27
TORSDOF 16
ENDMDL
MODEL 2
REMARK VINA RESULT:     -12.8      5.642     10.962
REMARK SMILES C[C@H](NC(=O)N1CCN(/C=C/c2ccccc2)CC1)C(=O)NCCCNC(=O)c1ccc(-c2c3nc(c(-c4cc(S(=O)(=O)[O-])ccc4F)c4ccc([nH]4)c(-c4cc(S(=O)(=O)[O-])ccc4F)c4nc(c(-c5cc(S(=O)(=O)[O-])ccc5F)c5ccc2[nH]5)C=C4)C=C3)cc1
REMARK SMILES IDX 24 1 23 2 22 3 20 4 21 5 2 7 1 8 3 9 4 10 5 12 6 13 7 14
REMARK SMILES IDX 19 15 8 16 18 17 9 18 10 19 11 20 12 21 13 22 17 23 14 24
REMARK SMILES IDX 16 25 15 26 25 27 26 28 27 29 28 31 29 32 30 33 91 34 31 35
REMARK SMILES IDX 90 36 32 37 33 38 34 39 84 40 35 41 89 42 83 43 85 44 36 45
REMARK SMILES IDX 88 46 82 47 81 48 37 50 69 51 49 52 68 53 50 54 53 55 67 56
REMARK SMILES IDX 86 57 51 58 52 59 66 61 87 62 54 63 38 64 39 65 47 66 40 67
REMARK SMILES IDX 46 68 48 69 45 70 41 71 42 72 43 73 44 74 70 75 71 76 79 77
REMARK SMILES IDX 72 78 78 79 80 80 77 81 73 82 74 83 75 84 76 85 55 86 56 87
REMARK SMILES IDX 64 88 57 89 63 90 65 91 62 92 58 93 59 94 60 95 61 96
REMARK H PARENT 22 6 3 11 26 30 85 49 53 60
REMARK Flexibility Score: inf
ROOT
ATOM      1  C   UNL A   1      34.422  21.822  27.475  1.00  0.00     0.042 C 
ENDROOT
BRANCH   1   2
ATOM      2  C   UNL A   1      33.038  21.964  26.868  1.00  0.00     0.117 C 
BRANCH   2   3
ATOM      3  N   UNL A   1      32.632  20.770  26.152  1.00  0.00    -0.354 N 
ATOM      4  C   UNL A   1      32.426  20.572  24.823  1.00  0.00     0.242 C 
ATOM      5  O   UNL A   1      32.049  19.453  24.464  1.00  0.00    -0.273 OA
ATOM      6  H   UNL A   1      32.482  19.979  26.718  1.00  0.00     0.163 HD
BRANCH   4   7
ATOM      7  C   UNL A   1      32.661  21.693  23.806  1.00  0.00     0.170 C 
ATOM      8  C   UNL A   1      32.038  21.421  22.436  1.00  0.00     0.041 C 
BRANCH   7   9
ATOM      9  N   UNL A   1      34.072  22.064  23.712  1.00  0.00    -0.326 N 
ATOM     10  C   UNL A   1      34.523  23.231  23.174  1.00  0.00     0.318 C 
ATOM     11  H   UNL A   1      34.739  21.429  24.061  1.00  0.00     0.166 HD
ATOM     12  O   UNL A   1      35.557  23.221  22.512  1.00  0.00    -0.249 OA
ATOM     13  N   UNL A   1      33.719  24.322  23.296  1.00  0.00    -0.321 N 
ATOM     14  C   UNL A   1      33.485  25.193  22.157  1.00  0.00     0.143 C 
ATOM     15  C   UNL A   1      33.141  24.796  24.557  1.00  0.00     0.143 C 
ATOM     16  C   UNL A   1      31.968  25.364  21.968  1.00  0.00     0.137 C 
ATOM     17  C   UNL A   1      31.642  25.127  24.431  1.00  0.00     0.137 C 
ATOM     18  N   UNL A   1      31.345  25.904  23.199  1.00  0.00    -0.374 N 
BRANCH  18  19
ATOM     19  C   UNL A   1      30.428  26.941  23.216  1.00  0.00     0.081 C 
ATOM     20  C   UNL A   1      30.629  28.250  23.021  1.00  0.00     0.025 C 
BRANCH  20  21
ATOM     21  C   UNL A   1      29.579  29.265  23.156  1.00  0.00    -0.024 A 
ATOM     22  C   UNL A   1      29.903  30.514  23.698  1.00  0.00     0.008 A 
ATOM     23  C   UNL A   1      28.241  28.981  22.853  1.00  0.00     0.008 A 
ATOM     24  C   UNL A   1      28.909  31.467  23.922  1.00  0.00     0.001 A 
ATOM     25  C   UNL A   1      27.247  29.935  23.078  1.00  0.00     0.001 A 
ATOM     26  C   UNL A   1      27.581  31.176  23.614  1.00  0.00     0.000 A 
ENDBRANCH  20  21
ENDBRANCH  18  19
ENDBRANCH   7   9
ENDBRANCH   4   7
ENDBRANCH   2   3
ENDBRANCH   1   2
BRANCH   1  27
ATOM     27  C   UNL A   1      35.532  22.427  26.626  1.00  0.00     0.118 C 
BRANCH  27  28
ATOM     28  N   UNL A   1      36.442  21.420  26.096  1.00  0.00    -0.352 N 
ATOM     29  C   UNL A   1      37.780  21.513  25.807  1.00  0.00     0.251 C 
ATOM     30  H   UNL A   1      36.036  20.541  25.919  1.00  0.00     0.163 HD
ATOM     31  O   UNL A   1      38.318  20.612  25.163  1.00  0.00    -0.269 OA
BRANCH  29  32
ATOM     32  C   UNL A   1      38.557  22.690  26.244  1.00  0.00     0.039 A 
ATOM     33  C   UNL A   1      39.725  22.497  26.984  1.00  0.00     0.014 A 
ATOM     34  C   UNL A   1      38.132  23.984  25.932  1.00  0.00     0.014 A 
ATOM     35  C   UNL A   1      40.492  23.602  27.364  1.00  0.00     0.010 A 
ATOM     36  C   UNL A   1      38.951  25.072  26.218  1.00  0.00     0.010 A 
ATOM     37  C   UNL A   1      40.129  24.896  26.957  1.00  0.00    -0.014 A 
BRANCH  37  38
ATOM     38  C   UNL A   1      40.940  26.080  27.336  1.00  0.00     0.031 A 
ATOM     39  C   UNL A   1      40.332  27.159  28.195  1.00  0.00     0.074 A 
ATOM     40  C   UNL A   1      42.200  26.209  26.875  1.00  0.00     0.049 A 
ATOM     41  N   UNL A   1      40.846  28.297  28.585  1.00  0.00    -0.248 NA
ATOM     42  C   UNL A   1      38.948  26.943  28.645  1.00  0.00     0.031 C 
ATOM     43  C   UNL A   1      42.883  25.250  26.003  1.00  0.00     0.029 A 
ATOM     44  N   UNL A   1      43.131  27.198  27.072  1.00  0.00    -0.354 N 
ATOM     45  C   UNL A   1      39.847  28.935  29.312  1.00  0.00     0.074 A 
ATOM     46  C   UNL A   1      38.674  28.092  29.241  1.00  0.00     0.031 C 
ATOM     47  C   UNL A   1      44.134  25.680  25.773  1.00  0.00     0.029 A 
ATOM     48  C   UNL A   1      44.328  26.967  26.432  1.00  0.00     0.049 A 
ATOM     49  H   UNL A   1      42.959  27.998  27.619  1.00  0.00     0.167 HD
ATOM     50  C   UNL A   1      39.910  30.100  30.002  1.00  0.00     0.034 A 
ATOM     51  C   UNL A   1      45.449  27.713  26.377  1.00  0.00     0.034 A 
ATOM     52  C   UNL A   1      41.094  30.920  30.074  1.00  0.00     0.049 A 
ATOM     53  C   UNL A   1      45.487  29.022  27.127  1.00  0.00     0.074 A 
ATOM     54  C   UNL A   1      41.287  32.094  30.781  1.00  0.00     0.029 A 
ATOM     55  N   UNL A   1      42.286  30.657  29.410  1.00  0.00    -0.354 N 
ATOM     56  N   UNL A   1      44.549  29.587  27.852  1.00  0.00    -0.248 NA
ATOM     57  C   UNL A   1      46.740  29.783  27.065  1.00  0.00     0.031 C 
ATOM     58  C   UNL A   1      42.565  32.579  30.483  1.00  0.00     0.029 A 
ATOM     59  C   UNL A   1      43.206  31.662  29.665  1.00  0.00     0.049 A 
ATOM     60  H   UNL A   1      42.453  29.870  28.841  1.00  0.00     0.167 HD
ATOM     61  C   UNL A   1      45.115  30.753  28.362  1.00  0.00     0.074 A 
ATOM     62  C   UNL A   1      46.478  30.798  27.873  1.00  0.00     0.031 C 
ATOM     63  C   UNL A   1      44.562  31.697  29.166  1.00  0.00     0.034 A 
BRANCH  50  64
ATOM     64  C   UNL A   1      38.656  30.560  30.709  1.00  0.00     0.023 A 
ATOM     65  C   UNL A   1      37.620  31.222  30.024  1.00  0.00     0.031 A 
ATOM     66  C   UNL A   1      38.503  30.363  32.093  1.00  0.00     0.131 A 
ATOM     67  C   UNL A   1      36.525  31.737  30.735  1.00  0.00     0.055 A 
ATOM     68  C   UNL A   1      37.367  30.797  32.779  1.00  0.00     0.041 A 
ATOM     69  F   UNL A   1      39.466  29.759  32.807  1.00  0.00    -0.206 F 
ATOM     70  C   UNL A   1      36.377  31.503  32.103  1.00  0.00     0.022 A 
BRANCH  67  71
ATOM     71  S   UNL A   1      35.382  32.851  29.873  1.00  0.00     0.124 S 
ATOM     72  O   UNL A   1      34.377  33.097  30.905  1.00  0.00    -0.237 OA
ATOM     73  O   UNL A   1      36.239  33.981  29.534  1.00  0.00    -0.237 OA
ATOM     74  O   UNL A   1      34.918  32.056  28.738  1.00  0.00    -0.744 OA
ENDBRANCH  67  71
ENDBRANCH  50  64
BRANCH  51  75
ATOM     75  C   UNL A   1      46.627  27.253  25.585  1.00  0.00     0.023 A 
ATOM     76  C   UNL A   1      46.896  27.783  24.313  1.00  0.00     0.031 A 
ATOM     77  C   UNL A   1      47.474  26.239  26.066  1.00  0.00     0.131 A 
ATOM     78  C   UNL A   1      47.948  27.261  23.544  1.00  0.00     0.055 A 
ATOM     79  C   UNL A   1      48.556  25.765  25.324  1.00  0.00     0.041 A 
ATOM     80  F   UNL A   1      47.265  25.698  27.277  1.00  0.00    -0.206 F 
ATOM     81  C   UNL A   1      48.790  26.265  24.046  1.00  0.00     0.022 A 
BRANCH  78  82
ATOM     82  S   UNL A   1      48.140  27.832  21.833  1.00  0.00     0.124 S 
ATOM     83  O   UNL A   1      48.363  26.577  21.125  1.00  0.00    -0.237 OA
ATOM     84  O   UNL A   1      46.860  28.489  21.588  1.00  0.00    -0.237 OA
ATOM     85  O   UNL A   1      49.294  28.726  21.900  1.00  0.00    -0.744 OA
ENDBRANCH  78  82
ENDBRANCH  51  75
BRANCH  63  86
ATOM     86  C   UNL A   1      45.454  32.829  29.615  1.00  0.00     0.023 A 
ATOM     87  C   UNL A   1      45.544  34.037  28.901  1.00  0.00     0.031 A 
ATOM     88  C   UNL A   1      46.238  32.690  30.776  1.00  0.00     0.131 A 
ATOM     89  C   UNL A   1      46.443  35.030  29.317  1.00  0.00     0.055 A 
ATOM     90  C   UNL A   1      47.076  33.710  31.225  1.00  0.00     0.041 A 
ATOM     91  F   UNL A   1      46.196  31.558  31.497  1.00  0.00    -0.206 F 
ATOM     92  C   UNL A   1      47.194  34.884  30.486  1.00  0.00     0.022 A 
BRANCH  89  93
ATOM     93  S   UNL A   1      46.698  36.475  28.252  1.00  0.00     0.124 S 
ATOM     94  O   UNL A   1      48.037  36.906  28.641  1.00  0.00    -0.237 OA
ATOM     95  O   UNL A   1      46.577  35.902  26.915  1.00  0.00    -0.237 OA
ATOM     96  O   UNL A   1      45.619  37.382  28.637  1.00  0.00    -0.744 OA
ENDBRANCH  89  93
ENDBRANCH  63  86
ENDBRANCH  37  38
ENDBRANCH  29  32
ENDBRANCH  27  28
ENDBRANCH   1  27
TORSDOF 16
ENDMDL
MODEL 3
REMARK VINA RESULT:     -12.7      5.842     11.950
REMARK SMILES C[C@H](NC(=O)N1CCN(/C=C/c2ccccc2)CC1)C(=O)NCCCNC(=O)c1ccc(-c2c3nc(c(-c4cc(S(=O)(=O)[O-])ccc4F)c4ccc([nH]4)c(-c4cc(S(=O)(=O)[O-])ccc4F)c4nc(c(-c5cc(S(=O)(=O)[O-])ccc5F)c5ccc2[nH]5)C=C4)C=C3)cc1
REMARK SMILES IDX 24 1 23 2 22 3 20 4 21 5 2 7 1 8 3 9 4 10 5 12 6 13 7 14
REMARK SMILES IDX 19 15 8 16 18 17 9 18 10 19 11 20 12 21 13 22 17 23 14 24
REMARK SMILES IDX 16 25 15 26 25 27 26 28 27 29 28 31 29 32 30 33 91 34 31 35
REMARK SMILES IDX 90 36 32 37 33 38 34 39 84 40 35 41 89 42 83 43 85 44 36 45
REMARK SMILES IDX 88 46 82 47 81 48 37 50 69 51 49 52 68 53 50 54 53 55 67 56
REMARK SMILES IDX 86 57 51 58 52 59 66 61 87 62 54 63 38 64 39 65 47 66 40 67
REMARK SMILES IDX 46 68 48 69 45 70 41 71 42 72 43 73 44 74 70 75 71 76 79 77
REMARK SMILES IDX 72 78 78 79 80 80 77 81 73 82 74 83 75 84 76 85 55 86 56 87
REMARK SMILES IDX 64 88 57 89 63 90 65 91 62 92 58 93 59 94 60 95 61 96
REMARK H PARENT 22 6 3 11 26 30 85 49 53 60
REMARK Flexibility Score: inf
ROOT
ATOM      1  C   UNL A   1      38.214  19.700  24.993  1.00  0.00     0.042 C 
ENDROOT
BRANCH   1   2
ATOM      2  C   UNL A   1      36.964  20.554  25.098  1.00  0.00     0.117 C 
BRANCH   2   3
ATOM      3  N   UNL A   1      36.956  21.630  24.127  1.00  0.00    -0.354 N 
ATOM      4  C   UNL A   1      35.997  22.552  23.847  1.00  0.00     0.242 C 
ATOM      5  O   UNL A   1      36.225  23.358  22.940  1.00  0.00    -0.273 OA
ATOM      6  H   UNL A   1      37.775  21.706  23.586  1.00  0.00     0.163 HD
BRANCH   4   7
ATOM      7  C   UNL A   1      34.683  22.597  24.633  1.00  0.00     0.170 C 
ATOM      8  C   UNL A   1      34.852  23.026  26.090  1.00  0.00     0.041 C 
BRANCH   7   9
ATOM      9  N   UNL A   1      33.920  21.356  24.503  1.00  0.00    -0.326 N 
ATOM     10  C   UNL A   1      32.587  21.246  24.754  1.00  0.00     0.318 C 
ATOM     11  H   UNL A   1      34.403  20.547  24.214  1.00  0.00     0.166 HD
ATOM     12  O   UNL A   1      32.164  20.226  25.292  1.00  0.00    -0.249 OA
ATOM     13  N   UNL A   1      31.817  22.341  24.510  1.00  0.00    -0.321 N 
ATOM     14  C   UNL A   1      30.821  22.769  25.478  1.00  0.00     0.143 C 
ATOM     15  C   UNL A   1      31.806  23.089  23.250  1.00  0.00     0.143 C 
ATOM     16  C   UNL A   1      31.044  24.259  25.790  1.00  0.00     0.137 C 
ATOM     17  C   UNL A   1      31.889  24.612  23.468  1.00  0.00     0.137 C 
ATOM     18  N   UNL A   1      30.979  25.070  24.551  1.00  0.00    -0.374 N 
BRANCH  18  19
ATOM     19  C   UNL A   1      30.268  26.251  24.432  1.00  0.00     0.081 C 
ATOM     20  C   UNL A   1      30.050  27.002  23.346  1.00  0.00     0.025 C 
BRANCH  20  21
ATOM     21  C   UNL A   1      29.351  28.290  23.372  1.00  0.00    -0.024 A 
ATOM     22  C   UNL A   1      27.979  28.327  23.098  1.00  0.00     0.008 A 
ATOM     23  C   UNL A   1      30.039  29.496  23.562  1.00  0.00     0.008 A 
ATOM     24  C   UNL A   1      27.304  29.546  23.026  1.00  0.00     0.001 A 
ATOM     25  C   UNL A   1      29.363  30.715  23.491  1.00  0.00     0.001 A 
ATOM     26  C   UNL A   1      27.998  30.740  23.220  1.00  0.00     0.000 A 
ENDBRANCH  20  21
ENDBRANCH  18  19
ENDBRANCH   7   9
ENDBRANCH   4   7
ENDBRANCH   2   3
ENDBRANCH   1   2
BRANCH   1  27
ATOM     27  C   UNL A   1      39.402  20.247  25.772  1.00  0.00     0.118 C 
BRANCH  27  28
ATOM     28  N   UNL A   1      40.428  19.240  26.008  1.00  0.00    -0.352 N 
ATOM     29  C   UNL A   1      41.774  19.392  26.222  1.00  0.00     0.251 C 
ATOM     30  H   UNL A   1      40.106  18.310  26.016  1.00  0.00     0.163 HD
ATOM     31  O   UNL A   1      42.504  18.402  26.186  1.00  0.00    -0.269 OA
BRANCH  29  32
ATOM     32  C   UNL A   1      42.342  20.733  26.470  1.00  0.00     0.039 A 
ATOM     33  C   UNL A   1      42.649  21.553  25.383  1.00  0.00     0.014 A 
ATOM     34  C   UNL A   1      42.579  21.180  27.772  1.00  0.00     0.014 A 
ATOM     35  C   UNL A   1      43.144  22.840  25.607  1.00  0.00     0.010 A 
ATOM     36  C   UNL A   1      42.969  22.497  27.994  1.00  0.00     0.010 A 
ATOM     37  C   UNL A   1      43.278  23.335  26.914  1.00  0.00    -0.014 A 
BRANCH  37  38
ATOM     38  C   UNL A   1      43.785  24.706  27.172  1.00  0.00     0.031 A 
ATOM     39  C   UNL A   1      42.854  25.756  27.721  1.00  0.00     0.074 A 
ATOM     40  C   UNL A   1      45.062  25.020  26.874  1.00  0.00     0.049 A 
ATOM     41  N   UNL A   1      43.080  27.023  27.958  1.00  0.00    -0.248 NA
ATOM     42  C   UNL A   1      41.474  25.332  28.007  1.00  0.00     0.031 C 
ATOM     43  C   UNL A   1      46.047  24.098  26.302  1.00  0.00     0.029 A 
ATOM     44  N   UNL A   1      45.751  26.198  27.010  1.00  0.00    -0.354 N 
ATOM     45  C   UNL A   1      41.871  27.546  28.406  1.00  0.00     0.074 A 
ATOM     46  C   UNL A   1      40.899  26.478  28.333  1.00  0.00     0.031 C 
ATOM     47  C   UNL A   1      47.220  24.737  26.170  1.00  0.00     0.029 A 
ATOM     48  C   UNL A   1      47.062  26.123  26.597  1.00  0.00     0.049 A 
ATOM     49  H   UNL A   1      45.346  27.021  27.367  1.00  0.00     0.167 HD
ATOM     50  C   UNL A   1      41.604  28.792  28.868  1.00  0.00     0.034 A 
ATOM     51  C   UNL A   1      48.024  27.067  26.559  1.00  0.00     0.034 A 
ATOM     52  C   UNL A   1      42.590  29.841  28.948  1.00  0.00     0.049 A 
ATOM     53  C   UNL A   1      47.695  28.457  27.048  1.00  0.00     0.074 A 
ATOM     54  C   UNL A   1      42.444  31.126  29.442  1.00  0.00     0.029 A 
ATOM     55  N   UNL A   1      43.907  29.730  28.517  1.00  0.00    -0.354 N 
ATOM     56  N   UNL A   1      46.560  28.922  27.516  1.00  0.00    -0.248 NA
ATOM     57  C   UNL A   1      48.783  29.442  27.018  1.00  0.00     0.031 C 
ATOM     58  C   UNL A   1      43.646  31.812  29.238  1.00  0.00     0.029 A 
ATOM     59  C   UNL A   1      44.573  30.932  28.704  1.00  0.00     0.049 A 
ATOM     60  H   UNL A   1      44.309  28.915  28.135  1.00  0.00     0.167 HD
ATOM     61  C   UNL A   1      46.810  30.245  27.872  1.00  0.00     0.074 A 
ATOM     62  C   UNL A   1      48.206  30.494  27.578  1.00  0.00     0.031 C 
ATOM     63  C   UNL A   1      45.966  31.168  28.400  1.00  0.00     0.034 A 
BRANCH  50  64
ATOM     64  C   UNL A   1      40.184  29.087  29.295  1.00  0.00     0.023 A 
ATOM     65  C   UNL A   1      39.795  29.050  30.646  1.00  0.00     0.031 A 
ATOM     66  C   UNL A   1      39.197  29.379  28.337  1.00  0.00     0.131 A 
ATOM     67  C   UNL A   1      38.445  29.214  30.993  1.00  0.00     0.055 A 
ATOM     68  C   UNL A   1      37.872  29.633  28.698  1.00  0.00     0.041 A 
ATOM     69  F   UNL A   1      39.499  29.406  27.030  1.00  0.00    -0.206 F 
ATOM     70  C   UNL A   1      37.486  29.535  30.031  1.00  0.00     0.022 A 
BRANCH  67  71
ATOM     71  S   UNL A   1      37.939  28.844  32.695  1.00  0.00     0.124 S 
ATOM     72  O   UNL A   1      36.584  29.389  32.724  1.00  0.00    -0.237 OA
ATOM     73  O   UNL A   1      38.044  27.391  32.747  1.00  0.00    -0.237 OA
ATOM     74  O   UNL A   1      38.912  29.571  33.508  1.00  0.00    -0.744 OA
ENDBRANCH  67  71
ENDBRANCH  50  64
BRANCH  51  75
ATOM     75  C   UNL A   1      49.384  26.744  26.038  1.00  0.00     0.023 A 
ATOM     76  C   UNL A   1      49.804  27.197  24.778  1.00  0.00     0.031 A 
ATOM     77  C   UNL A   1      50.267  25.932  26.773  1.00  0.00     0.131 A 
ATOM     78  C   UNL A   1      51.047  26.792  24.266  1.00  0.00     0.055 A 
ATOM     79  C   UNL A   1      51.528  25.582  26.286  1.00  0.00     0.041 A 
ATOM     80  F   UNL A   1      49.919  25.474  27.985  1.00  0.00    -0.206 F 
ATOM     81  C   UNL A   1      51.919  26.000  25.017  1.00  0.00     0.022 A 
BRANCH  78  82
ATOM     82  S   UNL A   1      51.468  27.234  22.557  1.00  0.00     0.124 S 
ATOM     83  O   UNL A   1      50.248  26.866  21.848  1.00  0.00    -0.237 OA
ATOM     84  O   UNL A   1      51.739  28.662  22.672  1.00  0.00    -0.237 OA
ATOM     85  O   UNL A   1      52.634  26.401  22.269  1.00  0.00    -0.744 OA
ENDBRANCH  78  82
ENDBRANCH  51  75
BRANCH  63  86
ATOM     86  C   UNL A   1      46.549  32.517  28.748  1.00  0.00     0.023 A 
ATOM     87  C   UNL A   1      46.537  33.591  27.842  1.00  0.00     0.031 A 
ATOM     88  C   UNL A   1      47.137  32.725  30.010  1.00  0.00     0.131 A 
ATOM     89  C   UNL A   1      47.156  34.802  28.185  1.00  0.00     0.055 A 
ATOM     90  C   UNL A   1      47.689  33.954  30.371  1.00  0.00     0.041 A 
ATOM     91  F   UNL A   1      47.181  31.735  30.915  1.00  0.00    -0.206 F 
ATOM     92  C   UNL A   1      47.714  34.998  29.451  1.00  0.00     0.022 A 
BRANCH  89  93
ATOM     93  S   UNL A   1      47.321  36.086  26.914  1.00  0.00     0.124 S 
ATOM     94  O   UNL A   1      47.539  37.283  27.720  1.00  0.00    -0.237 OA
ATOM     95  O   UNL A   1      48.468  35.618  26.145  1.00  0.00    -0.237 OA
ATOM     96  O   UNL A   1      46.041  36.038  26.209  1.00  0.00    -0.744 OA
ENDBRANCH  89  93
ENDBRANCH  63  86
ENDBRANCH  37  38
ENDBRANCH  29  32
ENDBRANCH  27  28
ENDBRANCH   1  27
TORSDOF 16
ENDMDL
