MODEL 1
REMARK VINA RESULT:     -11.5      0.000      0.000
REMARK SMILES CCC(CC)NC(=O)NC[C@H]1CC[C@H](C(=O)NCCCNC(=O)c2ccc(-c3c4nc(c(-c5cc(S(=O)(=O)[O-])ccc5F)c5ccc([nH]5)c(-c5cc(S(=O)(=O)[O-])ccc5F)c5nc(c(-c6cc(S(=O)(=O)[O-])ccc6F)c6ccc3[nH]6)C=C5)C=C4)cc2)O1
REMARK SMILES IDX 18 1 17 2 15 3 16 4 14 6 11 7 12 8 87 9 13 10 10 11 9 12
REMARK SMILES IDX 6 13 7 14 8 16 3 18 2 19 1 20 4 21 5 22 19 23 20 24 21 25
REMARK SMILES IDX 22 26 23 28 24 29 25 30 86 31 26 32 85 33 27 34 28 35 29 36
REMARK SMILES IDX 79 37 30 38 84 39 78 40 80 41 31 42 83 43 77 44 76 45 32 47
REMARK SMILES IDX 64 48 44 49 63 50 45 51 48 52 62 53 81 54 46 55 47 56 61 58
REMARK SMILES IDX 82 59 49 60 33 61 34 62 42 63 35 64 41 65 43 66 40 67 36 68
REMARK SMILES IDX 37 69 38 70 39 71 65 72 66 73 74 74 67 75 73 76 75 77 72 78
REMARK SMILES IDX 68 79 69 80 70 81 71 82 50 83 51 84 59 85 52 86 58 87 60 88
REMARK SMILES IDX 57 89 53 90 54 91 55 92 56 93
REMARK H PARENT 17 5 6 15 9 17 21 27 80 46 48 57
REMARK Flexibility Score: inf
ROOT
ATOM      1  C   UNL A   1      31.589  30.411  25.985  1.00  0.00     0.117 C 
ENDROOT
BRANCH   1   2
ATOM      2  N   UNL A   1      31.167  30.233  24.614  1.00  0.00    -0.354 N 
ATOM      3  C   UNL A   1      30.771  29.102  23.965  1.00  0.00     0.249 C 
ATOM      4  O   UNL A   1      30.423  29.222  22.786  1.00  0.00    -0.272 OA
ATOM      5  H   UNL A   1      31.167  31.051  24.067  1.00  0.00     0.163 HD
BRANCH   3   6
ATOM      6  C   UNL A   1      30.821  27.705  24.632  1.00  0.00     0.207 C 
ATOM      7  C   UNL A   1      32.463  26.018  24.639  1.00  0.00     0.138 C 
ATOM      8  C   UNL A   1      31.441  25.619  23.586  1.00  0.00     0.037 C 
ATOM      9  O   UNL A   1      32.052  27.274  25.198  1.00  0.00    -0.363 OA
ATOM     10  C   UNL A   1      30.304  26.603  23.725  1.00  0.00     0.045 C 
BRANCH   7  11
ATOM     11  C   UNL A   1      32.736  24.926  25.696  1.00  0.00     0.149 C 
BRANCH  11  12
ATOM     12  N   UNL A   1      31.553  24.436  26.378  1.00  0.00    -0.336 N 
ATOM     13  N   UNL A   1      31.731  22.077  26.356  1.00  0.00    -0.335 N 
ATOM     14  C   UNL A   1      31.130  23.217  26.729  1.00  0.00     0.315 C 
ATOM     15  H   UNL A   1      31.361  21.282  26.802  1.00  0.00     0.165 HD
ATOM     16  O   UNL A   1      30.136  23.131  27.454  1.00  0.00    -0.249 OA
ATOM     17  H   UNL A   1      30.930  25.152  26.636  1.00  0.00     0.165 HD
BRANCH  13  18
ATOM     18  C   UNL A   1      32.813  21.765  25.431  1.00  0.00     0.083 C 
BRANCH  18  19
ATOM     19  C   UNL A   1      33.954  21.059  26.180  1.00  0.00     0.021 C 
ATOM     20  C   UNL A   1      35.279  21.116  25.434  1.00  0.00     0.006 C 
ENDBRANCH  18  19
BRANCH  18  21
ATOM     21  C   UNL A   1      32.277  21.019  24.196  1.00  0.00     0.021 C 
ATOM     22  C   UNL A   1      32.193  21.830  22.915  1.00  0.00     0.006 C 
ENDBRANCH  18  21
ENDBRANCH  13  18
ENDBRANCH  11  12
ENDBRANCH   7  11
ENDBRANCH   3   6
ENDBRANCH   1   2
BRANCH   1  23
ATOM     23  C   UNL A   1      31.426  31.850  26.459  1.00  0.00     0.042 C 
BRANCH  23  24
ATOM     24  C   UNL A   1      32.628  32.360  27.245  1.00  0.00     0.118 C 
BRANCH  24  25
ATOM     25  N   UNL A   1      32.508  33.780  27.547  1.00  0.00    -0.352 N 
ATOM     26  C   UNL A   1      33.130  34.540  28.504  1.00  0.00     0.251 C 
ATOM     27  H   UNL A   1      31.880  34.273  26.971  1.00  0.00     0.163 HD
ATOM     28  O   UNL A   1      32.687  35.658  28.755  1.00  0.00    -0.269 OA
BRANCH  26  29
ATOM     29  C   UNL A   1      34.307  34.023  29.236  1.00  0.00     0.039 A 
ATOM     30  C   UNL A   1      34.102  33.233  30.372  1.00  0.00     0.014 A 
ATOM     31  C   UNL A   1      35.608  34.346  28.840  1.00  0.00     0.014 A 
ATOM     32  C   UNL A   1      35.197  32.724  31.072  1.00  0.00     0.010 A 
ATOM     33  C   UNL A   1      36.696  33.771  29.487  1.00  0.00     0.010 A 
ATOM     34  C   UNL A   1      36.504  32.960  30.615  1.00  0.00    -0.014 A 
BRANCH  34  35
ATOM     35  C   UNL A   1      37.682  32.376  31.307  1.00  0.00     0.031 A 
ATOM     36  C   UNL A   1      38.432  31.231  30.681  1.00  0.00     0.074 A 
ATOM     37  C   UNL A   1      38.029  32.834  32.526  1.00  0.00     0.049 A 
ATOM     38  N   UNL A   1      39.424  30.529  31.165  1.00  0.00    -0.248 NA
ATOM     39  C   UNL A   1      37.985  30.800  29.348  1.00  0.00     0.031 C 
ATOM     40  C   UNL A   1      37.349  33.913  33.247  1.00  0.00     0.029 A 
ATOM     41  N   UNL A   1      39.030  32.447  33.379  1.00  0.00    -0.354 N 
ATOM     42  C   UNL A   1      39.709  29.563  30.204  1.00  0.00     0.074 A 
ATOM     43  C   UNL A   1      38.745  29.735  29.140  1.00  0.00     0.031 C 
ATOM     44  C   UNL A   1      37.967  34.115  34.421  1.00  0.00     0.029 A 
ATOM     45  C   UNL A   1      39.052  33.150  34.561  1.00  0.00     0.049 A 
ATOM     46  H   UNL A   1      39.672  31.731  33.166  1.00  0.00     0.167 HD
ATOM     47  C   UNL A   1      40.699  28.634  30.203  1.00  0.00     0.034 A 
ATOM     48  C   UNL A   1      39.848  33.023  35.641  1.00  0.00     0.034 A 
ATOM     49  C   UNL A   1      41.660  28.491  31.268  1.00  0.00     0.049 A 
ATOM     50  C   UNL A   1      40.930  31.974  35.624  1.00  0.00     0.074 A 
ATOM     51  C   UNL A   1      42.737  27.626  31.348  1.00  0.00     0.029 A 
ATOM     52  N   UNL A   1      41.656  29.227  32.448  1.00  0.00    -0.354 N 
ATOM     53  N   UNL A   1      41.218  31.101  34.686  1.00  0.00    -0.248 NA
ATOM     54  C   UNL A   1      41.800  31.899  36.804  1.00  0.00     0.031 C 
ATOM     55  C   UNL A   1      43.342  27.790  32.599  1.00  0.00     0.029 A 
ATOM     56  C   UNL A   1      42.693  28.813  33.272  1.00  0.00     0.049 A 
ATOM     57  H   UNL A   1      41.012  29.938  32.667  1.00  0.00     0.167 HD
ATOM     58  C   UNL A   1      42.323  30.394  35.152  1.00  0.00     0.074 A 
ATOM     59  C   UNL A   1      42.657  30.955  36.446  1.00  0.00     0.031 C 
ATOM     60  C   UNL A   1      43.003  29.376  34.565  1.00  0.00     0.034 A 
BRANCH  47  61
ATOM     61  C   UNL A   1      40.769  27.693  29.023  1.00  0.00     0.023 A 
ATOM     62  C   UNL A   1      41.716  27.859  27.997  1.00  0.00     0.031 A 
ATOM     63  C   UNL A   1      39.860  26.625  28.909  1.00  0.00     0.131 A 
ATOM     64  C   UNL A   1      41.684  27.026  26.869  1.00  0.00     0.055 A 
ATOM     65  C   UNL A   1      39.887  25.747  27.823  1.00  0.00     0.041 A 
ATOM     66  F   UNL A   1      38.918  26.426  29.845  1.00  0.00    -0.206 F 
ATOM     67  C   UNL A   1      40.792  25.954  26.787  1.00  0.00     0.022 A 
BRANCH  64  68
ATOM     68  S   UNL A   1      42.724  27.454  25.447  1.00  0.00     0.124 S 
ATOM     69  O   UNL A   1      42.673  26.221  24.663  1.00  0.00    -0.237 OA
ATOM     70  O   UNL A   1      42.026  28.601  24.878  1.00  0.00    -0.237 OA
ATOM     71  O   UNL A   1      44.023  27.748  26.048  1.00  0.00    -0.744 OA
ENDBRANCH  64  68
ENDBRANCH  47  61
BRANCH  48  72
ATOM     72  C   UNL A   1      39.653  33.900  36.831  1.00  0.00     0.023 A 
ATOM     73  C   UNL A   1      39.081  33.401  38.012  1.00  0.00     0.031 A 
ATOM     74  C   UNL A   1      40.004  35.261  36.794  1.00  0.00     0.131 A 
ATOM     75  C   UNL A   1      38.831  34.266  39.089  1.00  0.00     0.055 A 
ATOM     76  C   UNL A   1      39.804  36.106  37.887  1.00  0.00     0.041 A 
ATOM     77  F   UNL A   1      40.563  35.789  35.693  1.00  0.00    -0.206 F 
ATOM     78  C   UNL A   1      39.201  35.612  39.039  1.00  0.00     0.022 A 
BRANCH  75  79
ATOM     79  S   UNL A   1      37.935  33.623  40.528  1.00  0.00     0.124 S 
ATOM     80  O   UNL A   1      36.702  33.138  39.917  1.00  0.00    -0.237 OA
ATOM     81  O   UNL A   1      38.852  32.602  41.023  1.00  0.00    -0.237 OA
ATOM     82  O   UNL A   1      37.787  34.796  41.387  1.00  0.00    -0.744 OA
ENDBRANCH  75  79
ENDBRANCH  48  72
BRANCH  60  83
ATOM     83  C   UNL A   1      44.204  28.840  35.305  1.00  0.00     0.023 A 
ATOM     84  C   UNL A   1      44.075  27.895  36.338  1.00  0.00     0.031 A 
ATOM     85  C   UNL A   1      45.495  29.295  34.981  1.00  0.00     0.131 A 
ATOM     86  C   UNL A   1      45.211  27.477  37.049  1.00  0.00     0.055 A 
ATOM     87  C   UNL A   1      46.628  28.828  35.649  1.00  0.00     0.041 A 
ATOM     88  F   UNL A   1      45.675  30.199  34.005  1.00  0.00    -0.206 F 
ATOM     89  C   UNL A   1      46.487  27.925  36.699  1.00  0.00     0.022 A 
BRANCH  86  90
ATOM     90  S   UNL A   1      44.986  26.415  38.501  1.00  0.00     0.124 S 
ATOM     91  O   UNL A   1      45.786  27.105  39.508  1.00  0.00    -0.237 OA
ATOM     92  O   UNL A   1      43.541  26.456  38.697  1.00  0.00    -0.237 OA
ATOM     93  O   UNL A   1      45.516  25.124  38.067  1.00  0.00    -0.744 OA
ENDBRANCH  86  90
ENDBRANCH  60  83
ENDBRANCH  34  35
ENDBRANCH  26  29
ENDBRANCH  24  25
ENDBRANCH  23  24
ENDBRANCH   1  23
TORSDOF 18
ENDMDL
MODEL 2
REMARK VINA RESULT:     -11.4      5.943     11.920
REMARK SMILES CCC(CC)NC(=O)NC[C@H]1CC[C@H](C(=O)NCCCNC(=O)c2ccc(-c3c4nc(c(-c5cc(S(=O)(=O)[O-])ccc5F)c5ccc([nH]5)c(-c5cc(S(=O)(=O)[O-])ccc5F)c5nc(c(-c6cc(S(=O)(=O)[O-])ccc6F)c6ccc3[nH]6)C=C5)C=C4)cc2)O1
REMARK SMILES IDX 18 1 17 2 15 3 16 4 14 6 11 7 12 8 87 9 13 10 10 11 9 12
REMARK SMILES IDX 6 13 7 14 8 16 3 18 2 19 1 20 4 21 5 22 19 23 20 24 21 25
REMARK SMILES IDX 22 26 23 28 24 29 25 30 86 31 26 32 85 33 27 34 28 35 29 36
REMARK SMILES IDX 79 37 30 38 84 39 78 40 80 41 31 42 83 43 77 44 76 45 32 47
REMARK SMILES IDX 64 48 44 49 63 50 45 51 48 52 62 53 81 54 46 55 47 56 61 58
REMARK SMILES IDX 82 59 49 60 33 61 34 62 42 63 35 64 41 65 43 66 40 67 36 68
REMARK SMILES IDX 37 69 38 70 39 71 65 72 66 73 74 74 67 75 73 76 75 77 72 78
REMARK SMILES IDX 68 79 69 80 70 81 71 82 50 83 51 84 59 85 52 86 58 87 60 88
REMARK SMILES IDX 57 89 53 90 54 91 55 92 56 93
REMARK H PARENT 17 5 6 15 9 17 21 27 80 46 48 57
REMARK Flexibility Score: inf
ROOT
ATOM      1  C   UNL A   1      37.092  20.676  24.918  1.00  0.00     0.117 C 
ENDROOT
BRANCH   1   2
ATOM      2  N   UNL A   1      37.457  21.992  25.390  1.00  0.00    -0.354 N 
ATOM      3  C   UNL A   1      36.674  23.085  25.612  1.00  0.00     0.249 C 
ATOM      4  O   UNL A   1      37.230  24.096  26.054  1.00  0.00    -0.272 OA
ATOM      5  H   UNL A   1      38.415  22.119  25.577  1.00  0.00     0.163 HD
BRANCH   3   6
ATOM      6  C   UNL A   1      35.165  23.107  25.262  1.00  0.00     0.207 C 
ATOM      7  C   UNL A   1      33.860  24.608  24.003  1.00  0.00     0.138 C 
ATOM      8  C   UNL A   1      33.656  24.981  25.464  1.00  0.00     0.037 C 
ATOM      9  O   UNL A   1      34.785  23.512  23.953  1.00  0.00    -0.363 OA
ATOM     10  C   UNL A   1      34.342  23.898  26.262  1.00  0.00     0.045 C 
BRANCH   7  11
ATOM     11  C   UNL A   1      32.548  24.351  23.230  1.00  0.00     0.149 C 
BRANCH  11  12
ATOM     12  N   UNL A   1      32.655  24.502  21.791  1.00  0.00    -0.336 N 
ATOM     13  N   UNL A   1      32.548  26.829  21.382  1.00  0.00    -0.335 N 
ATOM     14  C   UNL A   1      32.720  25.562  20.978  1.00  0.00     0.315 C 
ATOM     15  H   UNL A   1      32.751  27.488  20.679  1.00  0.00     0.165 HD
ATOM     16  O   UNL A   1      32.970  25.367  19.786  1.00  0.00    -0.249 OA
ATOM     17  H   UNL A   1      32.684  23.643  21.312  1.00  0.00     0.165 HD
BRANCH  13  18
ATOM     18  C   UNL A   1      32.125  27.439  22.636  1.00  0.00     0.083 C 
BRANCH  18  19
ATOM     19  C   UNL A   1      33.005  28.660  22.946  1.00  0.00     0.021 C 
ATOM     20  C   UNL A   1      33.834  28.488  24.211  1.00  0.00     0.006 C 
ENDBRANCH  18  19
BRANCH  18  21
ATOM     21  C   UNL A   1      30.609  27.705  22.629  1.00  0.00     0.021 C 
ATOM     22  C   UNL A   1      29.774  26.810  23.527  1.00  0.00     0.006 C 
ENDBRANCH  18  21
ENDBRANCH  13  18
ENDBRANCH  11  12
ENDBRANCH   7  11
ENDBRANCH   3   6
ENDBRANCH   1   2
BRANCH   1  23
ATOM     23  C   UNL A   1      38.246  19.685  25.016  1.00  0.00     0.042 C 
BRANCH  23  24
ATOM     24  C   UNL A   1      39.362  20.156  25.940  1.00  0.00     0.118 C 
BRANCH  24  25
ATOM     25  N   UNL A   1      40.443  19.182  26.015  1.00  0.00    -0.352 N 
ATOM     26  C   UNL A   1      41.801  19.365  26.082  1.00  0.00     0.251 C 
ATOM     27  H   UNL A   1      40.152  18.241  26.020  1.00  0.00     0.163 HD
ATOM     28  O   UNL A   1      42.540  18.407  25.871  1.00  0.00    -0.269 OA
BRANCH  26  29
ATOM     29  C   UNL A   1      42.372  20.695  26.387  1.00  0.00     0.039 A 
ATOM     30  C   UNL A   1      42.764  21.520  25.328  1.00  0.00     0.014 A 
ATOM     31  C   UNL A   1      42.566  21.116  27.705  1.00  0.00     0.014 A 
ATOM     32  C   UNL A   1      43.295  22.784  25.591  1.00  0.00     0.010 A 
ATOM     33  C   UNL A   1      43.017  22.406  27.965  1.00  0.00     0.010 A 
ATOM     34  C   UNL A   1      43.393  23.252  26.911  1.00  0.00    -0.014 A 
BRANCH  34  35
ATOM     35  C   UNL A   1      43.896  24.618  27.212  1.00  0.00     0.031 A 
ATOM     36  C   UNL A   1      42.955  25.667  27.740  1.00  0.00     0.074 A 
ATOM     37  C   UNL A   1      45.180  24.925  26.944  1.00  0.00     0.049 A 
ATOM     38  N   UNL A   1      43.178  26.934  27.978  1.00  0.00    -0.248 NA
ATOM     39  C   UNL A   1      41.573  25.240  28.006  1.00  0.00     0.031 C 
ATOM     40  C   UNL A   1      46.172  23.999  26.393  1.00  0.00     0.029 A 
ATOM     41  N   UNL A   1      45.870  26.101  27.088  1.00  0.00    -0.354 N 
ATOM     42  C   UNL A   1      41.962  27.460  28.405  1.00  0.00     0.074 A 
ATOM     43  C   UNL A   1      40.995  26.386  28.334  1.00  0.00     0.031 C 
ATOM     44  C   UNL A   1      47.347  24.636  26.267  1.00  0.00     0.029 A 
ATOM     45  C   UNL A   1      47.182  26.026  26.679  1.00  0.00     0.049 A 
ATOM     46  H   UNL A   1      45.465  26.923  27.449  1.00  0.00     0.167 HD
ATOM     47  C   UNL A   1      41.686  28.716  28.836  1.00  0.00     0.034 A 
ATOM     48  C   UNL A   1      48.140  26.973  26.629  1.00  0.00     0.034 A 
ATOM     49  C   UNL A   1      42.670  29.768  28.913  1.00  0.00     0.049 A 
ATOM     50  C   UNL A   1      47.805  28.366  27.098  1.00  0.00     0.074 A 
ATOM     51  C   UNL A   1      42.518  31.059  29.386  1.00  0.00     0.029 A 
ATOM     52  N   UNL A   1      43.992  29.653  28.497  1.00  0.00    -0.354 N 
ATOM     53  N   UNL A   1      46.663  28.834  27.545  1.00  0.00    -0.248 NA
ATOM     54  C   UNL A   1      48.890  29.354  27.064  1.00  0.00     0.031 C 
ATOM     55  C   UNL A   1      43.723  31.744  29.194  1.00  0.00     0.029 A 
ATOM     56  C   UNL A   1      44.654  30.859  28.675  1.00  0.00     0.049 A 
ATOM     57  H   UNL A   1      44.399  28.835  28.130  1.00  0.00     0.167 HD
ATOM     58  C   UNL A   1      46.902  30.165  27.876  1.00  0.00     0.074 A 
ATOM     59  C   UNL A   1      48.301  30.417  27.591  1.00  0.00     0.031 C 
ATOM     60  C   UNL A   1      46.047  31.095  28.373  1.00  0.00     0.034 A 
BRANCH  47  61
ATOM     61  C   UNL A   1      40.260  29.019  29.231  1.00  0.00     0.023 A 
ATOM     62  C   UNL A   1      39.854  29.048  30.578  1.00  0.00     0.031 A 
ATOM     63  C   UNL A   1      39.283  29.261  28.248  1.00  0.00     0.131 A 
ATOM     64  C   UNL A   1      38.501  29.232  30.901  1.00  0.00     0.055 A 
ATOM     65  C   UNL A   1      37.952  29.527  28.580  1.00  0.00     0.041 A 
ATOM     66  F   UNL A   1      39.602  29.227  26.945  1.00  0.00    -0.206 F 
ATOM     67  C   UNL A   1      37.552  29.498  29.912  1.00  0.00     0.022 A 
BRANCH  64  68
ATOM     68  S   UNL A   1      37.978  28.972  32.617  1.00  0.00     0.124 S 
ATOM     69  O   UNL A   1      36.719  29.714  32.656  1.00  0.00    -0.237 OA
ATOM     70  O   UNL A   1      37.866  27.520  32.697  1.00  0.00    -0.237 OA
ATOM     71  O   UNL A   1      39.063  29.559  33.400  1.00  0.00    -0.744 OA
ENDBRANCH  64  68
ENDBRANCH  47  61
BRANCH  48  72
ATOM     72  C   UNL A   1      49.499  26.647  26.111  1.00  0.00     0.023 A 
ATOM     73  C   UNL A   1      49.911  27.074  24.839  1.00  0.00     0.031 A 
ATOM     74  C   UNL A   1      50.396  25.871  26.867  1.00  0.00     0.131 A 
ATOM     75  C   UNL A   1      51.163  26.683  24.340  1.00  0.00     0.055 A 
ATOM     76  C   UNL A   1      51.663  25.530  26.389  1.00  0.00     0.041 A 
ATOM     77  F   UNL A   1      50.057  25.442  28.094  1.00  0.00    -0.206 F 
ATOM     78  C   UNL A   1      52.047  25.925  25.112  1.00  0.00     0.022 A 
BRANCH  75  79
ATOM     79  S   UNL A   1      51.588  27.109  22.629  1.00  0.00     0.124 S 
ATOM     80  O   UNL A   1      52.690  26.193  22.360  1.00  0.00    -0.237 OA
ATOM     81  O   UNL A   1      50.337  26.832  21.931  1.00  0.00    -0.237 OA
ATOM     82  O   UNL A   1      51.954  28.521  22.712  1.00  0.00    -0.744 OA
ENDBRANCH  75  79
ENDBRANCH  48  72
BRANCH  60  83
ATOM     83  C   UNL A   1      46.621  32.456  28.680  1.00  0.00     0.023 A 
ATOM     84  C   UNL A   1      46.599  33.499  27.736  1.00  0.00     0.031 A 
ATOM     85  C   UNL A   1      47.212  32.709  29.931  1.00  0.00     0.131 A 
ATOM     86  C   UNL A   1      47.208  34.726  28.037  1.00  0.00     0.055 A 
ATOM     87  C   UNL A   1      47.759  33.952  30.248  1.00  0.00     0.041 A 
ATOM     88  F   UNL A   1      47.263  31.748  30.868  1.00  0.00    -0.206 F 
ATOM     89  C   UNL A   1      47.772  34.965  29.293  1.00  0.00     0.022 A 
BRANCH  86  90
ATOM     90  S   UNL A   1      47.338  35.976  26.730  1.00  0.00     0.124 S 
ATOM     91  O   UNL A   1      48.679  36.509  26.952  1.00  0.00    -0.237 OA
ATOM     92  O   UNL A   1      47.162  35.181  25.519  1.00  0.00    -0.237 OA
ATOM     93  O   UNL A   1      46.246  36.901  27.028  1.00  0.00    -0.744 OA
ENDBRANCH  86  90
ENDBRANCH  60  83
ENDBRANCH  34  35
ENDBRANCH  26  29
ENDBRANCH  24  25
ENDBRANCH  23  24
ENDBRANCH   1  23
TORSDOF 18
ENDMDL
MODEL 3
REMARK VINA RESULT:     -11.2      3.852      8.614
REMARK SMILES CCC(CC)NC(=O)NC[C@H]1CC[C@H](C(=O)NCCCNC(=O)c2ccc(-c3c4nc(c(-c5cc(S(=O)(=O)[O-])ccc5F)c5ccc([nH]5)c(-c5cc(S(=O)(=O)[O-])ccc5F)c5nc(c(-c6cc(S(=O)(=O)[O-])ccc6F)c6ccc3[nH]6)C=C5)C=C4)cc2)O1
REMARK SMILES IDX 18 1 17 2 15 3 16 4 14 6 11 7 12 8 87 9 13 10 10 11 9 12
REMARK SMILES IDX 6 13 7 14 8 16 3 18 2 19 1 20 4 21 5 22 19 23 20 24 21 25
REMARK SMILES IDX 22 26 23 28 24 29 25 30 86 31 26 32 85 33 27 34 28 35 29 36
REMARK SMILES IDX 79 37 30 38 84 39 78 40 80 41 31 42 83 43 77 44 76 45 32 47
REMARK SMILES IDX 64 48 44 49 63 50 45 51 48 52 62 53 81 54 46 55 47 56 61 58
REMARK SMILES IDX 82 59 49 60 33 61 34 62 42 63 35 64 41 65 43 66 40 67 36 68
REMARK SMILES IDX 37 69 38 70 39 71 65 72 66 73 74 74 67 75 73 76 75 77 72 78
REMARK SMILES IDX 68 79 69 80 70 81 71 82 50 83 51 84 59 85 52 86 58 87 60 88
REMARK SMILES IDX 57 89 53 90 54 91 55 92 56 93
REMARK H PARENT 17 5 6 15 9 17 21 27 80 46 48 57
REMARK Flexibility Score: inf
ROOT
ATOM      1  C   UNL A   1      31.623  29.185  24.906  1.00  0.00     0.117 C 
ENDROOT
BRANCH   1   2
ATOM      2  N   UNL A   1      31.056  29.647  23.660  1.00  0.00    -0.354 N 
ATOM      3  C   UNL A   1      30.565  28.932  22.609  1.00  0.00     0.249 C 
ATOM      4  O   UNL A   1      30.099  29.572  21.661  1.00  0.00    -0.272 OA
ATOM      5  H   UNL A   1      31.021  30.625  23.553  1.00  0.00     0.163 HD
BRANCH   3   6
ATOM      6  C   UNL A   1      30.646  27.386  22.550  1.00  0.00     0.207 C 
ATOM      7  C   UNL A   1      31.217  25.772  24.166  1.00  0.00     0.138 C 
ATOM      8  C   UNL A   1      32.463  25.997  23.323  1.00  0.00     0.037 C 
ATOM      9  O   UNL A   1      30.190  26.645  23.674  1.00  0.00    -0.363 OA
ATOM     10  C   UNL A   1      32.030  26.885  22.180  1.00  0.00     0.045 C 
BRANCH   7  11
ATOM     11  C   UNL A   1      30.783  24.294  24.265  1.00  0.00     0.149 C 
BRANCH  11  12
ATOM     12  N   UNL A   1      30.254  23.905  25.559  1.00  0.00    -0.336 N 
ATOM     13  N   UNL A   1      31.596  22.096  26.282  1.00  0.00    -0.335 N 
ATOM     14  C   UNL A   1      30.627  23.003  26.474  1.00  0.00     0.315 C 
ATOM     15  H   UNL A   1      31.821  21.595  27.099  1.00  0.00     0.165 HD
ATOM     16  O   UNL A   1      30.057  23.014  27.568  1.00  0.00    -0.249 OA
ATOM     17  H   UNL A   1      29.451  24.411  25.818  1.00  0.00     0.165 HD
BRANCH  13  18
ATOM     18  C   UNL A   1      32.384  21.693  25.126  1.00  0.00     0.083 C 
BRANCH  18  19
ATOM     19  C   UNL A   1      33.789  22.310  25.210  1.00  0.00     0.021 C 
ATOM     20  C   UNL A   1      34.277  22.860  23.878  1.00  0.00     0.006 C 
ENDBRANCH  18  19
BRANCH  18  21
ATOM     21  C   UNL A   1      32.347  20.165  24.945  1.00  0.00     0.021 C 
ATOM     22  C   UNL A   1      33.679  19.499  24.645  1.00  0.00     0.006 C 
ENDBRANCH  18  21
ENDBRANCH  13  18
ENDBRANCH  11  12
ENDBRANCH   7  11
ENDBRANCH   3   6
ENDBRANCH   1   2
BRANCH   1  23
ATOM     23  C   UNL A   1      33.147  29.227  24.900  1.00  0.00     0.042 C 
BRANCH  23  24
ATOM     24  C   UNL A   1      33.748  29.302  26.298  1.00  0.00     0.118 C 
BRANCH  24  25
ATOM     25  N   UNL A   1      33.725  30.662  26.819  1.00  0.00    -0.352 N 
ATOM     26  C   UNL A   1      34.483  31.252  27.799  1.00  0.00     0.251 C 
ATOM     27  H   UNL A   1      33.059  31.255  26.399  1.00  0.00     0.163 HD
ATOM     28  O   UNL A   1      34.120  32.329  28.263  1.00  0.00    -0.269 OA
BRANCH  26  29
ATOM     29  C   UNL A   1      35.709  30.597  28.305  1.00  0.00     0.039 A 
ATOM     30  C   UNL A   1      36.911  30.795  27.618  1.00  0.00     0.014 A 
ATOM     31  C   UNL A   1      35.676  29.756  29.420  1.00  0.00     0.014 A 
ATOM     32  C   UNL A   1      38.084  30.196  28.082  1.00  0.00     0.010 A 
ATOM     33  C   UNL A   1      36.858  29.229  29.930  1.00  0.00     0.010 A 
ATOM     34  C   UNL A   1      38.074  29.437  29.263  1.00  0.00    -0.014 A 
BRANCH  34  35
ATOM     35  C   UNL A   1      39.322  28.844  29.811  1.00  0.00     0.031 A 
ATOM     36  C   UNL A   1      39.981  29.458  31.016  1.00  0.00     0.074 A 
ATOM     37  C   UNL A   1      39.890  27.797  29.181  1.00  0.00     0.049 A 
ATOM     38  N   UNL A   1      41.116  29.146  31.588  1.00  0.00    -0.248 NA
ATOM     39  C   UNL A   1      39.287  30.594  31.641  1.00  0.00     0.031 C 
ATOM     40  C   UNL A   1      39.360  27.146  27.980  1.00  0.00     0.029 A 
ATOM     41  N   UNL A   1      41.042  27.104  29.452  1.00  0.00    -0.354 N 
ATOM     42  C   UNL A   1      41.280  30.056  32.628  1.00  0.00     0.074 A 
ATOM     43  C   UNL A   1      40.158  30.967  32.567  1.00  0.00     0.031 C 
ATOM     44  C   UNL A   1      40.172  26.135  27.633  1.00  0.00     0.029 A 
ATOM     45  C   UNL A   1      41.305  26.096  28.553  1.00  0.00     0.049 A 
ATOM     46  H   UNL A   1      41.626  27.309  30.218  1.00  0.00     0.167 HD
ATOM     47  C   UNL A   1      42.265  30.110  33.559  1.00  0.00     0.034 A 
ATOM     48  C   UNL A   1      42.348  25.246  28.470  1.00  0.00     0.034 A 
ATOM     49  C   UNL A   1      43.367  29.181  33.611  1.00  0.00     0.049 A 
ATOM     50  C   UNL A   1      43.439  25.336  29.506  1.00  0.00     0.074 A 
ATOM     51  C   UNL A   1      44.389  29.105  34.541  1.00  0.00     0.029 A 
ATOM     52  N   UNL A   1      43.597  28.167  32.687  1.00  0.00    -0.354 N 
ATOM     53  N   UNL A   1      43.553  26.172  30.513  1.00  0.00    -0.248 NA
ATOM     54  C   UNL A   1      44.533  24.364  29.402  1.00  0.00     0.031 C 
ATOM     55  C   UNL A   1      45.272  28.094  34.144  1.00  0.00     0.029 A 
ATOM     56  C   UNL A   1      44.761  27.484  33.009  1.00  0.00     0.049 A 
ATOM     57  H   UNL A   1      43.019  27.964  31.917  1.00  0.00     0.167 HD
ATOM     58  C   UNL A   1      44.719  25.803  31.180  1.00  0.00     0.074 A 
ATOM     59  C   UNL A   1      45.259  24.662  30.469  1.00  0.00     0.031 C 
ATOM     60  C   UNL A   1      45.291  26.354  32.281  1.00  0.00     0.034 A 
BRANCH  47  61
ATOM     61  C   UNL A   1      42.201  31.225  34.577  1.00  0.00     0.023 A 
ATOM     62  C   UNL A   1      42.693  32.512  34.297  1.00  0.00     0.031 A 
ATOM     63  C   UNL A   1      41.661  30.993  35.855  1.00  0.00     0.131 A 
ATOM     64  C   UNL A   1      42.708  33.492  35.301  1.00  0.00     0.055 A 
ATOM     65  C   UNL A   1      41.602  31.998  36.824  1.00  0.00     0.041 A 
ATOM     66  F   UNL A   1      41.194  29.780  36.190  1.00  0.00    -0.206 F 
ATOM     67  C   UNL A   1      42.141  33.252  36.555  1.00  0.00     0.022 A 
BRANCH  64  68
ATOM     68  S   UNL A   1      43.610  35.035  34.992  1.00  0.00     0.124 S 
ATOM     69  O   UNL A   1      43.022  35.471  33.727  1.00  0.00    -0.237 OA
ATOM     70  O   UNL A   1      43.275  35.837  36.163  1.00  0.00    -0.237 OA
ATOM     71  O   UNL A   1      45.005  34.606  34.907  1.00  0.00    -0.744 OA
ENDBRANCH  64  68
ENDBRANCH  47  61
BRANCH  48  72
ATOM     72  C   UNL A   1      42.421  24.245  27.368  1.00  0.00     0.023 A 
ATOM     73  C   UNL A   1      41.712  23.036  27.440  1.00  0.00     0.031 A 
ATOM     74  C   UNL A   1      43.232  24.466  26.241  1.00  0.00     0.131 A 
ATOM     75  C   UNL A   1      41.864  22.073  26.430  1.00  0.00     0.055 A 
ATOM     76  C   UNL A   1      43.338  23.529  25.211  1.00  0.00     0.041 A 
ATOM     77  F   UNL A   1      43.926  25.609  26.116  1.00  0.00    -0.206 F 
ATOM     78  C   UNL A   1      42.662  22.317  25.310  1.00  0.00     0.022 A 
BRANCH  75  79
ATOM     79  S   UNL A   1      41.068  20.457  26.644  1.00  0.00     0.124 S 
ATOM     80  O   UNL A   1      39.801  20.657  25.949  1.00  0.00    -0.237 OA
ATOM     81  O   UNL A   1      42.022  19.564  25.996  1.00  0.00    -0.237 OA
ATOM     82  O   UNL A   1      40.971  20.317  28.095  1.00  0.00    -0.744 OA
ENDBRANCH  75  79
ENDBRANCH  48  72
BRANCH  60  83
ATOM     83  C   UNL A   1      46.543  25.694  32.804  1.00  0.00     0.023 A 
ATOM     84  C   UNL A   1      47.809  25.973  32.260  1.00  0.00     0.031 A 
ATOM     85  C   UNL A   1      46.464  24.761  33.853  1.00  0.00     0.131 A 
ATOM     86  C   UNL A   1      48.938  25.283  32.727  1.00  0.00     0.055 A 
ATOM     87  C   UNL A   1      47.599  24.125  34.357  1.00  0.00     0.041 A 
ATOM     88  F   UNL A   1      45.280  24.455  34.408  1.00  0.00    -0.206 F 
ATOM     89  C   UNL A   1      48.842  24.374  33.784  1.00  0.00     0.022 A 
BRANCH  86  90
ATOM     90  S   UNL A   1      50.518  25.518  31.870  1.00  0.00     0.124 S 
ATOM     91  O   UNL A   1      51.475  25.437  32.970  1.00  0.00    -0.237 OA
ATOM     92  O   UNL A   1      50.532  24.402  30.930  1.00  0.00    -0.237 OA
ATOM     93  O   UNL A   1      50.385  26.840  31.260  1.00  0.00    -0.744 OA
ENDBRANCH  86  90
ENDBRANCH  60  83
ENDBRANCH  34  35
ENDBRANCH  26  29
ENDBRANCH  24  25
ENDBRANCH  23  24
ENDBRANCH   1  23
TORSDOF 18
ENDMDL
