MODEL 1
REMARK VINA RESULT:     -11.9      0.000      0.000
REMARK SMILES COc1ncccc1Cn1ccc(C(=O)NCCCNC(=O)c2ccc(-c3c4nc(c(-c5cc(S(=O)(=O)[O-])ccc5F)c5ccc([nH]5)c(-c5cc(S(=O)(=O)[O-])ccc5F)c5nc(c(-c6cc(S(=O)(=O)[O-])ccc6F)c6ccc3[nH]6)C=C5)C=C4)cc2)n1
REMARK SMILES IDX 18 1 17 2 16 3 14 4 15 5 13 7 10 8 11 9 86 10 12 11 9 12
REMARK SMILES IDX 8 13 3 14 4 15 5 16 7 17 6 18 2 19 1 20 19 21 20 22 21 23
REMARK SMILES IDX 22 25 23 26 24 27 85 28 25 29 84 30 26 31 27 32 28 33 78 34
REMARK SMILES IDX 29 35 83 36 77 37 79 38 30 39 82 40 76 41 75 42 31 44 63 45
REMARK SMILES IDX 43 46 62 47 44 48 47 49 61 50 80 51 45 52 46 53 60 55 81 56
REMARK SMILES IDX 48 57 32 58 33 59 41 60 34 61 40 62 42 63 39 64 35 65 36 66
REMARK SMILES IDX 37 67 38 68 64 69 65 70 73 71 66 72 72 73 74 74 71 75 67 76
REMARK SMILES IDX 68 77 69 78 70 79 49 80 50 81 58 82 51 83 57 84 59 85 56 86
REMARK SMILES IDX 52 87 53 88 54 89 55 90
REMARK H PARENT 16 6 20 24 79 43 47 54
REMARK Flexibility Score: inf
ROOT
ATOM      1  C   UNL A   1      37.418  30.140  32.081  1.00  0.00     0.042 C 
ENDROOT
BRANCH   1   2
ATOM      2  C   UNL A   1      38.632  30.702  32.822  1.00  0.00     0.118 C 
BRANCH   2   3
ATOM      3  N   UNL A   1      38.382  30.829  34.248  1.00  0.00    -0.351 N 
ATOM      4  C   UNL A   1      37.695  31.816  34.919  1.00  0.00     0.271 C 
ATOM      5  O   UNL A   1      37.540  31.703  36.133  1.00  0.00    -0.267 OA
ATOM      6  H   UNL A   1      38.754  30.113  34.811  1.00  0.00     0.163 HD
BRANCH   4   7
ATOM      7  C   UNL A   1      37.046  32.886  34.151  1.00  0.00     0.150 A 
ATOM      8  N   UNL A   1      35.593  34.301  33.488  1.00  0.00    -0.267 N 
ATOM      9  C   UNL A   1      36.804  34.861  33.198  1.00  0.00     0.110 A 
ATOM     10  N   UNL A   1      35.714  33.087  34.064  1.00  0.00    -0.167 NA
ATOM     11  C   UNL A   1      37.754  33.917  33.488  1.00  0.00     0.056 A 
BRANCH   8  12
ATOM     12  C   UNL A   1      34.285  34.955  33.452  1.00  0.00     0.185 C 
BRANCH  12  13
ATOM     13  C   UNL A   1      33.834  35.276  32.055  1.00  0.00     0.036 A 
ATOM     14  C   UNL A   1      32.931  36.299  31.771  1.00  0.00     0.218 A 
ATOM     15  N   UNL A   1      32.520  36.628  30.527  1.00  0.00    -0.222 NA
ATOM     16  C   UNL A   1      33.014  35.891  29.507  1.00  0.00     0.115 A 
ATOM     17  C   UNL A   1      34.296  34.519  30.968  1.00  0.00     0.013 A 
ATOM     18  C   UNL A   1      33.869  34.817  29.678  1.00  0.00     0.021 A 
BRANCH  14  19
ATOM     19  O   UNL A   1      32.179  36.848  32.779  1.00  0.00    -0.481 OA
ATOM     20  C   UNL A   1      30.964  36.145  32.995  1.00  0.00     0.280 C 
ENDBRANCH  14  19
ENDBRANCH  12  13
ENDBRANCH   8  12
ENDBRANCH   4   7
ENDBRANCH   2   3
ENDBRANCH   1   2
BRANCH   1  21
ATOM     21  C   UNL A   1      37.117  30.939  30.823  1.00  0.00     0.118 C 
BRANCH  21  22
ATOM     22  N   UNL A   1      36.114  30.280  29.979  1.00  0.00    -0.352 N 
ATOM     23  C   UNL A   1      36.300  29.573  28.804  1.00  0.00     0.251 C 
ATOM     24  H   UNL A   1      35.184  30.350  30.292  1.00  0.00     0.163 HD
ATOM     25  O   UNL A   1      35.372  29.397  28.037  1.00  0.00    -0.269 OA
BRANCH  23  26
ATOM     26  C   UNL A   1      37.644  29.039  28.515  1.00  0.00     0.039 A 
ATOM     27  C   UNL A   1      38.470  29.617  27.548  1.00  0.00     0.014 A 
ATOM     28  C   UNL A   1      38.082  27.960  29.275  1.00  0.00     0.014 A 
ATOM     29  C   UNL A   1      39.776  29.146  27.420  1.00  0.00     0.010 A 
ATOM     30  C   UNL A   1      39.408  27.623  29.273  1.00  0.00     0.010 A 
ATOM     31  C   UNL A   1      40.244  28.160  28.304  1.00  0.00    -0.014 A 
BRANCH  31  32
ATOM     32  C   UNL A   1      41.648  27.762  28.338  1.00  0.00     0.031 A 
ATOM     33  C   UNL A   1      41.933  26.511  27.585  1.00  0.00     0.074 A 
ATOM     34  C   UNL A   1      42.630  28.581  28.781  1.00  0.00     0.049 A 
ATOM     35  N   UNL A   1      42.242  25.355  28.068  1.00  0.00    -0.248 NA
ATOM     36  C   UNL A   1      41.657  26.489  26.138  1.00  0.00     0.031 C 
ATOM     37  C   UNL A   1      42.515  29.967  29.248  1.00  0.00     0.029 A 
ATOM     38  N   UNL A   1      43.975  28.381  28.802  1.00  0.00    -0.354 N 
ATOM     39  C   UNL A   1      42.468  24.532  26.968  1.00  0.00     0.074 A 
ATOM     40  C   UNL A   1      41.857  25.200  25.852  1.00  0.00     0.031 C 
ATOM     41  C   UNL A   1      43.737  30.547  29.269  1.00  0.00     0.029 A 
ATOM     42  C   UNL A   1      44.739  29.534  28.991  1.00  0.00     0.049 A 
ATOM     43  H   UNL A   1      44.380  27.491  28.690  1.00  0.00     0.167 HD
ATOM     44  C   UNL A   1      43.372  23.513  27.032  1.00  0.00     0.034 A 
ATOM     45  C   UNL A   1      46.094  29.651  28.906  1.00  0.00     0.034 A 
ATOM     46  C   UNL A   1      43.727  23.236  28.409  1.00  0.00     0.049 A 
ATOM     47  C   UNL A   1      46.640  28.282  29.087  1.00  0.00     0.074 A 
ATOM     48  C   UNL A   1      43.011  22.875  29.536  1.00  0.00     0.029 A 
ATOM     49  N   UNL A   1      44.923  23.736  28.879  1.00  0.00    -0.354 N 
ATOM     50  N   UNL A   1      46.511  27.604  30.197  1.00  0.00    -0.248 NA
ATOM     51  C   UNL A   1      46.855  27.477  27.894  1.00  0.00     0.031 C 
ATOM     52  C   UNL A   1      43.578  23.652  30.590  1.00  0.00     0.029 A 
ATOM     53  C   UNL A   1      44.673  24.354  30.081  1.00  0.00     0.049 A 
ATOM     54  H   UNL A   1      45.798  23.662  28.435  1.00  0.00     0.167 HD
ATOM     55  C   UNL A   1      46.181  26.318  29.795  1.00  0.00     0.074 A 
ATOM     56  C   UNL A   1      46.499  26.278  28.367  1.00  0.00     0.031 C 
ATOM     57  C   UNL A   1      45.411  25.505  30.578  1.00  0.00     0.034 A 
BRANCH  44  58
ATOM     58  C   UNL A   1      44.226  23.029  25.876  1.00  0.00     0.023 A 
ATOM     59  C   UNL A   1      44.232  21.642  25.625  1.00  0.00     0.031 A 
ATOM     60  C   UNL A   1      45.225  23.770  25.204  1.00  0.00     0.131 A 
ATOM     61  C   UNL A   1      45.246  21.045  24.855  1.00  0.00     0.055 A 
ATOM     62  C   UNL A   1      46.193  23.180  24.385  1.00  0.00     0.041 A 
ATOM     63  F   UNL A   1      45.384  25.088  25.359  1.00  0.00    -0.206 F 
ATOM     64  C   UNL A   1      46.231  21.807  24.235  1.00  0.00     0.022 A 
BRANCH  61  65
ATOM     65  S   UNL A   1      45.358  19.239  24.836  1.00  0.00     0.124 S 
ATOM     66  O   UNL A   1      45.181  18.951  23.417  1.00  0.00    -0.237 OA
ATOM     67  O   UNL A   1      46.695  19.016  25.377  1.00  0.00    -0.237 OA
ATOM     68  O   UNL A   1      44.258  18.822  25.701  1.00  0.00    -0.744 OA
ENDBRANCH  61  65
ENDBRANCH  44  58
BRANCH  45  69
ATOM     69  C   UNL A   1      46.885  30.786  28.340  1.00  0.00     0.023 A 
ATOM     70  C   UNL A   1      46.347  31.746  27.451  1.00  0.00     0.031 A 
ATOM     71  C   UNL A   1      48.154  31.082  28.888  1.00  0.00     0.131 A 
ATOM     72  C   UNL A   1      47.069  32.931  27.151  1.00  0.00     0.055 A 
ATOM     73  C   UNL A   1      48.858  32.253  28.592  1.00  0.00     0.041 A 
ATOM     74  F   UNL A   1      48.718  30.279  29.804  1.00  0.00    -0.206 F 
ATOM     75  C   UNL A   1      48.313  33.189  27.729  1.00  0.00     0.022 A 
BRANCH  72  76
ATOM     76  S   UNL A   1      46.361  34.212  26.057  1.00  0.00     0.124 S 
ATOM     77  O   UNL A   1      47.508  34.592  25.239  1.00  0.00    -0.237 OA
ATOM     78  O   UNL A   1      45.290  33.492  25.379  1.00  0.00    -0.237 OA
ATOM     79  O   UNL A   1      45.906  35.246  26.988  1.00  0.00    -0.744 OA
ENDBRANCH  72  76
ENDBRANCH  45  69
BRANCH  57  80
ATOM     80  C   UNL A   1      45.151  25.913  32.019  1.00  0.00     0.023 A 
ATOM     81  C   UNL A   1      43.984  26.556  32.496  1.00  0.00     0.031 A 
ATOM     82  C   UNL A   1      46.100  25.503  32.973  1.00  0.00     0.131 A 
ATOM     83  C   UNL A   1      43.810  26.769  33.881  1.00  0.00     0.055 A 
ATOM     84  C   UNL A   1      45.913  25.693  34.341  1.00  0.00     0.041 A 
ATOM     85  F   UNL A   1      47.220  24.869  32.588  1.00  0.00    -0.206 F 
ATOM     86  C   UNL A   1      44.769  26.332  34.800  1.00  0.00     0.022 A 
BRANCH  83  87
ATOM     87  S   UNL A   1      42.341  27.640  34.525  1.00  0.00     0.124 S 
ATOM     88  O   UNL A   1      41.544  26.575  35.120  1.00  0.00    -0.237 OA
ATOM     89  O   UNL A   1      42.925  28.601  35.458  1.00  0.00    -0.237 OA
ATOM     90  O   UNL A   1      41.751  28.244  33.327  1.00  0.00    -0.744 OA
ENDBRANCH  83  87
ENDBRANCH  57  80
ENDBRANCH  31  32
ENDBRANCH  23  26
ENDBRANCH  21  22
ENDBRANCH   1  21
TORSDOF 16
ENDMDL
MODEL 2
REMARK VINA RESULT:     -11.7      1.540      3.339
REMARK SMILES COc1ncccc1Cn1ccc(C(=O)NCCCNC(=O)c2ccc(-c3c4nc(c(-c5cc(S(=O)(=O)[O-])ccc5F)c5ccc([nH]5)c(-c5cc(S(=O)(=O)[O-])ccc5F)c5nc(c(-c6cc(S(=O)(=O)[O-])ccc6F)c6ccc3[nH]6)C=C5)C=C4)cc2)n1
REMARK SMILES IDX 18 1 17 2 16 3 14 4 15 5 13 7 10 8 11 9 86 10 12 11 9 12
REMARK SMILES IDX 8 13 3 14 4 15 5 16 7 17 6 18 2 19 1 20 19 21 20 22 21 23
REMARK SMILES IDX 22 25 23 26 24 27 85 28 25 29 84 30 26 31 27 32 28 33 78 34
REMARK SMILES IDX 29 35 83 36 77 37 79 38 30 39 82 40 76 41 75 42 31 44 63 45
REMARK SMILES IDX 43 46 62 47 44 48 47 49 61 50 80 51 45 52 46 53 60 55 81 56
REMARK SMILES IDX 48 57 32 58 33 59 41 60 34 61 40 62 42 63 39 64 35 65 36 66
REMARK SMILES IDX 37 67 38 68 64 69 65 70 73 71 66 72 72 73 74 74 71 75 67 76
REMARK SMILES IDX 68 77 69 78 70 79 49 80 50 81 58 82 51 83 57 84 59 85 56 86
REMARK SMILES IDX 52 87 53 88 54 89 55 90
REMARK H PARENT 16 6 20 24 79 43 47 54
REMARK Flexibility Score: inf
ROOT
ATOM      1  C   UNL A   1      35.040  31.092  27.399  1.00  0.00     0.042 C 
ENDROOT
BRANCH   1   2
ATOM      2  C   UNL A   1      33.881  31.799  28.103  1.00  0.00     0.118 C 
BRANCH   2   3
ATOM      3  N   UNL A   1      34.021  33.244  28.053  1.00  0.00    -0.351 N 
ATOM      4  C   UNL A   1      34.577  34.091  28.986  1.00  0.00     0.271 C 
ATOM      5  O   UNL A   1      34.656  35.289  28.721  1.00  0.00    -0.267 OA
ATOM      6  H   UNL A   1      33.671  33.678  27.242  1.00  0.00     0.163 HD
BRANCH   4   7
ATOM      7  C   UNL A   1      35.187  33.523  30.196  1.00  0.00     0.150 A 
ATOM      8  N   UNL A   1      36.550  33.182  31.800  1.00  0.00    -0.267 N 
ATOM      9  C   UNL A   1      35.323  32.835  32.287  1.00  0.00     0.110 A 
ATOM     10  N   UNL A   1      36.495  33.598  30.518  1.00  0.00    -0.167 NA
ATOM     11  C   UNL A   1      34.446  32.914  31.237  1.00  0.00     0.056 A 
BRANCH   8  12
ATOM     12  C   UNL A   1      37.787  33.357  32.563  1.00  0.00     0.185 C 
BRANCH  12  13
ATOM     13  C   UNL A   1      38.454  32.053  32.895  1.00  0.00     0.036 A 
ATOM     14  C   UNL A   1      38.099  31.284  34.003  1.00  0.00     0.218 A 
ATOM     15  N   UNL A   1      38.664  30.099  34.318  1.00  0.00    -0.222 NA
ATOM     16  C   UNL A   1      39.650  29.657  33.507  1.00  0.00     0.115 A 
ATOM     17  C   UNL A   1      39.503  31.569  32.099  1.00  0.00     0.013 A 
ATOM     18  C   UNL A   1      40.122  30.364  32.416  1.00  0.00     0.021 A 
BRANCH  14  19
ATOM     19  O   UNL A   1      37.344  31.837  35.005  1.00  0.00    -0.481 OA
ATOM     20  C   UNL A   1      38.126  32.580  35.928  1.00  0.00     0.280 C 
ENDBRANCH  14  19
ENDBRANCH  12  13
ENDBRANCH   8  12
ENDBRANCH   4   7
ENDBRANCH   2   3
ENDBRANCH   1   2
BRANCH   1  21
ATOM     21  C   UNL A   1      35.445  29.823  28.132  1.00  0.00     0.118 C 
BRANCH  21  22
ATOM     22  N   UNL A   1      35.606  30.046  29.572  1.00  0.00    -0.352 N 
ATOM     23  C   UNL A   1      36.571  29.538  30.426  1.00  0.00     0.251 C 
ATOM     24  H   UNL A   1      34.938  30.637  29.987  1.00  0.00     0.163 HD
ATOM     25  O   UNL A   1      36.379  29.511  31.627  1.00  0.00    -0.269 OA
BRANCH  23  26
ATOM     26  C   UNL A   1      37.830  29.040  29.839  1.00  0.00     0.039 A 
ATOM     27  C   UNL A   1      38.453  29.696  28.776  1.00  0.00     0.014 A 
ATOM     28  C   UNL A   1      38.402  27.911  30.416  1.00  0.00     0.014 A 
ATOM     29  C   UNL A   1      39.706  29.248  28.359  1.00  0.00     0.010 A 
ATOM     30  C   UNL A   1      39.699  27.587  30.128  1.00  0.00     0.010 A 
ATOM     31  C   UNL A   1      40.332  28.203  29.057  1.00  0.00    -0.014 A 
BRANCH  31  32
ATOM     32  C   UNL A   1      41.713  27.816  28.786  1.00  0.00     0.031 A 
ATOM     33  C   UNL A   1      41.839  26.553  28.011  1.00  0.00     0.074 A 
ATOM     34  C   UNL A   1      42.759  28.651  28.984  1.00  0.00     0.049 A 
ATOM     35  N   UNL A   1      42.261  25.409  28.433  1.00  0.00    -0.248 NA
ATOM     36  C   UNL A   1      41.248  26.499  26.662  1.00  0.00     0.031 C 
ATOM     37  C   UNL A   1      42.735  30.046  29.440  1.00  0.00     0.029 A 
ATOM     38  N   UNL A   1      44.077  28.463  28.708  1.00  0.00    -0.354 N 
ATOM     39  C   UNL A   1      42.247  24.566  27.325  1.00  0.00     0.074 A 
ATOM     40  C   UNL A   1      41.395  25.207  26.362  1.00  0.00     0.031 C 
ATOM     41  C   UNL A   1      43.924  30.636  29.178  1.00  0.00     0.029 A 
ATOM     42  C   UNL A   1      44.851  29.624  28.702  1.00  0.00     0.049 A 
ATOM     43  H   UNL A   1      44.458  27.573  28.526  1.00  0.00     0.167 HD
ATOM     44  C   UNL A   1      43.155  23.555  27.204  1.00  0.00     0.034 A 
ATOM     45  C   UNL A   1      46.152  29.750  28.316  1.00  0.00     0.034 A 
ATOM     46  C   UNL A   1      43.809  23.309  28.473  1.00  0.00     0.049 A 
ATOM     47  C   UNL A   1      46.740  28.390  28.395  1.00  0.00     0.074 A 
ATOM     48  C   UNL A   1      43.366  22.965  29.737  1.00  0.00     0.029 A 
ATOM     49  N   UNL A   1      45.074  23.827  28.656  1.00  0.00    -0.354 N 
ATOM     50  N   UNL A   1      46.870  27.733  29.518  1.00  0.00    -0.248 NA
ATOM     51  C   UNL A   1      46.694  27.562  27.199  1.00  0.00     0.031 C 
ATOM     52  C   UNL A   1      44.144  23.767  30.625  1.00  0.00     0.029 A 
ATOM     53  C   UNL A   1      45.090  24.468  29.872  1.00  0.00     0.049 A 
ATOM     54  H   UNL A   1      45.829  23.751  28.030  1.00  0.00     0.167 HD
ATOM     55  C   UNL A   1      46.474  26.437  29.223  1.00  0.00     0.074 A 
ATOM     56  C   UNL A   1      46.467  26.370  27.761  1.00  0.00     0.031 C 
ATOM     57  C   UNL A   1      45.907  25.633  30.172  1.00  0.00     0.034 A 
BRANCH  44  58
ATOM     58  C   UNL A   1      43.736  23.054  25.897  1.00  0.00     0.023 A 
ATOM     59  C   UNL A   1      43.605  21.677  25.627  1.00  0.00     0.031 A 
ATOM     60  C   UNL A   1      44.630  23.754  25.055  1.00  0.00     0.131 A 
ATOM     61  C   UNL A   1      44.410  21.044  24.664  1.00  0.00     0.055 A 
ATOM     62  C   UNL A   1      45.382  23.131  24.054  1.00  0.00     0.041 A 
ATOM     63  F   UNL A   1      44.901  25.055  25.198  1.00  0.00    -0.206 F 
ATOM     64  C   UNL A   1      45.302  21.762  23.877  1.00  0.00     0.022 A 
BRANCH  61  65
ATOM     65  S   UNL A   1      44.401  19.235  24.594  1.00  0.00     0.124 S 
ATOM     66  O   UNL A   1      44.684  18.996  23.182  1.00  0.00    -0.237 OA
ATOM     67  O   UNL A   1      45.465  18.893  25.531  1.00  0.00    -0.237 OA
ATOM     68  O   UNL A   1      43.051  18.886  25.029  1.00  0.00    -0.744 OA
ENDBRANCH  61  65
ENDBRANCH  44  58
BRANCH  45  69
ATOM     69  C   UNL A   1      46.783  30.880  27.568  1.00  0.00     0.023 A 
ATOM     70  C   UNL A   1      46.048  31.938  26.984  1.00  0.00     0.031 A 
ATOM     71  C   UNL A   1      48.184  31.056  27.640  1.00  0.00     0.131 A 
ATOM     72  C   UNL A   1      46.713  33.099  26.512  1.00  0.00     0.055 A 
ATOM     73  C   UNL A   1      48.833  32.204  27.177  1.00  0.00     0.041 A 
ATOM     74  F   UNL A   1      48.966  30.150  28.248  1.00  0.00    -0.206 F 
ATOM     75  C   UNL A   1      48.098  33.237  26.620  1.00  0.00     0.022 A 
BRANCH  72  76
ATOM     76  S   UNL A   1      45.774  34.504  25.816  1.00  0.00     0.124 S 
ATOM     77  O   UNL A   1      45.034  33.876  24.727  1.00  0.00    -0.237 OA
ATOM     78  O   UNL A   1      44.989  34.956  26.959  1.00  0.00    -0.237 OA
ATOM     79  O   UNL A   1      46.818  35.436  25.386  1.00  0.00    -0.744 OA
ENDBRANCH  72  76
ENDBRANCH  45  69
BRANCH  57  80
ATOM     80  C   UNL A   1      45.969  26.068  31.627  1.00  0.00     0.023 A 
ATOM     81  C   UNL A   1      44.894  26.611  32.372  1.00  0.00     0.031 A 
ATOM     82  C   UNL A   1      47.161  25.791  32.319  1.00  0.00     0.131 A 
ATOM     83  C   UNL A   1      45.046  26.859  33.754  1.00  0.00     0.055 A 
ATOM     84  C   UNL A   1      47.299  26.013  33.688  1.00  0.00     0.041 A 
ATOM     85  F   UNL A   1      48.212  25.256  31.676  1.00  0.00    -0.206 F 
ATOM     86  C   UNL A   1      46.243  26.553  34.410  1.00  0.00     0.022 A 
BRANCH  83  87
ATOM     87  S   UNL A   1      43.698  27.605  34.732  1.00  0.00     0.124 S 
ATOM     88  O   UNL A   1      42.491  27.150  34.055  1.00  0.00    -0.237 OA
ATOM     89  O   UNL A   1      43.931  27.054  36.065  1.00  0.00    -0.237 OA
ATOM     90  O   UNL A   1      43.952  29.043  34.621  1.00  0.00    -0.744 OA
ENDBRANCH  83  87
ENDBRANCH  57  80
ENDBRANCH  31  32
ENDBRANCH  23  26
ENDBRANCH  21  22
ENDBRANCH   1  21
TORSDOF 16
ENDMDL
MODEL 3
REMARK VINA RESULT:     -11.7      4.270      9.898
REMARK SMILES COc1ncccc1Cn1ccc(C(=O)NCCCNC(=O)c2ccc(-c3c4nc(c(-c5cc(S(=O)(=O)[O-])ccc5F)c5ccc([nH]5)c(-c5cc(S(=O)(=O)[O-])ccc5F)c5nc(c(-c6cc(S(=O)(=O)[O-])ccc6F)c6ccc3[nH]6)C=C5)C=C4)cc2)n1
REMARK SMILES IDX 18 1 17 2 16 3 14 4 15 5 13 7 10 8 11 9 86 10 12 11 9 12
REMARK SMILES IDX 8 13 3 14 4 15 5 16 7 17 6 18 2 19 1 20 19 21 20 22 21 23
REMARK SMILES IDX 22 25 23 26 24 27 85 28 25 29 84 30 26 31 27 32 28 33 78 34
REMARK SMILES IDX 29 35 83 36 77 37 79 38 30 39 82 40 76 41 75 42 31 44 63 45
REMARK SMILES IDX 43 46 62 47 44 48 47 49 61 50 80 51 45 52 46 53 60 55 81 56
REMARK SMILES IDX 48 57 32 58 33 59 41 60 34 61 40 62 42 63 39 64 35 65 36 66
REMARK SMILES IDX 37 67 38 68 64 69 65 70 73 71 66 72 72 73 74 74 71 75 67 76
REMARK SMILES IDX 68 77 69 78 70 79 49 80 50 81 58 82 51 83 57 84 59 85 56 86
REMARK SMILES IDX 52 87 53 88 54 89 55 90
REMARK H PARENT 16 6 20 24 79 43 47 54
REMARK Flexibility Score: inf
ROOT
ATOM      1  C   UNL A   1      37.535  20.125  24.866  1.00  0.00     0.042 C 
ENDROOT
BRANCH   1   2
ATOM      2  C   UNL A   1      36.423  21.174  24.922  1.00  0.00     0.118 C 
BRANCH   2   3
ATOM      3  N   UNL A   1      35.701  21.126  26.182  1.00  0.00    -0.351 N 
ATOM      4  C   UNL A   1      34.610  21.865  26.581  1.00  0.00     0.271 C 
ATOM      5  O   UNL A   1      34.104  21.623  27.675  1.00  0.00    -0.267 OA
ATOM      6  H   UNL A   1      36.038  20.476  26.841  1.00  0.00     0.163 HD
BRANCH   4   7
ATOM      7  C   UNL A   1      33.999  22.807  25.635  1.00  0.00     0.150 A 
ATOM      8  N   UNL A   1      33.533  24.614  24.601  1.00  0.00    -0.267 N 
ATOM      9  C   UNL A   1      33.340  23.615  23.691  1.00  0.00     0.110 A 
ATOM     10  N   UNL A   1      33.928  24.145  25.802  1.00  0.00    -0.167 NA
ATOM     11  C   UNL A   1      33.500  22.433  24.364  1.00  0.00     0.056 A 
BRANCH   8  12
ATOM     12  C   UNL A   1      33.578  26.053  24.338  1.00  0.00     0.185 C 
BRANCH  12  13
ATOM     13  C   UNL A   1      33.067  26.871  25.490  1.00  0.00     0.036 A 
ATOM     14  C   UNL A   1      31.761  26.768  25.967  1.00  0.00     0.218 A 
ATOM     15  N   UNL A   1      31.276  27.473  27.011  1.00  0.00    -0.222 NA
ATOM     16  C   UNL A   1      32.121  28.344  27.607  1.00  0.00     0.115 A 
ATOM     17  C   UNL A   1      33.899  27.809  26.119  1.00  0.00     0.013 A 
ATOM     18  C   UNL A   1      33.417  28.569  27.180  1.00  0.00     0.021 A 
BRANCH  14  19
ATOM     19  O   UNL A   1      30.802  26.147  25.208  1.00  0.00    -0.481 OA
ATOM     20  C   UNL A   1      29.838  25.469  26.000  1.00  0.00     0.280 C 
ENDBRANCH  14  19
ENDBRANCH  12  13
ENDBRANCH   8  12
ENDBRANCH   4   7
ENDBRANCH   2   3
ENDBRANCH   1   2
BRANCH   1  21
ATOM     21  C   UNL A   1      38.770  20.583  25.626  1.00  0.00     0.118 C 
BRANCH  21  22
ATOM     22  N   UNL A   1      39.787  19.530  25.709  1.00  0.00    -0.352 N 
ATOM     23  C   UNL A   1      41.149  19.655  25.928  1.00  0.00     0.251 C 
ATOM     24  H   UNL A   1      39.457  18.610  25.594  1.00  0.00     0.163 HD
ATOM     25  O   UNL A   1      41.908  18.756  25.618  1.00  0.00    -0.269 OA
BRANCH  23  26
ATOM     26  C   UNL A   1      41.645  20.898  26.548  1.00  0.00     0.039 A 
ATOM     27  C   UNL A   1      42.193  21.931  25.784  1.00  0.00     0.014 A 
ATOM     28  C   UNL A   1      41.506  21.025  27.927  1.00  0.00     0.014 A 
ATOM     29  C   UNL A   1      42.519  23.128  26.419  1.00  0.00     0.010 A 
ATOM     30  C   UNL A   1      41.656  22.252  28.512  1.00  0.00     0.010 A 
ATOM     31  C   UNL A   1      42.226  23.288  27.784  1.00  0.00    -0.014 A 
BRANCH  31  32
ATOM     32  C   UNL A   1      42.373  24.575  28.456  1.00  0.00     0.031 A 
ATOM     33  C   UNL A   1      41.231  25.500  28.230  1.00  0.00     0.074 A 
ATOM     34  C   UNL A   1      43.317  24.805  29.398  1.00  0.00     0.049 A 
ATOM     35  N   UNL A   1      41.219  26.579  27.522  1.00  0.00    -0.248 NA
ATOM     36  C   UNL A   1      39.893  25.082  28.685  1.00  0.00     0.031 C 
ATOM     37  C   UNL A   1      44.301  23.866  29.946  1.00  0.00     0.029 A 
ATOM     38  N   UNL A   1      43.524  25.914  30.157  1.00  0.00    -0.354 N 
ATOM     39  C   UNL A   1      39.945  27.119  27.671  1.00  0.00     0.074 A 
ATOM     40  C   UNL A   1      39.127  26.047  28.170  1.00  0.00     0.031 C 
ATOM     41  C   UNL A   1      44.820  24.361  31.093  1.00  0.00     0.029 A 
ATOM     42  C   UNL A   1      44.344  25.722  31.270  1.00  0.00     0.049 A 
ATOM     43  H   UNL A   1      43.126  26.787  29.939  1.00  0.00     0.167 HD
ATOM     44  C   UNL A   1      39.746  28.467  27.626  1.00  0.00     0.034 A 
ATOM     45  C   UNL A   1      44.599  26.608  32.273  1.00  0.00     0.034 A 
ATOM     46  C   UNL A   1      40.910  29.131  27.074  1.00  0.00     0.049 A 
ATOM     47  C   UNL A   1      44.279  27.952  31.729  1.00  0.00     0.074 A 
ATOM     48  C   UNL A   1      41.597  29.039  25.878  1.00  0.00     0.029 A 
ATOM     49  N   UNL A   1      41.784  29.735  27.954  1.00  0.00    -0.354 N 
ATOM     50  N   UNL A   1      44.935  28.494  30.738  1.00  0.00    -0.248 NA
ATOM     51  C   UNL A   1      42.928  28.456  31.923  1.00  0.00     0.031 C 
ATOM     52  C   UNL A   1      42.975  29.096  26.246  1.00  0.00     0.029 A 
ATOM     53  C   UNL A   1      43.055  29.333  27.621  1.00  0.00     0.049 A 
ATOM     54  H   UNL A   1      41.541  30.345  28.687  1.00  0.00     0.167 HD
ATOM     55  C   UNL A   1      43.961  29.055  29.926  1.00  0.00     0.074 A 
ATOM     56  C   UNL A   1      42.753  29.082  30.754  1.00  0.00     0.031 C 
ATOM     57  C   UNL A   1      44.139  29.173  28.577  1.00  0.00     0.034 A 
BRANCH  44  58
ATOM     58  C   UNL A   1      38.697  29.223  28.418  1.00  0.00     0.023 A 
ATOM     59  C   UNL A   1      38.832  29.220  29.820  1.00  0.00     0.031 A 
ATOM     60  C   UNL A   1      37.456  29.691  27.929  1.00  0.00     0.131 A 
ATOM     61  C   UNL A   1      37.750  29.547  30.657  1.00  0.00     0.055 A 
ATOM     62  C   UNL A   1      36.404  30.078  28.765  1.00  0.00     0.041 A 
ATOM     63  F   UNL A   1      37.148  29.724  26.629  1.00  0.00    -0.206 F 
ATOM     64  C   UNL A   1      36.533  29.974  30.137  1.00  0.00     0.022 A 
BRANCH  61  65
ATOM     65  S   UNL A   1      37.909  29.225  32.430  1.00  0.00     0.124 S 
ATOM     66  O   UNL A   1      39.226  29.786  32.713  1.00  0.00    -0.237 OA
ATOM     67  O   UNL A   1      36.768  29.955  32.971  1.00  0.00    -0.237 OA
ATOM     68  O   UNL A   1      37.818  27.770  32.519  1.00  0.00    -0.744 OA
ENDBRANCH  61  65
ENDBRANCH  44  58
BRANCH  45  69
ATOM     69  C   UNL A   1      44.753  26.325  33.733  1.00  0.00     0.023 A 
ATOM     70  C   UNL A   1      43.723  26.528  34.681  1.00  0.00     0.031 A 
ATOM     71  C   UNL A   1      45.878  25.592  34.177  1.00  0.00     0.131 A 
ATOM     72  C   UNL A   1      43.845  26.008  35.996  1.00  0.00     0.055 A 
ATOM     73  C   UNL A   1      45.989  25.078  35.472  1.00  0.00     0.041 A 
ATOM     74  F   UNL A   1      46.874  25.273  33.336  1.00  0.00    -0.206 F 
ATOM     75  C   UNL A   1      44.968  25.275  36.385  1.00  0.00     0.022 A 
BRANCH  72  76
ATOM     76  S   UNL A   1      42.497  26.203  37.214  1.00  0.00     0.124 S 
ATOM     77  O   UNL A   1      41.790  27.377  36.713  1.00  0.00    -0.237 OA
ATOM     78  O   UNL A   1      41.793  24.929  37.113  1.00  0.00    -0.237 OA
ATOM     79  O   UNL A   1      43.204  26.411  38.479  1.00  0.00    -0.744 OA
ENDBRANCH  72  76
ENDBRANCH  45  69
BRANCH  57  80
ATOM     80  C   UNL A   1      45.528  28.943  28.003  1.00  0.00     0.023 A 
ATOM     81  C   UNL A   1      46.054  27.695  27.591  1.00  0.00     0.031 A 
ATOM     82  C   UNL A   1      46.304  30.088  27.748  1.00  0.00     0.131 A 
ATOM     83  C   UNL A   1      47.314  27.634  26.956  1.00  0.00     0.055 A 
ATOM     84  C   UNL A   1      47.536  30.026  27.099  1.00  0.00     0.041 A 
ATOM     85  F   UNL A   1      45.854  31.305  28.095  1.00  0.00    -0.206 F 
ATOM     86  C   UNL A   1      48.048  28.797  26.705  1.00  0.00     0.022 A 
BRANCH  83  87
ATOM     87  S   UNL A   1      48.043  26.036  26.459  1.00  0.00     0.124 S 
ATOM     88  O   UNL A   1      48.573  25.498  27.705  1.00  0.00    -0.237 OA
ATOM     89  O   UNL A   1      46.898  25.328  25.891  1.00  0.00    -0.237 OA
ATOM     90  O   UNL A   1      49.063  26.418  25.479  1.00  0.00    -0.744 OA
ENDBRANCH  83  87
ENDBRANCH  57  80
ENDBRANCH  31  32
ENDBRANCH  23  26
ENDBRANCH  21  22
ENDBRANCH   1  21
TORSDOF 16
ENDMDL
