MODEL 1
REMARK VINA RESULT:     -12.9      0.000      0.000
REMARK SMILES O=C(Cc1cccn1-c1ccccc1F)NCCCNC(=O)c1ccc(-c2c3nc(c(-c4cc(S(=O)(=O)[O-])ccc4F)c4ccc([nH]4)c(-c4cc(S(=O)(=O)[O-])ccc4F)c4nc(c(-c5cc(S(=O)(=O)[O-])ccc5F)c5ccc2[nH]5)C=C4)C=C3)cc1
REMARK SMILES IDX 18 1 17 2 16 3 1 4 2 5 3 7 4 8 5 9 8 10 6 11 7 12 9 13 10 14
REMARK SMILES IDX 14 15 11 16 13 17 15 18 12 19 19 20 20 21 21 22 22 24 23 25
REMARK SMILES IDX 24 26 85 27 25 28 84 29 26 30 27 31 28 32 78 33 29 34 83 35
REMARK SMILES IDX 77 36 79 37 30 38 82 39 76 40 75 41 31 43 63 44 43 45 62 46
REMARK SMILES IDX 44 47 47 48 61 49 80 50 45 51 46 52 60 54 81 55 48 56 32 57
REMARK SMILES IDX 33 58 41 59 34 60 40 61 42 62 39 63 35 64 36 65 37 66 38 67
REMARK SMILES IDX 64 68 65 69 73 70 66 71 72 72 74 73 71 74 67 75 68 76 69 77
REMARK SMILES IDX 70 78 49 79 50 80 58 81 51 82 57 83 59 84 56 85 52 86 53 87
REMARK SMILES IDX 54 88 55 89
REMARK H PARENT 16 6 20 23 79 42 47 53
REMARK Flexibility Score: inf
ROOT
ATOM      1  C   UNL A   1      33.375  28.703  26.505  1.00  0.00     0.042 C 
ENDROOT
BRANCH   1   2
ATOM      2  C   UNL A   1      32.939  29.953  25.736  1.00  0.00     0.117 C 
BRANCH   2   3
ATOM      3  N   UNL A   1      32.148  29.643  24.565  1.00  0.00    -0.356 N 
ATOM      4  O   UNL A   1      33.871  28.868  23.271  1.00  0.00    -0.275 OA
ATOM      5  C   UNL A   1      32.670  29.083  23.417  1.00  0.00     0.225 C 
ATOM      6  H   UNL A   1      31.185  29.843  24.587  1.00  0.00     0.163 HD
BRANCH   5   7
ATOM      7  C   UNL A   1      31.662  28.871  22.292  1.00  0.00     0.154 C 
BRANCH   7   8
ATOM      8  C   UNL A   1      30.392  28.190  22.742  1.00  0.00     0.032 A 
ATOM      9  C   UNL A   1      30.259  26.949  23.351  1.00  0.00     0.024 A 
ATOM     10  N   UNL A   1      29.144  28.809  22.794  1.00  0.00    -0.318 N 
ATOM     11  C   UNL A   1      28.919  26.791  23.756  1.00  0.00     0.020 A 
ATOM     12  C   UNL A   1      28.267  27.957  23.437  1.00  0.00     0.091 A 
BRANCH  10  13
ATOM     13  C   UNL A   1      28.805  30.121  22.396  1.00  0.00     0.081 A 
ATOM     14  C   UNL A   1      28.313  30.339  21.102  1.00  0.00     0.030 A 
ATOM     15  C   UNL A   1      28.959  31.195  23.270  1.00  0.00     0.147 A 
ATOM     16  C   UNL A   1      27.925  31.624  20.716  1.00  0.00     0.002 A 
ATOM     17  C   UNL A   1      28.591  32.479  22.877  1.00  0.00     0.041 A 
ATOM     18  F   UNL A   1      29.532  31.032  24.467  1.00  0.00    -0.205 F 
ATOM     19  C   UNL A   1      28.061  32.692  21.603  1.00  0.00     0.003 A 
ENDBRANCH  10  13
ENDBRANCH   7   8
ENDBRANCH   5   7
ENDBRANCH   2   3
ENDBRANCH   1   2
BRANCH   1  20
ATOM     20  C   UNL A   1      34.815  28.772  27.016  1.00  0.00     0.118 C 
BRANCH  20  21
ATOM     21  N   UNL A   1      35.240  30.140  27.267  1.00  0.00    -0.352 N 
ATOM     22  C   UNL A   1      36.309  30.619  27.986  1.00  0.00     0.251 C 
ATOM     23  H   UNL A   1      34.672  30.832  26.858  1.00  0.00     0.163 HD
ATOM     24  O   UNL A   1      36.287  31.788  28.354  1.00  0.00    -0.269 OA
BRANCH  22  25
ATOM     25  C   UNL A   1      37.469  29.764  28.335  1.00  0.00     0.039 A 
ATOM     26  C   UNL A   1      38.576  29.779  27.472  1.00  0.00     0.014 A 
ATOM     27  C   UNL A   1      37.450  28.890  29.425  1.00  0.00     0.014 A 
ATOM     28  C   UNL A   1      39.677  28.968  27.736  1.00  0.00     0.010 A 
ATOM     29  C   UNL A   1      38.559  28.103  29.712  1.00  0.00     0.010 A 
ATOM     30  C   UNL A   1      39.676  28.150  28.872  1.00  0.00    -0.014 A 
BRANCH  30  31
ATOM     31  C   UNL A   1      40.926  27.463  29.268  1.00  0.00     0.031 A 
ATOM     32  C   UNL A   1      41.262  26.302  28.294  1.00  0.00     0.074 A 
ATOM     33  C   UNL A   1      41.558  27.943  30.385  1.00  0.00     0.049 A 
ATOM     34  N   UNL A   1      41.904  25.193  28.492  1.00  0.00    -0.248 NA
ATOM     35  C   UNL A   1      40.723  26.353  26.902  1.00  0.00     0.031 C 
ATOM     36  C   UNL A   1      41.104  29.104  31.194  1.00  0.00     0.029 A 
ATOM     37  N   UNL A   1      42.698  27.580  31.071  1.00  0.00    -0.354 N 
ATOM     38  C   UNL A   1      42.032  24.532  27.242  1.00  0.00     0.074 A 
ATOM     39  C   UNL A   1      41.171  25.228  26.337  1.00  0.00     0.031 C 
ATOM     40  C   UNL A   1      41.896  29.287  32.276  1.00  0.00     0.029 A 
ATOM     41  C   UNL A   1      42.946  28.290  32.281  1.00  0.00     0.049 A 
ATOM     42  H   UNL A   1      43.303  26.874  30.745  1.00  0.00     0.167 HD
ATOM     43  C   UNL A   1      42.940  23.536  27.000  1.00  0.00     0.034 A 
ATOM     44  C   UNL A   1      43.905  28.059  33.234  1.00  0.00     0.034 A 
ATOM     45  C   UNL A   1      43.684  23.270  28.182  1.00  0.00     0.049 A 
ATOM     46  C   UNL A   1      44.749  26.998  32.659  1.00  0.00     0.074 A 
ATOM     47  C   UNL A   1      43.356  22.698  29.382  1.00  0.00     0.029 A 
ATOM     48  N   UNL A   1      44.870  23.951  28.320  1.00  0.00    -0.354 N 
ATOM     49  N   UNL A   1      45.570  27.148  31.666  1.00  0.00    -0.248 NA
ATOM     50  C   UNL A   1      44.594  25.636  33.187  1.00  0.00     0.031 C 
ATOM     51  C   UNL A   1      44.056  23.495  30.312  1.00  0.00     0.029 A 
ATOM     52  C   UNL A   1      44.942  24.340  29.631  1.00  0.00     0.049 A 
ATOM     53  H   UNL A   1      45.535  24.125  27.615  1.00  0.00     0.167 HD
ATOM     54  C   UNL A   1      45.778  25.854  31.257  1.00  0.00     0.074 A 
ATOM     55  C   UNL A   1      45.424  24.997  32.370  1.00  0.00     0.031 C 
ATOM     56  C   UNL A   1      45.684  25.538  29.944  1.00  0.00     0.034 A 
BRANCH  43  57
ATOM     57  C   UNL A   1      43.449  22.880  25.738  1.00  0.00     0.023 A 
ATOM     58  C   UNL A   1      43.600  21.467  25.768  1.00  0.00     0.031 A 
ATOM     59  C   UNL A   1      44.079  23.547  24.681  1.00  0.00     0.131 A 
ATOM     60  C   UNL A   1      44.433  20.794  24.862  1.00  0.00     0.055 A 
ATOM     61  C   UNL A   1      44.870  22.866  23.742  1.00  0.00     0.041 A 
ATOM     62  F   UNL A   1      44.030  24.882  24.566  1.00  0.00    -0.206 F 
ATOM     63  C   UNL A   1      45.079  21.491  23.847  1.00  0.00     0.022 A 
BRANCH  60  64
ATOM     64  S   UNL A   1      44.767  19.028  25.132  1.00  0.00     0.124 S 
ATOM     65  O   UNL A   1      46.069  19.053  25.791  1.00  0.00    -0.237 OA
ATOM     66  O   UNL A   1      43.638  18.628  25.967  1.00  0.00    -0.237 OA
ATOM     67  O   UNL A   1      44.763  18.469  23.782  1.00  0.00    -0.744 OA
ENDBRANCH  60  64
ENDBRANCH  43  57
BRANCH  44  68
ATOM     68  C   UNL A   1      44.244  28.468  34.664  1.00  0.00     0.023 A 
ATOM     69  C   UNL A   1      44.265  27.635  35.795  1.00  0.00     0.031 A 
ATOM     70  C   UNL A   1      44.718  29.799  34.900  1.00  0.00     0.131 A 
ATOM     71  C   UNL A   1      44.820  28.105  37.021  1.00  0.00     0.055 A 
ATOM     72  C   UNL A   1      45.349  30.221  36.070  1.00  0.00     0.041 A 
ATOM     73  F   UNL A   1      44.606  30.768  33.979  1.00  0.00    -0.206 F 
ATOM     74  C   UNL A   1      45.420  29.362  37.139  1.00  0.00     0.022 A 
BRANCH  71  75
ATOM     75  S   UNL A   1      44.810  27.090  38.531  1.00  0.00     0.124 S 
ATOM     76  O   UNL A   1      43.526  26.404  38.417  1.00  0.00    -0.237 OA
ATOM     77  O   UNL A   1      45.995  26.256  38.380  1.00  0.00    -0.237 OA
ATOM     78  O   UNL A   1      44.887  28.089  39.597  1.00  0.00    -0.744 OA
ENDBRANCH  71  75
ENDBRANCH  44  68
BRANCH  56  79
ATOM     79  C   UNL A   1      46.024  26.651  28.975  1.00  0.00     0.023 A 
ATOM     80  C   UNL A   1      44.993  27.455  28.463  1.00  0.00     0.031 A 
ATOM     81  C   UNL A   1      47.318  26.910  28.489  1.00  0.00     0.131 A 
ATOM     82  C   UNL A   1      45.269  28.467  27.525  1.00  0.00     0.055 A 
ATOM     83  C   UNL A   1      47.599  27.921  27.560  1.00  0.00     0.041 A 
ATOM     84  F   UNL A   1      48.355  26.174  28.884  1.00  0.00    -0.206 F 
ATOM     85  C   UNL A   1      46.568  28.712  27.075  1.00  0.00     0.022 A 
BRANCH  82  86
ATOM     86  S   UNL A   1      43.912  29.514  26.938  1.00  0.00     0.124 S 
ATOM     87  O   UNL A   1      44.620  30.635  26.329  1.00  0.00    -0.237 OA
ATOM     88  O   UNL A   1      43.204  28.630  26.017  1.00  0.00    -0.237 OA
ATOM     89  O   UNL A   1      43.178  29.838  28.161  1.00  0.00    -0.744 OA
ENDBRANCH  82  86
ENDBRANCH  56  79
ENDBRANCH  30  31
ENDBRANCH  22  25
ENDBRANCH  20  21
ENDBRANCH   1  20
TORSDOF 15
ENDMDL
MODEL 2
REMARK VINA RESULT:     -12.5      2.683      4.141
REMARK SMILES O=C(Cc1cccn1-c1ccccc1F)NCCCNC(=O)c1ccc(-c2c3nc(c(-c4cc(S(=O)(=O)[O-])ccc4F)c4ccc([nH]4)c(-c4cc(S(=O)(=O)[O-])ccc4F)c4nc(c(-c5cc(S(=O)(=O)[O-])ccc5F)c5ccc2[nH]5)C=C4)C=C3)cc1
REMARK SMILES IDX 18 1 17 2 16 3 1 4 2 5 3 7 4 8 5 9 8 10 6 11 7 12 9 13 10 14
REMARK SMILES IDX 14 15 11 16 13 17 15 18 12 19 19 20 20 21 21 22 22 24 23 25
REMARK SMILES IDX 24 26 85 27 25 28 84 29 26 30 27 31 28 32 78 33 29 34 83 35
REMARK SMILES IDX 77 36 79 37 30 38 82 39 76 40 75 41 31 43 63 44 43 45 62 46
REMARK SMILES IDX 44 47 47 48 61 49 80 50 45 51 46 52 60 54 81 55 48 56 32 57
REMARK SMILES IDX 33 58 41 59 34 60 40 61 42 62 39 63 35 64 36 65 37 66 38 67
REMARK SMILES IDX 64 68 65 69 73 70 66 71 72 72 74 73 71 74 67 75 68 76 69 77
REMARK SMILES IDX 70 78 49 79 50 80 58 81 51 82 57 83 59 84 56 85 52 86 53 87
REMARK SMILES IDX 54 88 55 89
REMARK H PARENT 16 6 20 23 79 42 47 53
REMARK Flexibility Score: inf
ROOT
ATOM      1  C   UNL A   1      33.839  28.801  25.800  1.00  0.00     0.042 C 
ENDROOT
BRANCH   1   2
ATOM      2  C   UNL A   1      32.678  27.825  26.014  1.00  0.00     0.117 C 
BRANCH   2   3
ATOM      3  N   UNL A   1      33.125  26.494  26.364  1.00  0.00    -0.356 N 
ATOM      4  O   UNL A   1      33.547  25.777  24.231  1.00  0.00    -0.275 OA
ATOM      5  C   UNL A   1      33.566  25.568  25.442  1.00  0.00     0.225 C 
ATOM      6  H   UNL A   1      33.111  26.234  27.314  1.00  0.00     0.163 HD
BRANCH   5   7
ATOM      7  C   UNL A   1      33.958  24.215  26.029  1.00  0.00     0.154 C 
BRANCH   7   8
ATOM      8  C   UNL A   1      35.255  23.674  25.480  1.00  0.00     0.032 A 
ATOM      9  C   UNL A   1      36.543  24.128  25.730  1.00  0.00     0.024 A 
ATOM     10  N   UNL A   1      35.371  22.477  24.774  1.00  0.00    -0.318 N 
ATOM     11  C   UNL A   1      37.456  23.223  25.154  1.00  0.00     0.020 A 
ATOM     12  C   UNL A   1      36.715  22.204  24.608  1.00  0.00     0.091 A 
BRANCH  10  13
ATOM     13  C   UNL A   1      34.342  21.591  24.385  1.00  0.00     0.081 A 
ATOM     14  C   UNL A   1      34.257  20.331  24.992  1.00  0.00     0.030 A 
ATOM     15  C   UNL A   1      33.421  21.953  23.405  1.00  0.00     0.147 A 
ATOM     16  C   UNL A   1      33.214  19.468  24.651  1.00  0.00     0.002 A 
ATOM     17  C   UNL A   1      32.392  21.083  23.052  1.00  0.00     0.041 A 
ATOM     18  F   UNL A   1      33.548  23.101  22.730  1.00  0.00    -0.205 F 
ATOM     19  C   UNL A   1      32.280  19.845  23.684  1.00  0.00     0.003 A 
ENDBRANCH  10  13
ENDBRANCH   7   8
ENDBRANCH   5   7
ENDBRANCH   2   3
ENDBRANCH   1   2
BRANCH   1  20
ATOM     20  C   UNL A   1      34.783  28.897  26.999  1.00  0.00     0.118 C 
BRANCH  20  21
ATOM     21  N   UNL A   1      35.242  30.259  27.224  1.00  0.00    -0.352 N 
ATOM     22  C   UNL A   1      36.323  30.725  27.935  1.00  0.00     0.251 C 
ATOM     23  H   UNL A   1      34.692  30.957  26.801  1.00  0.00     0.163 HD
ATOM     24  O   UNL A   1      36.330  31.902  28.279  1.00  0.00    -0.269 OA
BRANCH  22  25
ATOM     25  C   UNL A   1      37.460  29.848  28.302  1.00  0.00     0.039 A 
ATOM     26  C   UNL A   1      38.577  29.834  27.453  1.00  0.00     0.014 A 
ATOM     27  C   UNL A   1      37.410  28.982  29.398  1.00  0.00     0.014 A 
ATOM     28  C   UNL A   1      39.658  29.003  27.734  1.00  0.00     0.010 A 
ATOM     29  C   UNL A   1      38.499  28.173  29.702  1.00  0.00     0.010 A 
ATOM     30  C   UNL A   1      39.627  28.192  28.875  1.00  0.00    -0.014 A 
BRANCH  30  31
ATOM     31  C   UNL A   1      40.857  27.481  29.290  1.00  0.00     0.031 A 
ATOM     32  C   UNL A   1      41.198  26.329  28.308  1.00  0.00     0.074 A 
ATOM     33  C   UNL A   1      41.470  27.937  30.428  1.00  0.00     0.049 A 
ATOM     34  N   UNL A   1      41.820  25.207  28.505  1.00  0.00    -0.248 NA
ATOM     35  C   UNL A   1      40.692  26.405  26.905  1.00  0.00     0.031 C 
ATOM     36  C   UNL A   1      41.015  29.093  31.242  1.00  0.00     0.029 A 
ATOM     37  N   UNL A   1      42.589  27.548  31.134  1.00  0.00    -0.354 N 
ATOM     38  C   UNL A   1      41.967  24.561  27.250  1.00  0.00     0.074 A 
ATOM     39  C   UNL A   1      41.137  25.282  26.335  1.00  0.00     0.031 C 
ATOM     40  C   UNL A   1      41.784  29.251  32.344  1.00  0.00     0.029 A 
ATOM     41  C   UNL A   1      42.820  28.238  32.358  1.00  0.00     0.049 A 
ATOM     42  H   UNL A   1      43.191  26.838  30.813  1.00  0.00     0.167 HD
ATOM     43  C   UNL A   1      42.865  23.556  27.014  1.00  0.00     0.034 A 
ATOM     44  C   UNL A   1      43.753  27.980  33.330  1.00  0.00     0.034 A 
ATOM     45  C   UNL A   1      43.578  23.263  28.210  1.00  0.00     0.049 A 
ATOM     46  C   UNL A   1      44.594  26.915  32.760  1.00  0.00     0.074 A 
ATOM     47  C   UNL A   1      43.215  22.680  29.394  1.00  0.00     0.029 A 
ATOM     48  N   UNL A   1      44.771  23.924  28.383  1.00  0.00    -0.354 N 
ATOM     49  N   UNL A   1      45.440  27.065  31.788  1.00  0.00    -0.248 NA
ATOM     50  C   UNL A   1      44.408  25.548  33.266  1.00  0.00     0.031 C 
ATOM     51  C   UNL A   1      43.905  23.454  30.350  1.00  0.00     0.029 A 
ATOM     52  C   UNL A   1      44.818  24.295  29.701  1.00  0.00     0.049 A 
ATOM     53  H   UNL A   1      45.454  24.098  27.696  1.00  0.00     0.167 HD
ATOM     54  C   UNL A   1      45.639  25.774  31.366  1.00  0.00     0.074 A 
ATOM     55  C   UNL A   1      45.247  24.909  32.458  1.00  0.00     0.031 C 
ATOM     56  C   UNL A   1      45.570  25.477  30.047  1.00  0.00     0.034 A 
BRANCH  43  57
ATOM     57  C   UNL A   1      43.394  22.909  25.756  1.00  0.00     0.023 A 
ATOM     58  C   UNL A   1      43.526  21.493  25.770  1.00  0.00     0.031 A 
ATOM     59  C   UNL A   1      44.055  23.581  24.721  1.00  0.00     0.131 A 
ATOM     60  C   UNL A   1      44.371  20.822  24.874  1.00  0.00     0.055 A 
ATOM     61  C   UNL A   1      44.858  22.902  23.790  1.00  0.00     0.041 A 
ATOM     62  F   UNL A   1      44.025  24.918  24.623  1.00  0.00    -0.206 F 
ATOM     63  C   UNL A   1      45.047  21.523  23.883  1.00  0.00     0.022 A 
BRANCH  60  64
ATOM     64  S   UNL A   1      44.677  19.048  25.129  1.00  0.00     0.124 S 
ATOM     65  O   UNL A   1      43.560  18.658  25.983  1.00  0.00    -0.237 OA
ATOM     66  O   UNL A   1      44.645  18.533  23.764  1.00  0.00    -0.237 OA
ATOM     67  O   UNL A   1      45.990  19.017  25.769  1.00  0.00    -0.744 OA
ENDBRANCH  60  64
ENDBRANCH  43  57
BRANCH  44  68
ATOM     68  C   UNL A   1      44.065  28.365  34.773  1.00  0.00     0.023 A 
ATOM     69  C   UNL A   1      44.253  27.490  35.855  1.00  0.00     0.031 A 
ATOM     70  C   UNL A   1      44.327  29.742  35.072  1.00  0.00     0.131 A 
ATOM     71  C   UNL A   1      44.762  27.980  37.093  1.00  0.00     0.055 A 
ATOM     72  C   UNL A   1      44.917  30.200  36.249  1.00  0.00     0.041 A 
ATOM     73  F   UNL A   1      44.033  30.725  34.209  1.00  0.00    -0.206 F 
ATOM     74  C   UNL A   1      45.157  29.310  37.268  1.00  0.00     0.022 A 
BRANCH  71  75
ATOM     75  S   UNL A   1      44.960  26.901  38.544  1.00  0.00     0.124 S 
ATOM     76  O   UNL A   1      43.826  25.993  38.395  1.00  0.00    -0.237 OA
ATOM     77  O   UNL A   1      46.279  26.314  38.346  1.00  0.00    -0.237 OA
ATOM     78  O   UNL A   1      44.862  27.837  39.664  1.00  0.00    -0.744 OA
ENDBRANCH  71  75
ENDBRANCH  44  68
BRANCH  56  79
ATOM     79  C   UNL A   1      45.948  26.598  29.101  1.00  0.00     0.023 A 
ATOM     80  C   UNL A   1      44.934  27.361  28.500  1.00  0.00     0.031 A 
ATOM     81  C   UNL A   1      47.268  26.903  28.721  1.00  0.00     0.131 A 
ATOM     82  C   UNL A   1      45.250  28.379  27.580  1.00  0.00     0.055 A 
ATOM     83  C   UNL A   1      47.587  27.920  27.812  1.00  0.00     0.041 A 
ATOM     84  F   UNL A   1      48.294  26.207  29.206  1.00  0.00    -0.206 F 
ATOM     85  C   UNL A   1      46.572  28.670  27.238  1.00  0.00     0.022 A 
BRANCH  82  86
ATOM     86  S   UNL A   1      43.909  29.373  26.877  1.00  0.00     0.124 S 
ATOM     87  O   UNL A   1      44.628  30.487  26.269  1.00  0.00    -0.237 OA
ATOM     88  O   UNL A   1      43.275  28.440  25.950  1.00  0.00    -0.237 OA
ATOM     89  O   UNL A   1      43.097  29.724  28.042  1.00  0.00    -0.744 OA
ENDBRANCH  82  86
ENDBRANCH  56  79
ENDBRANCH  30  31
ENDBRANCH  22  25
ENDBRANCH  20  21
ENDBRANCH   1  20
TORSDOF 15
ENDMDL
MODEL 3
REMARK VINA RESULT:     -12.5      4.776     10.210
REMARK SMILES O=C(Cc1cccn1-c1ccccc1F)NCCCNC(=O)c1ccc(-c2c3nc(c(-c4cc(S(=O)(=O)[O-])ccc4F)c4ccc([nH]4)c(-c4cc(S(=O)(=O)[O-])ccc4F)c4nc(c(-c5cc(S(=O)(=O)[O-])ccc5F)c5ccc2[nH]5)C=C4)C=C3)cc1
REMARK SMILES IDX 18 1 17 2 16 3 1 4 2 5 3 7 4 8 5 9 8 10 6 11 7 12 9 13 10 14
REMARK SMILES IDX 14 15 11 16 13 17 15 18 12 19 19 20 20 21 21 22 22 24 23 25
REMARK SMILES IDX 24 26 85 27 25 28 84 29 26 30 27 31 28 32 78 33 29 34 83 35
REMARK SMILES IDX 77 36 79 37 30 38 82 39 76 40 75 41 31 43 63 44 43 45 62 46
REMARK SMILES IDX 44 47 47 48 61 49 80 50 45 51 46 52 60 54 81 55 48 56 32 57
REMARK SMILES IDX 33 58 41 59 34 60 40 61 42 62 39 63 35 64 36 65 37 66 38 67
REMARK SMILES IDX 64 68 65 69 73 70 66 71 72 72 74 73 71 74 67 75 68 76 69 77
REMARK SMILES IDX 70 78 49 79 50 80 58 81 51 82 57 83 59 84 56 85 52 86 53 87
REMARK SMILES IDX 54 88 55 89
REMARK H PARENT 16 6 20 23 79 42 47 53
REMARK Flexibility Score: inf
ROOT
ATOM      1  C   UNL A   1      36.365  23.097  25.529  1.00  0.00     0.042 C 
ENDROOT
BRANCH   1   2
ATOM      2  C   UNL A   1      35.853  23.524  24.151  1.00  0.00     0.117 C 
BRANCH   2   3
ATOM      3  N   UNL A   1      34.462  23.182  23.941  1.00  0.00    -0.356 N 
ATOM      4  O   UNL A   1      33.971  24.906  22.517  1.00  0.00    -0.275 OA
ATOM      5  C   UNL A   1      33.621  23.884  23.102  1.00  0.00     0.225 C 
ATOM      6  H   UNL A   1      34.095  22.407  24.425  1.00  0.00     0.163 HD
BRANCH   5   7
ATOM      7  C   UNL A   1      32.186  23.369  23.057  1.00  0.00     0.154 C 
BRANCH   7   8
ATOM      8  C   UNL A   1      31.514  23.342  24.408  1.00  0.00     0.032 A 
ATOM      9  C   UNL A   1      31.487  22.301  25.327  1.00  0.00     0.024 A 
ATOM     10  N   UNL A   1      30.970  24.460  25.038  1.00  0.00    -0.318 N 
ATOM     11  C   UNL A   1      30.900  22.771  26.518  1.00  0.00     0.020 A 
ATOM     12  C   UNL A   1      30.626  24.103  26.328  1.00  0.00     0.091 A 
BRANCH  10  13
ATOM     13  C   UNL A   1      30.878  25.780  24.545  1.00  0.00     0.081 A 
ATOM     14  C   UNL A   1      29.763  26.150  23.779  1.00  0.00     0.030 A 
ATOM     15  C   UNL A   1      31.881  26.711  24.805  1.00  0.00     0.147 A 
ATOM     16  C   UNL A   1      29.638  27.466  23.331  1.00  0.00     0.002 A 
ATOM     17  C   UNL A   1      31.764  28.019  24.340  1.00  0.00     0.041 A 
ATOM     18  F   UNL A   1      33.006  26.354  25.433  1.00  0.00    -0.205 F 
ATOM     19  C   UNL A   1      30.635  28.401  23.614  1.00  0.00     0.003 A 
ENDBRANCH  10  13
ENDBRANCH   7   8
ENDBRANCH   5   7
ENDBRANCH   2   3
ENDBRANCH   1   2
BRANCH   1  20
ATOM     20  C   UNL A   1      37.348  24.092  26.150  1.00  0.00     0.118 C 
BRANCH  20  21
ATOM     21  N   UNL A   1      38.443  23.423  26.832  1.00  0.00    -0.352 N 
ATOM     22  C   UNL A   1      39.571  23.944  27.423  1.00  0.00     0.251 C 
ATOM     23  H   UNL A   1      38.367  22.443  26.879  1.00  0.00     0.163 HD
ATOM     24  O   UNL A   1      40.518  23.194  27.632  1.00  0.00    -0.269 OA
BRANCH  22  25
ATOM     25  C   UNL A   1      39.674  25.374  27.797  1.00  0.00     0.039 A 
ATOM     26  C   UNL A   1      39.324  25.735  29.107  1.00  0.00     0.014 A 
ATOM     27  C   UNL A   1      40.010  26.365  26.870  1.00  0.00     0.014 A 
ATOM     28  C   UNL A   1      39.371  27.071  29.499  1.00  0.00     0.010 A 
ATOM     29  C   UNL A   1      40.089  27.696  27.264  1.00  0.00     0.010 A 
ATOM     30  C   UNL A   1      39.780  28.046  28.582  1.00  0.00    -0.014 A 
BRANCH  30  31
ATOM     31  C   UNL A   1      40.040  29.422  29.059  1.00  0.00     0.031 A 
ATOM     32  C   UNL A   1      38.723  30.133  29.473  1.00  0.00     0.074 A 
ATOM     33  C   UNL A   1      41.348  29.831  29.059  1.00  0.00     0.049 A 
ATOM     34  N   UNL A   1      38.403  31.390  29.465  1.00  0.00    -0.248 NA
ATOM     35  C   UNL A   1      37.553  29.299  29.879  1.00  0.00     0.031 C 
ATOM     36  C   UNL A   1      42.507  28.995  28.652  1.00  0.00     0.029 A 
ATOM     37  N   UNL A   1      41.985  31.007  29.399  1.00  0.00    -0.354 N 
ATOM     38  C   UNL A   1      37.115  31.517  30.048  1.00  0.00     0.074 A 
ATOM     39  C   UNL A   1      36.596  30.189  30.156  1.00  0.00     0.031 C 
ATOM     40  C   UNL A   1      43.660  29.701  28.690  1.00  0.00     0.029 A 
ATOM     41  C   UNL A   1      43.384  31.051  29.136  1.00  0.00     0.049 A 
ATOM     42  H   UNL A   1      41.503  31.767  29.798  1.00  0.00     0.167 HD
ATOM     43  C   UNL A   1      36.613  32.697  30.529  1.00  0.00     0.034 A 
ATOM     44  C   UNL A   1      44.245  32.115  29.233  1.00  0.00     0.034 A 
ATOM     45  C   UNL A   1      37.560  33.738  30.322  1.00  0.00     0.049 A 
ATOM     46  C   UNL A   1      43.437  33.190  29.832  1.00  0.00     0.074 A 
ATOM     47  C   UNL A   1      38.018  34.374  29.200  1.00  0.00     0.029 A 
ATOM     48  N   UNL A   1      38.422  33.991  31.363  1.00  0.00    -0.354 N 
ATOM     49  N   UNL A   1      43.030  33.225  31.064  1.00  0.00    -0.248 NA
ATOM     50  C   UNL A   1      42.975  34.274  28.955  1.00  0.00     0.031 C 
ATOM     51  C   UNL A   1      39.395  34.527  29.464  1.00  0.00     0.029 A 
ATOM     52  C   UNL A   1      39.654  34.201  30.802  1.00  0.00     0.049 A 
ATOM     53  H   UNL A   1      38.198  34.014  32.322  1.00  0.00     0.167 HD
ATOM     54  C   UNL A   1      42.018  34.151  31.015  1.00  0.00     0.074 A 
ATOM     55  C   UNL A   1      42.233  34.949  29.826  1.00  0.00     0.031 C 
ATOM     56  C   UNL A   1      40.821  33.874  31.585  1.00  0.00     0.034 A 
BRANCH  43  57
ATOM     57  C   UNL A   1      35.434  33.042  31.407  1.00  0.00     0.023 A 
ATOM     58  C   UNL A   1      34.571  34.074  30.943  1.00  0.00     0.031 A 
ATOM     59  C   UNL A   1      35.296  32.680  32.752  1.00  0.00     0.131 A 
ATOM     60  C   UNL A   1      33.721  34.771  31.814  1.00  0.00     0.055 A 
ATOM     61  C   UNL A   1      34.405  33.343  33.611  1.00  0.00     0.041 A 
ATOM     62  F   UNL A   1      36.075  31.740  33.307  1.00  0.00    -0.206 F 
ATOM     63  C   UNL A   1      33.638  34.414  33.154  1.00  0.00     0.022 A 
BRANCH  60  64
ATOM     64  S   UNL A   1      32.847  36.238  31.188  1.00  0.00     0.124 S 
ATOM     65  O   UNL A   1      33.806  37.307  31.448  1.00  0.00    -0.237 OA
ATOM     66  O   UNL A   1      32.642  35.894  29.784  1.00  0.00    -0.237 OA
ATOM     67  O   UNL A   1      31.631  36.281  31.997  1.00  0.00    -0.744 OA
ENDBRANCH  60  64
ENDBRANCH  43  57
BRANCH  44  68
ATOM     68  C   UNL A   1      45.656  32.510  28.811  1.00  0.00     0.023 A 
ATOM     69  C   UNL A   1      46.029  33.161  27.624  1.00  0.00     0.031 A 
ATOM     70  C   UNL A   1      46.726  32.329  29.748  1.00  0.00     0.131 A 
ATOM     71  C   UNL A   1      47.352  33.668  27.469  1.00  0.00     0.055 A 
ATOM     72  C   UNL A   1      47.987  32.912  29.634  1.00  0.00     0.041 A 
ATOM     73  F   UNL A   1      46.586  31.579  30.850  1.00  0.00    -0.206 F 
ATOM     74  C   UNL A   1      48.303  33.606  28.492  1.00  0.00     0.022 A 
BRANCH  71  75
ATOM     75  S   UNL A   1      47.903  34.459  25.926  1.00  0.00     0.124 S 
ATOM     76  O   UNL A   1      48.310  35.779  26.399  1.00  0.00    -0.237 OA
ATOM     77  O   UNL A   1      48.975  33.585  25.467  1.00  0.00    -0.237 OA
ATOM     78  O   UNL A   1      46.695  34.442  25.100  1.00  0.00    -0.744 OA
ENDBRANCH  71  75
ENDBRANCH  44  68
BRANCH  56  79
ATOM     79  C   UNL A   1      40.861  32.930  32.769  1.00  0.00     0.023 A 
ATOM     80  C   UNL A   1      40.615  31.563  32.566  1.00  0.00     0.031 A 
ATOM     81  C   UNL A   1      41.072  33.336  34.099  1.00  0.00     0.131 A 
ATOM     82  C   UNL A   1      40.598  30.667  33.651  1.00  0.00     0.055 A 
ATOM     83  C   UNL A   1      41.064  32.446  35.181  1.00  0.00     0.041 A 
ATOM     84  F   UNL A   1      41.274  34.618  34.396  1.00  0.00    -0.206 F 
ATOM     85  C   UNL A   1      40.829  31.098  34.959  1.00  0.00     0.022 A 
BRANCH  82  86
ATOM     86  S   UNL A   1      40.332  28.904  33.330  1.00  0.00     0.124 S 
ATOM     87  O   UNL A   1      40.763  28.287  34.580  1.00  0.00    -0.237 OA
ATOM     88  O   UNL A   1      38.900  28.845  33.049  1.00  0.00    -0.237 OA
ATOM     89  O   UNL A   1      41.193  28.633  32.178  1.00  0.00    -0.744 OA
ENDBRANCH  82  86
ENDBRANCH  56  79
ENDBRANCH  30  31
ENDBRANCH  22  25
ENDBRANCH  20  21
ENDBRANCH   1  20
TORSDOF 15
ENDMDL
