MODEL 1
REMARK VINA RESULT:     -12.3      0.000      0.000
REMARK SMILES CC1=Nn2c(nnc(CCC(=O)NCCCNC(=O)c3ccc(-c4c5nc(c(-c6cc(S(=O)(=O)[O-])ccc6F)c6ccc([nH]6)c(-c6cc(S(=O)(=O)[O-])ccc6F)c6nc(c(-c7cc(S(=O)(=O)[O-])ccc7F)c7ccc4[nH]7)C=C6)C=C5)cc3)c2=O)SC1
REMARK SMILES IDX 15 1 14 2 13 3 11 4 12 5 10 7 9 8 8 9 1 10 2 11 3 12 86 13
REMARK SMILES IDX 4 14 85 15 5 16 83 17 6 18 84 19 7 20 16 21 17 22 18 23
REMARK SMILES IDX 19 25 20 26 21 27 82 28 22 29 81 30 23 31 24 32 25 33 75 34
REMARK SMILES IDX 26 35 80 36 74 37 76 38 27 39 79 40 73 41 72 42 28 44 60 45
REMARK SMILES IDX 40 46 59 47 41 48 44 49 58 50 77 51 42 52 43 53 57 55 78 56
REMARK SMILES IDX 45 57 29 58 30 59 38 60 31 61 37 62 39 63 36 64 32 65 33 66
REMARK SMILES IDX 34 67 35 68 61 69 62 70 70 71 63 72 69 73 71 74 68 75 64 76
REMARK SMILES IDX 65 77 66 78 67 79 46 80 47 81 55 82 48 83 54 84 56 85 53 86
REMARK SMILES IDX 49 87 50 88 51 89 52 90
REMARK H PARENT 13 6 17 24 76 43 44 54
REMARK Flexibility Score: inf
ROOT
ATOM      1  C   UNL A   1      32.461  30.914  26.934  1.00  0.00     0.042 C 
ENDROOT
BRANCH   1   2
ATOM      2  C   UNL A   1      32.571  29.857  25.808  1.00  0.00     0.117 C 
BRANCH   2   3
ATOM      3  N   UNL A   1      31.523  29.948  24.792  1.00  0.00    -0.356 N 
ATOM      4  C   UNL A   1      31.080  29.053  23.860  1.00  0.00     0.220 C 
ATOM      5  O   UNL A   1      30.076  29.357  23.212  1.00  0.00    -0.275 OA
ATOM      6  H   UNL A   1      31.051  30.813  24.778  1.00  0.00     0.163 HD
BRANCH   4   7
ATOM      7  C   UNL A   1      31.776  27.724  23.604  1.00  0.00     0.106 C 
BRANCH   7   8
ATOM      8  C   UNL A   1      31.302  27.058  22.309  1.00  0.00     0.074 C 
BRANCH   8   9
ATOM      9  C   UNL A   1      31.440  25.565  22.431  1.00  0.00     0.131 A 
ATOM     10  C   UNL A   1      36.394  23.277  23.742  1.00  0.00     0.064 C 
ATOM     11  C   UNL A   1      34.955  22.948  23.456  1.00  0.00     0.046 C 
ATOM     12  N   UNL A   1      34.421  23.723  22.574  1.00  0.00    -0.172 NA
ATOM     13  C   UNL A   1      34.238  21.937  24.314  1.00  0.00     0.131 C 
ATOM     14  N   UNL A   1      33.074  23.854  22.508  1.00  0.00    -0.169 N 
ATOM     15  S   UNL A   1      32.612  21.522  23.687  1.00  0.00    -0.078 SA
ATOM     16  C   UNL A   1      32.135  23.112  23.174  1.00  0.00     0.214 A 
ATOM     17  C   UNL A   1      32.658  24.957  21.808  1.00  0.00     0.296 A 
ATOM     18  N   UNL A   1      30.931  23.524  23.416  1.00  0.00    -0.123 NA
ATOM     19  O   UNL A   1      33.193  25.502  20.865  1.00  0.00    -0.265 OA
ATOM     20  N   UNL A   1      30.617  24.874  23.158  1.00  0.00    -0.147 NA
ENDBRANCH   8   9
ENDBRANCH   7   8
ENDBRANCH   4   7
ENDBRANCH   2   3
ENDBRANCH   1   2
BRANCH   1  21
ATOM     21  C   UNL A   1      31.762  32.256  26.611  1.00  0.00     0.118 C 
BRANCH  21  22
ATOM     22  N   UNL A   1      32.405  33.447  27.210  1.00  0.00    -0.352 N 
ATOM     23  C   UNL A   1      33.524  33.868  27.897  1.00  0.00     0.251 C 
ATOM     24  H   UNL A   1      31.816  34.223  27.068  1.00  0.00     0.163 HD
ATOM     25  O   UNL A   1      33.567  35.087  28.101  1.00  0.00    -0.269 OA
BRANCH  23  26
ATOM     26  C   UNL A   1      34.640  33.065  28.490  1.00  0.00     0.039 A 
ATOM     27  C   UNL A   1      35.953  33.542  28.289  1.00  0.00     0.014 A 
ATOM     28  C   UNL A   1      34.522  31.822  29.095  1.00  0.00     0.014 A 
ATOM     29  C   UNL A   1      37.092  32.862  28.782  1.00  0.00     0.010 A 
ATOM     30  C   UNL A   1      35.662  31.177  29.662  1.00  0.00     0.010 A 
ATOM     31  C   UNL A   1      36.971  31.689  29.537  1.00  0.00    -0.014 A 
BRANCH  31  32
ATOM     32  C   UNL A   1      38.182  30.993  30.134  1.00  0.00     0.031 A 
ATOM     33  C   UNL A   1      38.643  31.313  31.548  1.00  0.00     0.074 A 
ATOM     34  C   UNL A   1      38.916  30.088  29.436  1.00  0.00     0.049 A 
ATOM     35  N   UNL A   1      39.684  30.866  32.212  1.00  0.00    -0.248 NA
ATOM     36  C   UNL A   1      37.845  32.293  32.297  1.00  0.00     0.031 C 
ATOM     37  C   UNL A   1      38.666  29.670  28.055  1.00  0.00     0.029 A 
ATOM     38  N   UNL A   1      40.033  29.352  29.792  1.00  0.00    -0.354 N 
ATOM     39  C   UNL A   1      39.665  31.512  33.446  1.00  0.00     0.074 A 
ATOM     40  C   UNL A   1      38.565  32.452  33.397  1.00  0.00     0.031 C 
ATOM     41  C   UNL A   1      39.575  28.746  27.694  1.00  0.00     0.029 A 
ATOM     42  C   UNL A   1      40.494  28.502  28.805  1.00  0.00     0.049 A 
ATOM     43  H   UNL A   1      40.463  29.427  30.675  1.00  0.00     0.167 HD
ATOM     44  C   UNL A   1      40.441  31.322  34.545  1.00  0.00     0.034 A 
ATOM     45  C   UNL A   1      41.520  27.619  28.784  1.00  0.00     0.034 A 
ATOM     46  C   UNL A   1      41.512  30.363  34.641  1.00  0.00     0.049 A 
ATOM     47  C   UNL A   1      42.390  27.433  30.007  1.00  0.00     0.074 A 
ATOM     48  C   UNL A   1      42.311  30.072  35.736  1.00  0.00     0.029 A 
ATOM     49  N   UNL A   1      41.929  29.530  33.616  1.00  0.00    -0.354 N 
ATOM     50  N   UNL A   1      42.318  28.038  31.168  1.00  0.00    -0.248 NA
ATOM     51  C   UNL A   1      43.470  26.434  29.922  1.00  0.00     0.031 C 
ATOM     52  C   UNL A   1      43.236  29.092  35.361  1.00  0.00     0.029 A 
ATOM     53  C   UNL A   1      42.977  28.734  34.050  1.00  0.00     0.049 A 
ATOM     54  H   UNL A   1      41.537  29.506  32.713  1.00  0.00     0.167 HD
ATOM     55  C   UNL A   1      43.311  27.463  31.959  1.00  0.00     0.074 A 
ATOM     56  C   UNL A   1      43.974  26.466  31.148  1.00  0.00     0.031 C 
ATOM     57  C   UNL A   1      43.633  27.732  33.248  1.00  0.00     0.034 A 
BRANCH  44  58
ATOM     58  C   UNL A   1      40.126  32.148  35.768  1.00  0.00     0.023 A 
ATOM     59  C   UNL A   1      39.066  31.795  36.619  1.00  0.00     0.031 A 
ATOM     60  C   UNL A   1      40.890  33.280  36.102  1.00  0.00     0.131 A 
ATOM     61  C   UNL A   1      38.751  32.602  37.721  1.00  0.00     0.055 A 
ATOM     62  C   UNL A   1      40.621  34.037  37.245  1.00  0.00     0.041 A 
ATOM     63  F   UNL A   1      41.913  33.668  35.323  1.00  0.00    -0.206 F 
ATOM     64  C   UNL A   1      39.537  33.706  38.055  1.00  0.00     0.022 A 
BRANCH  61  65
ATOM     65  S   UNL A   1      37.239  32.239  38.651  1.00  0.00     0.124 S 
ATOM     66  O   UNL A   1      37.590  32.735  39.980  1.00  0.00    -0.237 OA
ATOM     67  O   UNL A   1      36.230  33.006  37.931  1.00  0.00    -0.237 OA
ATOM     68  O   UNL A   1      37.113  30.788  38.546  1.00  0.00    -0.744 OA
ENDBRANCH  61  65
ENDBRANCH  44  58
BRANCH  45  69
ATOM     69  C   UNL A   1      41.781  26.783  27.571  1.00  0.00     0.023 A 
ATOM     70  C   UNL A   1      41.452  25.416  27.563  1.00  0.00     0.031 A 
ATOM     71  C   UNL A   1      42.400  27.316  26.428  1.00  0.00     0.131 A 
ATOM     72  C   UNL A   1      41.767  24.622  26.447  1.00  0.00     0.055 A 
ATOM     73  C   UNL A   1      42.677  26.530  25.305  1.00  0.00     0.041 A 
ATOM     74  F   UNL A   1      42.740  28.613  26.385  1.00  0.00    -0.206 F 
ATOM     75  C   UNL A   1      42.366  25.173  25.313  1.00  0.00     0.022 A 
BRANCH  72  76
ATOM     76  S   UNL A   1      41.417  22.842  26.517  1.00  0.00     0.124 S 
ATOM     77  O   UNL A   1      39.965  22.820  26.389  1.00  0.00    -0.237 OA
ATOM     78  O   UNL A   1      42.171  22.340  25.372  1.00  0.00    -0.237 OA
ATOM     79  O   UNL A   1      41.936  22.443  27.823  1.00  0.00    -0.744 OA
ENDBRANCH  72  76
ENDBRANCH  45  69
BRANCH  57  80
ATOM     80  C   UNL A   1      44.719  26.913  33.898  1.00  0.00     0.023 A 
ATOM     81  C   UNL A   1      44.459  25.646  34.444  1.00  0.00     0.031 A 
ATOM     82  C   UNL A   1      46.045  27.383  33.907  1.00  0.00     0.131 A 
ATOM     83  C   UNL A   1      45.510  24.897  34.998  1.00  0.00     0.055 A 
ATOM     84  C   UNL A   1      47.092  26.617  34.423  1.00  0.00     0.041 A 
ATOM     85  F   UNL A   1      46.346  28.585  33.390  1.00  0.00    -0.206 F 
ATOM     86  C   UNL A   1      46.826  25.367  34.975  1.00  0.00     0.022 A 
BRANCH  83  87
ATOM     87  S   UNL A   1      45.133  23.298  35.765  1.00  0.00     0.124 S 
ATOM     88  O   UNL A   1      45.504  23.535  37.157  1.00  0.00    -0.237 OA
ATOM     89  O   UNL A   1      43.705  23.150  35.503  1.00  0.00    -0.237 OA
ATOM     90  O   UNL A   1      45.992  22.359  35.045  1.00  0.00    -0.744 OA
ENDBRANCH  83  87
ENDBRANCH  57  80
ENDBRANCH  31  32
ENDBRANCH  23  26
ENDBRANCH  21  22
ENDBRANCH   1  21
TORSDOF 15
ENDMDL
MODEL 2
REMARK VINA RESULT:     -12.0      4.404      7.666
REMARK SMILES CC1=Nn2c(nnc(CCC(=O)NCCCNC(=O)c3ccc(-c4c5nc(c(-c6cc(S(=O)(=O)[O-])ccc6F)c6ccc([nH]6)c(-c6cc(S(=O)(=O)[O-])ccc6F)c6nc(c(-c7cc(S(=O)(=O)[O-])ccc7F)c7ccc4[nH]7)C=C6)C=C5)cc3)c2=O)SC1
REMARK SMILES IDX 15 1 14 2 13 3 11 4 12 5 10 7 9 8 8 9 1 10 2 11 3 12 86 13
REMARK SMILES IDX 4 14 85 15 5 16 83 17 6 18 84 19 7 20 16 21 17 22 18 23
REMARK SMILES IDX 19 25 20 26 21 27 82 28 22 29 81 30 23 31 24 32 25 33 75 34
REMARK SMILES IDX 26 35 80 36 74 37 76 38 27 39 79 40 73 41 72 42 28 44 60 45
REMARK SMILES IDX 40 46 59 47 41 48 44 49 58 50 77 51 42 52 43 53 57 55 78 56
REMARK SMILES IDX 45 57 29 58 30 59 38 60 31 61 37 62 39 63 36 64 32 65 33 66
REMARK SMILES IDX 34 67 35 68 61 69 62 70 70 71 63 72 69 73 71 74 68 75 64 76
REMARK SMILES IDX 65 77 66 78 67 79 46 80 47 81 55 82 48 83 54 84 56 85 53 86
REMARK SMILES IDX 49 87 50 88 51 89 52 90
REMARK H PARENT 13 6 17 24 76 43 44 54
REMARK Flexibility Score: inf
ROOT
ATOM      1  C   UNL A   1      33.618  35.712  28.936  1.00  0.00     0.042 C 
ENDROOT
BRANCH   1   2
ATOM      2  C   UNL A   1      32.803  35.800  30.249  1.00  0.00     0.117 C 
BRANCH   2   3
ATOM      3  N   UNL A   1      32.995  37.042  30.995  1.00  0.00    -0.356 N 
ATOM      4  C   UNL A   1      33.595  37.299  32.195  1.00  0.00     0.220 C 
ATOM      5  O   UNL A   1      33.730  38.481  32.523  1.00  0.00    -0.275 OA
ATOM      6  H   UNL A   1      32.624  37.839  30.550  1.00  0.00     0.163 HD
BRANCH   4   7
ATOM      7  C   UNL A   1      34.087  36.194  33.119  1.00  0.00     0.106 C 
BRANCH   7   8
ATOM      8  C   UNL A   1      35.188  35.346  32.477  1.00  0.00     0.074 C 
BRANCH   8   9
ATOM      9  C   UNL A   1      35.886  34.539  33.538  1.00  0.00     0.131 A 
ATOM     10  C   UNL A   1      40.583  36.467  35.930  1.00  0.00     0.064 C 
ATOM     11  C   UNL A   1      39.600  35.329  35.953  1.00  0.00     0.046 C 
ATOM     12  N   UNL A   1      39.123  35.044  34.789  1.00  0.00    -0.172 NA
ATOM     13  C   UNL A   1      39.128  34.781  37.275  1.00  0.00     0.131 C 
ATOM     14  N   UNL A   1      37.954  34.370  34.678  1.00  0.00    -0.169 N 
ATOM     15  S   UNL A   1      38.139  33.298  37.099  1.00  0.00    -0.078 SA
ATOM     16  C   UNL A   1      37.246  33.767  35.684  1.00  0.00     0.214 A 
ATOM     17  C   UNL A   1      37.377  34.459  33.437  1.00  0.00     0.296 A 
ATOM     18  N   UNL A   1      35.976  33.518  35.622  1.00  0.00    -0.123 NA
ATOM     19  O   UNL A   1      37.919  34.565  32.356  1.00  0.00    -0.265 OA
ATOM     20  N   UNL A   1      35.234  34.065  34.555  1.00  0.00    -0.147 NA
ENDBRANCH   8   9
ENDBRANCH   7   8
ENDBRANCH   4   7
ENDBRANCH   2   3
ENDBRANCH   1   2
BRANCH   1  21
ATOM     21  C   UNL A   1      34.685  34.598  28.811  1.00  0.00     0.118 C 
BRANCH  21  22
ATOM     22  N   UNL A   1      34.171  33.304  28.308  1.00  0.00    -0.352 N 
ATOM     23  C   UNL A   1      34.436  31.952  28.271  1.00  0.00     0.251 C 
ATOM     24  H   UNL A   1      33.332  33.471  27.819  1.00  0.00     0.163 HD
ATOM     25  O   UNL A   1      33.558  31.276  27.721  1.00  0.00    -0.269 OA
BRANCH  23  26
ATOM     26  C   UNL A   1      35.651  31.203  28.722  1.00  0.00     0.039 A 
ATOM     27  C   UNL A   1      36.906  31.771  28.418  1.00  0.00     0.014 A 
ATOM     28  C   UNL A   1      35.669  29.933  29.284  1.00  0.00     0.014 A 
ATOM     29  C   UNL A   1      38.128  31.150  28.773  1.00  0.00     0.010 A 
ATOM     30  C   UNL A   1      36.896  29.345  29.713  1.00  0.00     0.010 A 
ATOM     31  C   UNL A   1      38.153  29.945  29.486  1.00  0.00    -0.014 A 
BRANCH  31  32
ATOM     32  C   UNL A   1      39.457  29.309  29.938  1.00  0.00     0.031 A 
ATOM     33  C   UNL A   1      40.183  29.819  31.173  1.00  0.00     0.074 A 
ATOM     34  C   UNL A   1      40.040  28.290  29.255  1.00  0.00     0.049 A 
ATOM     35  N   UNL A   1      41.333  29.443  31.684  1.00  0.00    -0.248 NA
ATOM     36  C   UNL A   1      39.546  30.921  31.906  1.00  0.00     0.031 C 
ATOM     37  C   UNL A   1      39.527  27.682  28.026  1.00  0.00     0.029 A 
ATOM     38  N   UNL A   1      41.204  27.582  29.496  1.00  0.00    -0.354 N 
ATOM     39  C   UNL A   1      41.554  30.264  32.788  1.00  0.00     0.074 A 
ATOM     40  C   UNL A   1      40.466  31.218  32.811  1.00  0.00     0.031 C 
ATOM     41  C   UNL A   1      40.348  26.688  27.639  1.00  0.00     0.029 A 
ATOM     42  C   UNL A   1      41.465  26.583  28.576  1.00  0.00     0.049 A 
ATOM     43  H   UNL A   1      41.798  27.773  30.258  1.00  0.00     0.167 HD
ATOM     44  C   UNL A   1      42.529  30.213  33.733  1.00  0.00     0.034 A 
ATOM     45  C   UNL A   1      42.467  25.676  28.491  1.00  0.00     0.034 A 
ATOM     46  C   UNL A   1      43.598  29.247  33.764  1.00  0.00     0.049 A 
ATOM     47  C   UNL A   1      43.557  25.646  29.539  1.00  0.00     0.074 A 
ATOM     48  C   UNL A   1      44.594  29.096  34.716  1.00  0.00     0.029 A 
ATOM     49  N   UNL A   1      43.807  28.262  32.815  1.00  0.00    -0.354 N 
ATOM     50  N   UNL A   1      43.713  26.417  30.588  1.00  0.00    -0.248 NA
ATOM     51  C   UNL A   1      44.600  24.614  29.398  1.00  0.00     0.031 C 
ATOM     52  C   UNL A   1      45.428  28.046  34.321  1.00  0.00     0.029 A 
ATOM     53  C   UNL A   1      44.919  27.507  33.153  1.00  0.00     0.049 A 
ATOM     54  H   UNL A   1      43.247  28.117  32.018  1.00  0.00     0.167 HD
ATOM     55  C   UNL A   1      44.840  25.934  31.251  1.00  0.00     0.074 A 
ATOM     56  C   UNL A   1      45.333  24.810  30.486  1.00  0.00     0.031 C 
ATOM     57  C   UNL A   1      45.406  26.380  32.399  1.00  0.00     0.034 A 
BRANCH  44  58
ATOM     58  C   UNL A   1      42.458  31.219  34.857  1.00  0.00     0.023 A 
ATOM     59  C   UNL A   1      43.103  32.462  34.749  1.00  0.00     0.031 A 
ATOM     60  C   UNL A   1      41.732  30.953  36.031  1.00  0.00     0.131 A 
ATOM     61  C   UNL A   1      43.074  33.364  35.820  1.00  0.00     0.055 A 
ATOM     62  C   UNL A   1      41.642  31.887  37.066  1.00  0.00     0.041 A 
ATOM     63  F   UNL A   1      41.099  29.780  36.192  1.00  0.00    -0.206 F 
ATOM     64  C   UNL A   1      42.326  33.097  36.969  1.00  0.00     0.022 A 
BRANCH  61  65
ATOM     65  S   UNL A   1      44.110  34.847  35.727  1.00  0.00     0.124 S 
ATOM     66  O   UNL A   1      45.449  34.263  35.679  1.00  0.00    -0.237 OA
ATOM     67  O   UNL A   1      43.648  35.482  34.500  1.00  0.00    -0.237 OA
ATOM     68  O   UNL A   1      43.792  35.564  36.960  1.00  0.00    -0.744 OA
ENDBRANCH  61  65
ENDBRANCH  44  58
BRANCH  45  69
ATOM     69  C   UNL A   1      42.487  24.664  27.390  1.00  0.00     0.023 A 
ATOM     70  C   UNL A   1      41.709  23.496  27.480  1.00  0.00     0.031 A 
ATOM     71  C   UNL A   1      43.310  24.819  26.262  1.00  0.00     0.131 A 
ATOM     72  C   UNL A   1      41.789  22.517  26.476  1.00  0.00     0.055 A 
ATOM     73  C   UNL A   1      43.359  23.859  25.247  1.00  0.00     0.041 A 
ATOM     74  F   UNL A   1      44.078  25.912  26.128  1.00  0.00    -0.206 F 
ATOM     75  C   UNL A   1      42.599  22.696  25.353  1.00  0.00     0.022 A 
BRANCH  72  76
ATOM     76  S   UNL A   1      40.845  20.980  26.679  1.00  0.00     0.124 S 
ATOM     77  O   UNL A   1      39.590  21.311  26.014  1.00  0.00    -0.237 OA
ATOM     78  O   UNL A   1      41.696  20.009  26.000  1.00  0.00    -0.237 OA
ATOM     79  O   UNL A   1      40.760  20.821  28.129  1.00  0.00    -0.744 OA
ENDBRANCH  72  76
ENDBRANCH  45  69
BRANCH  57  80
ATOM     80  C   UNL A   1      46.597  25.633  32.943  1.00  0.00     0.023 A 
ATOM     81  C   UNL A   1      46.449  24.559  33.836  1.00  0.00     0.031 A 
ATOM     82  C   UNL A   1      47.893  25.962  32.507  1.00  0.00     0.131 A 
ATOM     83  C   UNL A   1      47.583  23.861  34.281  1.00  0.00     0.055 A 
ATOM     84  C   UNL A   1      49.013  25.238  32.922  1.00  0.00     0.041 A 
ATOM     85  F   UNL A   1      48.088  26.976  31.648  1.00  0.00    -0.206 F 
ATOM     86  C   UNL A   1      48.861  24.183  33.817  1.00  0.00     0.022 A 
BRANCH  83  87
ATOM     87  S   UNL A   1      47.369  22.528  35.492  1.00  0.00     0.124 S 
ATOM     88  O   UNL A   1      46.113  21.925  35.059  1.00  0.00    -0.237 OA
ATOM     89  O   UNL A   1      48.568  21.721  35.288  1.00  0.00    -0.237 OA
ATOM     90  O   UNL A   1      47.311  23.232  36.773  1.00  0.00    -0.744 OA
ENDBRANCH  83  87
ENDBRANCH  57  80
ENDBRANCH  31  32
ENDBRANCH  23  26
ENDBRANCH  21  22
ENDBRANCH   1  21
TORSDOF 15
ENDMDL
MODEL 3
REMARK VINA RESULT:     -12.0      5.000     10.374
REMARK SMILES CC1=Nn2c(nnc(CCC(=O)NCCCNC(=O)c3ccc(-c4c5nc(c(-c6cc(S(=O)(=O)[O-])ccc6F)c6ccc([nH]6)c(-c6cc(S(=O)(=O)[O-])ccc6F)c6nc(c(-c7cc(S(=O)(=O)[O-])ccc7F)c7ccc4[nH]7)C=C6)C=C5)cc3)c2=O)SC1
REMARK SMILES IDX 15 1 14 2 13 3 11 4 12 5 10 7 9 8 8 9 1 10 2 11 3 12 86 13
REMARK SMILES IDX 4 14 85 15 5 16 83 17 6 18 84 19 7 20 16 21 17 22 18 23
REMARK SMILES IDX 19 25 20 26 21 27 82 28 22 29 81 30 23 31 24 32 25 33 75 34
REMARK SMILES IDX 26 35 80 36 74 37 76 38 27 39 79 40 73 41 72 42 28 44 60 45
REMARK SMILES IDX 40 46 59 47 41 48 44 49 58 50 77 51 42 52 43 53 57 55 78 56
REMARK SMILES IDX 45 57 29 58 30 59 38 60 31 61 37 62 39 63 36 64 32 65 33 66
REMARK SMILES IDX 34 67 35 68 61 69 62 70 70 71 63 72 69 73 71 74 68 75 64 76
REMARK SMILES IDX 65 77 66 78 67 79 46 80 47 81 55 82 48 83 54 84 56 85 53 86
REMARK SMILES IDX 49 87 50 88 51 89 52 90
REMARK H PARENT 13 6 17 24 76 43 44 54
REMARK Flexibility Score: inf
ROOT
ATOM      1  C   UNL A   1      36.027  22.248  25.391  1.00  0.00     0.042 C 
ENDROOT
BRANCH   1   2
ATOM      2  C   UNL A   1      34.954  21.543  26.257  1.00  0.00     0.117 C 
BRANCH   2   3
ATOM      3  N   UNL A   1      34.341  20.377  25.625  1.00  0.00    -0.356 N 
ATOM      4  C   UNL A   1      33.326  20.262  24.717  1.00  0.00     0.220 C 
ATOM      5  O   UNL A   1      33.104  19.142  24.251  1.00  0.00    -0.275 OA
ATOM      6  H   UNL A   1      34.732  19.517  25.905  1.00  0.00     0.163 HD
BRANCH   4   7
ATOM      7  C   UNL A   1      32.481  21.449  24.278  1.00  0.00     0.106 C 
BRANCH   7   8
ATOM      8  C   UNL A   1      31.550  21.945  25.387  1.00  0.00     0.074 C 
BRANCH   8   9
ATOM      9  C   UNL A   1      30.990  23.289  25.013  1.00  0.00     0.131 A 
ATOM     10  C   UNL A   1      33.694  27.988  26.465  1.00  0.00     0.064 C 
ATOM     11  C   UNL A   1      32.490  27.472  25.727  1.00  0.00     0.046 C 
ATOM     12  N   UNL A   1      31.980  26.414  26.260  1.00  0.00    -0.172 NA
ATOM     13  C   UNL A   1      32.119  28.072  24.395  1.00  0.00     0.131 C 
ATOM     14  N   UNL A   1      31.194  25.591  25.526  1.00  0.00    -0.169 N 
ATOM     15  S   UNL A   1      30.543  27.482  23.781  1.00  0.00    -0.078 SA
ATOM     16  C   UNL A   1      30.697  25.822  24.270  1.00  0.00     0.214 A 
ATOM     17  C   UNL A   1      31.030  24.345  26.073  1.00  0.00     0.296 A 
ATOM     18  N   UNL A   1      30.328  24.883  23.458  1.00  0.00    -0.123 NA
ATOM     19  O   UNL A   1      31.012  24.028  27.245  1.00  0.00    -0.265 OA
ATOM     20  N   UNL A   1      30.627  23.546  23.794  1.00  0.00    -0.147 NA
ENDBRANCH   8   9
ENDBRANCH   7   8
ENDBRANCH   4   7
ENDBRANCH   2   3
ENDBRANCH   1   2
BRANCH   1  21
ATOM     21  C   UNL A   1      36.986  21.366  24.557  1.00  0.00     0.118 C 
BRANCH  21  22
ATOM     22  N   UNL A   1      38.159  20.854  25.301  1.00  0.00    -0.352 N 
ATOM     23  C   UNL A   1      39.194  21.237  26.128  1.00  0.00     0.251 C 
ATOM     24  H   UNL A   1      38.226  19.883  25.148  1.00  0.00     0.163 HD
ATOM     25  O   UNL A   1      39.894  20.302  26.533  1.00  0.00    -0.269 OA
BRANCH  23  26
ATOM     26  C   UNL A   1      39.633  22.609  26.536  1.00  0.00     0.039 A 
ATOM     27  C   UNL A   1      40.528  22.700  27.623  1.00  0.00     0.014 A 
ATOM     28  C   UNL A   1      39.136  23.808  26.045  1.00  0.00     0.014 A 
ATOM     29  C   UNL A   1      41.000  23.940  28.117  1.00  0.00     0.010 A 
ATOM     30  C   UNL A   1      39.672  25.054  26.488  1.00  0.00     0.010 A 
ATOM     31  C   UNL A   1      40.630  25.151  27.520  1.00  0.00    -0.014 A 
BRANCH  31  32
ATOM     32  C   UNL A   1      41.190  26.481  27.995  1.00  0.00     0.031 A 
ATOM     33  C   UNL A   1      42.643  26.850  27.735  1.00  0.00     0.074 A 
ATOM     34  C   UNL A   1      40.440  27.378  28.686  1.00  0.00     0.049 A 
ATOM     35  N   UNL A   1      43.318  27.912  28.108  1.00  0.00    -0.248 NA
ATOM     36  C   UNL A   1      43.447  25.875  26.986  1.00  0.00     0.031 C 
ATOM     37  C   UNL A   1      39.039  27.202  29.072  1.00  0.00     0.029 A 
ATOM     38  N   UNL A   1      40.754  28.626  29.196  1.00  0.00    -0.354 N 
ATOM     39  C   UNL A   1      44.619  27.728  27.646  1.00  0.00     0.074 A 
ATOM     40  C   UNL A   1      44.657  26.409  27.051  1.00  0.00     0.031 C 
ATOM     41  C   UNL A   1      38.612  28.296  29.727  1.00  0.00     0.029 A 
ATOM     42  C   UNL A   1      39.704  29.262  29.832  1.00  0.00     0.049 A 
ATOM     43  H   UNL A   1      41.649  29.027  29.114  1.00  0.00     0.167 HD
ATOM     44  C   UNL A   1      45.679  28.578  27.655  1.00  0.00     0.034 A 
ATOM     45  C   UNL A   1      39.611  30.478  30.420  1.00  0.00     0.034 A 
ATOM     46  C   UNL A   1      45.659  29.913  28.198  1.00  0.00     0.049 A 
ATOM     47  C   UNL A   1      40.806  31.405  30.443  1.00  0.00     0.074 A 
ATOM     48  C   UNL A   1      46.676  30.856  28.200  1.00  0.00     0.029 A 
ATOM     49  N   UNL A   1      44.573  30.502  28.821  1.00  0.00    -0.354 N 
ATOM     50  N   UNL A   1      42.010  31.209  29.964  1.00  0.00    -0.248 NA
ATOM     51  C   UNL A   1      40.624  32.725  31.074  1.00  0.00     0.031 C 
ATOM     52  C   UNL A   1      46.216  32.000  28.860  1.00  0.00     0.029 A 
ATOM     53  C   UNL A   1      44.897  31.790  29.219  1.00  0.00     0.049 A 
ATOM     54  H   UNL A   1      43.699  30.071  28.960  1.00  0.00     0.167 HD
ATOM     55  C   UNL A   1      42.710  32.392  30.197  1.00  0.00     0.074 A 
ATOM     56  C   UNL A   1      41.801  33.298  30.863  1.00  0.00     0.031 C 
ATOM     57  C   UNL A   1      43.990  32.699  29.874  1.00  0.00     0.034 A 
BRANCH  44  58
ATOM     58  C   UNL A   1      46.957  28.100  27.011  1.00  0.00     0.023 A 
ATOM     59  C   UNL A   1      47.105  28.114  25.614  1.00  0.00     0.031 A 
ATOM     60  C   UNL A   1      48.040  27.645  27.784  1.00  0.00     0.131 A 
ATOM     61  C   UNL A   1      48.277  27.617  25.027  1.00  0.00     0.055 A 
ATOM     62  C   UNL A   1      49.236  27.223  27.197  1.00  0.00     0.041 A 
ATOM     63  F   UNL A   1      47.954  27.605  29.124  1.00  0.00    -0.206 F 
ATOM     64  C   UNL A   1      49.354  27.196  25.809  1.00  0.00     0.022 A 
BRANCH  61  65
ATOM     65  S   UNL A   1      48.329  27.439  23.225  1.00  0.00     0.124 S 
ATOM     66  O   UNL A   1      47.103  28.129  22.830  1.00  0.00    -0.237 OA
ATOM     67  O   UNL A   1      49.577  28.106  22.875  1.00  0.00    -0.237 OA
ATOM     68  O   UNL A   1      48.317  25.992  23.024  1.00  0.00    -0.744 OA
ENDBRANCH  61  65
ENDBRANCH  44  58
BRANCH  45  69
ATOM     69  C   UNL A   1      38.318  30.941  31.012  1.00  0.00     0.023 A 
ATOM     70  C   UNL A   1      37.360  31.592  30.215  1.00  0.00     0.031 A 
ATOM     71  C   UNL A   1      38.038  30.787  32.380  1.00  0.00     0.131 A 
ATOM     72  C   UNL A   1      36.181  32.088  30.794  1.00  0.00     0.055 A 
ATOM     73  C   UNL A   1      36.846  31.250  32.946  1.00  0.00     0.041 A 
ATOM     74  F   UNL A   1      38.920  30.179  33.189  1.00  0.00    -0.206 F 
ATOM     75  C   UNL A   1      35.911  31.911  32.152  1.00  0.00     0.022 A 
BRANCH  72  76
ATOM     76  S   UNL A   1      35.017  33.010  29.750  1.00  0.00     0.124 S 
ATOM     77  O   UNL A   1      34.466  31.951  28.912  1.00  0.00    -0.237 OA
ATOM     78  O   UNL A   1      34.111  33.584  30.739  1.00  0.00    -0.237 OA
ATOM     79  O   UNL A   1      35.869  33.975  29.058  1.00  0.00    -0.744 OA
ENDBRANCH  72  76
ENDBRANCH  45  69
BRANCH  57  80
ATOM     80  C   UNL A   1      44.490  34.087  30.184  1.00  0.00     0.023 A 
ATOM     81  C   UNL A   1      44.305  35.154  29.291  1.00  0.00     0.031 A 
ATOM     82  C   UNL A   1      45.101  34.354  31.423  1.00  0.00     0.131 A 
ATOM     83  C   UNL A   1      44.745  36.440  29.641  1.00  0.00     0.055 A 
ATOM     84  C   UNL A   1      45.500  35.643  31.782  1.00  0.00     0.041 A 
ATOM     85  F   UNL A   1      45.294  33.369  32.316  1.00  0.00    -0.206 F 
ATOM     86  C   UNL A   1      45.326  36.694  30.887  1.00  0.00     0.022 A 
BRANCH  83  87
ATOM     87  S   UNL A   1      44.563  37.785  28.437  1.00  0.00     0.124 S 
ATOM     88  O   UNL A   1      44.612  37.064  27.169  1.00  0.00    -0.237 OA
ATOM     89  O   UNL A   1      43.268  38.356  28.795  1.00  0.00    -0.237 OA
ATOM     90  O   UNL A   1      45.712  38.647  28.706  1.00  0.00    -0.744 OA
ENDBRANCH  83  87
ENDBRANCH  57  80
ENDBRANCH  31  32
ENDBRANCH  23  26
ENDBRANCH  21  22
ENDBRANCH   1  21
TORSDOF 15
ENDMDL
