MODEL 1
REMARK VINA RESULT:     -12.3      0.000      0.000
REMARK SMILES CC(C)(C)OC(=O)N1CCC[C@H]1C(=O)N[C@@H](Cc1ccccc1)C(=O)NCCCNC(=O)c1ccc(-c2c3nc(c(-c4cc(S(=O)(=O)[O-])ccc4F)c4ccc([nH]4)c(-c4cc(S(=O)(=O)[O-])ccc4F)c4nc(c(-c5cc(S(=O)(=O)[O-])ccc5F)c5ccc2[nH]5)C=C4)C=C3)cc1
REMARK SMILES IDX 27 1 26 2 24 3 25 4 16 6 15 7 13 8 14 9 12 11 8 12 9 13
REMARK SMILES IDX 10 14 11 15 6 16 7 17 5 18 2 19 1 20 3 21 4 22 17 23 18 24
REMARK SMILES IDX 19 25 23 26 20 27 22 28 21 29 28 30 29 31 30 32 31 33 32 35
REMARK SMILES IDX 33 36 34 37 95 38 35 39 94 40 36 41 37 42 38 43 88 44 39 45
REMARK SMILES IDX 93 46 87 47 89 48 40 49 92 50 86 51 85 52 41 54 73 55 53 56
REMARK SMILES IDX 72 57 54 58 57 59 71 60 90 61 55 62 56 63 70 65 91 66 58 67
REMARK SMILES IDX 42 68 43 69 51 70 44 71 50 72 52 73 49 74 45 75 46 76 47 77
REMARK SMILES IDX 48 78 74 79 75 80 83 81 76 82 82 83 84 84 81 85 77 86 78 87
REMARK SMILES IDX 79 88 80 89 59 90 60 91 68 92 61 93 67 94 69 95 66 96 62 97
REMARK SMILES IDX 63 98 64 99 65 100
REMARK H PARENT 26 5 15 10 30 34 89 53 57 64
REMARK Flexibility Score: inf
ROOT
ATOM      1  C   UNL A   1      34.607  23.043  25.295  1.00  0.00     0.117 C 
ENDROOT
BRANCH   1   2
ATOM      2  N   UNL A   1      34.690  23.424  23.907  1.00  0.00    -0.354 N 
ATOM      3  C   UNL A   1      33.690  23.456  22.985  1.00  0.00     0.242 C 
ATOM      4  O   UNL A   1      33.898  24.102  21.950  1.00  0.00    -0.273 OA
ATOM      5  H   UNL A   1      35.581  23.696  23.587  1.00  0.00     0.163 HD
BRANCH   3   6
ATOM      6  C   UNL A   1      32.311  22.783  23.203  1.00  0.00     0.175 C 
BRANCH   6   7
ATOM      7  N   UNL A   1      31.147  23.657  23.030  1.00  0.00    -0.342 N 
ATOM      8  C   UNL A   1      30.804  24.828  23.648  1.00  0.00     0.243 C 
ATOM      9  O   UNL A   1      29.631  25.184  23.507  1.00  0.00    -0.273 OA
ATOM     10  H   UNL A   1      30.503  23.351  22.351  1.00  0.00     0.164 HD
BRANCH   8  11
ATOM     11  C   UNL A   1      31.852  25.699  24.401  1.00  0.00     0.178 C 
ATOM     12  N   UNL A   1      31.433  27.103  24.503  1.00  0.00    -0.296 N 
ATOM     13  C   UNL A   1      31.082  27.454  25.862  1.00  0.00     0.124 C 
ATOM     14  C   UNL A   1      32.049  26.615  26.661  1.00  0.00     0.024 C 
ATOM     15  C   UNL A   1      32.074  25.311  25.875  1.00  0.00     0.037 C 
BRANCH  12  16
ATOM     16  C   UNL A   1      31.582  27.995  23.471  1.00  0.00     0.410 C 
ATOM     17  O   UNL A   1      32.300  27.800  22.501  1.00  0.00    -0.224 OA
BRANCH  16  18
ATOM     18  O   UNL A   1      30.906  29.141  23.728  1.00  0.00    -0.444 OA
BRANCH  18  19
ATOM     19  C   UNL A   1      29.732  29.590  23.004  1.00  0.00     0.106 C 
ATOM     20  C   UNL A   1      29.236  30.807  23.802  1.00  0.00     0.056 C 
ATOM     21  C   UNL A   1      28.690  28.475  23.074  1.00  0.00     0.056 C 
ATOM     22  C   UNL A   1      29.979  30.032  21.559  1.00  0.00     0.056 C 
ENDBRANCH  18  19
ENDBRANCH  16  18
ENDBRANCH  12  16
ENDBRANCH   8  11
ENDBRANCH   6   7
BRANCH   6  23
ATOM     23  C   UNL A   1      32.135  21.383  22.544  1.00  0.00     0.070 C 
BRANCH  23  24
ATOM     24  C   UNL A   1      32.332  20.124  23.363  1.00  0.00    -0.045 A 
ATOM     25  C   UNL A   1      32.430  18.857  22.764  1.00  0.00     0.004 A 
ATOM     26  C   UNL A   1      32.437  20.211  24.760  1.00  0.00     0.004 A 
ATOM     27  C   UNL A   1      32.762  17.733  23.527  1.00  0.00     0.000 A 
ATOM     28  C   UNL A   1      32.730  19.079  25.525  1.00  0.00     0.000 A 
ATOM     29  C   UNL A   1      32.923  17.847  24.906  1.00  0.00     0.000 A 
ENDBRANCH  23  24
ENDBRANCH   6  23
ENDBRANCH   3   6
ENDBRANCH   1   2
BRANCH   1  30
ATOM     30  C   UNL A   1      35.539  21.928  25.709  1.00  0.00     0.042 C 
BRANCH  30  31
ATOM     31  C   UNL A   1      36.743  21.774  24.801  1.00  0.00     0.118 C 
BRANCH  31  32
ATOM     32  N   UNL A   1      37.636  20.693  25.209  1.00  0.00    -0.352 N 
ATOM     33  C   UNL A   1      38.869  20.706  25.821  1.00  0.00     0.251 C 
ATOM     34  H   UNL A   1      37.295  19.792  25.011  1.00  0.00     0.163 HD
ATOM     35  O   UNL A   1      39.504  19.657  25.897  1.00  0.00    -0.269 OA
BRANCH  33  36
ATOM     36  C   UNL A   1      39.448  21.965  26.345  1.00  0.00     0.039 A 
ATOM     37  C   UNL A   1      40.507  21.904  27.255  1.00  0.00     0.014 A 
ATOM     38  C   UNL A   1      38.955  23.206  25.949  1.00  0.00     0.014 A 
ATOM     39  C   UNL A   1      41.128  23.084  27.681  1.00  0.00     0.010 A 
ATOM     40  C   UNL A   1      39.657  24.363  26.257  1.00  0.00     0.010 A 
ATOM     41  C   UNL A   1      40.746  24.321  27.138  1.00  0.00    -0.014 A 
BRANCH  41  42
ATOM     42  C   UNL A   1      41.442  25.589  27.485  1.00  0.00     0.031 A 
ATOM     43  C   UNL A   1      40.726  26.635  28.301  1.00  0.00     0.074 A 
ATOM     44  C   UNL A   1      42.670  25.839  26.988  1.00  0.00     0.049 A 
ATOM     45  N   UNL A   1      41.090  27.858  28.587  1.00  0.00    -0.248 NA
ATOM     46  C   UNL A   1      39.399  26.271  28.822  1.00  0.00     0.031 C 
ATOM     47  C   UNL A   1      43.442  24.931  26.135  1.00  0.00     0.029 A 
ATOM     48  N   UNL A   1      43.482  26.937  27.116  1.00  0.00    -0.354 N 
ATOM     49  C   UNL A   1      40.025  28.416  29.288  1.00  0.00     0.074 A 
ATOM     50  C   UNL A   1      38.975  27.423  29.316  1.00  0.00     0.031 C 
ATOM     51  C   UNL A   1      44.625  25.493  25.848  1.00  0.00     0.029 A 
ATOM     52  C   UNL A   1      44.679  26.822  26.445  1.00  0.00     0.049 A 
ATOM     53  H   UNL A   1      43.233  27.732  27.639  1.00  0.00     0.167 HD
ATOM     54  C   UNL A   1      39.941  29.634  29.880  1.00  0.00     0.034 A 
ATOM     55  C   UNL A   1      45.698  27.695  26.316  1.00  0.00     0.034 A 
ATOM     56  C   UNL A   1      41.015  30.595  29.875  1.00  0.00     0.049 A 
ATOM     57  C   UNL A   1      45.589  29.038  26.993  1.00  0.00     0.074 A 
ATOM     58  C   UNL A   1      41.073  31.828  30.502  1.00  0.00     0.029 A 
ATOM     59  N   UNL A   1      42.225  30.431  29.211  1.00  0.00    -0.354 N 
ATOM     60  N   UNL A   1      44.596  29.531  27.696  1.00  0.00    -0.248 NA
ATOM     61  C   UNL A   1      46.744  29.936  26.868  1.00  0.00     0.031 C 
ATOM     62  C   UNL A   1      42.291  32.432  30.168  1.00  0.00     0.029 A 
ATOM     63  C   UNL A   1      43.024  31.548  29.392  1.00  0.00     0.049 A 
ATOM     64  H   UNL A   1      42.477  29.635  28.687  1.00  0.00     0.167 HD
ATOM     65  C   UNL A   1      45.018  30.787  28.119  1.00  0.00     0.074 A 
ATOM     66  C   UNL A   1      46.363  30.966  27.608  1.00  0.00     0.031 C 
ATOM     67  C   UNL A   1      44.359  31.710  28.866  1.00  0.00     0.034 A 
BRANCH  54  68
ATOM     68  C   UNL A   1      38.640  29.987  30.564  1.00  0.00     0.023 A 
ATOM     69  C   UNL A   1      37.615  30.675  29.891  1.00  0.00     0.031 A 
ATOM     70  C   UNL A   1      38.434  29.667  31.917  1.00  0.00     0.131 A 
ATOM     71  C   UNL A   1      36.477  31.101  30.592  1.00  0.00     0.055 A 
ATOM     72  C   UNL A   1      37.260  30.016  32.587  1.00  0.00     0.041 A 
ATOM     73  F   UNL A   1      39.383  29.028  32.621  1.00  0.00    -0.206 F 
ATOM     74  C   UNL A   1      36.279  30.752  31.928  1.00  0.00     0.022 A 
BRANCH  71  75
ATOM     75  S   UNL A   1      35.335  32.249  29.772  1.00  0.00     0.124 S 
ATOM     76  O   UNL A   1      34.418  32.578  30.861  1.00  0.00    -0.237 OA
ATOM     77  O   UNL A   1      36.223  33.321  29.339  1.00  0.00    -0.237 OA
ATOM     78  O   UNL A   1      34.754  31.446  28.698  1.00  0.00    -0.744 OA
ENDBRANCH  71  75
ENDBRANCH  54  68
BRANCH  55  79
ATOM     79  C   UNL A   1      46.906  27.337  25.520  1.00  0.00     0.023 A 
ATOM     80  C   UNL A   1      47.057  27.786  24.197  1.00  0.00     0.031 A 
ATOM     81  C   UNL A   1      47.911  26.511  26.054  1.00  0.00     0.131 A 
ATOM     82  C   UNL A   1      48.163  27.371  23.439  1.00  0.00     0.055 A 
ATOM     83  C   UNL A   1      49.035  26.144  25.312  1.00  0.00     0.041 A 
ATOM     84  F   UNL A   1      47.821  26.061  27.315  1.00  0.00    -0.206 F 
ATOM     85  C   UNL A   1      49.160  26.563  23.991  1.00  0.00     0.022 A 
BRANCH  82  86
ATOM     86  S   UNL A   1      48.239  27.840  21.688  1.00  0.00     0.124 S 
ATOM     87  O   UNL A   1      48.525  26.560  21.049  1.00  0.00    -0.237 OA
ATOM     88  O   UNL A   1      46.904  28.385  21.462  1.00  0.00    -0.237 OA
ATOM     89  O   UNL A   1      49.324  28.817  21.644  1.00  0.00    -0.744 OA
ENDBRANCH  82  86
ENDBRANCH  55  79
BRANCH  67  90
ATOM     90  C   UNL A   1      45.108  32.974  29.205  1.00  0.00     0.023 A 
ATOM     91  C   UNL A   1      45.042  34.115  28.389  1.00  0.00     0.031 A 
ATOM     92  C   UNL A   1      45.910  33.028  30.360  1.00  0.00     0.131 A 
ATOM     93  C   UNL A   1      45.808  35.245  28.707  1.00  0.00     0.055 A 
ATOM     94  C   UNL A   1      46.622  34.178  30.704  1.00  0.00     0.041 A 
ATOM     95  F   UNL A   1      46.010  31.966  31.174  1.00  0.00    -0.206 F 
ATOM     96  C   UNL A   1      46.584  35.290  29.868  1.00  0.00     0.022 A 
BRANCH  93  97
ATOM     97  S   UNL A   1      45.846  36.629  27.535  1.00  0.00     0.124 S 
ATOM     98  O   UNL A   1      44.454  37.065  27.535  1.00  0.00    -0.237 OA
ATOM     99  O   UNL A   1      46.800  37.540  28.158  1.00  0.00    -0.237 OA
ATOM    100  O   UNL A   1      46.303  36.012  26.290  1.00  0.00    -0.744 OA
ENDBRANCH  93  97
ENDBRANCH  67  90
ENDBRANCH  41  42
ENDBRANCH  33  36
ENDBRANCH  31  32
ENDBRANCH  30  31
ENDBRANCH   1  30
TORSDOF 20
ENDMDL
MODEL 2
REMARK VINA RESULT:     -12.2      5.535     10.559
REMARK SMILES CC(C)(C)OC(=O)N1CCC[C@H]1C(=O)N[C@@H](Cc1ccccc1)C(=O)NCCCNC(=O)c1ccc(-c2c3nc(c(-c4cc(S(=O)(=O)[O-])ccc4F)c4ccc([nH]4)c(-c4cc(S(=O)(=O)[O-])ccc4F)c4nc(c(-c5cc(S(=O)(=O)[O-])ccc5F)c5ccc2[nH]5)C=C4)C=C3)cc1
REMARK SMILES IDX 27 1 26 2 24 3 25 4 16 6 15 7 13 8 14 9 12 11 8 12 9 13
REMARK SMILES IDX 10 14 11 15 6 16 7 17 5 18 2 19 1 20 3 21 4 22 17 23 18 24
REMARK SMILES IDX 19 25 23 26 20 27 22 28 21 29 28 30 29 31 30 32 31 33 32 35
REMARK SMILES IDX 33 36 34 37 95 38 35 39 94 40 36 41 37 42 38 43 88 44 39 45
REMARK SMILES IDX 93 46 87 47 89 48 40 49 92 50 86 51 85 52 41 54 73 55 53 56
REMARK SMILES IDX 72 57 54 58 57 59 71 60 90 61 55 62 56 63 70 65 91 66 58 67
REMARK SMILES IDX 42 68 43 69 51 70 44 71 50 72 52 73 49 74 45 75 46 76 47 77
REMARK SMILES IDX 48 78 74 79 75 80 83 81 76 82 82 83 84 84 81 85 77 86 78 87
REMARK SMILES IDX 79 88 80 89 59 90 60 91 68 92 61 93 67 94 69 95 66 96 62 97
REMARK SMILES IDX 63 98 64 99 65 100
REMARK H PARENT 26 5 15 10 30 34 89 53 57 64
REMARK Flexibility Score: inf
ROOT
ATOM      1  C   UNL A   1      31.738  30.480  26.918  1.00  0.00     0.117 C 
ENDROOT
BRANCH   1   2
ATOM      2  N   UNL A   1      33.007  30.093  27.483  1.00  0.00    -0.354 N 
ATOM      3  C   UNL A   1      33.904  29.197  26.991  1.00  0.00     0.242 C 
ATOM      4  O   UNL A   1      35.053  29.239  27.451  1.00  0.00    -0.273 OA
ATOM      5  H   UNL A   1      33.254  30.532  28.329  1.00  0.00     0.163 HD
BRANCH   3   6
ATOM      6  C   UNL A   1      33.570  28.191  25.861  1.00  0.00     0.175 C 
BRANCH   6   7
ATOM      7  N   UNL A   1      33.678  28.715  24.496  1.00  0.00    -0.342 N 
ATOM      8  C   UNL A   1      33.556  28.095  23.284  1.00  0.00     0.243 C 
ATOM      9  O   UNL A   1      33.985  28.727  22.314  1.00  0.00    -0.273 OA
ATOM     10  H   UNL A   1      33.869  29.680  24.444  1.00  0.00     0.164 HD
BRANCH   8  11
ATOM     11  C   UNL A   1      32.838  26.722  23.130  1.00  0.00     0.178 C 
ATOM     12  N   UNL A   1      31.639  26.817  22.287  1.00  0.00    -0.296 N 
ATOM     13  C   UNL A   1      31.833  26.158  21.013  1.00  0.00     0.124 C 
ATOM     14  C   UNL A   1      32.729  25.003  21.392  1.00  0.00     0.024 C 
ATOM     15  C   UNL A   1      33.664  25.640  22.412  1.00  0.00     0.037 C 
BRANCH  12  16
ATOM     16  C   UNL A   1      30.437  27.279  22.760  1.00  0.00     0.410 C 
ATOM     17  O   UNL A   1      29.809  26.742  23.661  1.00  0.00    -0.224 OA
BRANCH  16  18
ATOM     18  O   UNL A   1      30.011  28.339  22.032  1.00  0.00    -0.444 OA
BRANCH  18  19
ATOM     19  C   UNL A   1      29.230  29.444  22.555  1.00  0.00     0.106 C 
ATOM     20  C   UNL A   1      29.277  30.503  21.441  1.00  0.00     0.056 C 
ATOM     21  C   UNL A   1      29.949  29.974  23.794  1.00  0.00     0.056 C 
ATOM     22  C   UNL A   1      27.762  29.128  22.855  1.00  0.00     0.056 C 
ENDBRANCH  18  19
ENDBRANCH  16  18
ENDBRANCH  12  16
ENDBRANCH   8  11
ENDBRANCH   6   7
BRANCH   6  23
ATOM     23  C   UNL A   1      34.182  26.768  26.025  1.00  0.00     0.070 C 
BRANCH  23  24
ATOM     24  C   UNL A   1      33.277  25.558  26.136  1.00  0.00    -0.045 A 
ATOM     25  C   UNL A   1      33.784  24.248  26.109  1.00  0.00     0.004 A 
ATOM     26  C   UNL A   1      31.892  25.733  26.287  1.00  0.00     0.004 A 
ATOM     27  C   UNL A   1      32.948  23.155  26.364  1.00  0.00     0.000 A 
ATOM     28  C   UNL A   1      31.053  24.637  26.502  1.00  0.00     0.000 A 
ATOM     29  C   UNL A   1      31.585  23.352  26.572  1.00  0.00     0.000 A 
ENDBRANCH  23  24
ENDBRANCH   6  23
ENDBRANCH   3   6
ENDBRANCH   1   2
BRANCH   1  30
ATOM     30  C   UNL A   1      31.492  31.969  26.857  1.00  0.00     0.042 C 
BRANCH  30  31
ATOM     31  C   UNL A   1      32.759  32.798  26.943  1.00  0.00     0.118 C 
BRANCH  31  32
ATOM     32  N   UNL A   1      32.585  34.037  27.696  1.00  0.00    -0.352 N 
ATOM     33  C   UNL A   1      33.233  34.534  28.804  1.00  0.00     0.251 C 
ATOM     34  H   UNL A   1      31.876  34.624  27.348  1.00  0.00     0.163 HD
ATOM     35  O   UNL A   1      32.777  35.529  29.361  1.00  0.00    -0.269 OA
BRANCH  33  36
ATOM     36  C   UNL A   1      34.437  33.864  29.348  1.00  0.00     0.039 A 
ATOM     37  C   UNL A   1      35.695  34.430  29.125  1.00  0.00     0.014 A 
ATOM     38  C   UNL A   1      34.337  32.680  30.075  1.00  0.00     0.014 A 
ATOM     39  C   UNL A   1      36.829  33.863  29.717  1.00  0.00     0.010 A 
ATOM     40  C   UNL A   1      35.436  32.201  30.776  1.00  0.00     0.010 A 
ATOM     41  C   UNL A   1      36.700  32.777  30.598  1.00  0.00    -0.014 A 
BRANCH  41  42
ATOM     42  C   UNL A   1      37.863  32.204  31.326  1.00  0.00     0.031 A 
ATOM     43  C   UNL A   1      38.677  31.107  30.689  1.00  0.00     0.074 A 
ATOM     44  C   UNL A   1      38.125  32.598  32.589  1.00  0.00     0.049 A 
ATOM     45  N   UNL A   1      39.630  30.373  31.204  1.00  0.00    -0.248 NA
ATOM     46  C   UNL A   1      38.337  30.754  29.302  1.00  0.00     0.031 C 
ATOM     47  C   UNL A   1      37.372  33.609  33.336  1.00  0.00     0.029 A 
ATOM     48  N   UNL A   1      39.090  32.188  33.474  1.00  0.00    -0.354 N 
ATOM     49  C   UNL A   1      39.975  29.454  30.218  1.00  0.00     0.074 A 
ATOM     50  C   UNL A   1      39.078  29.675  29.106  1.00  0.00     0.031 C 
ATOM     51  C   UNL A   1      37.924  33.763  34.550  1.00  0.00     0.029 A 
ATOM     52  C   UNL A   1      39.033  32.827  34.692  1.00  0.00     0.049 A 
ATOM     53  H   UNL A   1      39.760  31.500  33.258  1.00  0.00     0.167 HD
ATOM     54  C   UNL A   1      40.968  28.530  30.226  1.00  0.00     0.034 A 
ATOM     55  C   UNL A   1      39.782  32.668  35.801  1.00  0.00     0.034 A 
ATOM     56  C   UNL A   1      41.879  28.352  31.330  1.00  0.00     0.049 A 
ATOM     57  C   UNL A   1      40.888  31.644  35.784  1.00  0.00     0.074 A 
ATOM     58  C   UNL A   1      42.967  27.502  31.423  1.00  0.00     0.029 A 
ATOM     59  N   UNL A   1      41.809  29.040  32.535  1.00  0.00    -0.354 N 
ATOM     60  N   UNL A   1      41.235  30.818  34.824  1.00  0.00    -0.248 NA
ATOM     61  C   UNL A   1      41.710  31.540  36.996  1.00  0.00     0.031 C 
ATOM     62  C   UNL A   1      43.517  27.634  32.703  1.00  0.00     0.029 A 
ATOM     63  C   UNL A   1      42.818  28.617  33.386  1.00  0.00     0.049 A 
ATOM     64  H   UNL A   1      41.139  29.729  32.753  1.00  0.00     0.167 HD
ATOM     65  C   UNL A   1      42.334  30.115  35.309  1.00  0.00     0.074 A 
ATOM     66  C   UNL A   1      42.602  30.629  36.637  1.00  0.00     0.031 C 
ATOM     67  C   UNL A   1      43.061  29.136  34.710  1.00  0.00     0.034 A 
BRANCH  54  68
ATOM     68  C   UNL A   1      41.103  27.642  29.011  1.00  0.00     0.023 A 
ATOM     69  C   UNL A   1      42.123  27.836  28.063  1.00  0.00     0.031 A 
ATOM     70  C   UNL A   1      40.176  26.611  28.773  1.00  0.00     0.131 A 
ATOM     71  C   UNL A   1      42.140  27.078  26.883  1.00  0.00     0.055 A 
ATOM     72  C   UNL A   1      40.251  25.800  27.639  1.00  0.00     0.041 A 
ATOM     73  F   UNL A   1      39.167  26.388  29.630  1.00  0.00    -0.206 F 
ATOM     74  C   UNL A   1      41.228  26.042  26.677  1.00  0.00     0.022 A 
BRANCH  71  75
ATOM     75  S   UNL A   1      43.275  27.569  25.555  1.00  0.00     0.124 S 
ATOM     76  O   UNL A   1      43.998  28.674  26.181  1.00  0.00    -0.237 OA
ATOM     77  O   UNL A   1      44.043  26.350  25.329  1.00  0.00    -0.237 OA
ATOM     78  O   UNL A   1      42.381  27.956  24.466  1.00  0.00    -0.744 OA
ENDBRANCH  71  75
ENDBRANCH  54  68
BRANCH  55  79
ATOM     79  C   UNL A   1      39.518  33.488  37.017  1.00  0.00     0.023 A 
ATOM     80  C   UNL A   1      38.806  32.956  38.105  1.00  0.00     0.031 A 
ATOM     81  C   UNL A   1      39.942  34.826  37.099  1.00  0.00     0.131 A 
ATOM     82  C   UNL A   1      38.499  33.769  39.207  1.00  0.00     0.055 A 
ATOM     83  C   UNL A   1      39.679  35.616  38.220  1.00  0.00     0.041 A 
ATOM     84  F   UNL A   1      40.633  35.381  36.092  1.00  0.00    -0.206 F 
ATOM     85  C   UNL A   1      38.942  35.092  39.277  1.00  0.00     0.022 A 
BRANCH  82  86
ATOM     86  S   UNL A   1      37.441  33.094  40.516  1.00  0.00     0.124 S 
ATOM     87  O   UNL A   1      37.063  34.299  41.245  1.00  0.00    -0.237 OA
ATOM     88  O   UNL A   1      36.379  32.452  39.746  1.00  0.00    -0.237 OA
ATOM     89  O   UNL A   1      38.327  32.180  41.234  1.00  0.00    -0.744 OA
ENDBRANCH  82  86
ENDBRANCH  55  79
BRANCH  67  90
ATOM     90  C   UNL A   1      44.239  28.595  35.480  1.00  0.00     0.023 A 
ATOM     91  C   UNL A   1      44.101  27.544  36.402  1.00  0.00     0.031 A 
ATOM     92  C   UNL A   1      45.518  29.151  35.294  1.00  0.00     0.131 A 
ATOM     93  C   UNL A   1      45.211  27.118  37.145  1.00  0.00     0.055 A 
ATOM     94  C   UNL A   1      46.631  28.681  35.992  1.00  0.00     0.041 A 
ATOM     95  F   UNL A   1      45.706  30.158  34.426  1.00  0.00    -0.206 F 
ATOM     96  C   UNL A   1      46.478  27.667  36.933  1.00  0.00     0.022 A 
BRANCH  93  97
ATOM     97  S   UNL A   1      44.961  25.892  38.458  1.00  0.00     0.124 S 
ATOM     98  O   UNL A   1      44.184  24.866  37.771  1.00  0.00    -0.237 OA
ATOM     99  O   UNL A   1      46.328  25.528  38.811  1.00  0.00    -0.237 OA
ATOM    100  O   UNL A   1      44.233  26.635  39.487  1.00  0.00    -0.744 OA
ENDBRANCH  93  97
ENDBRANCH  67  90
ENDBRANCH  41  42
ENDBRANCH  33  36
ENDBRANCH  31  32
ENDBRANCH  30  31
ENDBRANCH   1  30
TORSDOF 20
ENDMDL
MODEL 3
REMARK VINA RESULT:     -12.1      2.180      3.043
REMARK SMILES CC(C)(C)OC(=O)N1CCC[C@H]1C(=O)N[C@@H](Cc1ccccc1)C(=O)NCCCNC(=O)c1ccc(-c2c3nc(c(-c4cc(S(=O)(=O)[O-])ccc4F)c4ccc([nH]4)c(-c4cc(S(=O)(=O)[O-])ccc4F)c4nc(c(-c5cc(S(=O)(=O)[O-])ccc5F)c5ccc2[nH]5)C=C4)C=C3)cc1
REMARK SMILES IDX 27 1 26 2 24 3 25 4 16 6 15 7 13 8 14 9 12 11 8 12 9 13
REMARK SMILES IDX 10 14 11 15 6 16 7 17 5 18 2 19 1 20 3 21 4 22 17 23 18 24
REMARK SMILES IDX 19 25 23 26 20 27 22 28 21 29 28 30 29 31 30 32 31 33 32 35
REMARK SMILES IDX 33 36 34 37 95 38 35 39 94 40 36 41 37 42 38 43 88 44 39 45
REMARK SMILES IDX 93 46 87 47 89 48 40 49 92 50 86 51 85 52 41 54 73 55 53 56
REMARK SMILES IDX 72 57 54 58 57 59 71 60 90 61 55 62 56 63 70 65 91 66 58 67
REMARK SMILES IDX 42 68 43 69 51 70 44 71 50 72 52 73 49 74 45 75 46 76 47 77
REMARK SMILES IDX 48 78 74 79 75 80 83 81 76 82 82 83 84 84 81 85 77 86 78 87
REMARK SMILES IDX 79 88 80 89 59 90 60 91 68 92 61 93 67 94 69 95 66 96 62 97
REMARK SMILES IDX 63 98 64 99 65 100
REMARK H PARENT 26 5 15 10 30 34 89 53 57 64
REMARK Flexibility Score: inf
ROOT
ATOM      1  C   UNL A   1      36.675  21.293  24.965  1.00  0.00     0.117 C 
ENDROOT
BRANCH   1   2
ATOM      2  N   UNL A   1      35.803  21.336  26.112  1.00  0.00    -0.354 N 
ATOM      3  C   UNL A   1      34.442  21.353  26.130  1.00  0.00     0.242 C 
ATOM      4  O   UNL A   1      33.890  21.076  27.202  1.00  0.00    -0.273 OA
ATOM      5  H   UNL A   1      36.247  21.355  26.990  1.00  0.00     0.163 HD
BRANCH   3   6
ATOM      6  C   UNL A   1      33.578  21.638  24.875  1.00  0.00     0.175 C 
BRANCH   6   7
ATOM      7  N   UNL A   1      34.104  22.659  23.965  1.00  0.00    -0.342 N 
ATOM      8  C   UNL A   1      33.585  23.860  23.568  1.00  0.00     0.243 C 
ATOM      9  O   UNL A   1      34.113  24.369  22.574  1.00  0.00    -0.273 OA
ATOM     10  H   UNL A   1      34.982  22.445  23.574  1.00  0.00     0.164 HD
BRANCH   8  11
ATOM     11  C   UNL A   1      32.465  24.581  24.374  1.00  0.00     0.178 C 
ATOM     12  N   UNL A   1      32.389  26.012  24.056  1.00  0.00    -0.296 N 
ATOM     13  C   UNL A   1      31.191  26.324  23.306  1.00  0.00     0.124 C 
ATOM     14  C   UNL A   1      30.195  25.351  23.888  1.00  0.00     0.024 C 
ATOM     15  C   UNL A   1      31.037  24.095  24.069  1.00  0.00     0.037 C 
BRANCH  12  16
ATOM     16  C   UNL A   1      33.240  26.939  24.604  1.00  0.00     0.410 C 
ATOM     17  O   UNL A   1      34.174  27.445  24.000  1.00  0.00    -0.224 OA
BRANCH  16  18
ATOM     18  O   UNL A   1      32.956  27.133  25.914  1.00  0.00    -0.444 OA
BRANCH  18  19
ATOM     19  C   UNL A   1      32.545  28.397  26.494  1.00  0.00     0.106 C 
ATOM     20  C   UNL A   1      33.838  28.981  27.087  1.00  0.00     0.056 C 
ATOM     21  C   UNL A   1      31.559  28.091  27.621  1.00  0.00     0.056 C 
ATOM     22  C   UNL A   1      31.966  29.417  25.509  1.00  0.00     0.056 C 
ENDBRANCH  18  19
ENDBRANCH  16  18
ENDBRANCH  12  16
ENDBRANCH   8  11
ENDBRANCH   6   7
BRANCH   6  23
ATOM     23  C   UNL A   1      33.027  20.381  24.140  1.00  0.00     0.070 C 
BRANCH  23  24
ATOM     24  C   UNL A   1      33.377  18.993  24.637  1.00  0.00    -0.045 A 
ATOM     25  C   UNL A   1      32.523  18.274  25.491  1.00  0.00     0.004 A 
ATOM     26  C   UNL A   1      34.576  18.388  24.230  1.00  0.00     0.004 A 
ATOM     27  C   UNL A   1      32.797  16.941  25.813  1.00  0.00     0.000 A 
ATOM     28  C   UNL A   1      34.867  17.068  24.587  1.00  0.00     0.000 A 
ATOM     29  C   UNL A   1      33.963  16.335  25.351  1.00  0.00     0.000 A 
ENDBRANCH  23  24
ENDBRANCH   6  23
ENDBRANCH   3   6
ENDBRANCH   1   2
BRANCH   1  30
ATOM     30  C   UNL A   1      37.745  20.229  25.014  1.00  0.00     0.042 C 
BRANCH  30  31
ATOM     31  C   UNL A   1      39.007  20.669  25.728  1.00  0.00     0.118 C 
BRANCH  31  32
ATOM     32  N   UNL A   1      39.975  19.590  25.906  1.00  0.00    -0.352 N 
ATOM     33  C   UNL A   1      41.335  19.605  26.114  1.00  0.00     0.251 C 
ATOM     34  H   UNL A   1      39.583  18.688  25.871  1.00  0.00     0.163 HD
ATOM     35  O   UNL A   1      41.956  18.546  26.053  1.00  0.00    -0.269 OA
BRANCH  33  36
ATOM     36  C   UNL A   1      42.055  20.874  26.367  1.00  0.00     0.039 A 
ATOM     37  C   UNL A   1      42.254  21.770  25.312  1.00  0.00     0.014 A 
ATOM     38  C   UNL A   1      42.539  21.189  27.635  1.00  0.00     0.014 A 
ATOM     39  C   UNL A   1      42.843  23.015  25.559  1.00  0.00     0.010 A 
ATOM     40  C   UNL A   1      42.991  22.474  27.906  1.00  0.00     0.010 A 
ATOM     41  C   UNL A   1      43.162  23.401  26.871  1.00  0.00    -0.014 A 
BRANCH  41  42
ATOM     42  C   UNL A   1      43.697  24.751  27.193  1.00  0.00     0.031 A 
ATOM     43  C   UNL A   1      42.778  25.805  27.756  1.00  0.00     0.074 A 
ATOM     44  C   UNL A   1      44.975  25.057  26.890  1.00  0.00     0.049 A 
ATOM     45  N   UNL A   1      43.002  27.076  27.966  1.00  0.00    -0.248 NA
ATOM     46  C   UNL A   1      41.406  25.380  28.078  1.00  0.00     0.031 C 
ATOM     47  C   UNL A   1      45.947  24.142  26.286  1.00  0.00     0.029 A 
ATOM     48  N   UNL A   1      45.675  26.228  27.036  1.00  0.00    -0.354 N 
ATOM     49  C   UNL A   1      41.793  27.605  28.409  1.00  0.00     0.074 A 
ATOM     50  C   UNL A   1      40.824  26.533  28.364  1.00  0.00     0.031 C 
ATOM     51  C   UNL A   1      47.122  24.773  26.146  1.00  0.00     0.029 A 
ATOM     52  C   UNL A   1      46.978  26.152  26.597  1.00  0.00     0.049 A 
ATOM     53  H   UNL A   1      45.283  27.045  27.419  1.00  0.00     0.167 HD
ATOM     54  C   UNL A   1      41.522  28.862  28.843  1.00  0.00     0.034 A 
ATOM     55  C   UNL A   1      47.942  27.093  26.550  1.00  0.00     0.034 A 
ATOM     56  C   UNL A   1      42.512  29.907  28.918  1.00  0.00     0.049 A 
ATOM     57  C   UNL A   1      47.624  28.479  27.049  1.00  0.00     0.074 A 
ATOM     58  C   UNL A   1      42.374  31.194  29.408  1.00  0.00     0.029 A 
ATOM     59  N   UNL A   1      43.830  29.784  28.493  1.00  0.00    -0.354 N 
ATOM     60  N   UNL A   1      46.489  28.950  27.513  1.00  0.00    -0.248 NA
ATOM     61  C   UNL A   1      48.719  29.457  27.027  1.00  0.00     0.031 C 
ATOM     62  C   UNL A   1      43.588  31.865  29.225  1.00  0.00     0.029 A 
ATOM     63  C   UNL A   1      44.507  30.977  28.687  1.00  0.00     0.049 A 
ATOM     64  H   UNL A   1      44.225  28.967  28.110  1.00  0.00     0.167 HD
ATOM     65  C   UNL A   1      46.743  30.273  27.864  1.00  0.00     0.074 A 
ATOM     66  C   UNL A   1      48.143  30.516  27.575  1.00  0.00     0.031 C 
ATOM     67  C   UNL A   1      45.900  31.202  28.382  1.00  0.00     0.034 A 
BRANCH  54  68
ATOM     68  C   UNL A   1      40.099  29.166  29.251  1.00  0.00     0.023 A 
ATOM     69  C   UNL A   1      39.707  29.193  30.601  1.00  0.00     0.031 A 
ATOM     70  C   UNL A   1      39.109  29.392  28.278  1.00  0.00     0.131 A 
ATOM     71  C   UNL A   1      38.354  29.349  30.937  1.00  0.00     0.055 A 
ATOM     72  C   UNL A   1      37.778  29.636  28.623  1.00  0.00     0.041 A 
ATOM     73  F   UNL A   1      39.415  29.359  26.971  1.00  0.00    -0.206 F 
ATOM     74  C   UNL A   1      37.391  29.598  29.959  1.00  0.00     0.022 A 
BRANCH  71  75
ATOM     75  S   UNL A   1      37.853  29.065  32.658  1.00  0.00     0.124 S 
ATOM     76  O   UNL A   1      36.482  29.573  32.651  1.00  0.00    -0.237 OA
ATOM     77  O   UNL A   1      37.998  27.621  32.795  1.00  0.00    -0.237 OA
ATOM     78  O   UNL A   1      38.802  29.865  33.428  1.00  0.00    -0.744 OA
ENDBRANCH  71  75
ENDBRANCH  54  68
BRANCH  55  79
ATOM     79  C   UNL A   1      49.295  26.765  26.017  1.00  0.00     0.023 A 
ATOM     80  C   UNL A   1      49.734  27.295  24.792  1.00  0.00     0.031 A 
ATOM     81  C   UNL A   1      50.156  25.890  26.703  1.00  0.00     0.131 A 
ATOM     82  C   UNL A   1      50.979  26.911  24.269  1.00  0.00     0.055 A 
ATOM     83  C   UNL A   1      51.415  25.551  26.203  1.00  0.00     0.041 A 
ATOM     84  F   UNL A   1      49.789  25.362  27.881  1.00  0.00    -0.206 F 
ATOM     85  C   UNL A   1      51.827  26.052  24.972  1.00  0.00     0.022 A 
BRANCH  82  86
ATOM     86  S   UNL A   1      51.439  27.488  22.613  1.00  0.00     0.124 S 
ATOM     87  O   UNL A   1      52.859  27.158  22.565  1.00  0.00    -0.237 OA
ATOM     88  O   UNL A   1      50.566  26.688  21.759  1.00  0.00    -0.237 OA
ATOM     89  O   UNL A   1      51.131  28.916  22.652  1.00  0.00    -0.744 OA
ENDBRANCH  82  86
ENDBRANCH  55  79
BRANCH  67  90
ATOM     90  C   UNL A   1      46.490  32.552  28.707  1.00  0.00     0.023 A 
ATOM     91  C   UNL A   1      46.442  33.618  27.794  1.00  0.00     0.031 A 
ATOM     92  C   UNL A   1      47.118  32.766  29.946  1.00  0.00     0.131 A 
ATOM     93  C   UNL A   1      47.062  34.835  28.110  1.00  0.00     0.055 A 
ATOM     94  C   UNL A   1      47.680  33.999  30.280  1.00  0.00     0.041 A 
ATOM     95  F   UNL A   1      47.193  31.781  30.855  1.00  0.00    -0.206 F 
ATOM     96  C   UNL A   1      47.665  35.038  29.354  1.00  0.00     0.022 A 
BRANCH  93  97
ATOM     97  S   UNL A   1      47.146  36.126  26.839  1.00  0.00     0.124 S 
ATOM     98  O   UNL A   1      46.134  35.681  25.887  1.00  0.00    -0.237 OA
ATOM     99  O   UNL A   1      46.825  37.331  27.595  1.00  0.00    -0.237 OA
ATOM    100  O   UNL A   1      48.526  36.045  26.360  1.00  0.00    -0.744 OA
ENDBRANCH  93  97
ENDBRANCH  67  90
ENDBRANCH  41  42
ENDBRANCH  33  36
ENDBRANCH  31  32
ENDBRANCH  30  31
ENDBRANCH   1  30
TORSDOF 20
ENDMDL
