MODEL 1
REMARK VINA RESULT:     -11.4      0.000      0.000
REMARK SMILES CCOC(=O)[C@H](C)NC(=O)N1CC[C@H](C(=O)NCCCNC(=O)c2ccc(-c3c4nc(c(-c5cc(S(=O)(=O)[O-])ccc5F)c5ccc([nH]5)c(-c5cc(S(=O)(=O)[O-])ccc5F)c5nc(c(-c6cc(S(=O)(=O)[O-])ccc6F)c6ccc3[nH]6)C=C5)C=C4)cc2)[C@@H]1C
REMARK SMILES IDX 18 1 17 2 15 3 16 4 14 6 11 7 12 8 87 9 13 10 88 11 9 12
REMARK SMILES IDX 8 13 10 15 6 16 7 17 4 18 5 19 3 20 2 21 1 22 19 23 20 24
REMARK SMILES IDX 21 25 22 26 23 28 24 29 25 30 86 31 26 32 85 33 27 34 28 35
REMARK SMILES IDX 29 36 79 37 30 38 84 39 78 40 80 41 31 42 83 43 77 44 76 45
REMARK SMILES IDX 32 47 64 48 44 49 63 50 45 51 48 52 62 53 81 54 46 55 47 56
REMARK SMILES IDX 61 58 82 59 49 60 33 61 34 62 42 63 35 64 41 65 43 66 40 67
REMARK SMILES IDX 36 68 37 69 38 70 39 71 65 72 66 73 74 74 67 75 73 76 75 77
REMARK SMILES IDX 72 78 68 79 69 80 70 81 71 82 50 83 51 84 59 85 52 86 58 87
REMARK SMILES IDX 60 88 57 89 53 90 54 91 55 92 56 93
REMARK H PARENT 17 5 8 14 21 27 80 46 48 57
REMARK Flexibility Score: inf
ROOT
ATOM      1  C   UNL A   1      31.814  30.520  25.906  1.00  0.00     0.117 C 
ENDROOT
BRANCH   1   2
ATOM      2  N   UNL A   1      31.024  30.392  24.693  1.00  0.00    -0.356 N 
ATOM      3  C   UNL A   1      30.730  29.283  23.950  1.00  0.00     0.225 C 
ATOM      4  O   UNL A   1      29.999  29.425  22.974  1.00  0.00    -0.275 OA
ATOM      5  H   UNL A   1      30.642  31.234  24.354  1.00  0.00     0.163 HD
BRANCH   3   6
ATOM      6  C   UNL A   1      31.240  27.937  24.437  1.00  0.00     0.102 C 
ATOM      7  N   UNL A   1      32.428  26.249  23.232  1.00  0.00    -0.321 N 
ATOM      8  C   UNL A   1      31.068  26.241  22.744  1.00  0.00     0.122 C 
ATOM      9  C   UNL A   1      32.657  27.471  24.018  1.00  0.00     0.096 C 
ATOM     10  C   UNL A   1      30.298  26.842  23.903  1.00  0.00     0.037 C 
ATOM     11  C   UNL A   1      33.533  28.471  23.271  1.00  0.00     0.032 C 
BRANCH   7  12
ATOM     12  C   UNL A   1      33.328  25.368  22.722  1.00  0.00     0.318 C 
ATOM     13  N   UNL A   1      33.773  24.340  23.466  1.00  0.00    -0.325 N 
ATOM     14  H   UNL A   1      34.681  24.028  23.242  1.00  0.00     0.166 HD
ATOM     15  O   UNL A   1      33.735  25.443  21.561  1.00  0.00    -0.249 OA
BRANCH  13  16
ATOM     16  C   UNL A   1      33.127  23.613  24.555  1.00  0.00     0.190 C 
ATOM     17  C   UNL A   1      31.886  22.880  24.044  1.00  0.00     0.043 C 
BRANCH  16  18
ATOM     18  C   UNL A   1      34.146  22.647  25.146  1.00  0.00     0.328 C 
ATOM     19  O   UNL A   1      34.230  22.356  26.339  1.00  0.00    -0.250 OA
BRANCH  18  20
ATOM     20  O   UNL A   1      34.862  22.069  24.141  1.00  0.00    -0.464 OA
BRANCH  20  21
ATOM     21  C   UNL A   1      36.269  21.908  24.364  1.00  0.00     0.229 C 
ATOM     22  C   UNL A   1      36.921  23.276  24.371  1.00  0.00     0.049 C 
ENDBRANCH  20  21
ENDBRANCH  18  20
ENDBRANCH  16  18
ENDBRANCH  13  16
ENDBRANCH   7  12
ENDBRANCH   3   6
ENDBRANCH   1   2
BRANCH   1  23
ATOM     23  C   UNL A   1      31.539  31.829  26.641  1.00  0.00     0.042 C 
BRANCH  23  24
ATOM     24  C   UNL A   1      32.781  32.488  27.238  1.00  0.00     0.118 C 
BRANCH  24  25
ATOM     25  N   UNL A   1      32.555  33.872  27.629  1.00  0.00    -0.352 N 
ATOM     26  C   UNL A   1      33.143  34.633  28.609  1.00  0.00     0.251 C 
ATOM     27  H   UNL A   1      31.867  34.339  27.103  1.00  0.00     0.163 HD
ATOM     28  O   UNL A   1      32.663  35.734  28.868  1.00  0.00    -0.269 OA
BRANCH  26  29
ATOM     29  C   UNL A   1      34.314  34.136  29.365  1.00  0.00     0.039 A 
ATOM     30  C   UNL A   1      34.090  33.411  30.538  1.00  0.00     0.014 A 
ATOM     31  C   UNL A   1      35.623  34.403  28.953  1.00  0.00     0.014 A 
ATOM     32  C   UNL A   1      35.173  32.896  31.256  1.00  0.00     0.010 A 
ATOM     33  C   UNL A   1      36.698  33.826  29.627  1.00  0.00     0.010 A 
ATOM     34  C   UNL A   1      36.485  33.063  30.785  1.00  0.00    -0.014 A 
BRANCH  34  35
ATOM     35  C   UNL A   1      37.635  32.427  31.485  1.00  0.00     0.031 A 
ATOM     36  C   UNL A   1      38.381  31.285  30.850  1.00  0.00     0.074 A 
ATOM     37  C   UNL A   1      37.977  32.854  32.717  1.00  0.00     0.049 A 
ATOM     38  N   UNL A   1      39.378  30.583  31.325  1.00  0.00    -0.248 NA
ATOM     39  C   UNL A   1      37.931  30.862  29.516  1.00  0.00     0.031 C 
ATOM     40  C   UNL A   1      37.303  33.925  33.455  1.00  0.00     0.029 A 
ATOM     41  N   UNL A   1      38.968  32.440  33.571  1.00  0.00    -0.354 N 
ATOM     42  C   UNL A   1      39.670  29.630  30.355  1.00  0.00     0.074 A 
ATOM     43  C   UNL A   1      38.701  29.808  29.292  1.00  0.00     0.031 C 
ATOM     44  C   UNL A   1      37.920  34.104  34.634  1.00  0.00     0.029 A 
ATOM     45  C   UNL A   1      38.999  33.131  34.760  1.00  0.00     0.049 A 
ATOM     46  H   UNL A   1      39.599  31.716  33.352  1.00  0.00     0.167 HD
ATOM     47  C   UNL A   1      40.667  28.710  30.340  1.00  0.00     0.034 A 
ATOM     48  C   UNL A   1      39.799  32.991  35.837  1.00  0.00     0.034 A 
ATOM     49  C   UNL A   1      41.629  28.547  31.405  1.00  0.00     0.049 A 
ATOM     50  C   UNL A   1      40.879  31.939  35.810  1.00  0.00     0.074 A 
ATOM     51  C   UNL A   1      42.707  27.683  31.469  1.00  0.00     0.029 A 
ATOM     52  N   UNL A   1      41.621  29.257  32.600  1.00  0.00    -0.354 N 
ATOM     53  N   UNL A   1      41.175  31.083  34.859  1.00  0.00    -0.248 NA
ATOM     54  C   UNL A   1      41.739  31.846  36.996  1.00  0.00     0.031 C 
ATOM     55  C   UNL A   1      43.306  27.816  32.726  1.00  0.00     0.029 A 
ATOM     56  C   UNL A   1      42.654  28.823  33.419  1.00  0.00     0.049 A 
ATOM     57  H   UNL A   1      40.977  29.965  32.831  1.00  0.00     0.167 HD
ATOM     58  C   UNL A   1      42.276  30.368  35.324  1.00  0.00     0.074 A 
ATOM     59  C   UNL A   1      42.601  30.910  36.628  1.00  0.00     0.031 C 
ATOM     60  C   UNL A   1      42.959  29.358  34.727  1.00  0.00     0.034 A 
BRANCH  47  61
ATOM     61  C   UNL A   1      40.749  27.791  29.141  1.00  0.00     0.023 A 
ATOM     62  C   UNL A   1      41.684  28.000  28.111  1.00  0.00     0.031 A 
ATOM     63  C   UNL A   1      39.868  26.702  29.014  1.00  0.00     0.131 A 
ATOM     64  C   UNL A   1      41.665  27.186  26.970  1.00  0.00     0.055 A 
ATOM     65  C   UNL A   1      39.912  25.842  27.914  1.00  0.00     0.041 A 
ATOM     66  F   UNL A   1      38.939  26.461  29.953  1.00  0.00    -0.206 F 
ATOM     67  C   UNL A   1      40.804  26.091  26.876  1.00  0.00     0.022 A 
BRANCH  64  68
ATOM     68  S   UNL A   1      42.682  27.667  25.546  1.00  0.00     0.124 S 
ATOM     69  O   UNL A   1      41.961  28.838  25.053  1.00  0.00    -0.237 OA
ATOM     70  O   UNL A   1      43.979  27.927  26.159  1.00  0.00    -0.237 OA
ATOM     71  O   UNL A   1      42.626  26.496  24.674  1.00  0.00    -0.744 OA
ENDBRANCH  64  68
ENDBRANCH  47  61
BRANCH  48  72
ATOM     72  C   UNL A   1      39.608  33.856  37.038  1.00  0.00     0.023 A 
ATOM     73  C   UNL A   1      38.963  33.369  38.185  1.00  0.00     0.031 A 
ATOM     74  C   UNL A   1      40.030  35.198  37.038  1.00  0.00     0.131 A 
ATOM     75  C   UNL A   1      38.712  34.230  39.265  1.00  0.00     0.055 A 
ATOM     76  C   UNL A   1      39.830  36.034  38.137  1.00  0.00     0.041 A 
ATOM     77  F   UNL A   1      40.656  35.713  35.968  1.00  0.00    -0.206 F 
ATOM     78  C   UNL A   1      39.154  35.555  39.254  1.00  0.00     0.022 A 
BRANCH  75  79
ATOM     79  S   UNL A   1      37.718  33.616  40.652  1.00  0.00     0.124 S 
ATOM     80  O   UNL A   1      37.404  34.851  41.362  1.00  0.00    -0.237 OA
ATOM     81  O   UNL A   1      36.606  32.969  39.963  1.00  0.00    -0.237 OA
ATOM     82  O   UNL A   1      38.630  32.709  41.348  1.00  0.00    -0.744 OA
ENDBRANCH  75  79
ENDBRANCH  48  72
BRANCH  60  83
ATOM     83  C   UNL A   1      44.151  28.804  35.470  1.00  0.00     0.023 A 
ATOM     84  C   UNL A   1      44.032  27.718  36.357  1.00  0.00     0.031 A 
ATOM     85  C   UNL A   1      45.421  29.387  35.309  1.00  0.00     0.131 A 
ATOM     86  C   UNL A   1      45.146  27.293  37.097  1.00  0.00     0.055 A 
ATOM     87  C   UNL A   1      46.540  28.916  35.997  1.00  0.00     0.041 A 
ATOM     88  F   UNL A   1      45.595  30.428  34.479  1.00  0.00    -0.206 F 
ATOM     89  C   UNL A   1      46.403  27.873  36.909  1.00  0.00     0.022 A 
BRANCH  86  90
ATOM     90  S   UNL A   1      44.907  26.045  38.390  1.00  0.00     0.124 S 
ATOM     91  O   UNL A   1      43.785  26.599  39.142  1.00  0.00    -0.237 OA
ATOM     92  O   UNL A   1      44.621  24.842  37.614  1.00  0.00    -0.237 OA
ATOM     93  O   UNL A   1      46.184  26.035  39.099  1.00  0.00    -0.744 OA
ENDBRANCH  86  90
ENDBRANCH  60  83
ENDBRANCH  34  35
ENDBRANCH  26  29
ENDBRANCH  24  25
ENDBRANCH  23  24
ENDBRANCH   1  23
TORSDOF 18
ENDMDL
MODEL 2
REMARK VINA RESULT:     -11.0      1.686      7.757
REMARK SMILES CCOC(=O)[C@H](C)NC(=O)N1CC[C@H](C(=O)NCCCNC(=O)c2ccc(-c3c4nc(c(-c5cc(S(=O)(=O)[O-])ccc5F)c5ccc([nH]5)c(-c5cc(S(=O)(=O)[O-])ccc5F)c5nc(c(-c6cc(S(=O)(=O)[O-])ccc6F)c6ccc3[nH]6)C=C5)C=C4)cc2)[C@@H]1C
REMARK SMILES IDX 18 1 17 2 15 3 16 4 14 6 11 7 12 8 87 9 13 10 88 11 9 12
REMARK SMILES IDX 8 13 10 15 6 16 7 17 4 18 5 19 3 20 2 21 1 22 19 23 20 24
REMARK SMILES IDX 21 25 22 26 23 28 24 29 25 30 86 31 26 32 85 33 27 34 28 35
REMARK SMILES IDX 29 36 79 37 30 38 84 39 78 40 80 41 31 42 83 43 77 44 76 45
REMARK SMILES IDX 32 47 64 48 44 49 63 50 45 51 48 52 62 53 81 54 46 55 47 56
REMARK SMILES IDX 61 58 82 59 49 60 33 61 34 62 42 63 35 64 41 65 43 66 40 67
REMARK SMILES IDX 36 68 37 69 38 70 39 71 65 72 66 73 74 74 67 75 73 76 75 77
REMARK SMILES IDX 72 78 68 79 69 80 70 81 71 82 50 83 51 84 59 85 52 86 58 87
REMARK SMILES IDX 60 88 57 89 53 90 54 91 55 92 56 93
REMARK H PARENT 17 5 8 14 21 27 80 46 48 57
REMARK Flexibility Score: inf
ROOT
ATOM      1  C   UNL A   1      31.776  30.483  26.121  1.00  0.00     0.117 C 
ENDROOT
BRANCH   1   2
ATOM      2  N   UNL A   1      31.019  30.464  24.880  1.00  0.00    -0.356 N 
ATOM      3  C   UNL A   1      30.794  29.439  24.005  1.00  0.00     0.225 C 
ATOM      4  O   UNL A   1      30.078  29.662  23.033  1.00  0.00    -0.275 OA
ATOM      5  H   UNL A   1      30.603  31.322  24.633  1.00  0.00     0.163 HD
BRANCH   3   6
ATOM      6  C   UNL A   1      31.359  28.070  24.343  1.00  0.00     0.102 C 
ATOM      7  N   UNL A   1      32.471  26.503  22.922  1.00  0.00    -0.321 N 
ATOM      8  C   UNL A   1      31.078  26.507  22.541  1.00  0.00     0.122 C 
ATOM      9  C   UNL A   1      32.745  27.664  23.783  1.00  0.00     0.096 C 
ATOM     10  C   UNL A   1      30.392  27.001  23.799  1.00  0.00     0.037 C 
ATOM     11  C   UNL A   1      33.547  28.736  23.052  1.00  0.00     0.032 C 
BRANCH   7  12
ATOM     12  C   UNL A   1      33.340  25.682  22.277  1.00  0.00     0.318 C 
ATOM     13  N   UNL A   1      33.827  24.586  22.889  1.00  0.00    -0.325 N 
ATOM     14  H   UNL A   1      34.719  24.303  22.584  1.00  0.00     0.166 HD
ATOM     15  O   UNL A   1      33.683  25.874  21.109  1.00  0.00    -0.249 OA
BRANCH  13  16
ATOM     16  C   UNL A   1      33.242  23.751  23.934  1.00  0.00     0.190 C 
ATOM     17  C   UNL A   1      33.604  22.283  23.709  1.00  0.00     0.043 C 
BRANCH  16  18
ATOM     18  C   UNL A   1      33.750  24.255  25.278  1.00  0.00     0.328 C 
ATOM     19  O   UNL A   1      34.765  24.934  25.437  1.00  0.00    -0.250 OA
BRANCH  18  20
ATOM     20  O   UNL A   1      32.850  23.944  26.253  1.00  0.00    -0.464 OA
BRANCH  20  21
ATOM     21  C   UNL A   1      31.791  24.884  26.476  1.00  0.00     0.229 C 
ATOM     22  C   UNL A   1      30.466  24.151  26.415  1.00  0.00     0.049 C 
ENDBRANCH  20  21
ENDBRANCH  18  20
ENDBRANCH  16  18
ENDBRANCH  13  16
ENDBRANCH   7  12
ENDBRANCH   3   6
ENDBRANCH   1   2
BRANCH   1  23
ATOM     23  C   UNL A   1      31.592  31.787  26.891  1.00  0.00     0.042 C 
BRANCH  23  24
ATOM     24  C   UNL A   1      32.898  32.492  27.256  1.00  0.00     0.118 C 
BRANCH  24  25
ATOM     25  N   UNL A   1      32.691  33.839  27.767  1.00  0.00    -0.352 N 
ATOM     26  C   UNL A   1      33.311  34.514  28.789  1.00  0.00     0.251 C 
ATOM     27  H   UNL A   1      31.990  34.350  27.302  1.00  0.00     0.163 HD
ATOM     28  O   UNL A   1      32.845  35.591  29.153  1.00  0.00    -0.269 OA
BRANCH  26  29
ATOM     29  C   UNL A   1      34.501  33.952  29.467  1.00  0.00     0.039 A 
ATOM     30  C   UNL A   1      34.316  33.234  30.652  1.00  0.00     0.014 A 
ATOM     31  C   UNL A   1      35.792  34.151  28.970  1.00  0.00     0.014 A 
ATOM     32  C   UNL A   1      35.414  32.659  31.296  1.00  0.00     0.010 A 
ATOM     33  C   UNL A   1      36.877  33.514  29.572  1.00  0.00     0.010 A 
ATOM     34  C   UNL A   1      36.700  32.758  30.741  1.00  0.00    -0.014 A 
BRANCH  34  35
ATOM     35  C   UNL A   1      37.857  32.059  31.363  1.00  0.00     0.031 A 
ATOM     36  C   UNL A   1      38.380  32.491  32.706  1.00  0.00     0.074 A 
ATOM     37  C   UNL A   1      38.466  31.062  30.691  1.00  0.00     0.049 A 
ATOM     38  N   UNL A   1      39.401  32.029  33.383  1.00  0.00    -0.248 NA
ATOM     39  C   UNL A   1      37.678  33.603  33.362  1.00  0.00     0.031 C 
ATOM     40  C   UNL A   1      38.077  30.580  29.362  1.00  0.00     0.029 A 
ATOM     41  N   UNL A   1      39.540  30.276  31.024  1.00  0.00    -0.354 N 
ATOM     42  C   UNL A   1      39.470  32.798  34.540  1.00  0.00     0.074 A 
ATOM     43  C   UNL A   1      38.424  33.796  34.440  1.00  0.00     0.031 C 
ATOM     44  C   UNL A   1      38.880  29.563  29.011  1.00  0.00     0.029 A 
ATOM     45  C   UNL A   1      39.871  29.351  30.060  1.00  0.00     0.049 A 
ATOM     46  H   UNL A   1      40.029  30.365  31.874  1.00  0.00     0.167 HD
ATOM     47  C   UNL A   1      40.310  32.669  35.598  1.00  0.00     0.034 A 
ATOM     48  C   UNL A   1      40.865  28.442  30.019  1.00  0.00     0.034 A 
ATOM     49  C   UNL A   1      41.345  31.666  35.685  1.00  0.00     0.049 A 
ATOM     50  C   UNL A   1      41.806  28.338  31.193  1.00  0.00     0.074 A 
ATOM     51  C   UNL A   1      42.217  31.415  36.731  1.00  0.00     0.029 A 
ATOM     52  N   UNL A   1      41.659  30.754  34.684  1.00  0.00    -0.354 N 
ATOM     53  N   UNL A   1      41.821  29.038  32.304  1.00  0.00    -0.248 NA
ATOM     54  C   UNL A   1      42.855  27.314  31.110  1.00  0.00     0.031 C 
ATOM     55  C   UNL A   1      43.101  30.406  36.336  1.00  0.00     0.029 A 
ATOM     56  C   UNL A   1      42.731  29.966  35.075  1.00  0.00     0.049 A 
ATOM     57  H   UNL A   1      41.187  30.679  33.823  1.00  0.00     0.167 HD
ATOM     58  C   UNL A   1      42.865  28.517  33.064  1.00  0.00     0.074 A 
ATOM     59  C   UNL A   1      43.437  27.432  32.293  1.00  0.00     0.031 C 
ATOM     60  C   UNL A   1      43.308  28.898  34.290  1.00  0.00     0.034 A 
BRANCH  47  61
ATOM     61  C   UNL A   1      40.157  33.656  36.734  1.00  0.00     0.023 A 
ATOM     62  C   UNL A   1      41.044  34.733  36.902  1.00  0.00     0.031 A 
ATOM     63  C   UNL A   1      39.121  33.507  37.675  1.00  0.00     0.131 A 
ATOM     64  C   UNL A   1      40.929  35.570  38.022  1.00  0.00     0.055 A 
ATOM     65  C   UNL A   1      38.960  34.396  38.740  1.00  0.00     0.041 A 
ATOM     66  F   UNL A   1      38.254  32.486  37.581  1.00  0.00    -0.206 F 
ATOM     67  C   UNL A   1      39.877  35.426  38.928  1.00  0.00     0.022 A 
BRANCH  64  68
ATOM     68  S   UNL A   1      42.260  36.757  38.356  1.00  0.00     0.124 S 
ATOM     69  O   UNL A   1      42.643  37.157  37.003  1.00  0.00    -0.237 OA
ATOM     70  O   UNL A   1      41.584  37.772  39.155  1.00  0.00    -0.237 OA
ATOM     71  O   UNL A   1      43.257  35.961  39.069  1.00  0.00    -0.744 OA
ENDBRANCH  64  68
ENDBRANCH  47  61
BRANCH  48  72
ATOM     72  C   UNL A   1      41.035  27.560  28.827  1.00  0.00     0.023 A 
ATOM     73  C   UNL A   1      42.036  27.816  27.876  1.00  0.00     0.031 A 
ATOM     74  C   UNL A   1      40.170  26.475  28.598  1.00  0.00     0.131 A 
ATOM     75  C   UNL A   1      42.115  27.029  26.716  1.00  0.00     0.055 A 
ATOM     76  C   UNL A   1      40.290  25.661  27.472  1.00  0.00     0.041 A 
ATOM     77  F   UNL A   1      39.199  26.184  29.479  1.00  0.00    -0.206 F 
ATOM     78  C   UNL A   1      41.258  25.945  26.515  1.00  0.00     0.022 A 
BRANCH  75  79
ATOM     79  S   UNL A   1      43.301  27.501  25.427  1.00  0.00     0.124 S 
ATOM     80  O   UNL A   1      44.138  28.463  26.133  1.00  0.00    -0.237 OA
ATOM     81  O   UNL A   1      43.923  26.220  25.105  1.00  0.00    -0.237 OA
ATOM     82  O   UNL A   1      42.453  28.061  24.375  1.00  0.00    -0.744 OA
ENDBRANCH  75  79
ENDBRANCH  48  72
BRANCH  60  83
ATOM     83  C   UNL A   1      44.447  28.103  34.884  1.00  0.00     0.023 A 
ATOM     84  C   UNL A   1      44.225  26.902  35.582  1.00  0.00     0.031 A 
ATOM     85  C   UNL A   1      45.770  28.566  34.771  1.00  0.00     0.131 A 
ATOM     86  C   UNL A   1      45.300  26.241  36.197  1.00  0.00     0.055 A 
ATOM     87  C   UNL A   1      46.843  27.868  35.327  1.00  0.00     0.041 A 
ATOM     88  F   UNL A   1      46.042  29.708  34.120  1.00  0.00    -0.206 F 
ATOM     89  C   UNL A   1      46.610  26.706  36.057  1.00  0.00     0.022 A 
BRANCH  86  90
ATOM     90  S   UNL A   1      44.950  24.824  37.273  1.00  0.00     0.124 S 
ATOM     91  O   UNL A   1      43.848  25.328  38.087  1.00  0.00    -0.237 OA
ATOM     92  O   UNL A   1      44.607  23.780  36.313  1.00  0.00    -0.237 OA
ATOM     93  O   UNL A   1      46.207  24.618  37.989  1.00  0.00    -0.744 OA
ENDBRANCH  86  90
ENDBRANCH  60  83
ENDBRANCH  34  35
ENDBRANCH  26  29
ENDBRANCH  24  25
ENDBRANCH  23  24
ENDBRANCH   1  23
TORSDOF 18
ENDMDL
MODEL 3
REMARK VINA RESULT:     -11.0      1.547      1.892
REMARK SMILES CCOC(=O)[C@H](C)NC(=O)N1CC[C@H](C(=O)NCCCNC(=O)c2ccc(-c3c4nc(c(-c5cc(S(=O)(=O)[O-])ccc5F)c5ccc([nH]5)c(-c5cc(S(=O)(=O)[O-])ccc5F)c5nc(c(-c6cc(S(=O)(=O)[O-])ccc6F)c6ccc3[nH]6)C=C5)C=C4)cc2)[C@@H]1C
REMARK SMILES IDX 18 1 17 2 15 3 16 4 14 6 11 7 12 8 87 9 13 10 88 11 9 12
REMARK SMILES IDX 8 13 10 15 6 16 7 17 4 18 5 19 3 20 2 21 1 22 19 23 20 24
REMARK SMILES IDX 21 25 22 26 23 28 24 29 25 30 86 31 26 32 85 33 27 34 28 35
REMARK SMILES IDX 29 36 79 37 30 38 84 39 78 40 80 41 31 42 83 43 77 44 76 45
REMARK SMILES IDX 32 47 64 48 44 49 63 50 45 51 48 52 62 53 81 54 46 55 47 56
REMARK SMILES IDX 61 58 82 59 49 60 33 61 34 62 42 63 35 64 41 65 43 66 40 67
REMARK SMILES IDX 36 68 37 69 38 70 39 71 65 72 66 73 74 74 67 75 73 76 75 77
REMARK SMILES IDX 72 78 68 79 69 80 70 81 71 82 50 83 51 84 59 85 52 86 58 87
REMARK SMILES IDX 60 88 57 89 53 90 54 91 55 92 56 93
REMARK H PARENT 17 5 8 14 21 27 80 46 48 57
REMARK Flexibility Score: inf
ROOT
ATOM      1  C   UNL A   1      31.219  30.827  25.972  1.00  0.00     0.117 C 
ENDROOT
BRANCH   1   2
ATOM      2  N   UNL A   1      30.637  30.747  24.642  1.00  0.00    -0.356 N 
ATOM      3  C   UNL A   1      30.534  29.681  23.793  1.00  0.00     0.225 C 
ATOM      4  O   UNL A   1      29.955  29.854  22.724  1.00  0.00    -0.275 OA
ATOM      5  H   UNL A   1      30.258  31.589  24.302  1.00  0.00     0.163 HD
BRANCH   3   6
ATOM      6  C   UNL A   1      31.048  28.332  24.267  1.00  0.00     0.102 C 
ATOM      7  N   UNL A   1      32.360  26.718  23.090  1.00  0.00    -0.321 N 
ATOM      8  C   UNL A   1      31.037  26.693  22.511  1.00  0.00     0.122 C 
ATOM      9  C   UNL A   1      32.502  27.917  23.931  1.00  0.00     0.096 C 
ATOM     10  C   UNL A   1      30.174  27.232  23.635  1.00  0.00     0.037 C 
ATOM     11  C   UNL A   1      33.397  28.965  23.279  1.00  0.00     0.032 C 
BRANCH   7  12
ATOM     12  C   UNL A   1      33.316  25.880  22.613  1.00  0.00     0.318 C 
ATOM     13  N   UNL A   1      33.853  24.935  23.407  1.00  0.00    -0.325 N 
ATOM     14  H   UNL A   1      34.778  24.680  23.181  1.00  0.00     0.166 HD
ATOM     15  O   UNL A   1      33.697  25.915  21.441  1.00  0.00    -0.249 OA
BRANCH  13  16
ATOM     16  C   UNL A   1      33.284  24.228  24.550  1.00  0.00     0.190 C 
ATOM     17  C   UNL A   1      32.202  23.250  24.088  1.00  0.00     0.043 C 
BRANCH  16  18
ATOM     18  C   UNL A   1      34.417  23.511  25.272  1.00  0.00     0.328 C 
ATOM     19  O   UNL A   1      35.501  24.018  25.560  1.00  0.00    -0.250 OA
BRANCH  18  20
ATOM     20  O   UNL A   1      34.002  22.270  25.654  1.00  0.00    -0.464 OA
BRANCH  20  21
ATOM     21  C   UNL A   1      34.874  21.175  25.343  1.00  0.00     0.229 C 
ATOM     22  C   UNL A   1      34.047  20.036  24.783  1.00  0.00     0.049 C 
ENDBRANCH  20  21
ENDBRANCH  18  20
ENDBRANCH  16  18
ENDBRANCH  13  16
ENDBRANCH   7  12
ENDBRANCH   3   6
ENDBRANCH   1   2
BRANCH   1  23
ATOM     23  C   UNL A   1      31.272  32.259  26.494  1.00  0.00     0.042 C 
BRANCH  23  24
ATOM     24  C   UNL A   1      32.654  32.706  26.968  1.00  0.00     0.118 C 
BRANCH  24  25
ATOM     25  N   UNL A   1      32.637  34.009  27.616  1.00  0.00    -0.352 N 
ATOM     26  C   UNL A   1      33.394  34.505  28.649  1.00  0.00     0.251 C 
ATOM     27  H   UNL A   1      31.973  34.639  27.253  1.00  0.00     0.163 HD
ATOM     28  O   UNL A   1      33.079  35.585  29.144  1.00  0.00    -0.269 OA
BRANCH  26  29
ATOM     29  C   UNL A   1      34.549  33.750  29.184  1.00  0.00     0.039 A 
ATOM     30  C   UNL A   1      35.836  34.218  28.906  1.00  0.00     0.014 A 
ATOM     31  C   UNL A   1      34.381  32.576  29.923  1.00  0.00     0.014 A 
ATOM     32  C   UNL A   1      36.947  33.551  29.427  1.00  0.00     0.010 A 
ATOM     33  C   UNL A   1      35.486  31.954  30.504  1.00  0.00     0.010 A 
ATOM     34  C   UNL A   1      36.782  32.436  30.265  1.00  0.00    -0.014 A 
BRANCH  34  35
ATOM     35  C   UNL A   1      37.954  31.784  30.910  1.00  0.00     0.031 A 
ATOM     36  C   UNL A   1      38.754  30.745  30.172  1.00  0.00     0.074 A 
ATOM     37  C   UNL A   1      38.268  32.098  32.183  1.00  0.00     0.049 A 
ATOM     38  N   UNL A   1      39.778  30.042  30.586  1.00  0.00    -0.248 NA
ATOM     39  C   UNL A   1      38.332  30.440  28.798  1.00  0.00     0.031 C 
ATOM     40  C   UNL A   1      37.542  33.060  33.017  1.00  0.00     0.029 A 
ATOM     41  N   UNL A   1      39.271  31.644  33.002  1.00  0.00    -0.354 N 
ATOM     42  C   UNL A   1      40.119  29.206  29.528  1.00  0.00     0.074 A 
ATOM     43  C   UNL A   1      39.150  29.448  28.478  1.00  0.00     0.031 C 
ATOM     44  C   UNL A   1      38.143  33.146  34.215  1.00  0.00     0.029 A 
ATOM     45  C   UNL A   1      39.263  32.212  34.255  1.00  0.00     0.049 A 
ATOM     46  H   UNL A   1      39.934  30.974  32.719  1.00  0.00     0.167 HD
ATOM     47  C   UNL A   1      41.156  28.336  29.432  1.00  0.00     0.034 A 
ATOM     48  C   UNL A   1      40.061  31.999  35.321  1.00  0.00     0.034 A 
ATOM     49  C   UNL A   1      42.116  28.109  30.486  1.00  0.00     0.049 A 
ATOM     50  C   UNL A   1      41.187  31.004  35.201  1.00  0.00     0.074 A 
ATOM     51  C   UNL A   1      43.232  27.290  30.475  1.00  0.00     0.029 A 
ATOM     52  N   UNL A   1      42.069  28.693  31.746  1.00  0.00    -0.354 N 
ATOM     53  N   UNL A   1      41.527  30.262  34.172  1.00  0.00    -0.248 NA
ATOM     54  C   UNL A   1      42.042  30.828  36.381  1.00  0.00     0.031 C 
ATOM     55  C   UNL A   1      43.815  27.321  31.746  1.00  0.00     0.029 A 
ATOM     56  C   UNL A   1      43.114  28.225  32.529  1.00  0.00     0.049 A 
ATOM     57  H   UNL A   1      41.393  29.346  32.040  1.00  0.00     0.167 HD
ATOM     58  C   UNL A   1      42.655  29.552  34.575  1.00  0.00     0.074 A 
ATOM     59  C   UNL A   1      42.947  29.974  35.931  1.00  0.00     0.031 C 
ATOM     60  C   UNL A   1      43.386  28.637  33.887  1.00  0.00     0.034 A 
BRANCH  47  61
ATOM     61  C   UNL A   1      41.286  27.547  28.148  1.00  0.00     0.023 A 
ATOM     62  C   UNL A   1      40.939  26.186  28.077  1.00  0.00     0.031 A 
ATOM     63  C   UNL A   1      41.785  28.158  26.982  1.00  0.00     0.131 A 
ATOM     64  C   UNL A   1      41.166  25.464  26.897  1.00  0.00     0.055 A 
ATOM     65  C   UNL A   1      41.927  27.453  25.785  1.00  0.00     0.041 A 
ATOM     66  F   UNL A   1      42.153  29.449  26.990  1.00  0.00    -0.206 F 
ATOM     67  C   UNL A   1      41.631  26.094  25.742  1.00  0.00     0.022 A 
BRANCH  64  68
ATOM     68  S   UNL A   1      40.981  23.659  26.938  1.00  0.00     0.124 S 
ATOM     69  O   UNL A   1      39.582  23.499  26.550  1.00  0.00    -0.237 OA
ATOM     70  O   UNL A   1      41.970  23.220  25.962  1.00  0.00    -0.237 OA
ATOM     71  O   UNL A   1      41.278  23.317  28.328  1.00  0.00    -0.744 OA
ENDBRANCH  64  68
ENDBRANCH  47  61
BRANCH  48  72
ATOM     72  C   UNL A   1      39.824  32.730  36.601  1.00  0.00     0.023 A 
ATOM     73  C   UNL A   1      38.859  32.287  37.519  1.00  0.00     0.031 A 
ATOM     74  C   UNL A   1      40.529  33.909  36.903  1.00  0.00     0.131 A 
ATOM     75  C   UNL A   1      38.589  33.043  38.670  1.00  0.00     0.055 A 
ATOM     76  C   UNL A   1      40.297  34.626  38.077  1.00  0.00     0.041 A 
ATOM     77  F   UNL A   1      41.466  34.374  36.062  1.00  0.00    -0.206 F 
ATOM     78  C   UNL A   1      39.312  34.202  38.962  1.00  0.00     0.022 A 
BRANCH  75  79
ATOM     79  S   UNL A   1      37.213  32.538  39.738  1.00  0.00     0.124 S 
ATOM     80  O   UNL A   1      37.275  33.541  40.795  1.00  0.00    -0.237 OA
ATOM     81  O   UNL A   1      36.075  32.630  38.829  1.00  0.00    -0.237 OA
ATOM     82  O   UNL A   1      37.578  31.181  40.141  1.00  0.00    -0.744 OA
ENDBRANCH  75  79
ENDBRANCH  48  72
BRANCH  60  83
ATOM     83  C   UNL A   1      44.597  28.064  34.585  1.00  0.00     0.023 A 
ATOM     84  C   UNL A   1      44.531  26.863  35.314  1.00  0.00     0.031 A 
ATOM     85  C   UNL A   1      45.829  28.742  34.541  1.00  0.00     0.131 A 
ATOM     86  C   UNL A   1      45.655  26.412  36.024  1.00  0.00     0.055 A 
ATOM     87  C   UNL A   1      46.961  28.253  35.192  1.00  0.00     0.041 A 
ATOM     88  F   UNL A   1      45.950  29.895  33.864  1.00  0.00    -0.206 F 
ATOM     89  C   UNL A   1      46.875  27.089  35.951  1.00  0.00     0.022 A 
BRANCH  86  90
ATOM     90  S   UNL A   1      45.473  24.987  37.130  1.00  0.00     0.124 S 
ATOM     91  O   UNL A   1      44.250  24.368  36.626  1.00  0.00    -0.237 OA
ATOM     92  O   UNL A   1      46.707  24.245  36.890  1.00  0.00    -0.237 OA
ATOM     93  O   UNL A   1      45.361  25.593  38.455  1.00  0.00    -0.744 OA
ENDBRANCH  86  90
ENDBRANCH  60  83
ENDBRANCH  34  35
ENDBRANCH  26  29
ENDBRANCH  24  25
ENDBRANCH  23  24
ENDBRANCH   1  23
TORSDOF 18
ENDMDL
