MODEL 1
REMARK VINA RESULT:     -12.9      0.000      0.000
REMARK SMILES O=C(Cn1c2c(sc1=O)C[C@H](c1ccccc1)CC2)NCCCNC(=O)c1ccc(-c2c3nc(c(-c4cc(S(=O)(=O)[O-])ccc4F)c4ccc([nH]4)c(-c4cc(S(=O)(=O)[O-])ccc4F)c4nc(c(-c5cc(S(=O)(=O)[O-])ccc5F)c5ccc2[nH]5)C=C4)C=C3)cc1
REMARK SMILES IDX 22 1 21 2 20 3 1 4 2 5 3 7 4 8 5 9 8 10 6 11 19 12 7 13 9 14
REMARK SMILES IDX 10 15 18 16 11 17 12 18 13 19 17 20 14 21 16 22 15 23 23 24
REMARK SMILES IDX 24 25 25 26 26 28 27 29 28 30 89 31 29 32 88 33 30 34 31 35
REMARK SMILES IDX 32 36 82 37 33 38 87 39 81 40 83 41 34 42 86 43 80 44 79 45
REMARK SMILES IDX 35 47 67 48 47 49 66 50 48 51 51 52 65 53 84 54 49 55 50 56
REMARK SMILES IDX 64 58 85 59 52 60 36 61 37 62 45 63 38 64 44 65 46 66 43 67
REMARK SMILES IDX 39 68 40 69 41 70 42 71 68 72 69 73 77 74 70 75 76 76 78 77
REMARK SMILES IDX 75 78 71 79 72 80 73 81 74 82 53 83 54 84 62 85 55 86 61 87
REMARK SMILES IDX 63 88 60 89 56 90 57 91 58 92 59 93
REMARK H PARENT 20 6 24 27 83 46 51 57
REMARK Flexibility Score: inf
ROOT
ATOM      1  C   UNL A   1      33.772  29.226  26.298  1.00  0.00     0.042 C 
ENDROOT
BRANCH   1   2
ATOM      2  C   UNL A   1      33.732  28.267  25.110  1.00  0.00     0.117 C 
BRANCH   2   3
ATOM      3  N   UNL A   1      32.424  27.687  24.847  1.00  0.00    -0.354 N 
ATOM      4  O   UNL A   1      32.961  26.831  22.795  1.00  0.00    -0.273 OA
ATOM      5  C   UNL A   1      32.203  26.862  23.766  1.00  0.00     0.240 C 
ATOM      6  H   UNL A   1      31.677  27.891  25.456  1.00  0.00     0.163 HD
BRANCH   5   7
ATOM      7  C   UNL A   1      30.862  26.107  23.741  1.00  0.00     0.226 C 
BRANCH   7   8
ATOM      8  N   UNL A   1      30.723  24.899  24.554  1.00  0.00    -0.293 N 
ATOM      9  C   UNL A   1      31.287  23.678  24.184  1.00  0.00     0.036 A 
ATOM     10  C   UNL A   1      30.440  24.995  25.915  1.00  0.00     0.308 A 
ATOM     11  C   UNL A   1      31.379  22.795  25.191  1.00  0.00     0.030 A 
ATOM     12  C   UNL A   1      31.872  23.415  22.828  1.00  0.00     0.056 C 
ATOM     13  S   UNL A   1      30.719  23.420  26.666  1.00  0.00    -0.079 S 
ATOM     14  O   UNL A   1      30.070  25.977  26.545  1.00  0.00    -0.257 OA
ATOM     15  C   UNL A   1      32.129  21.502  25.118  1.00  0.00     0.057 C 
ATOM     16  C   UNL A   1      32.532  22.023  22.706  1.00  0.00     0.015 C 
ATOM     17  C   UNL A   1      33.222  21.538  24.008  1.00  0.00     0.025 C 
BRANCH  17  18
ATOM     18  C   UNL A   1      34.478  22.311  24.432  1.00  0.00    -0.045 A 
ATOM     19  C   UNL A   1      35.476  22.598  23.483  1.00  0.00     0.004 A 
ATOM     20  C   UNL A   1      34.687  22.780  25.738  1.00  0.00     0.004 A 
ATOM     21  C   UNL A   1      36.672  23.225  23.847  1.00  0.00     0.000 A 
ATOM     22  C   UNL A   1      35.886  23.396  26.109  1.00  0.00     0.000 A 
ATOM     23  C   UNL A   1      36.887  23.602  25.168  1.00  0.00     0.000 A 
ENDBRANCH  17  18
ENDBRANCH   7   8
ENDBRANCH   5   7
ENDBRANCH   2   3
ENDBRANCH   1   2
BRANCH   1  24
ATOM     24  C   UNL A   1      34.898  28.922  27.274  1.00  0.00     0.118 C 
BRANCH  24  25
ATOM     25  N   UNL A   1      35.115  29.965  28.278  1.00  0.00    -0.352 N 
ATOM     26  C   UNL A   1      36.196  30.083  29.138  1.00  0.00     0.251 C 
ATOM     27  H   UNL A   1      34.419  30.657  28.351  1.00  0.00     0.163 HD
ATOM     28  O   UNL A   1      36.109  30.747  30.165  1.00  0.00    -0.269 OA
BRANCH  26  29
ATOM     29  C   UNL A   1      37.457  29.399  28.780  1.00  0.00     0.039 A 
ATOM     30  C   UNL A   1      38.176  29.721  27.628  1.00  0.00     0.014 A 
ATOM     31  C   UNL A   1      37.939  28.438  29.669  1.00  0.00     0.014 A 
ATOM     32  C   UNL A   1      39.426  29.128  27.434  1.00  0.00     0.010 A 
ATOM     33  C   UNL A   1      39.231  27.985  29.561  1.00  0.00     0.010 A 
ATOM     34  C   UNL A   1      39.966  28.282  28.424  1.00  0.00    -0.014 A 
BRANCH  34  35
ATOM     35  C   UNL A   1      41.378  27.879  28.397  1.00  0.00     0.031 A 
ATOM     36  C   UNL A   1      41.570  26.621  27.625  1.00  0.00     0.074 A 
ATOM     37  C   UNL A   1      42.409  28.659  28.811  1.00  0.00     0.049 A 
ATOM     38  N   UNL A   1      41.776  25.438  28.102  1.00  0.00    -0.248 NA
ATOM     39  C   UNL A   1      41.261  26.617  26.181  1.00  0.00     0.031 C 
ATOM     40  C   UNL A   1      42.330  30.037  29.315  1.00  0.00     0.029 A 
ATOM     41  N   UNL A   1      43.763  28.440  28.800  1.00  0.00    -0.354 N 
ATOM     42  C   UNL A   1      41.983  24.629  26.990  1.00  0.00     0.074 A 
ATOM     43  C   UNL A   1      41.379  25.318  25.886  1.00  0.00     0.031 C 
ATOM     44  C   UNL A   1      43.561  30.600  29.340  1.00  0.00     0.029 A 
ATOM     45  C   UNL A   1      44.549  29.580  29.031  1.00  0.00     0.049 A 
ATOM     46  H   UNL A   1      44.155  27.550  28.642  1.00  0.00     0.167 HD
ATOM     47  C   UNL A   1      42.966  23.684  27.022  1.00  0.00     0.034 A 
ATOM     48  C   UNL A   1      45.911  29.687  29.026  1.00  0.00     0.034 A 
ATOM     49  C   UNL A   1      43.403  23.479  28.385  1.00  0.00     0.049 A 
ATOM     50  C   UNL A   1      46.432  28.330  29.289  1.00  0.00     0.074 A 
ATOM     51  C   UNL A   1      42.893  22.899  29.526  1.00  0.00     0.029 A 
ATOM     52  N   UNL A   1      44.383  24.356  28.779  1.00  0.00    -0.354 N 
ATOM     53  N   UNL A   1      46.237  27.711  30.421  1.00  0.00    -0.248 NA
ATOM     54  C   UNL A   1      46.809  27.477  28.169  1.00  0.00     0.031 C 
ATOM     55  C   UNL A   1      43.487  23.591  30.624  1.00  0.00     0.029 A 
ATOM     56  C   UNL A   1      44.409  24.517  30.138  1.00  0.00     0.049 A 
ATOM     57  H   UNL A   1      44.994  24.815  28.157  1.00  0.00     0.167 HD
ATOM     58  C   UNL A   1      46.023  26.397  30.060  1.00  0.00     0.074 A 
ATOM     59  C   UNL A   1      46.561  26.279  28.708  1.00  0.00     0.031 C 
ATOM     60  C   UNL A   1      45.133  25.621  30.744  1.00  0.00     0.034 A 
BRANCH  47  61
ATOM     61  C   UNL A   1      43.893  23.348  25.862  1.00  0.00     0.023 A 
ATOM     62  C   UNL A   1      43.952  22.000  25.445  1.00  0.00     0.031 A 
ATOM     63  C   UNL A   1      44.915  24.185  25.355  1.00  0.00     0.131 A 
ATOM     64  C   UNL A   1      45.004  21.536  24.631  1.00  0.00     0.055 A 
ATOM     65  C   UNL A   1      45.928  23.729  24.507  1.00  0.00     0.041 A 
ATOM     66  F   UNL A   1      45.060  25.462  25.722  1.00  0.00    -0.206 F 
ATOM     67  C   UNL A   1      45.991  22.395  24.156  1.00  0.00     0.022 A 
BRANCH  64  68
ATOM     68  S   UNL A   1      45.151  19.758  24.310  1.00  0.00     0.124 S 
ATOM     69  O   UNL A   1      46.596  19.565  24.341  1.00  0.00    -0.237 OA
ATOM     70  O   UNL A   1      44.398  19.189  25.425  1.00  0.00    -0.237 OA
ATOM     71  O   UNL A   1      44.529  19.598  22.997  1.00  0.00    -0.744 OA
ENDBRANCH  64  68
ENDBRANCH  47  61
BRANCH  48  72
ATOM     72  C   UNL A   1      46.788  30.801  28.546  1.00  0.00     0.023 A 
ATOM     73  C   UNL A   1      46.420  31.738  27.544  1.00  0.00     0.031 A 
ATOM     74  C   UNL A   1      47.929  31.121  29.312  1.00  0.00     0.131 A 
ATOM     75  C   UNL A   1      47.173  32.932  27.363  1.00  0.00     0.055 A 
ATOM     76  C   UNL A   1      48.653  32.306  29.141  1.00  0.00     0.041 A 
ATOM     77  F   UNL A   1      48.324  30.329  30.322  1.00  0.00    -0.206 F 
ATOM     78  C   UNL A   1      48.272  33.221  28.173  1.00  0.00     0.022 A 
BRANCH  75  79
ATOM     79  S   UNL A   1      46.707  34.177  26.102  1.00  0.00     0.124 S 
ATOM     80  O   UNL A   1      46.350  35.332  26.917  1.00  0.00    -0.237 OA
ATOM     81  O   UNL A   1      47.923  34.290  25.307  1.00  0.00    -0.237 OA
ATOM     82  O   UNL A   1      45.579  33.553  25.405  1.00  0.00    -0.744 OA
ENDBRANCH  75  79
ENDBRANCH  48  72
BRANCH  60  83
ATOM     83  C   UNL A   1      44.850  25.977  32.183  1.00  0.00     0.023 A 
ATOM     84  C   UNL A   1      43.733  26.700  32.660  1.00  0.00     0.031 A 
ATOM     85  C   UNL A   1      45.783  25.516  33.128  1.00  0.00     0.131 A 
ATOM     86  C   UNL A   1      43.594  26.936  34.045  1.00  0.00     0.055 A 
ATOM     87  C   UNL A   1      45.630  25.731  34.494  1.00  0.00     0.041 A 
ATOM     88  F   UNL A   1      46.866  24.826  32.732  1.00  0.00    -0.206 F 
ATOM     89  C   UNL A   1      44.535  26.448  34.957  1.00  0.00     0.022 A 
BRANCH  86  90
ATOM     90  S   UNL A   1      42.204  27.924  34.691  1.00  0.00     0.124 S 
ATOM     91  O   UNL A   1      41.031  27.129  34.353  1.00  0.00    -0.237 OA
ATOM     92  O   UNL A   1      42.521  28.021  36.114  1.00  0.00    -0.237 OA
ATOM     93  O   UNL A   1      42.315  29.188  33.958  1.00  0.00    -0.744 OA
ENDBRANCH  86  90
ENDBRANCH  60  83
ENDBRANCH  34  35
ENDBRANCH  26  29
ENDBRANCH  24  25
ENDBRANCH   1  24
TORSDOF 15
ENDMDL
MODEL 2
REMARK VINA RESULT:     -12.9      3.149      8.287
REMARK SMILES O=C(Cn1c2c(sc1=O)C[C@H](c1ccccc1)CC2)NCCCNC(=O)c1ccc(-c2c3nc(c(-c4cc(S(=O)(=O)[O-])ccc4F)c4ccc([nH]4)c(-c4cc(S(=O)(=O)[O-])ccc4F)c4nc(c(-c5cc(S(=O)(=O)[O-])ccc5F)c5ccc2[nH]5)C=C4)C=C3)cc1
REMARK SMILES IDX 22 1 21 2 20 3 1 4 2 5 3 7 4 8 5 9 8 10 6 11 19 12 7 13 9 14
REMARK SMILES IDX 10 15 18 16 11 17 12 18 13 19 17 20 14 21 16 22 15 23 23 24
REMARK SMILES IDX 24 25 25 26 26 28 27 29 28 30 89 31 29 32 88 33 30 34 31 35
REMARK SMILES IDX 32 36 82 37 33 38 87 39 81 40 83 41 34 42 86 43 80 44 79 45
REMARK SMILES IDX 35 47 67 48 47 49 66 50 48 51 51 52 65 53 84 54 49 55 50 56
REMARK SMILES IDX 64 58 85 59 52 60 36 61 37 62 45 63 38 64 44 65 46 66 43 67
REMARK SMILES IDX 39 68 40 69 41 70 42 71 68 72 69 73 77 74 70 75 76 76 78 77
REMARK SMILES IDX 75 78 71 79 72 80 73 81 74 82 53 83 54 84 62 85 55 86 61 87
REMARK SMILES IDX 63 88 60 89 56 90 57 91 58 92 59 93
REMARK H PARENT 20 6 24 27 83 46 51 57
REMARK Flexibility Score: inf
ROOT
ATOM      1  C   UNL A   1      36.966  20.877  24.864  1.00  0.00     0.042 C 
ENDROOT
BRANCH   1   2
ATOM      2  C   UNL A   1      35.960  21.869  25.446  1.00  0.00     0.117 C 
BRANCH   2   3
ATOM      3  N   UNL A   1      34.634  21.802  24.852  1.00  0.00    -0.354 N 
ATOM      4  O   UNL A   1      33.722  23.458  26.140  1.00  0.00    -0.273 OA
ATOM      5  C   UNL A   1      33.663  22.736  25.143  1.00  0.00     0.240 C 
ATOM      6  H   UNL A   1      34.424  21.071  24.227  1.00  0.00     0.163 HD
BRANCH   5   7
ATOM      7  C   UNL A   1      32.401  22.712  24.263  1.00  0.00     0.226 C 
BRANCH   7   8
ATOM      8  N   UNL A   1      32.228  23.763  23.260  1.00  0.00    -0.293 N 
ATOM      9  C   UNL A   1      31.363  24.842  23.447  1.00  0.00     0.036 A 
ATOM     10  C   UNL A   1      33.218  23.999  22.309  1.00  0.00     0.308 A 
ATOM     11  C   UNL A   1      31.596  25.873  22.621  1.00  0.00     0.030 A 
ATOM     12  C   UNL A   1      30.357  24.912  24.558  1.00  0.00     0.056 C 
ATOM     13  S   UNL A   1      32.889  25.544  21.517  1.00  0.00    -0.079 S 
ATOM     14  O   UNL A   1      34.184  23.300  22.030  1.00  0.00    -0.257 OA
ATOM     15  C   UNL A   1      30.958  27.222  22.749  1.00  0.00     0.057 C 
ATOM     16  C   UNL A   1      29.598  26.256  24.612  1.00  0.00     0.015 C 
ATOM     17  C   UNL A   1      30.458  27.480  24.202  1.00  0.00     0.025 C 
BRANCH  17  18
ATOM     18  C   UNL A   1      31.591  27.860  25.165  1.00  0.00    -0.045 A 
ATOM     19  C   UNL A   1      32.817  28.323  24.653  1.00  0.00     0.004 A 
ATOM     20  C   UNL A   1      31.468  27.793  26.561  1.00  0.00     0.004 A 
ATOM     21  C   UNL A   1      33.901  28.600  25.492  1.00  0.00     0.000 A 
ATOM     22  C   UNL A   1      32.552  28.057  27.402  1.00  0.00     0.000 A 
ATOM     23  C   UNL A   1      33.775  28.442  26.868  1.00  0.00     0.000 A 
ENDBRANCH  17  18
ENDBRANCH   7   8
ENDBRANCH   5   7
ENDBRANCH   2   3
ENDBRANCH   1   2
BRANCH   1  24
ATOM     24  C   UNL A   1      38.388  21.119  25.341  1.00  0.00     0.118 C 
BRANCH  24  25
ATOM     25  N   UNL A   1      39.167  19.895  25.540  1.00  0.00    -0.352 N 
ATOM     26  C   UNL A   1      40.509  19.805  25.876  1.00  0.00     0.251 C 
ATOM     27  H   UNL A   1      38.686  19.044  25.423  1.00  0.00     0.163 HD
ATOM     28  O   UNL A   1      41.142  18.778  25.655  1.00  0.00    -0.269 OA
BRANCH  26  29
ATOM     29  C   UNL A   1      41.153  20.972  26.516  1.00  0.00     0.039 A 
ATOM     30  C   UNL A   1      41.799  21.963  25.775  1.00  0.00     0.014 A 
ATOM     31  C   UNL A   1      41.052  21.078  27.903  1.00  0.00     0.014 A 
ATOM     32  C   UNL A   1      42.259  23.101  26.442  1.00  0.00     0.010 A 
ATOM     33  C   UNL A   1      41.354  22.263  28.528  1.00  0.00     0.010 A 
ATOM     34  C   UNL A   1      42.004  23.263  27.820  1.00  0.00    -0.014 A 
BRANCH  34  35
ATOM     35  C   UNL A   1      42.206  24.554  28.488  1.00  0.00     0.031 A 
ATOM     36  C   UNL A   1      41.088  25.495  28.201  1.00  0.00     0.074 A 
ATOM     37  C   UNL A   1      43.152  24.794  29.431  1.00  0.00     0.049 A 
ATOM     38  N   UNL A   1      41.104  26.498  27.387  1.00  0.00    -0.248 NA
ATOM     39  C   UNL A   1      39.732  25.156  28.674  1.00  0.00     0.031 C 
ATOM     40  C   UNL A   1      44.111  23.829  29.989  1.00  0.00     0.029 A 
ATOM     41  N   UNL A   1      43.423  25.919  30.168  1.00  0.00    -0.354 N 
ATOM     42  C   UNL A   1      39.866  27.112  27.543  1.00  0.00     0.074 A 
ATOM     43  C   UNL A   1      38.999  26.110  28.092  1.00  0.00     0.031 C 
ATOM     44  C   UNL A   1      44.684  24.330  31.109  1.00  0.00     0.029 A 
ATOM     45  C   UNL A   1      44.282  25.718  31.260  1.00  0.00     0.049 A 
ATOM     46  H   UNL A   1      43.043  26.801  29.947  1.00  0.00     0.167 HD
ATOM     47  C   UNL A   1      39.793  28.473  27.578  1.00  0.00     0.034 A 
ATOM     48  C   UNL A   1      44.687  26.625  32.198  1.00  0.00     0.034 A 
ATOM     49  C   UNL A   1      41.031  29.043  27.097  1.00  0.00     0.049 A 
ATOM     50  C   UNL A   1      44.532  27.957  31.578  1.00  0.00     0.074 A 
ATOM     51  C   UNL A   1      41.673  29.170  25.884  1.00  0.00     0.029 A 
ATOM     52  N   UNL A   1      41.984  29.177  28.076  1.00  0.00    -0.354 N 
ATOM     53  N   UNL A   1      45.236  28.337  30.547  1.00  0.00    -0.248 NA
ATOM     54  C   UNL A   1      43.315  28.723  31.820  1.00  0.00     0.031 C 
ATOM     55  C   UNL A   1      43.070  29.213  26.175  1.00  0.00     0.029 A 
ATOM     56  C   UNL A   1      43.251  29.198  27.558  1.00  0.00     0.049 A 
ATOM     57  H   UNL A   1      41.780  29.249  29.037  1.00  0.00     0.167 HD
ATOM     58  C   UNL A   1      44.349  29.058  29.776  1.00  0.00     0.074 A 
ATOM     59  C   UNL A   1      43.257  29.415  30.678  1.00  0.00     0.031 C 
ATOM     60  C   UNL A   1      44.409  29.009  28.413  1.00  0.00     0.034 A 
BRANCH  47  61
ATOM     61  C   UNL A   1      38.890  29.276  28.505  1.00  0.00     0.023 A 
ATOM     62  C   UNL A   1      39.147  29.201  29.891  1.00  0.00     0.031 A 
ATOM     63  C   UNL A   1      37.647  29.850  28.149  1.00  0.00     0.131 A 
ATOM     64  C   UNL A   1      38.186  29.618  30.834  1.00  0.00     0.055 A 
ATOM     65  C   UNL A   1      36.718  30.309  29.088  1.00  0.00     0.041 A 
ATOM     66  F   UNL A   1      37.207  29.913  26.888  1.00  0.00    -0.206 F 
ATOM     67  C   UNL A   1      36.974  30.175  30.438  1.00  0.00     0.022 A 
BRANCH  64  68
ATOM     68  S   UNL A   1      38.479  29.293  32.593  1.00  0.00     0.124 S 
ATOM     69  O   UNL A   1      37.466  28.286  32.885  1.00  0.00    -0.237 OA
ATOM     70  O   UNL A   1      39.864  28.835  32.587  1.00  0.00    -0.237 OA
ATOM     71  O   UNL A   1      38.259  30.596  33.218  1.00  0.00    -0.744 OA
ENDBRANCH  64  68
ENDBRANCH  47  61
BRANCH  48  72
ATOM     72  C   UNL A   1      44.934  26.450  33.665  1.00  0.00     0.023 A 
ATOM     73  C   UNL A   1      43.945  26.614  34.671  1.00  0.00     0.031 A 
ATOM     74  C   UNL A   1      46.130  25.815  34.062  1.00  0.00     0.131 A 
ATOM     75  C   UNL A   1      44.175  26.138  35.991  1.00  0.00     0.055 A 
ATOM     76  C   UNL A   1      46.342  25.333  35.358  1.00  0.00     0.041 A 
ATOM     77  F   UNL A   1      47.103  25.561  33.171  1.00  0.00    -0.206 F 
ATOM     78  C   UNL A   1      45.362  25.483  36.326  1.00  0.00     0.022 A 
BRANCH  75  79
ATOM     79  S   UNL A   1      42.909  26.305  37.306  1.00  0.00     0.124 S 
ATOM     80  O   UNL A   1      42.114  25.095  37.133  1.00  0.00    -0.237 OA
ATOM     81  O   UNL A   1      43.719  26.386  38.514  1.00  0.00    -0.237 OA
ATOM     82  O   UNL A   1      42.212  27.546  36.954  1.00  0.00    -0.744 OA
ENDBRANCH  75  79
ENDBRANCH  48  72
BRANCH  60  83
ATOM     83  C   UNL A   1      45.739  28.680  27.779  1.00  0.00     0.023 A 
ATOM     84  C   UNL A   1      46.168  27.402  27.356  1.00  0.00     0.031 A 
ATOM     85  C   UNL A   1      46.611  29.764  27.575  1.00  0.00     0.131 A 
ATOM     86  C   UNL A   1      47.437  27.255  26.757  1.00  0.00     0.055 A 
ATOM     87  C   UNL A   1      47.850  29.618  26.962  1.00  0.00     0.041 A 
ATOM     88  F   UNL A   1      46.256  31.002  27.960  1.00  0.00    -0.206 F 
ATOM     89  C   UNL A   1      48.271  28.359  26.555  1.00  0.00     0.022 A 
BRANCH  86  90
ATOM     90  S   UNL A   1      48.055  25.611  26.262  1.00  0.00     0.124 S 
ATOM     91  O   UNL A   1      46.838  24.842  26.033  1.00  0.00    -0.237 OA
ATOM     92  O   UNL A   1      48.849  25.917  25.074  1.00  0.00    -0.237 OA
ATOM     93  O   UNL A   1      48.840  25.180  27.421  1.00  0.00    -0.744 OA
ENDBRANCH  86  90
ENDBRANCH  60  83
ENDBRANCH  34  35
ENDBRANCH  26  29
ENDBRANCH  24  25
ENDBRANCH   1  24
TORSDOF 15
ENDMDL
MODEL 3
REMARK VINA RESULT:     -12.7      1.787      2.508
REMARK SMILES O=C(Cn1c2c(sc1=O)C[C@H](c1ccccc1)CC2)NCCCNC(=O)c1ccc(-c2c3nc(c(-c4cc(S(=O)(=O)[O-])ccc4F)c4ccc([nH]4)c(-c4cc(S(=O)(=O)[O-])ccc4F)c4nc(c(-c5cc(S(=O)(=O)[O-])ccc5F)c5ccc2[nH]5)C=C4)C=C3)cc1
REMARK SMILES IDX 22 1 21 2 20 3 1 4 2 5 3 7 4 8 5 9 8 10 6 11 19 12 7 13 9 14
REMARK SMILES IDX 10 15 18 16 11 17 12 18 13 19 17 20 14 21 16 22 15 23 23 24
REMARK SMILES IDX 24 25 25 26 26 28 27 29 28 30 89 31 29 32 88 33 30 34 31 35
REMARK SMILES IDX 32 36 82 37 33 38 87 39 81 40 83 41 34 42 86 43 80 44 79 45
REMARK SMILES IDX 35 47 67 48 47 49 66 50 48 51 51 52 65 53 84 54 49 55 50 56
REMARK SMILES IDX 64 58 85 59 52 60 36 61 37 62 45 63 38 64 44 65 46 66 43 67
REMARK SMILES IDX 39 68 40 69 41 70 42 71 68 72 69 73 77 74 70 75 76 76 78 77
REMARK SMILES IDX 75 78 71 79 72 80 73 81 74 82 53 83 54 84 62 85 55 86 61 87
REMARK SMILES IDX 63 88 60 89 56 90 57 91 58 92 59 93
REMARK H PARENT 20 6 24 27 83 46 51 57
REMARK Flexibility Score: inf
ROOT
ATOM      1  C   UNL A   1      34.241  30.543  27.053  1.00  0.00     0.042 C 
ENDROOT
BRANCH   1   2
ATOM      2  C   UNL A   1      32.843  29.932  26.952  1.00  0.00     0.117 C 
BRANCH   2   3
ATOM      3  N   UNL A   1      32.827  28.517  26.616  1.00  0.00    -0.354 N 
ATOM      4  O   UNL A   1      31.135  27.961  28.051  1.00  0.00    -0.273 OA
ATOM      5  C   UNL A   1      31.842  27.675  27.083  1.00  0.00     0.240 C 
ATOM      6  H   UNL A   1      33.538  28.152  26.040  1.00  0.00     0.163 HD
BRANCH   5   7
ATOM      7  C   UNL A   1      31.782  26.272  26.452  1.00  0.00     0.226 C 
BRANCH   7   8
ATOM      8  N   UNL A   1      32.113  26.127  25.035  1.00  0.00    -0.293 N 
ATOM      9  C   UNL A   1      33.254  25.454  24.597  1.00  0.00     0.036 A 
ATOM     10  C   UNL A   1      31.118  26.230  24.066  1.00  0.00     0.308 A 
ATOM     11  C   UNL A   1      33.212  25.102  23.303  1.00  0.00     0.030 A 
ATOM     12  C   UNL A   1      34.365  25.031  25.511  1.00  0.00     0.056 C 
ATOM     13  S   UNL A   1      31.756  25.633  22.530  1.00  0.00    -0.079 S 
ATOM     14  O   UNL A   1      29.972  26.643  24.195  1.00  0.00    -0.257 OA
ATOM     15  C   UNL A   1      34.202  24.196  22.639  1.00  0.00     0.057 C 
ATOM     16  C   UNL A   1      35.461  24.207  24.800  1.00  0.00     0.015 C 
ATOM     17  C   UNL A   1      34.923  23.283  23.676  1.00  0.00     0.025 C 
BRANCH  17  18
ATOM     18  C   UNL A   1      34.058  22.100  24.133  1.00  0.00    -0.045 A 
ATOM     19  C   UNL A   1      34.388  21.407  25.312  1.00  0.00     0.004 A 
ATOM     20  C   UNL A   1      32.916  21.671  23.439  1.00  0.00     0.004 A 
ATOM     21  C   UNL A   1      33.675  20.274  25.717  1.00  0.00     0.000 A 
ATOM     22  C   UNL A   1      32.208  20.532  23.834  1.00  0.00     0.000 A 
ATOM     23  C   UNL A   1      32.599  19.822  24.962  1.00  0.00     0.000 A 
ENDBRANCH  17  18
ENDBRANCH   7   8
ENDBRANCH   5   7
ENDBRANCH   2   3
ENDBRANCH   1   2
BRANCH   1  24
ATOM     24  C   UNL A   1      35.213  29.684  27.845  1.00  0.00     0.118 C 
BRANCH  24  25
ATOM     25  N   UNL A   1      35.447  30.154  29.212  1.00  0.00    -0.352 N 
ATOM     26  C   UNL A   1      36.442  29.732  30.081  1.00  0.00     0.251 C 
ATOM     27  H   UNL A   1      34.833  30.844  29.551  1.00  0.00     0.163 HD
ATOM     28  O   UNL A   1      36.329  29.900  31.290  1.00  0.00    -0.269 OA
BRANCH  26  29
ATOM     29  C   UNL A   1      37.644  29.086  29.512  1.00  0.00     0.039 A 
ATOM     30  C   UNL A   1      38.239  29.533  28.331  1.00  0.00     0.014 A 
ATOM     31  C   UNL A   1      38.202  28.028  30.228  1.00  0.00     0.014 A 
ATOM     32  C   UNL A   1      39.450  28.959  27.935  1.00  0.00     0.010 A 
ATOM     33  C   UNL A   1      39.467  27.583  29.929  1.00  0.00     0.010 A 
ATOM     34  C   UNL A   1      40.079  28.003  28.758  1.00  0.00    -0.014 A 
BRANCH  34  35
ATOM     35  C   UNL A   1      41.472  27.598  28.531  1.00  0.00     0.031 A 
ATOM     36  C   UNL A   1      41.550  26.299  27.809  1.00  0.00     0.074 A 
ATOM     37  C   UNL A   1      42.550  28.399  28.733  1.00  0.00     0.049 A 
ATOM     38  N   UNL A   1      41.838  25.145  28.313  1.00  0.00    -0.248 NA
ATOM     39  C   UNL A   1      41.018  26.214  26.435  1.00  0.00     0.031 C 
ATOM     40  C   UNL A   1      42.540  29.804  29.167  1.00  0.00     0.029 A 
ATOM     41  N   UNL A   1      43.886  28.179  28.521  1.00  0.00    -0.354 N 
ATOM     42  C   UNL A   1      41.875  24.274  27.228  1.00  0.00     0.074 A 
ATOM     43  C   UNL A   1      41.098  24.901  26.197  1.00  0.00     0.031 C 
ATOM     44  C   UNL A   1      43.755  30.366  28.965  1.00  0.00     0.029 A 
ATOM     45  C   UNL A   1      44.690  29.330  28.561  1.00  0.00     0.049 A 
ATOM     46  H   UNL A   1      44.255  27.281  28.352  1.00  0.00     0.167 HD
ATOM     47  C   UNL A   1      42.858  23.332  27.157  1.00  0.00     0.034 A 
ATOM     48  C   UNL A   1      46.033  29.435  28.336  1.00  0.00     0.034 A 
ATOM     49  C   UNL A   1      43.506  23.203  28.442  1.00  0.00     0.049 A 
ATOM     50  C   UNL A   1      46.600  28.094  28.588  1.00  0.00     0.074 A 
ATOM     51  C   UNL A   1      43.186  22.688  29.680  1.00  0.00     0.029 A 
ATOM     52  N   UNL A   1      44.528  24.100  28.628  1.00  0.00    -0.354 N 
ATOM     53  N   UNL A   1      46.591  27.539  29.769  1.00  0.00    -0.248 NA
ATOM     54  C   UNL A   1      46.802  27.180  27.470  1.00  0.00     0.031 C 
ATOM     55  C   UNL A   1      43.941  23.440  30.631  1.00  0.00     0.029 A 
ATOM     56  C   UNL A   1      44.767  24.337  29.954  1.00  0.00     0.049 A 
ATOM     57  H   UNL A   1      45.030  24.523  27.893  1.00  0.00     0.167 HD
ATOM     58  C   UNL A   1      46.333  26.208  29.519  1.00  0.00     0.074 A 
ATOM     59  C   UNL A   1      46.652  26.014  28.107  1.00  0.00     0.031 C 
ATOM     60  C   UNL A   1      45.569  25.472  30.377  1.00  0.00     0.034 A 
BRANCH  47  61
ATOM     61  C   UNL A   1      43.592  22.930  25.885  1.00  0.00     0.023 A 
ATOM     62  C   UNL A   1      43.748  21.551  25.630  1.00  0.00     0.031 A 
ATOM     63  C   UNL A   1      44.388  23.788  25.088  1.00  0.00     0.131 A 
ATOM     64  C   UNL A   1      44.685  21.085  24.686  1.00  0.00     0.055 A 
ATOM     65  C   UNL A   1      45.279  23.322  24.118  1.00  0.00     0.041 A 
ATOM     66  F   UNL A   1      44.432  25.112  25.263  1.00  0.00    -0.206 F 
ATOM     67  C   UNL A   1      45.449  21.965  23.925  1.00  0.00     0.022 A 
BRANCH  64  68
ATOM     68  S   UNL A   1      44.998  19.305  24.560  1.00  0.00     0.124 S 
ATOM     69  O   UNL A   1      44.657  19.037  23.168  1.00  0.00    -0.237 OA
ATOM     70  O   UNL A   1      46.414  19.224  24.906  1.00  0.00    -0.237 OA
ATOM     71  O   UNL A   1      44.086  18.730  25.546  1.00  0.00    -0.744 OA
ENDBRANCH  64  68
ENDBRANCH  47  61
BRANCH  48  72
ATOM     72  C   UNL A   1      46.815  30.519  27.662  1.00  0.00     0.023 A 
ATOM     73  C   UNL A   1      46.236  31.643  27.015  1.00  0.00     0.031 A 
ATOM     74  C   UNL A   1      48.201  30.591  27.916  1.00  0.00     0.131 A 
ATOM     75  C   UNL A   1      47.036  32.769  26.672  1.00  0.00     0.055 A 
ATOM     76  C   UNL A   1      48.978  31.708  27.593  1.00  0.00     0.041 A 
ATOM     77  F   UNL A   1      48.831  29.605  28.575  1.00  0.00    -0.206 F 
ATOM     78  C   UNL A   1      48.397  32.806  26.979  1.00  0.00     0.022 A 
BRANCH  75  79
ATOM     79  S   UNL A   1      46.315  34.248  25.866  1.00  0.00     0.124 S 
ATOM     80  O   UNL A   1      45.228  33.681  25.078  1.00  0.00    -0.237 OA
ATOM     81  O   UNL A   1      45.934  35.073  27.005  1.00  0.00    -0.237 OA
ATOM     82  O   UNL A   1      47.427  34.781  25.073  1.00  0.00    -0.744 OA
ENDBRANCH  75  79
ENDBRANCH  48  72
BRANCH  60  83
ATOM     83  C   UNL A   1      45.513  25.908  31.820  1.00  0.00     0.023 A 
ATOM     84  C   UNL A   1      46.519  25.708  32.793  1.00  0.00     0.031 A 
ATOM     85  C   UNL A   1      44.353  26.600  32.212  1.00  0.00     0.131 A 
ATOM     86  C   UNL A   1      46.330  26.196  34.104  1.00  0.00     0.055 A 
ATOM     87  C   UNL A   1      44.182  27.100  33.499  1.00  0.00     0.041 A 
ATOM     88  F   UNL A   1      43.362  26.816  31.331  1.00  0.00    -0.206 F 
ATOM     89  C   UNL A   1      45.169  26.894  34.452  1.00  0.00     0.022 A 
BRANCH  86  90
ATOM     90  S   UNL A   1      47.575  25.897  35.403  1.00  0.00     0.124 S 
ATOM     91  O   UNL A   1      48.844  26.044  34.703  1.00  0.00    -0.237 OA
ATOM     92  O   UNL A   1      47.262  26.933  36.384  1.00  0.00    -0.237 OA
ATOM     93  O   UNL A   1      47.280  24.533  35.848  1.00  0.00    -0.744 OA
ENDBRANCH  86  90
ENDBRANCH  60  83
ENDBRANCH  34  35
ENDBRANCH  26  29
ENDBRANCH  24  25
ENDBRANCH   1  24
TORSDOF 15
ENDMDL
