MODEL 1
REMARK VINA RESULT:     -11.2      0.000      0.000
REMARK SMILES Cc1nonc1C[C@@]1(C(=O)NCCCNC(=O)c2ccc(-c3c4nc(c(-c5cc(S(=O)(=O)[O-])ccc5F)c5ccc([nH]5)c(-c5cc(S(=O)(=O)[O-])ccc5F)c5nc(c(-c6cc(S(=O)(=O)[O-])ccc6F)c6ccc3[nH]6)C=C5)C=C4)cc2)CCC[NH2+]C1
REMARK SMILES IDX 13 1 12 2 11 3 9 4 10 5 8 7 81 8 85 9 82 10 84 11 83 12 7 15
REMARK SMILES IDX 6 16 1 17 2 18 3 19 4 20 5 21 14 22 15 23 16 24 17 26 18 27
REMARK SMILES IDX 19 28 80 29 20 30 79 31 21 32 22 33 23 34 73 35 24 36 78 37
REMARK SMILES IDX 72 38 74 39 25 40 77 41 71 42 70 43 26 45 58 46 38 47 57 48
REMARK SMILES IDX 39 49 42 50 56 51 75 52 40 53 41 54 55 56 76 57 43 58 27 59
REMARK SMILES IDX 28 60 36 61 29 62 35 63 37 64 34 65 30 66 31 67 32 68 33 69
REMARK SMILES IDX 59 70 60 71 68 72 61 73 67 74 69 75 66 76 62 77 63 78 64 79
REMARK SMILES IDX 65 80 44 81 45 82 53 83 46 84 52 85 54 86 51 87 47 88 48 89
REMARK SMILES IDX 49 90 50 91
REMARK H PARENT 11 6 84 13 84 14 15 25 74 44 42 55
REMARK Flexibility Score: inf
ROOT
ATOM      1  C   UNL A   1      35.495  33.766  29.328  1.00  0.00     0.042 C 
ENDROOT
BRANCH   1   2
ATOM      2  C   UNL A   1      34.436  33.201  30.265  1.00  0.00     0.117 C 
BRANCH   2   3
ATOM      3  N   UNL A   1      35.027  32.346  31.276  1.00  0.00    -0.355 N 
ATOM      4  C   UNL A   1      35.545  32.559  32.512  1.00  0.00     0.232 C 
ATOM      5  O   UNL A   1      36.055  31.561  33.034  1.00  0.00    -0.274 OA
ATOM      6  H   UNL A   1      35.060  31.400  31.005  1.00  0.00     0.163 HD
BRANCH   4   7
ATOM      7  C   UNL A   1      35.499  33.923  33.235  1.00  0.00     0.104 C 
ATOM      8  C   UNL A   1      36.455  34.928  32.517  1.00  0.00     0.029 C 
ATOM      9  C   UNL A   1      36.003  33.783  34.699  1.00  0.00     0.277 C 
ATOM     10  C   UNL A   1      37.939  34.618  32.736  1.00  0.00     0.063 C 
ATOM     11  N   UNL A   1      37.418  33.430  34.827  1.00  0.00    -0.345 N 
ATOM     12  C   UNL A   1      38.273  34.437  34.210  1.00  0.00     0.260 C 
ATOM     13  H   UNL A   1      37.654  33.355  35.816  1.00  0.00     0.346 HD
ATOM     14  H   UNL A   1      37.573  32.541  34.351  1.00  0.00     0.346 HD
BRANCH   7  15
ATOM     15  C   UNL A   1      34.064  34.521  33.271  1.00  0.00     0.085 C 
BRANCH  15  16
ATOM     16  C   UNL A   1      33.878  35.985  33.041  1.00  0.00     0.109 A 
ATOM     17  C   UNL A   1      32.748  36.088  30.671  1.00  0.00     0.073 C 
ATOM     18  C   UNL A   1      33.304  36.638  31.926  1.00  0.00     0.105 A 
ATOM     19  N   UNL A   1      33.288  37.954  32.142  1.00  0.00    -0.055 NA
ATOM     20  O   UNL A   1      33.851  38.121  33.400  1.00  0.00    -0.244 OA
ATOM     21  N   UNL A   1      34.189  36.898  33.962  1.00  0.00    -0.055 NA
ENDBRANCH  15  16
ENDBRANCH   7  15
ENDBRANCH   4   7
ENDBRANCH   2   3
ENDBRANCH   1   2
BRANCH   1  22
ATOM     22  C   UNL A   1      35.258  33.434  27.859  1.00  0.00     0.118 C 
BRANCH  22  23
ATOM     23  N   UNL A   1      34.223  32.427  27.678  1.00  0.00    -0.352 N 
ATOM     24  C   UNL A   1      34.316  31.057  27.701  1.00  0.00     0.251 C 
ATOM     25  H   UNL A   1      33.319  32.781  27.514  1.00  0.00     0.163 HD
ATOM     26  O   UNL A   1      33.363  30.383  27.313  1.00  0.00    -0.269 OA
BRANCH  24  27
ATOM     27  C   UNL A   1      35.560  30.398  28.157  1.00  0.00     0.039 A 
ATOM     28  C   UNL A   1      36.686  30.432  27.331  1.00  0.00     0.014 A 
ATOM     29  C   UNL A   1      35.621  29.744  29.390  1.00  0.00     0.014 A 
ATOM     30  C   UNL A   1      37.888  29.877  27.773  1.00  0.00     0.010 A 
ATOM     31  C   UNL A   1      36.840  29.270  29.867  1.00  0.00     0.010 A 
ATOM     32  C   UNL A   1      37.988  29.329  29.063  1.00  0.00    -0.014 A 
BRANCH  32  33
ATOM     33  C   UNL A   1      39.283  28.820  29.587  1.00  0.00     0.031 A 
ATOM     34  C   UNL A   1      39.965  29.518  30.734  1.00  0.00     0.074 A 
ATOM     35  C   UNL A   1      39.873  27.762  28.993  1.00  0.00     0.049 A 
ATOM     36  N   UNL A   1      41.125  29.268  31.284  1.00  0.00    -0.248 NA
ATOM     37  C   UNL A   1      39.260  30.668  31.319  1.00  0.00     0.031 C 
ATOM     38  C   UNL A   1      39.329  27.024  27.851  1.00  0.00     0.029 A 
ATOM     39  N   UNL A   1      41.060  27.127  29.261  1.00  0.00    -0.354 N 
ATOM     40  C   UNL A   1      41.294  30.232  32.271  1.00  0.00     0.074 A 
ATOM     41  C   UNL A   1      40.146  31.110  32.198  1.00  0.00     0.031 C 
ATOM     42  C   UNL A   1      40.164  26.021  27.536  1.00  0.00     0.029 A 
ATOM     43  C   UNL A   1      41.329  26.075  28.413  1.00  0.00     0.049 A 
ATOM     44  H   UNL A   1      41.663  27.397  29.990  1.00  0.00     0.167 HD
ATOM     45  C   UNL A   1      42.301  30.359  33.171  1.00  0.00     0.034 A 
ATOM     46  C   UNL A   1      42.399  25.258  28.339  1.00  0.00     0.034 A 
ATOM     47  C   UNL A   1      43.438  29.472  33.232  1.00  0.00     0.049 A 
ATOM     48  C   UNL A   1      43.527  25.446  29.322  1.00  0.00     0.074 A 
ATOM     49  C   UNL A   1      44.488  29.479  34.134  1.00  0.00     0.029 A 
ATOM     50  N   UNL A   1      43.682  28.426  32.349  1.00  0.00    -0.354 N 
ATOM     51  N   UNL A   1      43.645  26.331  30.285  1.00  0.00    -0.248 NA
ATOM     52  C   UNL A   1      44.660  24.518  29.215  1.00  0.00     0.031 C 
ATOM     53  C   UNL A   1      45.404  28.494  33.749  1.00  0.00     0.029 A 
ATOM     54  C   UNL A   1      44.883  27.808  32.663  1.00  0.00     0.049 A 
ATOM     55  H   UNL A   1      43.089  28.163  31.609  1.00  0.00     0.167 HD
ATOM     56  C   UNL A   1      44.851  26.043  30.919  1.00  0.00     0.074 A 
ATOM     57  C   UNL A   1      45.411  24.892  30.240  1.00  0.00     0.031 C 
ATOM     58  C   UNL A   1      45.439  26.667  31.972  1.00  0.00     0.034 A 
BRANCH  45  59
ATOM     59  C   UNL A   1      42.228  31.517  34.141  1.00  0.00     0.023 A 
ATOM     60  C   UNL A   1      41.403  31.478  35.278  1.00  0.00     0.031 A 
ATOM     61  C   UNL A   1      42.978  32.684  33.915  1.00  0.00     0.131 A 
ATOM     62  C   UNL A   1      41.288  32.609  36.102  1.00  0.00     0.055 A 
ATOM     63  C   UNL A   1      42.927  33.774  34.787  1.00  0.00     0.041 A 
ATOM     64  F   UNL A   1      43.769  32.792  32.835  1.00  0.00    -0.206 F 
ATOM     65  C   UNL A   1      42.066  33.747  35.879  1.00  0.00     0.022 A 
BRANCH  62  66
ATOM     66  S   UNL A   1      39.997  32.624  37.375  1.00  0.00     0.124 S 
ATOM     67  O   UNL A   1      39.106  31.565  36.906  1.00  0.00    -0.237 OA
ATOM     68  O   UNL A   1      40.749  32.334  38.591  1.00  0.00    -0.237 OA
ATOM     69  O   UNL A   1      39.447  33.975  37.289  1.00  0.00    -0.744 OA
ENDBRANCH  62  66
ENDBRANCH  45  59
BRANCH  46  70
ATOM     70  C   UNL A   1      42.471  24.199  27.289  1.00  0.00     0.023 A 
ATOM     71  C   UNL A   1      41.718  23.019  27.399  1.00  0.00     0.031 A 
ATOM     72  C   UNL A   1      43.331  24.331  26.184  1.00  0.00     0.131 A 
ATOM     73  C   UNL A   1      41.878  21.996  26.450  1.00  0.00     0.055 A 
ATOM     74  C   UNL A   1      43.441  23.337  25.211  1.00  0.00     0.041 A 
ATOM     75  F   UNL A   1      44.072  25.440  26.028  1.00  0.00    -0.206 F 
ATOM     76  C   UNL A   1      42.722  22.154  25.348  1.00  0.00     0.022 A 
BRANCH  73  77
ATOM     77  S   UNL A   1      41.036  20.414  26.728  1.00  0.00     0.124 S 
ATOM     78  O   UNL A   1      40.930  20.387  28.182  1.00  0.00    -0.237 OA
ATOM     79  O   UNL A   1      39.789  20.602  25.995  1.00  0.00    -0.237 OA
ATOM     80  O   UNL A   1      41.955  19.435  26.150  1.00  0.00    -0.744 OA
ENDBRANCH  73  77
ENDBRANCH  46  70
BRANCH  58  81
ATOM     81  C   UNL A   1      46.735  26.084  32.484  1.00  0.00     0.023 A 
ATOM     82  C   UNL A   1      47.975  26.402  31.902  1.00  0.00     0.031 A 
ATOM     83  C   UNL A   1      46.724  25.186  33.567  1.00  0.00     0.131 A 
ATOM     84  C   UNL A   1      49.145  25.781  32.368  1.00  0.00     0.055 A 
ATOM     85  C   UNL A   1      47.899  24.626  34.071  1.00  0.00     0.041 A 
ATOM     86  F   UNL A   1      45.570  24.841  34.158  1.00  0.00    -0.206 F 
ATOM     87  C   UNL A   1      49.117  24.912  33.461  1.00  0.00     0.022 A 
BRANCH  84  88
ATOM     88  S   UNL A   1      50.692  26.044  31.458  1.00  0.00     0.124 S 
ATOM     89  O   UNL A   1      51.277  27.171  32.176  1.00  0.00    -0.237 OA
ATOM     90  O   UNL A   1      51.372  24.763  31.620  1.00  0.00    -0.237 OA
ATOM     91  O   UNL A   1      50.245  26.340  30.098  1.00  0.00    -0.744 OA
ENDBRANCH  84  88
ENDBRANCH  58  81
ENDBRANCH  32  33
ENDBRANCH  24  27
ENDBRANCH  22  23
ENDBRANCH   1  22
TORSDOF 15
ENDMDL
MODEL 2
REMARK VINA RESULT:     -11.0      4.228     10.339
REMARK SMILES Cc1nonc1C[C@@]1(C(=O)NCCCNC(=O)c2ccc(-c3c4nc(c(-c5cc(S(=O)(=O)[O-])ccc5F)c5ccc([nH]5)c(-c5cc(S(=O)(=O)[O-])ccc5F)c5nc(c(-c6cc(S(=O)(=O)[O-])ccc6F)c6ccc3[nH]6)C=C5)C=C4)cc2)CCC[NH2+]C1
REMARK SMILES IDX 13 1 12 2 11 3 9 4 10 5 8 7 81 8 85 9 82 10 84 11 83 12 7 15
REMARK SMILES IDX 6 16 1 17 2 18 3 19 4 20 5 21 14 22 15 23 16 24 17 26 18 27
REMARK SMILES IDX 19 28 80 29 20 30 79 31 21 32 22 33 23 34 73 35 24 36 78 37
REMARK SMILES IDX 72 38 74 39 25 40 77 41 71 42 70 43 26 45 58 46 38 47 57 48
REMARK SMILES IDX 39 49 42 50 56 51 75 52 40 53 41 54 55 56 76 57 43 58 27 59
REMARK SMILES IDX 28 60 36 61 29 62 35 63 37 64 34 65 30 66 31 67 32 68 33 69
REMARK SMILES IDX 59 70 60 71 68 72 61 73 67 74 69 75 66 76 62 77 63 78 64 79
REMARK SMILES IDX 65 80 44 81 45 82 53 83 46 84 52 85 54 86 51 87 47 88 48 89
REMARK SMILES IDX 49 90 50 91
REMARK H PARENT 11 6 84 13 84 14 15 25 74 44 42 55
REMARK Flexibility Score: inf
ROOT
ATOM      1  C   UNL A   1      31.587  32.250  26.765  1.00  0.00     0.042 C 
ENDROOT
BRANCH   1   2
ATOM      2  C   UNL A   1      31.793  30.786  26.399  1.00  0.00     0.117 C 
BRANCH   2   3
ATOM      3  N   UNL A   1      31.128  30.454  25.156  1.00  0.00    -0.355 N 
ATOM      4  C   UNL A   1      31.155  29.383  24.322  1.00  0.00     0.232 C 
ATOM      5  O   UNL A   1      30.502  29.523  23.282  1.00  0.00    -0.274 OA
ATOM      6  H   UNL A   1      30.519  31.163  24.845  1.00  0.00     0.163 HD
BRANCH   4   7
ATOM      7  C   UNL A   1      31.921  28.077  24.633  1.00  0.00     0.104 C 
ATOM      8  C   UNL A   1      33.457  28.330  24.509  1.00  0.00     0.029 C 
ATOM      9  C   UNL A   1      31.557  26.972  23.602  1.00  0.00     0.277 C 
ATOM     10  C   UNL A   1      33.928  28.517  23.063  1.00  0.00     0.063 C 
ATOM     11  N   UNL A   1      31.991  27.248  22.232  1.00  0.00    -0.345 N 
ATOM     12  C   UNL A   1      33.440  27.398  22.155  1.00  0.00     0.260 C 
ATOM     13  H   UNL A   1      31.705  26.476  21.630  1.00  0.00     0.346 HD
ATOM     14  H   UNL A   1      31.560  28.121  21.927  1.00  0.00     0.346 HD
BRANCH   7  15
ATOM     15  C   UNL A   1      31.605  27.536  26.056  1.00  0.00     0.085 C 
BRANCH  15  16
ATOM     16  C   UNL A   1      31.279  26.089  26.230  1.00  0.00     0.109 A 
ATOM     17  C   UNL A   1      33.616  24.909  26.003  1.00  0.00     0.073 C 
ATOM     18  C   UNL A   1      32.155  24.979  26.214  1.00  0.00     0.105 A 
ATOM     19  N   UNL A   1      31.462  23.864  26.456  1.00  0.00    -0.055 NA
ATOM     20  O   UNL A   1      30.150  24.283  26.627  1.00  0.00    -0.244 OA
ATOM     21  N   UNL A   1      30.048  25.663  26.514  1.00  0.00    -0.055 NA
ENDBRANCH  15  16
ENDBRANCH   7  15
ENDBRANCH   4   7
ENDBRANCH   2   3
ENDBRANCH   1   2
BRANCH   1  22
ATOM     22  C   UNL A   1      32.879  32.993  27.083  1.00  0.00     0.118 C 
BRANCH  22  23
ATOM     23  N   UNL A   1      32.645  34.216  27.838  1.00  0.00    -0.352 N 
ATOM     24  C   UNL A   1      33.216  34.649  29.010  1.00  0.00     0.251 C 
ATOM     25  H   UNL A   1      31.976  34.825  27.450  1.00  0.00     0.163 HD
ATOM     26  O   UNL A   1      32.727  35.612  29.597  1.00  0.00    -0.269 OA
BRANCH  24  27
ATOM     27  C   UNL A   1      34.389  33.946  29.576  1.00  0.00     0.039 A 
ATOM     28  C   UNL A   1      35.670  34.362  29.205  1.00  0.00     0.014 A 
ATOM     29  C   UNL A   1      34.232  32.878  30.462  1.00  0.00     0.014 A 
ATOM     30  C   UNL A   1      36.789  33.756  29.781  1.00  0.00     0.010 A 
ATOM     31  C   UNL A   1      35.345  32.336  31.102  1.00  0.00     0.010 A 
ATOM     32  C   UNL A   1      36.636  32.767  30.767  1.00  0.00    -0.014 A 
BRANCH  32  33
ATOM     33  C   UNL A   1      37.814  32.179  31.459  1.00  0.00     0.031 A 
ATOM     34  C   UNL A   1      38.601  31.072  30.809  1.00  0.00     0.074 A 
ATOM     35  C   UNL A   1      38.140  32.603  32.697  1.00  0.00     0.049 A 
ATOM     36  N   UNL A   1      39.612  30.388  31.279  1.00  0.00    -0.248 NA
ATOM     37  C   UNL A   1      38.174  30.663  29.462  1.00  0.00     0.031 C 
ATOM     38  C   UNL A   1      37.432  33.643  33.447  1.00  0.00     0.029 A 
ATOM     39  N   UNL A   1      39.144  32.210  33.547  1.00  0.00    -0.354 N 
ATOM     40  C   UNL A   1      39.936  29.462  30.294  1.00  0.00     0.074 A 
ATOM     41  C   UNL A   1      38.970  29.631  29.228  1.00  0.00     0.031 C 
ATOM     42  C   UNL A   1      38.041  33.825  34.630  1.00  0.00     0.029 A 
ATOM     43  C   UNL A   1      39.146  32.880  34.750  1.00  0.00     0.049 A 
ATOM     44  H   UNL A   1      39.802  31.514  33.318  1.00  0.00     0.167 HD
ATOM     45  C   UNL A   1      40.958  28.570  30.269  1.00  0.00     0.034 A 
ATOM     46  C   UNL A   1      39.936  32.738  35.833  1.00  0.00     0.034 A 
ATOM     47  C   UNL A   1      41.913  28.417  31.339  1.00  0.00     0.049 A 
ATOM     48  C   UNL A   1      41.039  31.711  35.799  1.00  0.00     0.074 A 
ATOM     49  C   UNL A   1      43.015  27.582  31.396  1.00  0.00     0.029 A 
ATOM     50  N   UNL A   1      41.875  29.104  32.547  1.00  0.00    -0.354 N 
ATOM     51  N   UNL A   1      41.365  30.879  34.836  1.00  0.00    -0.248 NA
ATOM     52  C   UNL A   1      41.887  31.610  36.994  1.00  0.00     0.031 C 
ATOM     53  C   UNL A   1      43.594  27.704  32.664  1.00  0.00     0.029 A 
ATOM     54  C   UNL A   1      42.912  28.684  33.367  1.00  0.00     0.049 A 
ATOM     55  H   UNL A   1      41.211  29.790  32.785  1.00  0.00     0.167 HD
ATOM     56  C   UNL A   1      42.477  30.180  35.299  1.00  0.00     0.074 A 
ATOM     57  C   UNL A   1      42.775  30.701  36.617  1.00  0.00     0.031 C 
ATOM     58  C   UNL A   1      43.193  29.202  34.687  1.00  0.00     0.034 A 
BRANCH  45  59
ATOM     59  C   UNL A   1      41.072  27.674  29.056  1.00  0.00     0.023 A 
ATOM     60  C   UNL A   1      42.053  27.886  28.071  1.00  0.00     0.031 A 
ATOM     61  C   UNL A   1      40.178  26.606  28.872  1.00  0.00     0.131 A 
ATOM     62  C   UNL A   1      42.066  27.093  26.913  1.00  0.00     0.055 A 
ATOM     63  C   UNL A   1      40.252  25.766  27.759  1.00  0.00     0.041 A 
ATOM     64  F   UNL A   1      39.205  26.365  29.766  1.00  0.00    -0.206 F 
ATOM     65  C   UNL A   1      41.190  26.017  26.763  1.00  0.00     0.022 A 
BRANCH  62  66
ATOM     66  S   UNL A   1      43.144  27.586  25.540  1.00  0.00     0.124 S 
ATOM     67  O   UNL A   1      44.130  28.421  26.223  1.00  0.00    -0.237 OA
ATOM     68  O   UNL A   1      43.629  26.303  25.043  1.00  0.00    -0.237 OA
ATOM     69  O   UNL A   1      42.246  28.305  24.639  1.00  0.00    -0.744 OA
ENDBRANCH  62  66
ENDBRANCH  45  59
BRANCH  46  70
ATOM     70  C   UNL A   1      39.710  33.574  37.049  1.00  0.00     0.023 A 
ATOM     71  C   UNL A   1      38.990  33.076  38.147  1.00  0.00     0.031 A 
ATOM     72  C   UNL A   1      40.168  34.903  37.111  1.00  0.00     0.131 A 
ATOM     73  C   UNL A   1      38.706  33.915  39.236  1.00  0.00     0.055 A 
ATOM     74  C   UNL A   1      39.935  35.714  38.222  1.00  0.00     0.041 A 
ATOM     75  F   UNL A   1      40.864  35.429  36.091  1.00  0.00    -0.206 F 
ATOM     76  C   UNL A   1      39.187  35.226  39.288  1.00  0.00     0.022 A 
BRANCH  73  77
ATOM     77  S   UNL A   1      37.613  33.298  40.546  1.00  0.00     0.124 S 
ATOM     78  O   UNL A   1      37.398  34.500  41.344  1.00  0.00    -0.237 OA
ATOM     79  O   UNL A   1      36.465  32.821  39.781  1.00  0.00    -0.237 OA
ATOM     80  O   UNL A   1      38.408  32.254  41.188  1.00  0.00    -0.744 OA
ENDBRANCH  73  77
ENDBRANCH  46  70
BRANCH  58  81
ATOM     81  C   UNL A   1      44.400  28.667  35.422  1.00  0.00     0.023 A 
ATOM     82  C   UNL A   1      44.288  27.677  36.414  1.00  0.00     0.031 A 
ATOM     83  C   UNL A   1      45.681  29.167  35.128  1.00  0.00     0.131 A 
ATOM     84  C   UNL A   1      45.430  27.262  37.117  1.00  0.00     0.055 A 
ATOM     85  C   UNL A   1      46.822  28.699  35.783  1.00  0.00     0.041 A 
ATOM     86  F   UNL A   1      45.849  30.117  34.196  1.00  0.00    -0.206 F 
ATOM     87  C   UNL A   1      46.697  27.751  36.794  1.00  0.00     0.022 A 
BRANCH  84  88
ATOM     88  S   UNL A   1      45.222  26.149  38.534  1.00  0.00     0.124 S 
ATOM     89  O   UNL A   1      43.881  26.493  38.995  1.00  0.00    -0.237 OA
ATOM     90  O   UNL A   1      45.367  24.832  37.922  1.00  0.00    -0.237 OA
ATOM     91  O   UNL A   1      46.305  26.535  39.437  1.00  0.00    -0.744 OA
ENDBRANCH  84  88
ENDBRANCH  58  81
ENDBRANCH  32  33
ENDBRANCH  24  27
ENDBRANCH  22  23
ENDBRANCH   1  22
TORSDOF 15
ENDMDL
MODEL 3
REMARK VINA RESULT:     -11.0      6.064     10.469
REMARK SMILES Cc1nonc1C[C@@]1(C(=O)NCCCNC(=O)c2ccc(-c3c4nc(c(-c5cc(S(=O)(=O)[O-])ccc5F)c5ccc([nH]5)c(-c5cc(S(=O)(=O)[O-])ccc5F)c5nc(c(-c6cc(S(=O)(=O)[O-])ccc6F)c6ccc3[nH]6)C=C5)C=C4)cc2)CCC[NH2+]C1
REMARK SMILES IDX 13 1 12 2 11 3 9 4 10 5 8 7 81 8 85 9 82 10 84 11 83 12 7 15
REMARK SMILES IDX 6 16 1 17 2 18 3 19 4 20 5 21 14 22 15 23 16 24 17 26 18 27
REMARK SMILES IDX 19 28 80 29 20 30 79 31 21 32 22 33 23 34 73 35 24 36 78 37
REMARK SMILES IDX 72 38 74 39 25 40 77 41 71 42 70 43 26 45 58 46 38 47 57 48
REMARK SMILES IDX 39 49 42 50 56 51 75 52 40 53 41 54 55 56 76 57 43 58 27 59
REMARK SMILES IDX 28 60 36 61 29 62 35 63 37 64 34 65 30 66 31 67 32 68 33 69
REMARK SMILES IDX 59 70 60 71 68 72 61 73 67 74 69 75 66 76 62 77 63 78 64 79
REMARK SMILES IDX 65 80 44 81 45 82 53 83 46 84 52 85 54 86 51 87 47 88 48 89
REMARK SMILES IDX 49 90 50 91
REMARK H PARENT 11 6 84 13 84 14 15 25 74 44 42 55
REMARK Flexibility Score: inf
ROOT
ATOM      1  C   UNL A   1      38.042  19.916  25.018  1.00  0.00     0.042 C 
ENDROOT
BRANCH   1   2
ATOM      2  C   UNL A   1      36.898  20.920  25.077  1.00  0.00     0.117 C 
BRANCH   2   3
ATOM      3  N   UNL A   1      35.613  20.253  25.135  1.00  0.00    -0.355 N 
ATOM      4  C   UNL A   1      34.324  20.676  25.119  1.00  0.00     0.232 C 
ATOM      5  O   UNL A   1      33.487  19.783  25.291  1.00  0.00    -0.274 OA
ATOM      6  H   UNL A   1      35.692  19.273  25.201  1.00  0.00     0.163 HD
BRANCH   4   7
ATOM      7  C   UNL A   1      33.910  22.147  24.891  1.00  0.00     0.104 C 
ATOM      8  C   UNL A   1      34.194  22.977  26.183  1.00  0.00     0.029 C 
ATOM      9  C   UNL A   1      32.384  22.248  24.612  1.00  0.00     0.277 C 
ATOM     10  C   UNL A   1      33.234  22.659  27.333  1.00  0.00     0.063 C 
ATOM     11  N   UNL A   1      31.530  21.875  25.740  1.00  0.00    -0.345 N 
ATOM     12  C   UNL A   1      31.778  22.728  26.897  1.00  0.00     0.260 C 
ATOM     13  H   UNL A   1      30.553  21.966  25.463  1.00  0.00     0.346 HD
ATOM     14  H   UNL A   1      31.743  20.911  26.000  1.00  0.00     0.346 HD
BRANCH   7  15
ATOM     15  C   UNL A   1      34.666  22.791  23.694  1.00  0.00     0.085 C 
BRANCH  15  16
ATOM     16  C   UNL A   1      33.976  23.828  22.869  1.00  0.00     0.109 A 
ATOM     17  C   UNL A   1      34.021  25.956  24.409  1.00  0.00     0.073 C 
ATOM     18  C   UNL A   1      33.717  25.180  23.187  1.00  0.00     0.105 A 
ATOM     19  N   UNL A   1      33.120  25.773  22.152  1.00  0.00    -0.055 NA
ATOM     20  O   UNL A   1      33.010  24.786  21.183  1.00  0.00    -0.244 OA
ATOM     21  N   UNL A   1      33.566  23.592  21.622  1.00  0.00    -0.055 NA
ENDBRANCH  15  16
ENDBRANCH   7  15
ENDBRANCH   4   7
ENDBRANCH   2   3
ENDBRANCH   1   2
BRANCH   1  22
ATOM     22  C   UNL A   1      39.306  20.379  25.734  1.00  0.00     0.118 C 
BRANCH  22  23
ATOM     23  N   UNL A   1      40.288  19.313  25.872  1.00  0.00    -0.352 N 
ATOM     24  C   UNL A   1      41.647  19.387  26.055  1.00  0.00     0.251 C 
ATOM     25  H   UNL A   1      39.923  18.399  25.828  1.00  0.00     0.163 HD
ATOM     26  O   UNL A   1      42.326  18.370  25.934  1.00  0.00    -0.269 OA
BRANCH  24  27
ATOM     27  C   UNL A   1      42.291  20.684  26.363  1.00  0.00     0.039 A 
ATOM     28  C   UNL A   1      42.805  21.450  25.314  1.00  0.00     0.014 A 
ATOM     29  C   UNL A   1      42.395  21.144  27.679  1.00  0.00     0.014 A 
ATOM     30  C   UNL A   1      43.354  22.706  25.578  1.00  0.00     0.010 A 
ATOM     31  C   UNL A   1      42.860  22.432  27.930  1.00  0.00     0.010 A 
ATOM     32  C   UNL A   1      43.347  23.228  26.882  1.00  0.00    -0.014 A 
BRANCH  32  33
ATOM     33  C   UNL A   1      43.840  24.602  27.167  1.00  0.00     0.031 A 
ATOM     34  C   UNL A   1      42.900  25.649  27.702  1.00  0.00     0.074 A 
ATOM     35  C   UNL A   1      45.121  24.921  26.890  1.00  0.00     0.049 A 
ATOM     36  N   UNL A   1      43.123  26.915  27.948  1.00  0.00    -0.248 NA
ATOM     37  C   UNL A   1      41.518  25.221  27.969  1.00  0.00     0.031 C 
ATOM     38  C   UNL A   1      46.118  24.004  26.335  1.00  0.00     0.029 A 
ATOM     39  N   UNL A   1      45.803  26.104  27.031  1.00  0.00    -0.354 N 
ATOM     40  C   UNL A   1      41.912  27.436  28.387  1.00  0.00     0.074 A 
ATOM     41  C   UNL A   1      40.943  26.363  28.311  1.00  0.00     0.031 C 
ATOM     42  C   UNL A   1      47.289  24.649  26.211  1.00  0.00     0.029 A 
ATOM     43  C   UNL A   1      47.117  26.038  26.622  1.00  0.00     0.049 A 
ATOM     44  H   UNL A   1      45.393  26.923  27.391  1.00  0.00     0.167 HD
ATOM     45  C   UNL A   1      41.638  28.687  28.835  1.00  0.00     0.034 A 
ATOM     46  C   UNL A   1      48.069  26.991  26.568  1.00  0.00     0.034 A 
ATOM     47  C   UNL A   1      42.617  29.744  28.908  1.00  0.00     0.049 A 
ATOM     48  C   UNL A   1      47.730  28.385  27.031  1.00  0.00     0.074 A 
ATOM     49  C   UNL A   1      42.460  31.031  29.392  1.00  0.00     0.029 A 
ATOM     50  N   UNL A   1      43.934  29.644  28.473  1.00  0.00    -0.354 N 
ATOM     51  N   UNL A   1      46.591  28.848  27.494  1.00  0.00    -0.248 NA
ATOM     52  C   UNL A   1      48.806  29.382  26.974  1.00  0.00     0.031 C 
ATOM     53  C   UNL A   1      43.652  31.730  29.176  1.00  0.00     0.029 A 
ATOM     54  C   UNL A   1      44.586  30.855  28.644  1.00  0.00     0.049 A 
ATOM     55  H   UNL A   1      44.343  28.831  28.099  1.00  0.00     0.167 HD
ATOM     56  C   UNL A   1      46.826  30.183  27.815  1.00  0.00     0.074 A 
ATOM     57  C   UNL A   1      48.218  30.443  27.508  1.00  0.00     0.031 C 
ATOM     58  C   UNL A   1      45.973  31.108  28.323  1.00  0.00     0.034 A 
BRANCH  45  59
ATOM     59  C   UNL A   1      40.215  28.982  29.253  1.00  0.00     0.023 A 
ATOM     60  C   UNL A   1      39.824  28.975  30.604  1.00  0.00     0.031 A 
ATOM     61  C   UNL A   1      39.231  29.256  28.288  1.00  0.00     0.131 A 
ATOM     62  C   UNL A   1      38.476  29.158  30.946  1.00  0.00     0.055 A 
ATOM     63  C   UNL A   1      37.906  29.524  28.641  1.00  0.00     0.041 A 
ATOM     64  F   UNL A   1      39.535  29.256  26.980  1.00  0.00    -0.206 F 
ATOM     65  C   UNL A   1      37.518  29.460  29.975  1.00  0.00     0.022 A 
BRANCH  62  66
ATOM     66  S   UNL A   1      37.967  28.844  32.658  1.00  0.00     0.124 S 
ATOM     67  O   UNL A   1      39.030  29.509  33.409  1.00  0.00    -0.237 OA
ATOM     68  O   UNL A   1      36.653  29.475  32.717  1.00  0.00    -0.237 OA
ATOM     69  O   UNL A   1      37.964  27.386  32.753  1.00  0.00    -0.744 OA
ENDBRANCH  62  66
ENDBRANCH  45  59
BRANCH  46  70
ATOM     70  C   UNL A   1      49.429  26.672  26.042  1.00  0.00     0.023 A 
ATOM     71  C   UNL A   1      49.847  27.137  24.785  1.00  0.00     0.031 A 
ATOM     72  C   UNL A   1      50.314  25.855  26.769  1.00  0.00     0.131 A 
ATOM     73  C   UNL A   1      51.092  26.741  24.270  1.00  0.00     0.055 A 
ATOM     74  C   UNL A   1      51.575  25.513  26.280  1.00  0.00     0.041 A 
ATOM     75  F   UNL A   1      49.967  25.385  27.978  1.00  0.00    -0.206 F 
ATOM     76  C   UNL A   1      51.966  25.945  25.017  1.00  0.00     0.022 A 
BRANCH  73  77
ATOM     77  S   UNL A   1      51.516  27.202  22.568  1.00  0.00     0.124 S 
ATOM     78  O   UNL A   1      52.665  26.344  22.306  1.00  0.00    -0.237 OA
ATOM     79  O   UNL A   1      50.289  26.871  21.852  1.00  0.00    -0.237 OA
ATOM     80  O   UNL A   1      51.811  28.630  22.667  1.00  0.00    -0.744 OA
ENDBRANCH  73  77
ENDBRANCH  46  70
BRANCH  58  81
ATOM     81  C   UNL A   1      46.538  32.476  28.626  1.00  0.00     0.023 A 
ATOM     82  C   UNL A   1      46.501  33.521  27.686  1.00  0.00     0.031 A 
ATOM     83  C   UNL A   1      47.132  32.732  29.875  1.00  0.00     0.131 A 
ATOM     84  C   UNL A   1      47.101  34.754  27.988  1.00  0.00     0.055 A 
ATOM     85  C   UNL A   1      47.665  33.982  30.195  1.00  0.00     0.041 A 
ATOM     86  F   UNL A   1      47.202  31.771  30.810  1.00  0.00    -0.206 F 
ATOM     87  C   UNL A   1      47.663  34.997  29.243  1.00  0.00     0.022 A 
BRANCH  84  88
ATOM     88  S   UNL A   1      47.229  36.003  26.680  1.00  0.00     0.124 S 
ATOM     89  O   UNL A   1      47.789  35.230  25.577  1.00  0.00    -0.237 OA
ATOM     90  O   UNL A   1      45.843  36.432  26.520  1.00  0.00    -0.237 OA
ATOM     91  O   UNL A   1      48.125  37.007  27.250  1.00  0.00    -0.744 OA
ENDBRANCH  84  88
ENDBRANCH  58  81
ENDBRANCH  32  33
ENDBRANCH  24  27
ENDBRANCH  22  23
ENDBRANCH   1  22
TORSDOF 15
ENDMDL
