MODEL 1
REMARK VINA RESULT:     -11.5      0.000      0.000
REMARK SMILES COc1ccc(C(C)(C)C)cc1CC(=O)NCCCNC(=O)c1ccc(-c2c3nc(c(-c4cc(S(=O)(=O)[O-])ccc4F)c4ccc([nH]4)c(-c4cc(S(=O)(=O)[O-])ccc4F)c4nc(c(-c5cc(S(=O)(=O)[O-])ccc5F)c5ccc2[nH]5)C=C4)C=C3)cc1
REMARK SMILES IDX 18 1 17 2 16 3 14 4 15 5 13 7 12 8 3 9 4 10 5 11 11 12 6 13
REMARK SMILES IDX 2 14 1 15 7 16 8 17 9 18 10 19 19 20 20 21 21 22 22 24 23 25
REMARK SMILES IDX 24 26 85 27 25 28 84 29 26 30 27 31 28 32 78 33 29 34 83 35
REMARK SMILES IDX 77 36 79 37 30 38 82 39 76 40 75 41 31 43 63 44 43 45 62 46
REMARK SMILES IDX 44 47 47 48 61 49 80 50 45 51 46 52 60 54 81 55 48 56 32 57
REMARK SMILES IDX 33 58 41 59 34 60 40 61 42 62 39 63 35 64 36 65 37 66 38 67
REMARK SMILES IDX 64 68 65 69 73 70 66 71 72 72 74 73 71 74 67 75 68 76 69 77
REMARK SMILES IDX 70 78 49 79 50 80 58 81 51 82 57 83 59 84 56 85 52 86 53 87
REMARK SMILES IDX 54 88 55 89
REMARK H PARENT 16 6 20 23 79 42 47 53
REMARK Flexibility Score: inf
ROOT
ATOM      1  C   UNL A   1      32.708  29.022  24.024  1.00  0.00     0.042 C 
ENDROOT
BRANCH   1   2
ATOM      2  C   UNL A   1      33.271  27.714  23.477  1.00  0.00     0.117 C 
BRANCH   2   3
ATOM      3  N   UNL A   1      32.236  26.721  23.258  1.00  0.00    -0.356 N 
ATOM      4  C   UNL A   1      31.783  25.762  24.119  1.00  0.00     0.224 C 
ATOM      5  O   UNL A   1      30.925  24.969  23.726  1.00  0.00    -0.275 OA
ATOM      6  H   UNL A   1      31.805  26.739  22.373  1.00  0.00     0.163 HD
BRANCH   4   7
ATOM      7  C   UNL A   1      32.307  25.719  25.543  1.00  0.00     0.139 C 
BRANCH   7   8
ATOM      8  C   UNL A   1      33.017  24.433  25.894  1.00  0.00     0.004 A 
ATOM      9  C   UNL A   1      32.479  23.501  26.788  1.00  0.00     0.122 A 
ATOM     10  C   UNL A   1      33.213  22.379  27.165  1.00  0.00     0.047 A 
ATOM     11  C   UNL A   1      34.472  22.146  26.608  1.00  0.00     0.008 A 
ATOM     12  C   UNL A   1      34.280  24.167  25.325  1.00  0.00     0.012 A 
ATOM     13  C   UNL A   1      35.032  23.028  25.665  1.00  0.00    -0.042 A 
BRANCH   9  14
ATOM     14  O   UNL A   1      31.282  23.707  27.418  1.00  0.00    -0.496 OA
ATOM     15  C   UNL A   1      30.257  22.884  26.860  1.00  0.00     0.278 C 
ENDBRANCH   9  14
BRANCH  13  16
ATOM     16  C   UNL A   1      36.423  22.741  25.070  1.00  0.00    -0.013 C 
ATOM     17  C   UNL A   1      36.387  22.943  23.539  1.00  0.00     0.016 C 
ATOM     18  C   UNL A   1      37.459  23.706  25.685  1.00  0.00     0.016 C 
ATOM     19  C   UNL A   1      36.929  21.304  25.330  1.00  0.00     0.016 C 
ENDBRANCH  13  16
ENDBRANCH   7   8
ENDBRANCH   4   7
ENDBRANCH   2   3
ENDBRANCH   1   2
BRANCH   1  20
ATOM     20  C   UNL A   1      33.220  29.364  25.418  1.00  0.00     0.118 C 
BRANCH  20  21
ATOM     21  N   UNL A   1      32.664  30.613  25.925  1.00  0.00    -0.352 N 
ATOM     22  C   UNL A   1      33.099  31.402  26.962  1.00  0.00     0.251 C 
ATOM     23  H   UNL A   1      31.859  30.936  25.458  1.00  0.00     0.163 HD
ATOM     24  O   UNL A   1      32.394  32.326  27.361  1.00  0.00    -0.269 OA
BRANCH  22  25
ATOM     25  C   UNL A   1      34.400  31.120  27.603  1.00  0.00     0.039 A 
ATOM     26  C   UNL A   1      35.357  32.136  27.680  1.00  0.00     0.014 A 
ATOM     27  C   UNL A   1      34.670  29.854  28.128  1.00  0.00     0.014 A 
ATOM     28  C   UNL A   1      36.561  31.903  28.347  1.00  0.00     0.010 A 
ATOM     29  C   UNL A   1      35.841  29.645  28.848  1.00  0.00     0.010 A 
ATOM     30  C   UNL A   1      36.797  30.667  28.967  1.00  0.00    -0.014 A 
BRANCH  30  31
ATOM     31  C   UNL A   1      38.039  30.387  29.732  1.00  0.00     0.031 A 
ATOM     32  C   UNL A   1      39.050  29.429  29.167  1.00  0.00     0.074 A 
ATOM     33  C   UNL A   1      38.204  30.901  30.966  1.00  0.00     0.049 A 
ATOM     34  N   UNL A   1      40.082  28.872  29.745  1.00  0.00    -0.248 NA
ATOM     35  C   UNL A   1      38.843  29.016  27.770  1.00  0.00     0.031 C 
ATOM     36  C   UNL A   1      37.288  31.835  31.624  1.00  0.00     0.029 A 
ATOM     37  N   UNL A   1      39.186  30.686  31.901  1.00  0.00    -0.354 N 
ATOM     38  C   UNL A   1      40.630  28.017  28.794  1.00  0.00     0.074 A 
ATOM     39  C   UNL A   1      39.785  28.098  27.620  1.00  0.00     0.031 C 
ATOM     40  C   UNL A   1      37.753  32.115  32.852  1.00  0.00     0.029 A 
ATOM     41  C   UNL A   1      38.964  31.336  33.094  1.00  0.00     0.049 A 
ATOM     42  H   UNL A   1      39.974  30.121  31.734  1.00  0.00     0.167 HD
ATOM     43  C   UNL A   1      41.743  27.248  28.888  1.00  0.00     0.034 A 
ATOM     44  C   UNL A   1      39.641  31.284  34.258  1.00  0.00     0.034 A 
ATOM     45  C   UNL A   1      42.579  27.196  30.063  1.00  0.00     0.049 A 
ATOM     46  C   UNL A   1      40.856  30.394  34.356  1.00  0.00     0.074 A 
ATOM     47  C   UNL A   1      43.748  26.483  30.259  1.00  0.00     0.029 A 
ATOM     48  N   UNL A   1      42.332  27.886  31.243  1.00  0.00    -0.354 N 
ATOM     49  N   UNL A   1      41.370  29.597  33.448  1.00  0.00    -0.248 NA
ATOM     50  C   UNL A   1      41.583  30.399  35.632  1.00  0.00     0.031 C 
ATOM     51  C   UNL A   1      44.176  26.695  31.575  1.00  0.00     0.029 A 
ATOM     52  C   UNL A   1      43.315  27.599  32.177  1.00  0.00     0.049 A 
ATOM     53  H   UNL A   1      41.570  28.491  31.395  1.00  0.00     0.167 HD
ATOM     54  C   UNL A   1      42.503  29.039  34.031  1.00  0.00     0.074 A 
ATOM     55  C   UNL A   1      42.596  29.586  35.369  1.00  0.00     0.031 C 
ATOM     56  C   UNL A   1      43.395  28.163  33.504  1.00  0.00     0.034 A 
BRANCH  43  57
ATOM     57  C   UNL A   1      42.089  26.381  27.702  1.00  0.00     0.023 A 
ATOM     58  C   UNL A   1      41.729  25.023  27.650  1.00  0.00     0.031 A 
ATOM     59  C   UNL A   1      42.825  26.906  26.626  1.00  0.00     0.131 A 
ATOM     60  C   UNL A   1      42.177  24.219  26.593  1.00  0.00     0.055 A 
ATOM     61  C   UNL A   1      43.194  26.121  25.532  1.00  0.00     0.041 A 
ATOM     62  F   UNL A   1      43.216  28.190  26.626  1.00  0.00    -0.206 F 
ATOM     63  C   UNL A   1      42.886  24.763  25.520  1.00  0.00     0.022 A 
BRANCH  60  64
ATOM     64  S   UNL A   1      41.959  22.423  26.721  1.00  0.00     0.124 S 
ATOM     65  O   UNL A   1      42.842  22.098  27.839  1.00  0.00    -0.237 OA
ATOM     66  O   UNL A   1      40.529  22.297  26.979  1.00  0.00    -0.237 OA
ATOM     67  O   UNL A   1      42.404  21.929  25.419  1.00  0.00    -0.744 OA
ENDBRANCH  60  64
ENDBRANCH  43  57
BRANCH  44  68
ATOM     68  C   UNL A   1      39.181  32.075  35.435  1.00  0.00     0.023 A 
ATOM     69  C   UNL A   1      38.517  31.452  36.504  1.00  0.00     0.031 A 
ATOM     70  C   UNL A   1      39.366  33.467  35.494  1.00  0.00     0.131 A 
ATOM     71  C   UNL A   1      38.022  32.226  37.565  1.00  0.00     0.055 A 
ATOM     72  C   UNL A   1      38.917  34.225  36.577  1.00  0.00     0.041 A 
ATOM     73  F   UNL A   1      39.999  34.111  34.501  1.00  0.00    -0.206 F 
ATOM     74  C   UNL A   1      38.229  33.606  37.616  1.00  0.00     0.022 A 
BRANCH  71  75
ATOM     75  S   UNL A   1      37.029  31.409  38.845  1.00  0.00     0.124 S 
ATOM     76  O   UNL A   1      37.905  31.508  40.007  1.00  0.00    -0.237 OA
ATOM     77  O   UNL A   1      35.829  32.238  38.873  1.00  0.00    -0.237 OA
ATOM     78  O   UNL A   1      36.840  30.060  38.317  1.00  0.00    -0.744 OA
ENDBRANCH  71  75
ENDBRANCH  44  68
BRANCH  56  79
ATOM     79  C   UNL A   1      44.592  27.802  34.346  1.00  0.00     0.023 A 
ATOM     80  C   UNL A   1      44.598  26.681  35.193  1.00  0.00     0.031 A 
ATOM     81  C   UNL A   1      45.756  28.589  34.273  1.00  0.00     0.131 A 
ATOM     82  C   UNL A   1      45.739  26.396  35.960  1.00  0.00     0.055 A 
ATOM     83  C   UNL A   1      46.903  28.272  35.000  1.00  0.00     0.041 A 
ATOM     84  F   UNL A   1      45.800  29.670  33.479  1.00  0.00    -0.206 F 
ATOM     85  C   UNL A   1      46.896  27.174  35.856  1.00  0.00     0.022 A 
BRANCH  82  86
ATOM     86  S   UNL A   1      45.679  25.018  37.138  1.00  0.00     0.124 S 
ATOM     87  O   UNL A   1      45.289  23.904  36.281  1.00  0.00    -0.237 OA
ATOM     88  O   UNL A   1      47.046  24.981  37.648  1.00  0.00    -0.237 OA
ATOM     89  O   UNL A   1      44.669  25.439  38.108  1.00  0.00    -0.744 OA
ENDBRANCH  82  86
ENDBRANCH  56  79
ENDBRANCH  30  31
ENDBRANCH  22  25
ENDBRANCH  20  21
ENDBRANCH   1  20
TORSDOF 16
ENDMDL
MODEL 2
REMARK VINA RESULT:     -11.4      1.673      2.065
REMARK SMILES COc1ccc(C(C)(C)C)cc1CC(=O)NCCCNC(=O)c1ccc(-c2c3nc(c(-c4cc(S(=O)(=O)[O-])ccc4F)c4ccc([nH]4)c(-c4cc(S(=O)(=O)[O-])ccc4F)c4nc(c(-c5cc(S(=O)(=O)[O-])ccc5F)c5ccc2[nH]5)C=C4)C=C3)cc1
REMARK SMILES IDX 18 1 17 2 16 3 14 4 15 5 13 7 12 8 3 9 4 10 5 11 11 12 6 13
REMARK SMILES IDX 2 14 1 15 7 16 8 17 9 18 10 19 19 20 20 21 21 22 22 24 23 25
REMARK SMILES IDX 24 26 85 27 25 28 84 29 26 30 27 31 28 32 78 33 29 34 83 35
REMARK SMILES IDX 77 36 79 37 30 38 82 39 76 40 75 41 31 43 63 44 43 45 62 46
REMARK SMILES IDX 44 47 47 48 61 49 80 50 45 51 46 52 60 54 81 55 48 56 32 57
REMARK SMILES IDX 33 58 41 59 34 60 40 61 42 62 39 63 35 64 36 65 37 66 38 67
REMARK SMILES IDX 64 68 65 69 73 70 66 71 72 72 74 73 71 74 67 75 68 76 69 77
REMARK SMILES IDX 70 78 49 79 50 80 58 81 51 82 57 83 59 84 56 85 52 86 53 87
REMARK SMILES IDX 54 88 55 89
REMARK H PARENT 16 6 20 23 79 42 47 53
REMARK Flexibility Score: inf
ROOT
ATOM      1  C   UNL A   1      33.781  28.926  23.400  1.00  0.00     0.042 C 
ENDROOT
BRANCH   1   2
ATOM      2  C   UNL A   1      32.593  28.227  22.746  1.00  0.00     0.117 C 
BRANCH   2   3
ATOM      3  N   UNL A   1      32.996  27.386  21.633  1.00  0.00    -0.356 N 
ATOM      4  C   UNL A   1      32.812  26.042  21.474  1.00  0.00     0.224 C 
ATOM      5  O   UNL A   1      33.278  25.494  20.473  1.00  0.00    -0.275 OA
ATOM      6  H   UNL A   1      33.463  27.844  20.898  1.00  0.00     0.163 HD
BRANCH   4   7
ATOM      7  C   UNL A   1      32.009  25.264  22.501  1.00  0.00     0.139 C 
BRANCH   7   8
ATOM      8  C   UNL A   1      32.788  24.909  23.745  1.00  0.00     0.004 A 
ATOM      9  C   UNL A   1      32.400  25.338  25.018  1.00  0.00     0.122 A 
ATOM     10  C   UNL A   1      33.202  25.078  26.126  1.00  0.00     0.047 A 
ATOM     11  C   UNL A   1      34.376  24.335  25.983  1.00  0.00     0.008 A 
ATOM     12  C   UNL A   1      33.963  24.139  23.624  1.00  0.00     0.012 A 
ATOM     13  C   UNL A   1      34.779  23.837  24.730  1.00  0.00    -0.042 A 
BRANCH   9  14
ATOM     14  O   UNL A   1      31.298  26.127  25.215  1.00  0.00    -0.496 OA
ATOM     15  C   UNL A   1      31.336  26.756  26.495  1.00  0.00     0.278 C 
ENDBRANCH   9  14
BRANCH  13  16
ATOM     16  C   UNL A   1      36.079  23.020  24.606  1.00  0.00    -0.013 C 
ATOM     17  C   UNL A   1      35.847  21.587  25.132  1.00  0.00     0.016 C 
ATOM     18  C   UNL A   1      36.510  22.954  23.124  1.00  0.00     0.016 C 
ATOM     19  C   UNL A   1      37.267  23.612  25.398  1.00  0.00     0.016 C 
ENDBRANCH  13  16
ENDBRANCH   7   8
ENDBRANCH   4   7
ENDBRANCH   2   3
ENDBRANCH   1   2
BRANCH   1  20
ATOM     20  C   UNL A   1      33.694  28.970  24.921  1.00  0.00     0.118 C 
BRANCH  20  21
ATOM     21  N   UNL A   1      32.873  30.076  25.400  1.00  0.00    -0.352 N 
ATOM     22  C   UNL A   1      32.991  30.812  26.553  1.00  0.00     0.251 C 
ATOM     23  H   UNL A   1      32.124  30.331  24.812  1.00  0.00     0.163 HD
ATOM     24  O   UNL A   1      32.095  31.588  26.876  1.00  0.00    -0.269 OA
BRANCH  22  25
ATOM     25  C   UNL A   1      34.185  30.648  27.408  1.00  0.00     0.039 A 
ATOM     26  C   UNL A   1      34.438  29.406  27.996  1.00  0.00     0.014 A 
ATOM     27  C   UNL A   1      35.053  31.721  27.626  1.00  0.00     0.014 A 
ATOM     28  C   UNL A   1      35.601  29.218  28.747  1.00  0.00     0.010 A 
ATOM     29  C   UNL A   1      36.241  31.514  28.318  1.00  0.00     0.010 A 
ATOM     30  C   UNL A   1      36.529  30.262  28.883  1.00  0.00    -0.014 A 
BRANCH  30  31
ATOM     31  C   UNL A   1      37.803  30.098  29.628  1.00  0.00     0.031 A 
ATOM     32  C   UNL A   1      38.865  29.190  29.074  1.00  0.00     0.074 A 
ATOM     33  C   UNL A   1      37.958  30.668  30.838  1.00  0.00     0.049 A 
ATOM     34  N   UNL A   1      39.945  28.727  29.648  1.00  0.00    -0.248 NA
ATOM     35  C   UNL A   1      38.658  28.710  27.699  1.00  0.00     0.031 C 
ATOM     36  C   UNL A   1      36.994  31.562  31.482  1.00  0.00     0.029 A 
ATOM     37  N   UNL A   1      38.972  30.557  31.756  1.00  0.00    -0.354 N 
ATOM     38  C   UNL A   1      40.530  27.876  28.716  1.00  0.00     0.074 A 
ATOM     39  C   UNL A   1      39.657  27.854  27.561  1.00  0.00     0.031 C 
ATOM     40  C   UNL A   1      37.464  31.920  32.688  1.00  0.00     0.029 A 
ATOM     41  C   UNL A   1      38.732  31.236  32.929  1.00  0.00     0.049 A 
ATOM     42  H   UNL A   1      39.794  30.041  31.592  1.00  0.00     0.167 HD
ATOM     43  C   UNL A   1      41.696  27.188  28.812  1.00  0.00     0.034 A 
ATOM     44  C   UNL A   1      39.435  31.275  34.078  1.00  0.00     0.034 A 
ATOM     45  C   UNL A   1      42.559  27.239  29.967  1.00  0.00     0.049 A 
ATOM     46  C   UNL A   1      40.710  30.475  34.180  1.00  0.00     0.074 A 
ATOM     47  C   UNL A   1      43.778  26.615  30.162  1.00  0.00     0.029 A 
ATOM     48  N   UNL A   1      42.290  27.955  31.127  1.00  0.00    -0.354 N 
ATOM     49  N   UNL A   1      41.259  29.680  33.290  1.00  0.00    -0.248 NA
ATOM     50  C   UNL A   1      41.462  30.578  35.437  1.00  0.00     0.031 C 
ATOM     51  C   UNL A   1      44.218  26.907  31.459  1.00  0.00     0.029 A 
ATOM     52  C   UNL A   1      43.310  27.772  32.047  1.00  0.00     0.049 A 
ATOM     53  H   UNL A   1      41.491  28.513  31.275  1.00  0.00     0.167 HD
ATOM     54  C   UNL A   1      42.440  29.224  33.866  1.00  0.00     0.074 A 
ATOM     55  C   UNL A   1      42.523  29.826  35.180  1.00  0.00     0.031 C 
ATOM     56  C   UNL A   1      43.379  28.390  33.350  1.00  0.00     0.034 A 
BRANCH  43  57
ATOM     57  C   UNL A   1      42.076  26.302  27.651  1.00  0.00     0.023 A 
ATOM     58  C   UNL A   1      41.635  24.970  27.564  1.00  0.00     0.031 A 
ATOM     59  C   UNL A   1      42.924  26.780  26.637  1.00  0.00     0.131 A 
ATOM     60  C   UNL A   1      42.111  24.140  26.539  1.00  0.00     0.055 A 
ATOM     61  C   UNL A   1      43.325  25.973  25.570  1.00  0.00     0.041 A 
ATOM     62  F   UNL A   1      43.395  28.037  26.674  1.00  0.00    -0.206 F 
ATOM     63  C   UNL A   1      42.932  24.639  25.527  1.00  0.00     0.022 A 
BRANCH  60  64
ATOM     64  S   UNL A   1      41.769  22.362  26.640  1.00  0.00     0.124 S 
ATOM     65  O   UNL A   1      42.536  21.981  27.823  1.00  0.00    -0.237 OA
ATOM     66  O   UNL A   1      40.318  22.327  26.780  1.00  0.00    -0.237 OA
ATOM     67  O   UNL A   1      42.286  21.840  25.376  1.00  0.00    -0.744 OA
ENDBRANCH  60  64
ENDBRANCH  43  57
BRANCH  44  68
ATOM     68  C   UNL A   1      38.946  32.077  35.236  1.00  0.00     0.023 A 
ATOM     69  C   UNL A   1      38.404  31.448  36.368  1.00  0.00     0.031 A 
ATOM     70  C   UNL A   1      38.981  33.483  35.215  1.00  0.00     0.131 A 
ATOM     71  C   UNL A   1      37.878  32.224  37.413  1.00  0.00     0.055 A 
ATOM     72  C   UNL A   1      38.503  34.248  36.280  1.00  0.00     0.041 A 
ATOM     73  F   UNL A   1      39.493  34.133  34.158  1.00  0.00    -0.206 F 
ATOM     74  C   UNL A   1      37.935  33.618  37.383  1.00  0.00     0.022 A 
BRANCH  71  75
ATOM     75  S   UNL A   1      37.041  31.379  38.783  1.00  0.00     0.124 S 
ATOM     76  O   UNL A   1      37.986  31.578  39.875  1.00  0.00    -0.237 OA
ATOM     77  O   UNL A   1      35.787  32.120  38.875  1.00  0.00    -0.237 OA
ATOM     78  O   UNL A   1      36.916  30.003  38.307  1.00  0.00    -0.744 OA
ENDBRANCH  71  75
ENDBRANCH  44  68
BRANCH  56  79
ATOM     79  C   UNL A   1      44.615  28.145  34.176  1.00  0.00     0.023 A 
ATOM     80  C   UNL A   1      45.726  29.005  34.130  1.00  0.00     0.031 A 
ATOM     81  C   UNL A   1      44.664  27.040  35.045  1.00  0.00     0.131 A 
ATOM     82  C   UNL A   1      46.854  28.725  34.917  1.00  0.00     0.055 A 
ATOM     83  C   UNL A   1      45.768  26.795  35.861  1.00  0.00     0.041 A 
ATOM     84  F   UNL A   1      43.628  26.190  35.125  1.00  0.00    -0.206 F 
ATOM     85  C   UNL A   1      46.876  27.637  35.793  1.00  0.00     0.022 A 
BRANCH  82  86
ATOM     86  S   UNL A   1      48.322  29.778  34.747  1.00  0.00     0.124 S 
ATOM     87  O   UNL A   1      49.262  28.882  34.082  1.00  0.00    -0.237 OA
ATOM     88  O   UNL A   1      47.822  30.887  33.942  1.00  0.00    -0.237 OA
ATOM     89  O   UNL A   1      48.661  30.120  36.127  1.00  0.00    -0.744 OA
ENDBRANCH  82  86
ENDBRANCH  56  79
ENDBRANCH  30  31
ENDBRANCH  22  25
ENDBRANCH  20  21
ENDBRANCH   1  20
TORSDOF 16
ENDMDL
MODEL 3
REMARK VINA RESULT:     -11.4      2.367      3.462
REMARK SMILES COc1ccc(C(C)(C)C)cc1CC(=O)NCCCNC(=O)c1ccc(-c2c3nc(c(-c4cc(S(=O)(=O)[O-])ccc4F)c4ccc([nH]4)c(-c4cc(S(=O)(=O)[O-])ccc4F)c4nc(c(-c5cc(S(=O)(=O)[O-])ccc5F)c5ccc2[nH]5)C=C4)C=C3)cc1
REMARK SMILES IDX 18 1 17 2 16 3 14 4 15 5 13 7 12 8 3 9 4 10 5 11 11 12 6 13
REMARK SMILES IDX 2 14 1 15 7 16 8 17 9 18 10 19 19 20 20 21 21 22 22 24 23 25
REMARK SMILES IDX 24 26 85 27 25 28 84 29 26 30 27 31 28 32 78 33 29 34 83 35
REMARK SMILES IDX 77 36 79 37 30 38 82 39 76 40 75 41 31 43 63 44 43 45 62 46
REMARK SMILES IDX 44 47 47 48 61 49 80 50 45 51 46 52 60 54 81 55 48 56 32 57
REMARK SMILES IDX 33 58 41 59 34 60 40 61 42 62 39 63 35 64 36 65 37 66 38 67
REMARK SMILES IDX 64 68 65 69 73 70 66 71 72 72 74 73 71 74 67 75 68 76 69 77
REMARK SMILES IDX 70 78 49 79 50 80 58 81 51 82 57 83 59 84 56 85 52 86 53 87
REMARK SMILES IDX 54 88 55 89
REMARK H PARENT 16 6 20 23 79 42 47 53
REMARK Flexibility Score: inf
ROOT
ATOM      1  C   UNL A   1      31.722  31.703  26.722  1.00  0.00     0.042 C 
ENDROOT
BRANCH   1   2
ATOM      2  C   UNL A   1      32.134  30.397  26.050  1.00  0.00     0.117 C 
BRANCH   2   3
ATOM      3  N   UNL A   1      33.524  30.065  26.302  1.00  0.00    -0.356 N 
ATOM      4  C   UNL A   1      34.068  28.843  26.578  1.00  0.00     0.224 C 
ATOM      5  O   UNL A   1      35.276  28.772  26.818  1.00  0.00    -0.275 OA
ATOM      6  H   UNL A   1      34.157  30.818  26.271  1.00  0.00     0.163 HD
BRANCH   4   7
ATOM      7  C   UNL A   1      33.194  27.602  26.543  1.00  0.00     0.139 C 
BRANCH   7   8
ATOM      8  C   UNL A   1      33.585  26.609  25.475  1.00  0.00     0.004 A 
ATOM      9  C   UNL A   1      33.478  26.896  24.110  1.00  0.00     0.122 A 
ATOM     10  C   UNL A   1      33.749  25.917  23.159  1.00  0.00     0.047 A 
ATOM     11  C   UNL A   1      34.188  24.653  23.559  1.00  0.00     0.008 A 
ATOM     12  C   UNL A   1      34.054  25.335  25.859  1.00  0.00     0.012 A 
ATOM     13  C   UNL A   1      34.363  24.335  24.919  1.00  0.00    -0.042 A 
BRANCH   9  14
ATOM     14  O   UNL A   1      32.989  28.092  23.656  1.00  0.00    -0.496 OA
ATOM     15  C   UNL A   1      33.673  28.514  22.477  1.00  0.00     0.278 C 
ENDBRANCH   9  14
BRANCH  13  16
ATOM     16  C   UNL A   1      34.849  22.932  25.328  1.00  0.00    -0.013 C 
ATOM     17  C   UNL A   1      34.455  22.650  26.794  1.00  0.00     0.016 C 
ATOM     18  C   UNL A   1      34.197  21.871  24.414  1.00  0.00     0.016 C 
ATOM     19  C   UNL A   1      36.380  22.745  25.221  1.00  0.00     0.016 C 
ENDBRANCH  13  16
ENDBRANCH   7   8
ENDBRANCH   4   7
ENDBRANCH   2   3
ENDBRANCH   1   2
BRANCH   1  20
ATOM     20  C   UNL A   1      32.885  32.438  27.379  1.00  0.00     0.118 C 
BRANCH  20  21
ATOM     21  N   UNL A   1      32.564  33.827  27.685  1.00  0.00    -0.352 N 
ATOM     22  C   UNL A   1      33.098  34.652  28.644  1.00  0.00     0.251 C 
ATOM     23  H   UNL A   1      31.863  34.232  27.123  1.00  0.00     0.163 HD
ATOM     24  O   UNL A   1      32.573  35.739  28.873  1.00  0.00    -0.269 OA
BRANCH  22  25
ATOM     25  C   UNL A   1      34.285  34.217  29.409  1.00  0.00     0.039 A 
ATOM     26  C   UNL A   1      34.109  33.438  30.555  1.00  0.00     0.014 A 
ATOM     27  C   UNL A   1      35.568  34.577  28.990  1.00  0.00     0.014 A 
ATOM     28  C   UNL A   1      35.226  32.959  31.245  1.00  0.00     0.010 A 
ATOM     29  C   UNL A   1      36.677  34.045  29.639  1.00  0.00     0.010 A 
ATOM     30  C   UNL A   1      36.518  33.230  30.771  1.00  0.00    -0.014 A 
BRANCH  30  31
ATOM     31  C   UNL A   1      37.734  32.702  31.439  1.00  0.00     0.031 A 
ATOM     32  C   UNL A   1      38.474  31.551  30.816  1.00  0.00     0.074 A 
ATOM     33  C   UNL A   1      38.105  33.177  32.644  1.00  0.00     0.049 A 
ATOM     34  N   UNL A   1      39.412  30.794  31.321  1.00  0.00    -0.248 NA
ATOM     35  C   UNL A   1      38.070  31.183  29.451  1.00  0.00     0.031 C 
ATOM     36  C   UNL A   1      37.462  34.285  33.352  1.00  0.00     0.029 A 
ATOM     37  N   UNL A   1      39.096  32.768  33.501  1.00  0.00    -0.354 N 
ATOM     38  C   UNL A   1      39.689  29.839  30.349  1.00  0.00     0.074 A 
ATOM     39  C   UNL A   1      38.784  30.088  29.246  1.00  0.00     0.031 C 
ATOM     40  C   UNL A   1      38.075  34.469  34.532  1.00  0.00     0.029 A 
ATOM     41  C   UNL A   1      39.115  33.456  34.693  1.00  0.00     0.049 A 
ATOM     42  H   UNL A   1      39.733  32.050  33.284  1.00  0.00     0.167 HD
ATOM     43  C   UNL A   1      40.623  28.855  30.371  1.00  0.00     0.034 A 
ATOM     44  C   UNL A   1      39.861  33.270  35.799  1.00  0.00     0.034 A 
ATOM     45  C   UNL A   1      41.526  28.637  31.475  1.00  0.00     0.049 A 
ATOM     46  C   UNL A   1      40.869  32.147  35.819  1.00  0.00     0.074 A 
ATOM     47  C   UNL A   1      42.533  27.696  31.592  1.00  0.00     0.029 A 
ATOM     48  N   UNL A   1      41.527  29.369  32.655  1.00  0.00    -0.354 N 
ATOM     49  N   UNL A   1      41.128  31.255  34.891  1.00  0.00    -0.248 NA
ATOM     50  C   UNL A   1      41.685  32.007  37.032  1.00  0.00     0.031 C 
ATOM     51  C   UNL A   1      43.105  27.822  32.864  1.00  0.00     0.029 A 
ATOM     52  C   UNL A   1      42.504  28.888  33.513  1.00  0.00     0.049 A 
ATOM     53  H   UNL A   1      40.922  30.121  32.854  1.00  0.00     0.167 HD
ATOM     54  C   UNL A   1      42.166  30.477  35.393  1.00  0.00     0.074 A 
ATOM     55  C   UNL A   1      42.482  30.999  36.706  1.00  0.00     0.031 C 
ATOM     56  C   UNL A   1      42.810  29.430  34.815  1.00  0.00     0.034 A 
BRANCH  43  57
ATOM     57  C   UNL A   1      40.681  27.928  29.181  1.00  0.00     0.023 A 
ATOM     58  C   UNL A   1      41.621  28.109  28.151  1.00  0.00     0.031 A 
ATOM     59  C   UNL A   1      39.760  26.874  29.052  1.00  0.00     0.131 A 
ATOM     60  C   UNL A   1      41.563  27.308  27.001  1.00  0.00     0.055 A 
ATOM     61  C   UNL A   1      39.763  26.024  27.944  1.00  0.00     0.041 A 
ATOM     62  F   UNL A   1      38.826  26.663  29.992  1.00  0.00    -0.206 F 
ATOM     63  C   UNL A   1      40.657  26.250  26.901  1.00  0.00     0.022 A 
BRANCH  60  64
ATOM     64  S   UNL A   1      42.581  27.772  25.573  1.00  0.00     0.124 S 
ATOM     65  O   UNL A   1      42.458  26.587  24.727  1.00  0.00    -0.237 OA
ATOM     66  O   UNL A   1      41.915  28.975  25.089  1.00  0.00    -0.237 OA
ATOM     67  O   UNL A   1      43.907  27.982  26.151  1.00  0.00    -0.744 OA
ENDBRANCH  60  64
ENDBRANCH  43  57
BRANCH  44  68
ATOM     68  C   UNL A   1      39.675  34.146  36.991  1.00  0.00     0.023 A 
ATOM     69  C   UNL A   1      39.096  33.645  38.168  1.00  0.00     0.031 A 
ATOM     70  C   UNL A   1      40.040  35.504  36.962  1.00  0.00     0.131 A 
ATOM     71  C   UNL A   1      38.858  34.505  39.251  1.00  0.00     0.055 A 
ATOM     72  C   UNL A   1      39.848  36.343  38.061  1.00  0.00     0.041 A 
ATOM     73  F   UNL A   1      40.603  36.032  35.863  1.00  0.00    -0.206 F 
ATOM     74  C   UNL A   1      39.241  35.847  39.211  1.00  0.00     0.022 A 
BRANCH  71  75
ATOM     75  S   UNL A   1      37.961  33.860  40.690  1.00  0.00     0.124 S 
ATOM     76  O   UNL A   1      37.592  35.088  41.384  1.00  0.00    -0.237 OA
ATOM     77  O   UNL A   1      36.869  33.124  40.061  1.00  0.00    -0.237 OA
ATOM     78  O   UNL A   1      38.958  33.034  41.368  1.00  0.00    -0.744 OA
ENDBRANCH  71  75
ENDBRANCH  44  68
BRANCH  56  79
ATOM     79  C   UNL A   1      43.972  28.833  35.566  1.00  0.00     0.023 A 
ATOM     80  C   UNL A   1      43.811  27.764  36.464  1.00  0.00     0.031 A 
ATOM     81  C   UNL A   1      45.269  29.334  35.353  1.00  0.00     0.131 A 
ATOM     82  C   UNL A   1      44.928  27.250  37.141  1.00  0.00     0.055 A 
ATOM     83  C   UNL A   1      46.382  28.787  35.992  1.00  0.00     0.041 A 
ATOM     84  F   UNL A   1      45.475  30.355  34.505  1.00  0.00    -0.206 F 
ATOM     85  C   UNL A   1      46.213  27.744  36.898  1.00  0.00     0.022 A 
BRANCH  82  86
ATOM     86  S   UNL A   1      44.677  25.955  38.386  1.00  0.00     0.124 S 
ATOM     87  O   UNL A   1      46.043  25.510  38.640  1.00  0.00    -0.237 OA
ATOM     88  O   UNL A   1      44.032  26.685  39.473  1.00  0.00    -0.237 OA
ATOM     89  O   UNL A   1      43.824  24.983  37.703  1.00  0.00    -0.744 OA
ENDBRANCH  82  86
ENDBRANCH  56  79
ENDBRANCH  30  31
ENDBRANCH  22  25
ENDBRANCH  20  21
ENDBRANCH   1  20
TORSDOF 16
ENDMDL
