MODEL 1
REMARK VINA RESULT:     -11.0      0.000      0.000
REMARK SMILES CC(C)(C[NH2+]Cc1ccc2c(c1)OCO2)C(=O)NCCCNC(=O)c1ccc(-c2c3nc(c(-c4cc(S(=O)(=O)[O-])ccc4F)c4ccc([nH]4)c(-c4cc(S(=O)(=O)[O-])ccc4F)c4nc(c(-c5cc(S(=O)(=O)[O-])ccc5F)c5ccc2[nH]5)C=C4)C=C3)cc1
REMARK SMILES IDX 19 1 18 2 16 3 17 4 2 6 1 7 3 8 4 9 5 10 6 13 7 14 8 15
REMARK SMILES IDX 12 16 9 17 11 18 10 19 13 20 15 21 14 22 20 23 21 24 22 25
REMARK SMILES IDX 23 26 24 28 25 29 26 30 87 31 27 32 86 33 28 34 29 35 30 36
REMARK SMILES IDX 80 37 31 38 85 39 79 40 81 41 32 42 84 43 78 44 77 45 33 47
REMARK SMILES IDX 65 48 45 49 64 50 46 51 49 52 63 53 82 54 47 55 48 56 62 58
REMARK SMILES IDX 83 59 50 60 34 61 35 62 43 63 36 64 42 65 44 66 41 67 37 68
REMARK SMILES IDX 38 69 39 70 40 71 66 72 67 73 75 74 68 75 74 76 76 77 73 78
REMARK SMILES IDX 69 79 70 80 71 81 72 82 51 83 52 84 60 85 53 86 59 87 61 88
REMARK SMILES IDX 58 89 54 90 55 91 56 92 57 93
REMARK H PARENT 18 5 5 11 5 12 22 27 81 46 49 57
REMARK Flexibility Score: inf
ROOT
ATOM      1  C   UNL A   1      36.830  20.674  24.662  1.00  0.00     0.117 C 
ENDROOT
BRANCH   1   2
ATOM      2  N   UNL A   1      35.920  20.827  25.781  1.00  0.00    -0.355 N 
ATOM      3  C   UNL A   1      35.025  21.796  26.117  1.00  0.00     0.231 C 
ATOM      4  O   UNL A   1      34.377  21.593  27.150  1.00  0.00    -0.274 OA
ATOM      5  H   UNL A   1      35.956  20.084  26.425  1.00  0.00     0.163 HD
BRANCH   3   6
ATOM      6  C   UNL A   1      34.772  23.040  25.247  1.00  0.00     0.092 C 
ATOM      7  C   UNL A   1      36.138  23.644  24.829  1.00  0.00     0.027 C 
ATOM      8  C   UNL A   1      34.072  24.131  26.086  1.00  0.00     0.027 C 
BRANCH   6   9
ATOM      9  C   UNL A   1      33.952  22.719  23.972  1.00  0.00     0.277 C 
BRANCH   9  10
ATOM     10  N   UNL A   1      32.638  22.113  24.231  1.00  0.00    -0.342 N 
ATOM     11  H   UNL A   1      31.967  22.861  24.409  1.00  0.00     0.346 HD
ATOM     12  H   UNL A   1      32.744  21.492  25.033  1.00  0.00     0.346 HD
BRANCH  10  13
ATOM     13  C   UNL A   1      32.142  21.298  23.113  1.00  0.00     0.297 C 
BRANCH  13  14
ATOM     14  C   UNL A   1      32.330  19.816  23.342  1.00  0.00     0.010 A 
ATOM     15  C   UNL A   1      32.471  18.947  22.233  1.00  0.00     0.013 A 
ATOM     16  C   UNL A   1      32.494  19.315  24.644  1.00  0.00     0.060 A 
ATOM     17  C   UNL A   1      32.818  17.606  22.410  1.00  0.00     0.051 A 
ATOM     18  C   UNL A   1      32.844  17.990  24.785  1.00  0.00     0.166 A 
ATOM     19  C   UNL A   1      33.010  17.162  23.699  1.00  0.00     0.165 A 
ATOM     20  O   UNL A   1      33.101  17.359  25.963  1.00  0.00    -0.454 OA
ATOM     21  O   UNL A   1      33.397  15.908  24.056  1.00  0.00    -0.454 OA
ATOM     22  C   UNL A   1      33.452  16.042  25.491  1.00  0.00     0.468 C 
ENDBRANCH  13  14
ENDBRANCH  10  13
ENDBRANCH   9  10
ENDBRANCH   6   9
ENDBRANCH   3   6
ENDBRANCH   1   2
BRANCH   1  23
ATOM     23  C   UNL A   1      37.904  19.624  24.918  1.00  0.00     0.042 C 
BRANCH  23  24
ATOM     24  C   UNL A   1      38.817  19.951  26.092  1.00  0.00     0.118 C 
BRANCH  24  25
ATOM     25  N   UNL A   1      40.051  19.175  26.069  1.00  0.00    -0.352 N 
ATOM     26  C   UNL A   1      41.360  19.584  26.114  1.00  0.00     0.251 C 
ATOM     27  H   UNL A   1      39.926  18.200  26.013  1.00  0.00     0.163 HD
ATOM     28  O   UNL A   1      42.248  18.773  25.847  1.00  0.00    -0.269 OA
BRANCH  26  29
ATOM     29  C   UNL A   1      41.706  20.980  26.456  1.00  0.00     0.039 A 
ATOM     30  C   UNL A   1      42.252  21.255  27.712  1.00  0.00     0.014 A 
ATOM     31  C   UNL A   1      41.471  22.023  25.557  1.00  0.00     0.014 A 
ATOM     32  C   UNL A   1      42.624  22.562  28.036  1.00  0.00     0.010 A 
ATOM     33  C   UNL A   1      41.929  23.305  25.843  1.00  0.00     0.010 A 
ATOM     34  C   UNL A   1      42.504  23.591  27.088  1.00  0.00    -0.014 A 
BRANCH  34  35
ATOM     35  C   UNL A   1      42.969  24.972  27.383  1.00  0.00     0.031 A 
ATOM     36  C   UNL A   1      42.049  25.953  28.059  1.00  0.00     0.074 A 
ATOM     37  C   UNL A   1      44.196  25.362  26.983  1.00  0.00     0.049 A 
ATOM     38  N   UNL A   1      42.242  27.218  28.334  1.00  0.00    -0.248 NA
ATOM     39  C   UNL A   1      40.722  25.451  28.444  1.00  0.00     0.031 C 
ATOM     40  C   UNL A   1      45.161  24.515  26.276  1.00  0.00     0.029 A 
ATOM     41  N   UNL A   1      44.839  26.567  27.100  1.00  0.00    -0.354 N 
ATOM     42  C   UNL A   1      41.057  27.667  28.908  1.00  0.00     0.074 A 
ATOM     43  C   UNL A   1      40.131  26.555  28.876  1.00  0.00     0.031 C 
ATOM     44  C   UNL A   1      46.281  25.218  26.051  1.00  0.00     0.029 A 
ATOM     45  C   UNL A   1      46.099  26.578  26.545  1.00  0.00     0.049 A 
ATOM     46  H   UNL A   1      44.439  27.351  27.541  1.00  0.00     0.167 HD
ATOM     47  C   UNL A   1      40.777  28.885  29.434  1.00  0.00     0.034 A 
ATOM     48  C   UNL A   1      46.999  27.575  26.431  1.00  0.00     0.034 A 
ATOM     49  C   UNL A   1      41.719  29.979  29.461  1.00  0.00     0.049 A 
ATOM     50  C   UNL A   1      46.659  28.929  26.999  1.00  0.00     0.074 A 
ATOM     51  C   UNL A   1      41.567  31.234  30.024  1.00  0.00     0.029 A 
ATOM     52  N   UNL A   1      42.985  29.955  28.886  1.00  0.00    -0.354 N 
ATOM     53  N   UNL A   1      45.556  29.323  27.595  1.00  0.00    -0.248 NA
ATOM     54  C   UNL A   1      47.688  29.969  26.888  1.00  0.00     0.031 C 
ATOM     55  C   UNL A   1      42.701  31.993  29.719  1.00  0.00     0.029 A 
ATOM     56  C   UNL A   1      43.605  31.186  29.045  1.00  0.00     0.049 A 
ATOM     57  H   UNL A   1      43.383  29.178  28.432  1.00  0.00     0.167 HD
ATOM     58  C   UNL A   1      45.773  30.650  27.955  1.00  0.00     0.074 A 
ATOM     59  C   UNL A   1      47.115  30.981  27.524  1.00  0.00     0.031 C 
ATOM     60  C   UNL A   1      44.939  31.513  28.592  1.00  0.00     0.034 A 
BRANCH  47  61
ATOM     61  C   UNL A   1      39.386  29.099  29.989  1.00  0.00     0.023 A 
ATOM     62  C   UNL A   1      38.397  29.791  29.267  1.00  0.00     0.031 A 
ATOM     63  C   UNL A   1      39.055  28.645  31.279  1.00  0.00     0.131 A 
ATOM     64  C   UNL A   1      37.166  30.089  29.870  1.00  0.00     0.055 A 
ATOM     65  C   UNL A   1      37.794  28.864  31.838  1.00  0.00     0.041 A 
ATOM     66  F   UNL A   1      39.962  27.997  32.029  1.00  0.00    -0.206 F 
ATOM     67  C   UNL A   1      36.847  29.607  31.141  1.00  0.00     0.022 A 
BRANCH  64  68
ATOM     68  S   UNL A   1      36.061  31.266  29.042  1.00  0.00     0.124 S 
ATOM     69  O   UNL A   1      35.455  30.427  28.011  1.00  0.00    -0.237 OA
ATOM     70  O   UNL A   1      35.179  31.685  30.124  1.00  0.00    -0.237 OA
ATOM     71  O   UNL A   1      36.969  32.295  28.541  1.00  0.00    -0.744 OA
ENDBRANCH  64  68
ENDBRANCH  47  61
BRANCH  48  72
ATOM     72  C   UNL A   1      48.299  27.334  25.743  1.00  0.00     0.023 A 
ATOM     73  C   UNL A   1      48.435  27.524  24.359  1.00  0.00     0.031 A 
ATOM     74  C   UNL A   1      49.425  26.892  26.461  1.00  0.00     0.131 A 
ATOM     75  C   UNL A   1      49.658  27.237  23.730  1.00  0.00     0.055 A 
ATOM     76  C   UNL A   1      50.653  26.659  25.840  1.00  0.00     0.041 A 
ATOM     77  F   UNL A   1      49.351  26.700  27.789  1.00  0.00    -0.206 F 
ATOM     78  C   UNL A   1      50.771  26.821  24.464  1.00  0.00     0.022 A 
BRANCH  75  79
ATOM     79  S   UNL A   1      49.753  27.348  21.923  1.00  0.00     0.124 S 
ATOM     80  O   UNL A   1      48.978  26.183  21.511  1.00  0.00    -0.237 OA
ATOM     81  O   UNL A   1      49.144  28.649  21.666  1.00  0.00    -0.237 OA
ATOM     82  O   UNL A   1      51.187  27.271  21.653  1.00  0.00    -0.744 OA
ENDBRANCH  75  79
ENDBRANCH  48  72
BRANCH  60  83
ATOM     83  C   UNL A   1      45.478  32.892  28.894  1.00  0.00     0.023 A 
ATOM     84  C   UNL A   1      45.328  33.962  27.995  1.00  0.00     0.031 A 
ATOM     85  C   UNL A   1      46.163  33.133  30.099  1.00  0.00     0.131 A 
ATOM     86  C   UNL A   1      45.908  35.206  28.287  1.00  0.00     0.055 A 
ATOM     87  C   UNL A   1      46.676  34.392  30.415  1.00  0.00     0.041 A 
ATOM     88  F   UNL A   1      46.341  32.148  30.994  1.00  0.00    -0.206 F 
ATOM     89  C   UNL A   1      46.563  35.433  29.499  1.00  0.00     0.022 A 
BRANCH  86  90
ATOM     90  S   UNL A   1      45.886  36.497  27.012  1.00  0.00     0.124 S 
ATOM     91  O   UNL A   1      46.869  37.445  27.526  1.00  0.00    -0.237 OA
ATOM     92  O   UNL A   1      46.276  35.761  25.814  1.00  0.00    -0.237 OA
ATOM     93  O   UNL A   1      44.503  36.970  27.026  1.00  0.00    -0.744 OA
ENDBRANCH  86  90
ENDBRANCH  60  83
ENDBRANCH  34  35
ENDBRANCH  26  29
ENDBRANCH  24  25
ENDBRANCH  23  24
ENDBRANCH   1  23
TORSDOF 17
ENDMDL
MODEL 2
REMARK VINA RESULT:     -11.0      6.369     11.732
REMARK SMILES CC(C)(C[NH2+]Cc1ccc2c(c1)OCO2)C(=O)NCCCNC(=O)c1ccc(-c2c3nc(c(-c4cc(S(=O)(=O)[O-])ccc4F)c4ccc([nH]4)c(-c4cc(S(=O)(=O)[O-])ccc4F)c4nc(c(-c5cc(S(=O)(=O)[O-])ccc5F)c5ccc2[nH]5)C=C4)C=C3)cc1
REMARK SMILES IDX 19 1 18 2 16 3 17 4 2 6 1 7 3 8 4 9 5 10 6 13 7 14 8 15
REMARK SMILES IDX 12 16 9 17 11 18 10 19 13 20 15 21 14 22 20 23 21 24 22 25
REMARK SMILES IDX 23 26 24 28 25 29 26 30 87 31 27 32 86 33 28 34 29 35 30 36
REMARK SMILES IDX 80 37 31 38 85 39 79 40 81 41 32 42 84 43 78 44 77 45 33 47
REMARK SMILES IDX 65 48 45 49 64 50 46 51 49 52 63 53 82 54 47 55 48 56 62 58
REMARK SMILES IDX 83 59 50 60 34 61 35 62 43 63 36 64 42 65 44 66 41 67 37 68
REMARK SMILES IDX 38 69 39 70 40 71 66 72 67 73 75 74 68 75 74 76 76 77 73 78
REMARK SMILES IDX 69 79 70 80 71 81 72 82 51 83 52 84 60 85 53 86 59 87 61 88
REMARK SMILES IDX 58 89 54 90 55 91 56 92 57 93
REMARK H PARENT 18 5 5 11 5 12 22 27 81 46 49 57
REMARK Flexibility Score: inf
ROOT
ATOM      1  C   UNL A   1      32.975  35.370  29.582  1.00  0.00     0.117 C 
ENDROOT
BRANCH   1   2
ATOM      2  N   UNL A   1      32.861  36.666  30.223  1.00  0.00    -0.355 N 
ATOM      3  C   UNL A   1      33.158  37.105  31.477  1.00  0.00     0.231 C 
ATOM      4  O   UNL A   1      32.958  38.307  31.686  1.00  0.00    -0.274 OA
ATOM      5  H   UNL A   1      32.497  37.367  29.637  1.00  0.00     0.163 HD
BRANCH   3   6
ATOM      6  C   UNL A   1      33.767  36.197  32.560  1.00  0.00     0.092 C 
ATOM      7  C   UNL A   1      32.880  34.934  32.709  1.00  0.00     0.027 C 
ATOM      8  C   UNL A   1      33.714  36.907  33.930  1.00  0.00     0.027 C 
BRANCH   6   9
ATOM      9  C   UNL A   1      35.214  35.759  32.226  1.00  0.00     0.277 C 
BRANCH   9  10
ATOM     10  N   UNL A   1      35.468  34.320  32.392  1.00  0.00    -0.342 N 
ATOM     11  H   UNL A   1      35.785  33.942  31.500  1.00  0.00     0.346 HD
ATOM     12  H   UNL A   1      34.594  33.893  32.702  1.00  0.00     0.346 HD
BRANCH  10  13
ATOM     13  C   UNL A   1      36.482  34.021  33.413  1.00  0.00     0.297 C 
BRANCH  13  14
ATOM     14  C   UNL A   1      37.888  34.328  32.947  1.00  0.00     0.010 A 
ATOM     15  C   UNL A   1      38.912  34.538  33.902  1.00  0.00     0.013 A 
ATOM     16  C   UNL A   1      38.208  34.278  31.580  1.00  0.00     0.060 A 
ATOM     17  C   UNL A   1      40.248  34.651  33.508  1.00  0.00     0.051 A 
ATOM     18  C   UNL A   1      39.535  34.384  31.226  1.00  0.00     0.166 A 
ATOM     19  C   UNL A   1      40.527  34.556  32.164  1.00  0.00     0.165 A 
ATOM     20  O   UNL A   1      40.027  34.296  29.961  1.00  0.00    -0.454 OA
ATOM     21  O   UNL A   1      41.767  34.593  31.607  1.00  0.00    -0.454 OA
ATOM     22  C   UNL A   1      41.440  34.428  30.212  1.00  0.00     0.468 C 
ENDBRANCH  13  14
ENDBRANCH  10  13
ENDBRANCH   9  10
ENDBRANCH   6   9
ENDBRANCH   3   6
ENDBRANCH   1   2
BRANCH   1  23
ATOM     23  C   UNL A   1      34.232  35.245  28.731  1.00  0.00     0.042 C 
BRANCH  23  24
ATOM     24  C   UNL A   1      34.872  33.865  28.778  1.00  0.00     0.118 C 
BRANCH  24  25
ATOM     25  N   UNL A   1      34.060  32.852  28.114  1.00  0.00    -0.352 N 
ATOM     26  C   UNL A   1      34.364  31.563  27.753  1.00  0.00     0.251 C 
ATOM     27  H   UNL A   1      33.146  33.139  27.888  1.00  0.00     0.163 HD
ATOM     28  O   UNL A   1      33.604  30.962  26.993  1.00  0.00    -0.269 OA
BRANCH  26  29
ATOM     29  C   UNL A   1      35.593  30.908  28.249  1.00  0.00     0.039 A 
ATOM     30  C   UNL A   1      36.828  31.518  28.015  1.00  0.00     0.014 A 
ATOM     31  C   UNL A   1      35.538  29.685  28.919  1.00  0.00     0.014 A 
ATOM     32  C   UNL A   1      37.995  30.935  28.514  1.00  0.00     0.010 A 
ATOM     33  C   UNL A   1      36.688  29.155  29.498  1.00  0.00     0.010 A 
ATOM     34  C   UNL A   1      37.931  29.771  29.296  1.00  0.00    -0.014 A 
BRANCH  34  35
ATOM     35  C   UNL A   1      39.152  29.179  29.904  1.00  0.00     0.031 A 
ATOM     36  C   UNL A   1      39.678  29.707  31.212  1.00  0.00     0.074 A 
ATOM     37  C   UNL A   1      39.822  28.213  29.246  1.00  0.00     0.049 A 
ATOM     38  N   UNL A   1      40.763  29.376  31.863  1.00  0.00    -0.248 NA
ATOM     39  C   UNL A   1      38.897  30.775  31.851  1.00  0.00     0.031 C 
ATOM     40  C   UNL A   1      39.435  27.652  27.948  1.00  0.00     0.029 A 
ATOM     41  N   UNL A   1      40.971  27.537  29.568  1.00  0.00    -0.354 N 
ATOM     42  C   UNL A   1      40.803  30.204  32.980  1.00  0.00     0.074 A 
ATOM     43  C   UNL A   1      39.670  31.099  32.876  1.00  0.00     0.031 C 
ATOM     44  C   UNL A   1      40.315  26.699  27.601  1.00  0.00     0.029 A 
ATOM     45  C   UNL A   1      41.356  26.617  28.620  1.00  0.00     0.049 A 
ATOM     46  H   UNL A   1      41.474  27.695  30.399  1.00  0.00     0.167 HD
ATOM     47  C   UNL A   1      41.690  30.203  34.007  1.00  0.00     0.034 A 
ATOM     48  C   UNL A   1      42.434  25.810  28.566  1.00  0.00     0.034 A 
ATOM     49  C   UNL A   1      42.810  29.296  34.093  1.00  0.00     0.049 A 
ATOM     50  C   UNL A   1      43.422  25.840  29.705  1.00  0.00     0.074 A 
ATOM     51  C   UNL A   1      43.733  29.161  35.116  1.00  0.00     0.029 A 
ATOM     52  N   UNL A   1      43.171  28.380  33.111  1.00  0.00    -0.354 N 
ATOM     53  N   UNL A   1      43.414  26.588  30.786  1.00  0.00    -0.248 NA
ATOM     54  C   UNL A   1      44.556  24.913  29.622  1.00  0.00     0.031 C 
ATOM     55  C   UNL A   1      44.695  28.227  34.718  1.00  0.00     0.029 A 
ATOM     56  C   UNL A   1      44.325  27.707  33.488  1.00  0.00     0.049 A 
ATOM     57  H   UNL A   1      42.679  28.230  32.273  1.00  0.00     0.167 HD
ATOM     58  C   UNL A   1      44.528  26.197  31.524  1.00  0.00     0.074 A 
ATOM     59  C   UNL A   1      45.172  25.140  30.773  1.00  0.00     0.031 C 
ATOM     60  C   UNL A   1      44.972  26.667  32.719  1.00  0.00     0.034 A 
BRANCH  47  61
ATOM     61  C   UNL A   1      41.494  31.235  35.095  1.00  0.00     0.023 A 
ATOM     62  C   UNL A   1      40.339  31.257  35.898  1.00  0.00     0.031 A 
ATOM     63  C   UNL A   1      42.453  32.242  35.304  1.00  0.00     0.131 A 
ATOM     64  C   UNL A   1      40.130  32.310  36.800  1.00  0.00     0.055 A 
ATOM     65  C   UNL A   1      42.282  33.235  36.271  1.00  0.00     0.041 A 
ATOM     66  F   UNL A   1      43.568  32.291  34.556  1.00  0.00    -0.206 F 
ATOM     67  C   UNL A   1      41.107  33.285  37.013  1.00  0.00     0.022 A 
BRANCH  64  68
ATOM     68  S   UNL A   1      38.491  32.486  37.559  1.00  0.00     0.124 S 
ATOM     69  O   UNL A   1      37.686  31.588  36.734  1.00  0.00    -0.237 OA
ATOM     70  O   UNL A   1      38.731  32.051  38.930  1.00  0.00    -0.237 OA
ATOM     71  O   UNL A   1      38.189  33.906  37.398  1.00  0.00    -0.744 OA
ENDBRANCH  64  68
ENDBRANCH  47  61
BRANCH  48  72
ATOM     72  C   UNL A   1      42.643  24.915  27.392  1.00  0.00     0.023 A 
ATOM     73  C   UNL A   1      42.160  23.597  27.389  1.00  0.00     0.031 A 
ATOM     74  C   UNL A   1      43.346  25.363  26.259  1.00  0.00     0.131 A 
ATOM     75  C   UNL A   1      42.418  22.761  26.290  1.00  0.00     0.055 A 
ATOM     76  C   UNL A   1      43.554  24.544  25.148  1.00  0.00     0.041 A 
ATOM     77  F   UNL A   1      43.824  26.617  26.208  1.00  0.00    -0.206 F 
ATOM     78  C   UNL A   1      43.098  23.231  25.165  1.00  0.00     0.022 A 
BRANCH  75  79
ATOM     79  S   UNL A   1      41.912  21.022  26.384  1.00  0.00     0.124 S 
ATOM     80  O   UNL A   1      42.760  20.410  25.368  1.00  0.00    -0.237 OA
ATOM     81  O   UNL A   1      42.224  20.689  27.769  1.00  0.00    -0.237 OA
ATOM     82  O   UNL A   1      40.487  21.066  26.062  1.00  0.00    -0.744 OA
ENDBRANCH  75  79
ENDBRANCH  48  72
BRANCH  60  83
ATOM     83  C   UNL A   1      46.198  26.005  33.304  1.00  0.00     0.023 A 
ATOM     84  C   UNL A   1      46.122  24.795  34.016  1.00  0.00     0.031 A 
ATOM     85  C   UNL A   1      47.463  26.603  33.154  1.00  0.00     0.131 A 
ATOM     86  C   UNL A   1      47.277  24.255  34.602  1.00  0.00     0.055 A 
ATOM     87  C   UNL A   1      48.618  26.025  33.680  1.00  0.00     0.041 A 
ATOM     88  F   UNL A   1      47.596  27.762  32.489  1.00  0.00    -0.206 F 
ATOM     89  C   UNL A   1      48.527  24.851  34.422  1.00  0.00     0.022 A 
BRANCH  86  90
ATOM     90  S   UNL A   1      47.107  22.817  35.695  1.00  0.00     0.124 S 
ATOM     91  O   UNL A   1      45.769  23.009  36.243  1.00  0.00    -0.237 OA
ATOM     92  O   UNL A   1      47.262  21.700  34.768  1.00  0.00    -0.237 OA
ATOM     93  O   UNL A   1      48.200  22.983  36.652  1.00  0.00    -0.744 OA
ENDBRANCH  86  90
ENDBRANCH  60  83
ENDBRANCH  34  35
ENDBRANCH  26  29
ENDBRANCH  24  25
ENDBRANCH  23  24
ENDBRANCH   1  23
TORSDOF 17
ENDMDL
MODEL 3
REMARK VINA RESULT:     -10.9      5.534      8.652
REMARK SMILES CC(C)(C[NH2+]Cc1ccc2c(c1)OCO2)C(=O)NCCCNC(=O)c1ccc(-c2c3nc(c(-c4cc(S(=O)(=O)[O-])ccc4F)c4ccc([nH]4)c(-c4cc(S(=O)(=O)[O-])ccc4F)c4nc(c(-c5cc(S(=O)(=O)[O-])ccc5F)c5ccc2[nH]5)C=C4)C=C3)cc1
REMARK SMILES IDX 19 1 18 2 16 3 17 4 2 6 1 7 3 8 4 9 5 10 6 13 7 14 8 15
REMARK SMILES IDX 12 16 9 17 11 18 10 19 13 20 15 21 14 22 20 23 21 24 22 25
REMARK SMILES IDX 23 26 24 28 25 29 26 30 87 31 27 32 86 33 28 34 29 35 30 36
REMARK SMILES IDX 80 37 31 38 85 39 79 40 81 41 32 42 84 43 78 44 77 45 33 47
REMARK SMILES IDX 65 48 45 49 64 50 46 51 49 52 63 53 82 54 47 55 48 56 62 58
REMARK SMILES IDX 83 59 50 60 34 61 35 62 43 63 36 64 42 65 44 66 41 67 37 68
REMARK SMILES IDX 38 69 39 70 40 71 66 72 67 73 75 74 68 75 74 76 76 77 73 78
REMARK SMILES IDX 69 79 70 80 71 81 72 82 51 83 52 84 60 85 53 86 59 87 61 88
REMARK SMILES IDX 58 89 54 90 55 91 56 92 57 93
REMARK H PARENT 18 5 5 11 5 12 22 27 81 46 49 57
REMARK Flexibility Score: inf
ROOT
ATOM      1  C   UNL A   1      31.392  28.205  26.250  1.00  0.00     0.117 C 
ENDROOT
BRANCH   1   2
ATOM      2  N   UNL A   1      32.237  27.423  25.368  1.00  0.00    -0.355 N 
ATOM      3  C   UNL A   1      32.019  26.291  24.644  1.00  0.00     0.231 C 
ATOM      4  O   UNL A   1      32.972  25.897  23.963  1.00  0.00    -0.274 OA
ATOM      5  H   UNL A   1      33.149  27.780  25.275  1.00  0.00     0.163 HD
BRANCH   3   6
ATOM      6  C   UNL A   1      30.661  25.568  24.609  1.00  0.00     0.092 C 
ATOM      7  C   UNL A   1      30.728  24.429  23.559  1.00  0.00     0.027 C 
ATOM      8  C   UNL A   1      29.565  26.533  24.108  1.00  0.00     0.027 C 
BRANCH   6   9
ATOM      9  C   UNL A   1      30.272  24.964  25.982  1.00  0.00     0.277 C 
BRANCH   9  10
ATOM     10  N   UNL A   1      31.414  24.545  26.807  1.00  0.00    -0.342 N 
ATOM     11  H   UNL A   1      31.250  24.853  27.766  1.00  0.00     0.346 HD
ATOM     12  H   UNL A   1      32.250  24.969  26.405  1.00  0.00     0.346 HD
BRANCH  10  13
ATOM     13  C   UNL A   1      31.626  23.091  26.814  1.00  0.00     0.297 C 
BRANCH  13  14
ATOM     14  C   UNL A   1      32.948  22.689  26.201  1.00  0.00     0.010 A 
ATOM     15  C   UNL A   1      33.064  21.444  25.537  1.00  0.00     0.013 A 
ATOM     16  C   UNL A   1      34.020  23.596  26.172  1.00  0.00     0.060 A 
ATOM     17  C   UNL A   1      34.214  21.120  24.813  1.00  0.00     0.051 A 
ATOM     18  C   UNL A   1      35.137  23.251  25.442  1.00  0.00     0.166 A 
ATOM     19  C   UNL A   1      35.227  22.051  24.775  1.00  0.00     0.165 A 
ATOM     20  O   UNL A   1      36.236  24.031  25.259  1.00  0.00    -0.454 OA
ATOM     21  O   UNL A   1      36.391  21.928  24.083  1.00  0.00    -0.454 OA
ATOM     22  C   UNL A   1      37.023  23.186  24.396  1.00  0.00     0.468 C 
ENDBRANCH  13  14
ENDBRANCH  10  13
ENDBRANCH   9  10
ENDBRANCH   6   9
ENDBRANCH   3   6
ENDBRANCH   1   2
BRANCH   1  23
ATOM     23  C   UNL A   1      32.189  28.979  27.292  1.00  0.00     0.042 C 
BRANCH  23  24
ATOM     24  C   UNL A   1      33.421  29.677  26.732  1.00  0.00     0.118 C 
BRANCH  24  25
ATOM     25  N   UNL A   1      33.511  31.070  27.153  1.00  0.00    -0.352 N 
ATOM     26  C   UNL A   1      34.399  31.690  27.995  1.00  0.00     0.251 C 
ATOM     27  H   UNL A   1      32.823  31.662  26.770  1.00  0.00     0.163 HD
ATOM     28  O   UNL A   1      34.148  32.829  28.392  1.00  0.00    -0.269 OA
BRANCH  26  29
ATOM     29  C   UNL A   1      35.628  31.000  28.439  1.00  0.00     0.039 A 
ATOM     30  C   UNL A   1      36.867  31.469  27.995  1.00  0.00     0.014 A 
ATOM     31  C   UNL A   1      35.567  29.878  29.268  1.00  0.00     0.014 A 
ATOM     32  C   UNL A   1      38.041  30.856  28.439  1.00  0.00     0.010 A 
ATOM     33  C   UNL A   1      36.736  29.330  29.786  1.00  0.00     0.010 A 
ATOM     34  C   UNL A   1      37.987  29.808  29.371  1.00  0.00    -0.014 A 
BRANCH  34  35
ATOM     35  C   UNL A   1      39.226  29.195  29.919  1.00  0.00     0.031 A 
ATOM     36  C   UNL A   1      39.882  29.777  31.142  1.00  0.00     0.074 A 
ATOM     37  C   UNL A   1      39.796  28.157  29.275  1.00  0.00     0.049 A 
ATOM     38  N   UNL A   1      41.001  29.433  31.726  1.00  0.00    -0.248 NA
ATOM     39  C   UNL A   1      39.205  30.921  31.770  1.00  0.00     0.031 C 
ATOM     40  C   UNL A   1      39.279  27.536  28.053  1.00  0.00     0.029 A 
ATOM     41  N   UNL A   1      40.937  27.446  29.549  1.00  0.00    -0.354 N 
ATOM     42  C   UNL A   1      41.171  30.327  32.778  1.00  0.00     0.074 A 
ATOM     43  C   UNL A   1      40.074  31.269  32.705  1.00  0.00     0.031 C 
ATOM     44  C   UNL A   1      40.084  26.521  27.701  1.00  0.00     0.029 A 
ATOM     45  C   UNL A   1      41.201  26.450  28.637  1.00  0.00     0.049 A 
ATOM     46  H   UNL A   1      41.513  27.631  30.325  1.00  0.00     0.167 HD
ATOM     47  C   UNL A   1      42.138  30.346  33.729  1.00  0.00     0.034 A 
ATOM     48  C   UNL A   1      42.233  25.589  28.551  1.00  0.00     0.034 A 
ATOM     49  C   UNL A   1      43.220  29.391  33.786  1.00  0.00     0.049 A 
ATOM     50  C   UNL A   1      43.312  25.641  29.604  1.00  0.00     0.074 A 
ATOM     51  C   UNL A   1      44.217  29.275  34.739  1.00  0.00     0.029 A 
ATOM     52  N   UNL A   1      43.457  28.398  32.842  1.00  0.00    -0.354 N 
ATOM     53  N   UNL A   1      43.427  26.454  30.629  1.00  0.00    -0.248 NA
ATOM     54  C   UNL A   1      44.392  24.655  29.492  1.00  0.00     0.031 C 
ATOM     55  C   UNL A   1      45.100  28.270  34.329  1.00  0.00     0.029 A 
ATOM     56  C   UNL A   1      44.607  27.694  33.170  1.00  0.00     0.049 A 
ATOM     57  H   UNL A   1      42.892  28.221  32.057  1.00  0.00     0.167 HD
ATOM     58  C   UNL A   1      44.579  26.056  31.301  1.00  0.00     0.074 A 
ATOM     59  C   UNL A   1      45.111  24.922  30.573  1.00  0.00     0.031 C 
ATOM     60  C   UNL A   1      45.141  26.576  32.423  1.00  0.00     0.034 A 
BRANCH  47  61
ATOM     61  C   UNL A   1      42.079  31.453  34.759  1.00  0.00     0.023 A 
ATOM     62  C   UNL A   1      41.102  31.473  35.771  1.00  0.00     0.031 A 
ATOM     63  C   UNL A   1      42.983  32.529  34.701  1.00  0.00     0.131 A 
ATOM     64  C   UNL A   1      40.993  32.585  36.619  1.00  0.00     0.055 A 
ATOM     65  C   UNL A   1      42.928  33.588  35.610  1.00  0.00     0.041 A 
ATOM     66  F   UNL A   1      43.925  32.580  33.746  1.00  0.00    -0.206 F 
ATOM     67  C   UNL A   1      41.917  33.631  36.564  1.00  0.00     0.022 A 
BRANCH  64  68
ATOM     68  S   UNL A   1      39.523  32.726  37.673  1.00  0.00     0.124 S 
ATOM     69  O   UNL A   1      39.012  34.041  37.293  1.00  0.00    -0.237 OA
ATOM     70  O   UNL A   1      38.723  31.583  37.253  1.00  0.00    -0.237 OA
ATOM     71  O   UNL A   1      40.064  32.646  39.029  1.00  0.00    -0.744 OA
ENDBRANCH  64  68
ENDBRANCH  47  61
BRANCH  48  72
ATOM     72  C   UNL A   1      42.304  24.613  27.426  1.00  0.00     0.023 A 
ATOM     73  C   UNL A   1      41.561  23.422  27.450  1.00  0.00     0.031 A 
ATOM     74  C   UNL A   1      43.132  24.851  26.315  1.00  0.00     0.131 A 
ATOM     75  C   UNL A   1      41.689  22.497  26.402  1.00  0.00     0.055 A 
ATOM     76  C   UNL A   1      43.215  23.953  25.249  1.00  0.00     0.041 A 
ATOM     77  F   UNL A   1      43.859  25.978  26.238  1.00  0.00    -0.206 F 
ATOM     78  C   UNL A   1      42.499  22.762  25.295  1.00  0.00     0.022 A 
BRANCH  75  79
ATOM     79  S   UNL A   1      40.833  20.904  26.538  1.00  0.00     0.124 S 
ATOM     80  O   UNL A   1      40.816  20.698  27.981  1.00  0.00    -0.237 OA
ATOM     81  O   UNL A   1      39.546  21.197  25.915  1.00  0.00    -0.237 OA
ATOM     82  O   UNL A   1      41.692  19.991  25.787  1.00  0.00    -0.744 OA
ENDBRANCH  75  79
ENDBRANCH  48  72
BRANCH  60  83
ATOM     83  C   UNL A   1      46.381  25.892  32.951  1.00  0.00     0.023 A 
ATOM     84  C   UNL A   1      46.308  24.794  33.827  1.00  0.00     0.031 A 
ATOM     85  C   UNL A   1      47.656  26.355  32.578  1.00  0.00     0.131 A 
ATOM     86  C   UNL A   1      47.485  24.237  34.348  1.00  0.00     0.055 A 
ATOM     87  C   UNL A   1      48.824  25.751  33.045  1.00  0.00     0.041 A 
ATOM     88  F   UNL A   1      47.787  27.403  31.749  1.00  0.00    -0.206 F 
ATOM     89  C   UNL A   1      48.743  24.695  33.947  1.00  0.00     0.022 A 
BRANCH  86  90
ATOM     90  S   UNL A   1      47.352  22.971  35.640  1.00  0.00     0.124 S 
ATOM     91  O   UNL A   1      48.150  23.551  36.715  1.00  0.00    -0.237 OA
ATOM     92  O   UNL A   1      45.913  22.914  35.875  1.00  0.00    -0.237 OA
ATOM     93  O   UNL A   1      47.926  21.780  35.016  1.00  0.00    -0.744 OA
ENDBRANCH  86  90
ENDBRANCH  60  83
ENDBRANCH  34  35
ENDBRANCH  26  29
ENDBRANCH  24  25
ENDBRANCH  23  24
ENDBRANCH   1  23
TORSDOF 17
ENDMDL
