MODEL 1
REMARK VINA RESULT:     -11.5      0.000      0.000
REMARK SMILES COCC[C@H](NC(=O)N1CCN2C(=O)NC[C@H]2C1)C(=O)NCCCNC(=O)c1ccc(-c2c3nc(c(-c4cc(S(=O)(=O)[O-])ccc4F)c4ccc([nH]4)c(-c4cc(S(=O)(=O)[O-])ccc4F)c4nc(c(-c5cc(S(=O)(=O)[O-])ccc5F)c5ccc2[nH]5)C=C4)C=C3)cc1
REMARK SMILES IDX 23 1 22 2 21 3 19 4 20 5 5 7 4 8 3 9 2 10 1 11 6 12 7 13
REMARK SMILES IDX 8 15 9 16 10 17 18 18 11 19 17 20 12 21 16 22 13 23 15 24
REMARK SMILES IDX 14 25 24 27 25 28 26 29 27 31 28 32 29 33 90 34 30 35 89 36
REMARK SMILES IDX 31 37 32 38 33 39 83 40 34 41 88 42 82 43 84 44 35 45 87 46
REMARK SMILES IDX 81 47 80 48 36 50 68 51 48 52 67 53 49 54 52 55 66 56 85 57
REMARK SMILES IDX 50 58 51 59 65 61 86 62 53 63 37 64 38 65 46 66 39 67 45 68
REMARK SMILES IDX 47 69 44 70 40 71 41 72 42 73 43 74 69 75 70 76 78 77 71 78
REMARK SMILES IDX 77 79 79 80 76 81 72 82 73 83 74 84 75 85 54 86 55 87 63 88
REMARK SMILES IDX 56 89 62 90 64 91 61 92 57 93 58 94 59 95 60 96
REMARK H PARENT 21 6 6 14 15 26 25 30 84 49 52 60
REMARK Flexibility Score: inf
ROOT
ATOM      1  C   UNL A   1      36.462  20.207  24.997  1.00  0.00     0.042 C 
ENDROOT
BRANCH   1   2
ATOM      2  C   UNL A   1      35.374  21.107  25.557  1.00  0.00     0.117 C 
BRANCH   2   3
ATOM      3  N   UNL A   1      35.820  22.461  25.722  1.00  0.00    -0.354 N 
ATOM      4  C   UNL A   1      35.180  23.594  25.329  1.00  0.00     0.242 C 
ATOM      5  O   UNL A   1      35.629  24.667  25.747  1.00  0.00    -0.273 OA
ATOM      6  H   UNL A   1      36.689  22.583  26.169  1.00  0.00     0.163 HD
BRANCH   4   7
ATOM      7  C   UNL A   1      33.824  23.560  24.565  1.00  0.00     0.175 C 
BRANCH   7   8
ATOM      8  C   UNL A   1      34.001  24.219  23.204  1.00  0.00     0.063 C 
BRANCH   8   9
ATOM      9  C   UNL A   1      33.229  23.587  22.050  1.00  0.00     0.162 C 
BRANCH   9  10
ATOM     10  O   UNL A   1      33.252  24.398  20.872  1.00  0.00    -0.385 OA
ATOM     11  C   UNL A   1      32.630  25.666  21.013  1.00  0.00     0.194 C 
ENDBRANCH   9  10
ENDBRANCH   8   9
ENDBRANCH   7   8
BRANCH   7  12
ATOM     12  N   UNL A   1      32.599  23.894  25.344  1.00  0.00    -0.326 N 
ATOM     13  C   UNL A   1      31.987  24.912  25.979  1.00  0.00     0.318 C 
ATOM     14  H   UNL A   1      32.040  23.088  25.422  1.00  0.00     0.166 HD
ATOM     15  O   UNL A   1      31.193  24.582  26.864  1.00  0.00    -0.249 OA
BRANCH  13  16
ATOM     16  N   UNL A   1      32.285  26.218  25.769  1.00  0.00    -0.321 N 
ATOM     17  C   UNL A   1      33.336  27.002  26.432  1.00  0.00     0.143 C 
ATOM     18  C   UNL A   1      31.837  26.867  24.519  1.00  0.00     0.148 C 
ATOM     19  C   UNL A   1      32.815  28.403  26.826  1.00  0.00     0.143 C 
ATOM     20  C   UNL A   1      31.159  28.173  24.918  1.00  0.00     0.125 C 
ATOM     21  N   UNL A   1      32.010  28.996  25.765  1.00  0.00    -0.317 N 
ATOM     22  C   UNL A   1      30.718  29.147  23.843  1.00  0.00     0.144 C 
ATOM     23  C   UNL A   1      31.599  30.320  25.678  1.00  0.00     0.317 C 
ATOM     24  N   UNL A   1      30.768  30.404  24.561  1.00  0.00    -0.336 N 
ATOM     25  O   UNL A   1      31.878  31.229  26.430  1.00  0.00    -0.249 OA
ATOM     26  H   UNL A   1      30.279  31.215  24.294  1.00  0.00     0.165 HD
ENDBRANCH  13  16
ENDBRANCH   7  12
ENDBRANCH   4   7
ENDBRANCH   2   3
ENDBRANCH   1   2
BRANCH   1  27
ATOM     27  C   UNL A   1      37.837  20.840  25.089  1.00  0.00     0.118 C 
BRANCH  27  28
ATOM     28  N   UNL A   1      38.830  19.910  25.626  1.00  0.00    -0.352 N 
ATOM     29  C   UNL A   1      40.016  20.179  26.268  1.00  0.00     0.251 C 
ATOM     30  H   UNL A   1      38.620  18.956  25.511  1.00  0.00     0.163 HD
ATOM     31  O   UNL A   1      40.821  19.273  26.453  1.00  0.00    -0.269 OA
BRANCH  29  32
ATOM     32  C   UNL A   1      40.317  21.565  26.683  1.00  0.00     0.039 A 
ATOM     33  C   UNL A   1      41.183  21.785  27.756  1.00  0.00     0.014 A 
ATOM     34  C   UNL A   1      39.780  22.644  25.978  1.00  0.00     0.014 A 
ATOM     35  C   UNL A   1      41.577  23.089  28.064  1.00  0.00     0.010 A 
ATOM     36  C   UNL A   1      40.258  23.925  26.213  1.00  0.00     0.010 A 
ATOM     37  C   UNL A   1      41.155  24.164  27.264  1.00  0.00    -0.014 A 
BRANCH  37  38
ATOM     38  C   UNL A   1      41.599  25.558  27.517  1.00  0.00     0.031 A 
ATOM     39  C   UNL A   1      42.965  25.988  27.053  1.00  0.00     0.074 A 
ATOM     40  C   UNL A   1      40.817  26.402  28.219  1.00  0.00     0.049 A 
ATOM     41  N   UNL A   1      43.614  27.095  27.304  1.00  0.00    -0.248 NA
ATOM     42  C   UNL A   1      43.714  25.026  26.227  1.00  0.00     0.031 C 
ATOM     43  C   UNL A   1      39.484  26.089  28.741  1.00  0.00     0.029 A 
ATOM     44  N   UNL A   1      41.035  27.694  28.630  1.00  0.00    -0.354 N 
ATOM     45  C   UNL A   1      44.845  26.959  26.672  1.00  0.00     0.074 A 
ATOM     46  C   UNL A   1      44.884  25.630  26.101  1.00  0.00     0.031 C 
ATOM     47  C   UNL A   1      38.995  27.168  29.377  1.00  0.00     0.029 A 
ATOM     48  C   UNL A   1      39.999  28.225  29.366  1.00  0.00     0.049 A 
ATOM     49  H   UNL A   1      41.856  28.194  28.417  1.00  0.00     0.167 HD
ATOM     50  C   UNL A   1      45.838  27.872  26.544  1.00  0.00     0.034 A 
ATOM     51  C   UNL A   1      39.887  29.421  29.979  1.00  0.00     0.034 A 
ATOM     52  C   UNL A   1      45.779  29.196  27.107  1.00  0.00     0.049 A 
ATOM     53  C   UNL A   1      41.039  30.396  29.880  1.00  0.00     0.074 A 
ATOM     54  C   UNL A   1      46.721  30.206  27.035  1.00  0.00     0.029 A 
ATOM     55  N   UNL A   1      44.714  29.698  27.843  1.00  0.00    -0.354 N 
ATOM     56  N   UNL A   1      42.189  30.257  29.263  1.00  0.00    -0.248 NA
ATOM     57  C   UNL A   1      40.874  31.692  30.553  1.00  0.00     0.031 C 
ATOM     58  C   UNL A   1      46.255  31.295  27.775  1.00  0.00     0.029 A 
ATOM     59  C   UNL A   1      44.984  30.996  28.240  1.00  0.00     0.049 A 
ATOM     60  H   UNL A   1      43.888  29.204  28.050  1.00  0.00     0.167 HD
ATOM     61  C   UNL A   1      42.857  31.469  29.427  1.00  0.00     0.074 A 
ATOM     62  C   UNL A   1      41.979  32.326  30.194  1.00  0.00     0.031 C 
ATOM     63  C   UNL A   1      44.083  31.843  28.983  1.00  0.00     0.034 A 
BRANCH  50  64
ATOM     64  C   UNL A   1      47.062  27.463  25.766  1.00  0.00     0.023 A 
ATOM     65  C   UNL A   1      47.236  27.850  24.425  1.00  0.00     0.031 A 
ATOM     66  C   UNL A   1      48.064  26.676  26.359  1.00  0.00     0.131 A 
ATOM     67  C   UNL A   1      48.347  27.393  23.702  1.00  0.00     0.055 A 
ATOM     68  C   UNL A   1      49.211  26.296  25.659  1.00  0.00     0.041 A 
ATOM     69  F   UNL A   1      47.941  26.255  27.628  1.00  0.00    -0.206 F 
ATOM     70  C   UNL A   1      49.350  26.644  24.318  1.00  0.00     0.022 A 
BRANCH  67  71
ATOM     71  S   UNL A   1      48.390  27.682  21.914  1.00  0.00     0.124 S 
ATOM     72  O   UNL A   1      49.543  28.570  21.788  1.00  0.00    -0.237 OA
ATOM     73  O   UNL A   1      48.560  26.336  21.379  1.00  0.00    -0.237 OA
ATOM     74  O   UNL A   1      47.098  28.306  21.636  1.00  0.00    -0.744 OA
ENDBRANCH  67  71
ENDBRANCH  50  64
BRANCH  51  75
ATOM     75  C   UNL A   1      38.664  29.777  30.759  1.00  0.00     0.023 A 
ATOM     76  C   UNL A   1      37.641  30.545  30.177  1.00  0.00     0.031 A 
ATOM     77  C   UNL A   1      38.540  29.447  32.120  1.00  0.00     0.131 A 
ATOM     78  C   UNL A   1      36.591  31.032  30.971  1.00  0.00     0.055 A 
ATOM     79  C   UNL A   1      37.450  29.868  32.887  1.00  0.00     0.041 A 
ATOM     80  F   UNL A   1      39.484  28.714  32.731  1.00  0.00    -0.206 F 
ATOM     81  C   UNL A   1      36.480  30.685  32.318  1.00  0.00     0.022 A 
BRANCH  78  82
ATOM     82  S   UNL A   1      35.463  32.257  30.249  1.00  0.00     0.124 S 
ATOM     83  O   UNL A   1      35.011  31.566  29.047  1.00  0.00    -0.237 OA
ATOM     84  O   UNL A   1      34.474  32.416  31.309  1.00  0.00    -0.237 OA
ATOM     85  O   UNL A   1      36.323  33.415  30.019  1.00  0.00    -0.744 OA
ENDBRANCH  78  82
ENDBRANCH  51  75
BRANCH  63  86
ATOM     86  C   UNL A   1      44.508  33.270  29.236  1.00  0.00     0.023 A 
ATOM     87  C   UNL A   1      44.216  34.308  28.337  1.00  0.00     0.031 A 
ATOM     88  C   UNL A   1      45.207  33.590  30.415  1.00  0.00     0.131 A 
ATOM     89  C   UNL A   1      44.665  35.609  28.605  1.00  0.00     0.055 A 
ATOM     90  C   UNL A   1      45.595  34.897  30.707  1.00  0.00     0.041 A 
ATOM     91  F   UNL A   1      45.514  32.635  31.309  1.00  0.00    -0.206 F 
ATOM     92  C   UNL A   1      45.334  35.914  29.794  1.00  0.00     0.022 A 
BRANCH  89  93
ATOM     93  S   UNL A   1      44.436  36.888  27.341  1.00  0.00     0.124 S 
ATOM     94  O   UNL A   1      44.215  38.081  28.151  1.00  0.00    -0.237 OA
ATOM     95  O   UNL A   1      45.700  36.838  26.613  1.00  0.00    -0.237 OA
ATOM     96  O   UNL A   1      43.271  36.423  26.590  1.00  0.00    -0.744 OA
ENDBRANCH  89  93
ENDBRANCH  63  86
ENDBRANCH  37  38
ENDBRANCH  29  32
ENDBRANCH  27  28
ENDBRANCH   1  27
TORSDOF 18
ENDMDL
MODEL 2
REMARK VINA RESULT:     -11.5      1.849      2.590
REMARK SMILES COCC[C@H](NC(=O)N1CCN2C(=O)NC[C@H]2C1)C(=O)NCCCNC(=O)c1ccc(-c2c3nc(c(-c4cc(S(=O)(=O)[O-])ccc4F)c4ccc([nH]4)c(-c4cc(S(=O)(=O)[O-])ccc4F)c4nc(c(-c5cc(S(=O)(=O)[O-])ccc5F)c5ccc2[nH]5)C=C4)C=C3)cc1
REMARK SMILES IDX 23 1 22 2 21 3 19 4 20 5 5 7 4 8 3 9 2 10 1 11 6 12 7 13
REMARK SMILES IDX 8 15 9 16 10 17 18 18 11 19 17 20 12 21 16 22 13 23 15 24
REMARK SMILES IDX 14 25 24 27 25 28 26 29 27 31 28 32 29 33 90 34 30 35 89 36
REMARK SMILES IDX 31 37 32 38 33 39 83 40 34 41 88 42 82 43 84 44 35 45 87 46
REMARK SMILES IDX 81 47 80 48 36 50 68 51 48 52 67 53 49 54 52 55 66 56 85 57
REMARK SMILES IDX 50 58 51 59 65 61 86 62 53 63 37 64 38 65 46 66 39 67 45 68
REMARK SMILES IDX 47 69 44 70 40 71 41 72 42 73 43 74 69 75 70 76 78 77 71 78
REMARK SMILES IDX 77 79 79 80 76 81 72 82 73 83 74 84 75 85 54 86 55 87 63 88
REMARK SMILES IDX 56 89 62 90 64 91 61 92 57 93 58 94 59 95 60 96
REMARK H PARENT 21 6 6 14 15 26 25 30 84 49 52 60
REMARK Flexibility Score: inf
ROOT
ATOM      1  C   UNL A   1      36.351  22.349  24.370  1.00  0.00     0.042 C 
ENDROOT
BRANCH   1   2
ATOM      2  C   UNL A   1      35.080  23.174  24.264  1.00  0.00     0.117 C 
BRANCH   2   3
ATOM      3  N   UNL A   1      34.093  22.549  23.430  1.00  0.00    -0.354 N 
ATOM      4  C   UNL A   1      33.067  21.749  23.825  1.00  0.00     0.242 C 
ATOM      5  O   UNL A   1      32.207  21.480  22.979  1.00  0.00    -0.273 OA
ATOM      6  H   UNL A   1      34.168  22.718  22.463  1.00  0.00     0.163 HD
BRANCH   4   7
ATOM      7  C   UNL A   1      32.850  21.351  25.314  1.00  0.00     0.175 C 
BRANCH   7   8
ATOM      8  C   UNL A   1      32.998  19.842  25.453  1.00  0.00     0.063 C 
BRANCH   8   9
ATOM      9  C   UNL A   1      34.141  19.208  24.666  1.00  0.00     0.162 C 
BRANCH   9  10
ATOM     10  O   UNL A   1      33.747  17.996  24.016  1.00  0.00    -0.385 OA
ATOM     11  C   UNL A   1      32.523  18.078  23.301  1.00  0.00     0.194 C 
ENDBRANCH   9  10
ENDBRANCH   8   9
ENDBRANCH   7   8
BRANCH   7  12
ATOM     12  N   UNL A   1      31.721  22.006  26.032  1.00  0.00    -0.326 N 
ATOM     13  C   UNL A   1      31.124  23.200  26.210  1.00  0.00     0.318 C 
ATOM     14  H   UNL A   1      31.244  21.328  26.564  1.00  0.00     0.166 HD
ATOM     15  O   UNL A   1      30.488  23.321  27.262  1.00  0.00    -0.249 OA
BRANCH  13  16
ATOM     16  N   UNL A   1      31.284  24.255  25.374  1.00  0.00    -0.321 N 
ATOM     17  C   UNL A   1      30.663  24.439  24.055  1.00  0.00     0.143 C 
ATOM     18  C   UNL A   1      31.783  25.535  25.919  1.00  0.00     0.148 C 
ATOM     19  C   UNL A   1      31.689  24.982  23.033  1.00  0.00     0.143 C 
ATOM     20  C   UNL A   1      32.920  25.988  25.010  1.00  0.00     0.125 C 
ATOM     21  N   UNL A   1      32.521  26.030  23.611  1.00  0.00    -0.317 N 
ATOM     22  C   UNL A   1      33.548  27.352  25.218  1.00  0.00     0.144 C 
ATOM     23  C   UNL A   1      33.360  26.896  22.921  1.00  0.00     0.317 C 
ATOM     24  N   UNL A   1      34.030  27.649  23.885  1.00  0.00    -0.336 N 
ATOM     25  O   UNL A   1      33.510  26.977  21.721  1.00  0.00    -0.249 OA
ATOM     26  H   UNL A   1      34.740  28.301  23.684  1.00  0.00     0.165 HD
ENDBRANCH  13  16
ENDBRANCH   7  12
ENDBRANCH   4   7
ENDBRANCH   2   3
ENDBRANCH   1   2
BRANCH   1  27
ATOM     27  C   UNL A   1      36.839  22.224  25.800  1.00  0.00     0.118 C 
BRANCH  27  28
ATOM     28  N   UNL A   1      37.986  21.323  25.908  1.00  0.00    -0.352 N 
ATOM     29  C   UNL A   1      39.288  21.608  26.242  1.00  0.00     0.251 C 
ATOM     30  H   UNL A   1      37.798  20.376  25.712  1.00  0.00     0.163 HD
ATOM     31  O   UNL A   1      40.156  20.760  26.069  1.00  0.00    -0.269 OA
BRANCH  29  32
ATOM     32  C   UNL A   1      39.625  22.950  26.763  1.00  0.00     0.039 A 
ATOM     33  C   UNL A   1      40.522  23.065  27.827  1.00  0.00     0.014 A 
ATOM     34  C   UNL A   1      39.090  24.092  26.166  1.00  0.00     0.014 A 
ATOM     35  C   UNL A   1      40.947  24.332  28.232  1.00  0.00     0.010 A 
ATOM     36  C   UNL A   1      39.596  25.341  26.494  1.00  0.00     0.010 A 
ATOM     37  C   UNL A   1      40.525  25.477  27.536  1.00  0.00    -0.014 A 
BRANCH  37  38
ATOM     38  C   UNL A   1      41.000  26.837  27.893  1.00  0.00     0.031 A 
ATOM     39  C   UNL A   1      42.447  27.190  27.671  1.00  0.00     0.074 A 
ATOM     40  C   UNL A   1      40.162  27.718  28.477  1.00  0.00     0.049 A 
ATOM     41  N   UNL A   1      43.108  28.251  28.052  1.00  0.00    -0.248 NA
ATOM     42  C   UNL A   1      43.265  26.197  26.956  1.00  0.00     0.031 C 
ATOM     43  C   UNL A   1      38.745  27.479  28.764  1.00  0.00     0.029 A 
ATOM     44  N   UNL A   1      40.384  28.987  28.949  1.00  0.00    -0.354 N 
ATOM     45  C   UNL A   1      44.416  28.050  27.628  1.00  0.00     0.074 A 
ATOM     46  C   UNL A   1      44.473  26.730  27.039  1.00  0.00     0.031 C 
ATOM     47  C   UNL A   1      38.221  28.576  29.337  1.00  0.00     0.029 A 
ATOM     48  C   UNL A   1      39.272  29.571  29.517  1.00  0.00     0.049 A 
ATOM     49  H   UNL A   1      41.256  29.440  28.886  1.00  0.00     0.167 HD
ATOM     50  C   UNL A   1      45.468  28.903  27.687  1.00  0.00     0.034 A 
ATOM     51  C   UNL A   1      39.130  30.762  30.132  1.00  0.00     0.034 A 
ATOM     52  C   UNL A   1      45.393  30.220  28.264  1.00  0.00     0.049 A 
ATOM     53  C   UNL A   1      40.336  31.666  30.248  1.00  0.00     0.074 A 
ATOM     54  C   UNL A   1      46.391  31.171  28.372  1.00  0.00     0.029 A 
ATOM     55  N   UNL A   1      44.251  30.775  28.827  1.00  0.00    -0.354 N 
ATOM     56  N   UNL A   1      41.563  31.466  29.825  1.00  0.00    -0.248 NA
ATOM     57  C   UNL A   1      40.137  32.960  30.915  1.00  0.00     0.031 C 
ATOM     58  C   UNL A   1      45.872  32.276  29.052  1.00  0.00     0.029 A 
ATOM     59  C   UNL A   1      44.526  32.049  29.294  1.00  0.00     0.049 A 
ATOM     60  H   UNL A   1      43.375  30.329  28.883  1.00  0.00     0.167 HD
ATOM     61  C   UNL A   1      42.263  32.633  30.126  1.00  0.00     0.074 A 
ATOM     62  C   UNL A   1      41.321  33.531  30.758  1.00  0.00     0.031 C 
ATOM     63  C   UNL A   1      43.565  32.938  29.899  1.00  0.00     0.034 A 
BRANCH  50  64
ATOM     64  C   UNL A   1      46.779  28.432  27.111  1.00  0.00     0.023 A 
ATOM     65  C   UNL A   1      46.962  28.309  25.723  1.00  0.00     0.031 A 
ATOM     66  C   UNL A   1      47.854  28.093  27.949  1.00  0.00     0.131 A 
ATOM     67  C   UNL A   1      48.165  27.796  25.217  1.00  0.00     0.055 A 
ATOM     68  C   UNL A   1      49.080  27.666  27.436  1.00  0.00     0.041 A 
ATOM     69  F   UNL A   1      47.730  28.167  29.285  1.00  0.00    -0.206 F 
ATOM     70  C   UNL A   1      49.236  27.502  26.062  1.00  0.00     0.022 A 
BRANCH  67  71
ATOM     71  S   UNL A   1      48.258  27.396  23.452  1.00  0.00     0.124 S 
ATOM     72  O   UNL A   1      49.601  27.861  23.116  1.00  0.00    -0.237 OA
ATOM     73  O   UNL A   1      48.063  25.951  23.445  1.00  0.00    -0.237 OA
ATOM     74  O   UNL A   1      47.170  28.176  22.865  1.00  0.00    -0.744 OA
ENDBRANCH  67  71
ENDBRANCH  50  64
BRANCH  51  75
ATOM     75  C   UNL A   1      37.816  31.181  30.708  1.00  0.00     0.023 A 
ATOM     76  C   UNL A   1      36.864  31.841  29.915  1.00  0.00     0.031 A 
ATOM     77  C   UNL A   1      37.532  31.022  32.076  1.00  0.00     0.131 A 
ATOM     78  C   UNL A   1      35.719  32.396  30.509  1.00  0.00     0.055 A 
ATOM     79  C   UNL A   1      36.352  31.506  32.648  1.00  0.00     0.041 A 
ATOM     80  F   UNL A   1      38.403  30.397  32.884  1.00  0.00    -0.206 F 
ATOM     81  C   UNL A   1      35.449  32.219  31.866  1.00  0.00     0.022 A 
BRANCH  78  82
ATOM     82  S   UNL A   1      34.673  33.490  29.507  1.00  0.00     0.124 S 
ATOM     83  O   UNL A   1      34.076  32.546  28.570  1.00  0.00    -0.237 OA
ATOM     84  O   UNL A   1      33.778  34.053  30.511  1.00  0.00    -0.237 OA
ATOM     85  O   UNL A   1      35.628  34.430  28.924  1.00  0.00    -0.744 OA
ENDBRANCH  78  82
ENDBRANCH  51  75
BRANCH  63  86
ATOM     86  C   UNL A   1      44.023  34.332  30.253  1.00  0.00     0.023 A 
ATOM     87  C   UNL A   1      43.851  35.420  29.382  1.00  0.00     0.031 A 
ATOM     88  C   UNL A   1      44.633  34.570  31.499  1.00  0.00     0.131 A 
ATOM     89  C   UNL A   1      44.327  36.688  29.748  1.00  0.00     0.055 A 
ATOM     90  C   UNL A   1      45.047  35.845  31.883  1.00  0.00     0.041 A 
ATOM     91  F   UNL A   1      44.825  33.565  32.369  1.00  0.00    -0.206 F 
ATOM     92  C   UNL A   1      44.904  36.911  31.001  1.00  0.00     0.022 A 
BRANCH  89  93
ATOM     93  S   UNL A   1      44.257  38.029  28.531  1.00  0.00     0.124 S 
ATOM     94  O   UNL A   1      45.256  38.960  29.044  1.00  0.00    -0.237 OA
ATOM     95  O   UNL A   1      44.603  37.344  27.289  1.00  0.00    -0.237 OA
ATOM     96  O   UNL A   1      42.874  38.496  28.614  1.00  0.00    -0.744 OA
ENDBRANCH  89  93
ENDBRANCH  63  86
ENDBRANCH  37  38
ENDBRANCH  29  32
ENDBRANCH  27  28
ENDBRANCH   1  27
TORSDOF 18
ENDMDL
MODEL 3
REMARK VINA RESULT:     -11.4      1.449      7.683
REMARK SMILES COCC[C@H](NC(=O)N1CCN2C(=O)NC[C@H]2C1)C(=O)NCCCNC(=O)c1ccc(-c2c3nc(c(-c4cc(S(=O)(=O)[O-])ccc4F)c4ccc([nH]4)c(-c4cc(S(=O)(=O)[O-])ccc4F)c4nc(c(-c5cc(S(=O)(=O)[O-])ccc5F)c5ccc2[nH]5)C=C4)C=C3)cc1
REMARK SMILES IDX 23 1 22 2 21 3 19 4 20 5 5 7 4 8 3 9 2 10 1 11 6 12 7 13
REMARK SMILES IDX 8 15 9 16 10 17 18 18 11 19 17 20 12 21 16 22 13 23 15 24
REMARK SMILES IDX 14 25 24 27 25 28 26 29 27 31 28 32 29 33 90 34 30 35 89 36
REMARK SMILES IDX 31 37 32 38 33 39 83 40 34 41 88 42 82 43 84 44 35 45 87 46
REMARK SMILES IDX 81 47 80 48 36 50 68 51 48 52 67 53 49 54 52 55 66 56 85 57
REMARK SMILES IDX 50 58 51 59 65 61 86 62 53 63 37 64 38 65 46 66 39 67 45 68
REMARK SMILES IDX 47 69 44 70 40 71 41 72 42 73 43 74 69 75 70 76 78 77 71 78
REMARK SMILES IDX 77 79 79 80 76 81 72 82 73 83 74 84 75 85 54 86 55 87 63 88
REMARK SMILES IDX 56 89 62 90 64 91 61 92 57 93 58 94 59 95 60 96
REMARK H PARENT 21 6 6 14 15 26 25 30 84 49 52 60
REMARK Flexibility Score: inf
ROOT
ATOM      1  C   UNL A   1      36.168  22.559  24.000  1.00  0.00     0.042 C 
ENDROOT
BRANCH   1   2
ATOM      2  C   UNL A   1      35.003  23.528  23.895  1.00  0.00     0.117 C 
BRANCH   2   3
ATOM      3  N   UNL A   1      33.922  22.996  23.115  1.00  0.00    -0.354 N 
ATOM      4  C   UNL A   1      32.903  22.208  23.547  1.00  0.00     0.242 C 
ATOM      5  O   UNL A   1      31.962  22.027  22.766  1.00  0.00    -0.273 OA
ATOM      6  H   UNL A   1      33.921  23.227  22.157  1.00  0.00     0.163 HD
BRANCH   4   7
ATOM      7  C   UNL A   1      32.799  21.717  25.020  1.00  0.00     0.175 C 
BRANCH   7   8
ATOM      8  C   UNL A   1      32.841  20.196  25.044  1.00  0.00     0.063 C 
BRANCH   8   9
ATOM      9  C   UNL A   1      34.131  19.556  24.540  1.00  0.00     0.162 C 
BRANCH   9  10
ATOM     10  O   UNL A   1      34.089  18.128  24.599  1.00  0.00    -0.385 OA
ATOM     11  C   UNL A   1      32.851  17.589  25.039  1.00  0.00     0.194 C 
ENDBRANCH   9  10
ENDBRANCH   8   9
ENDBRANCH   7   8
BRANCH   7  12
ATOM     12  N   UNL A   1      31.799  22.397  25.892  1.00  0.00    -0.326 N 
ATOM     13  C   UNL A   1      31.407  23.616  26.309  1.00  0.00     0.318 C 
ATOM     14  H   UNL A   1      31.223  21.716  26.308  1.00  0.00     0.166 HD
ATOM     15  O   UNL A   1      30.809  23.638  27.389  1.00  0.00    -0.249 OA
BRANCH  13  16
ATOM     16  N   UNL A   1      31.730  24.770  25.675  1.00  0.00    -0.321 N 
ATOM     17  C   UNL A   1      32.962  25.555  25.842  1.00  0.00     0.143 C 
ATOM     18  C   UNL A   1      31.034  25.120  24.420  1.00  0.00     0.148 C 
ATOM     19  C   UNL A   1      32.646  27.066  25.922  1.00  0.00     0.143 C 
ATOM     20  C   UNL A   1      30.563  26.563  24.565  1.00  0.00     0.125 C 
ATOM     21  N   UNL A   1      31.647  27.460  24.936  1.00  0.00    -0.317 N 
ATOM     22  C   UNL A   1      29.938  27.271  23.378  1.00  0.00     0.144 C 
ATOM     23  C   UNL A   1      31.317  28.757  24.564  1.00  0.00     0.317 C 
ATOM     24  N   UNL A   1      30.246  28.654  23.678  1.00  0.00    -0.336 N 
ATOM     25  O   UNL A   1      31.831  29.786  24.945  1.00  0.00    -0.249 OA
ATOM     26  H   UNL A   1      29.760  29.423  23.302  1.00  0.00     0.165 HD
ENDBRANCH  13  16
ENDBRANCH   7  12
ENDBRANCH   4   7
ENDBRANCH   2   3
ENDBRANCH   1   2
BRANCH   1  27
ATOM     27  C   UNL A   1      36.583  22.312  25.438  1.00  0.00     0.118 C 
BRANCH  27  28
ATOM     28  N   UNL A   1      37.504  21.181  25.553  1.00  0.00    -0.352 N 
ATOM     29  C   UNL A   1      38.824  21.170  25.938  1.00  0.00     0.251 C 
ATOM     30  H   UNL A   1      37.125  20.303  25.321  1.00  0.00     0.163 HD
ATOM     31  O   UNL A   1      39.494  20.158  25.765  1.00  0.00    -0.269 OA
BRANCH  29  32
ATOM     32  C   UNL A   1      39.422  22.393  26.514  1.00  0.00     0.039 A 
ATOM     33  C   UNL A   1      40.429  22.275  27.473  1.00  0.00     0.014 A 
ATOM     34  C   UNL A   1      39.018  23.651  26.066  1.00  0.00     0.014 A 
ATOM     35  C   UNL A   1      41.090  23.422  27.918  1.00  0.00     0.010 A 
ATOM     36  C   UNL A   1      39.748  24.775  26.424  1.00  0.00     0.010 A 
ATOM     37  C   UNL A   1      40.788  24.676  27.360  1.00  0.00    -0.014 A 
BRANCH  37  38
ATOM     38  C   UNL A   1      41.508  25.911  27.758  1.00  0.00     0.031 A 
ATOM     39  C   UNL A   1      40.770  26.975  28.525  1.00  0.00     0.074 A 
ATOM     40  C   UNL A   1      42.784  26.107  27.370  1.00  0.00     0.049 A 
ATOM     41  N   UNL A   1      41.149  28.188  28.833  1.00  0.00    -0.248 NA
ATOM     42  C   UNL A   1      39.407  26.640  28.972  1.00  0.00     0.031 C 
ATOM     43  C   UNL A   1      43.594  25.157  26.603  1.00  0.00     0.029 A 
ATOM     44  N   UNL A   1      43.622  27.179  27.555  1.00  0.00    -0.354 N 
ATOM     45  C   UNL A   1      40.073  28.758  29.504  1.00  0.00     0.074 A 
ATOM     46  C   UNL A   1      38.998  27.790  29.481  1.00  0.00     0.031 C 
ATOM     47  C   UNL A   1      44.817  25.679  26.408  1.00  0.00     0.029 A 
ATOM     48  C   UNL A   1      44.862  27.020  26.977  1.00  0.00     0.049 A 
ATOM     49  H   UNL A   1      43.361  27.985  28.056  1.00  0.00     0.167 HD
ATOM     50  C   UNL A   1      40.000  29.964  30.118  1.00  0.00     0.034 A 
ATOM     51  C   UNL A   1      45.904  27.872  26.898  1.00  0.00     0.034 A 
ATOM     52  C   UNL A   1      41.083  30.911  30.144  1.00  0.00     0.049 A 
ATOM     53  C   UNL A   1      45.771  29.240  27.532  1.00  0.00     0.074 A 
ATOM     54  C   UNL A   1      41.123  32.158  30.742  1.00  0.00     0.029 A 
ATOM     55  N   UNL A   1      42.323  30.714  29.550  1.00  0.00    -0.354 N 
ATOM     56  N   UNL A   1      44.751  29.755  28.178  1.00  0.00    -0.248 NA
ATOM     57  C   UNL A   1      46.932  30.134  27.433  1.00  0.00     0.031 C 
ATOM     58  C   UNL A   1      42.362  32.739  30.459  1.00  0.00     0.029 A 
ATOM     59  C   UNL A   1      43.127  31.822  29.756  1.00  0.00     0.049 A 
ATOM     60  H   UNL A   1      42.590  29.906  29.057  1.00  0.00     0.167 HD
ATOM     61  C   UNL A   1      45.172  31.012  28.609  1.00  0.00     0.074 A 
ATOM     62  C   UNL A   1      46.537  31.171  28.157  1.00  0.00     0.031 C 
ATOM     63  C   UNL A   1      44.496  31.949  29.319  1.00  0.00     0.034 A 
BRANCH  50  64
ATOM     64  C   UNL A   1      38.706  30.315  30.809  1.00  0.00     0.023 A 
ATOM     65  C   UNL A   1      37.674  30.983  30.126  1.00  0.00     0.031 A 
ATOM     66  C   UNL A   1      38.499  29.990  32.160  1.00  0.00     0.131 A 
ATOM     67  C   UNL A   1      36.513  31.365  30.811  1.00  0.00     0.055 A 
ATOM     68  C   UNL A   1      37.304  30.296  32.814  1.00  0.00     0.041 A 
ATOM     69  F   UNL A   1      39.458  29.375  32.870  1.00  0.00    -0.206 F 
ATOM     70  C   UNL A   1      36.308  31.000  32.143  1.00  0.00     0.022 A 
BRANCH  67  71
ATOM     71  S   UNL A   1      35.337  32.459  29.973  1.00  0.00     0.124 S 
ATOM     72  O   UNL A   1      34.332  32.664  31.014  1.00  0.00    -0.237 OA
ATOM     73  O   UNL A   1      36.160  33.617  29.644  1.00  0.00    -0.237 OA
ATOM     74  O   UNL A   1      34.887  31.668  28.829  1.00  0.00    -0.744 OA
ENDBRANCH  67  71
ENDBRANCH  50  64
BRANCH  51  75
ATOM     75  C   UNL A   1      47.161  27.492  26.185  1.00  0.00     0.023 A 
ATOM     76  C   UNL A   1      47.371  27.875  24.850  1.00  0.00     0.031 A 
ATOM     77  C   UNL A   1      48.122  26.660  26.786  1.00  0.00     0.131 A 
ATOM     78  C   UNL A   1      48.460  27.355  24.134  1.00  0.00     0.055 A 
ATOM     79  C   UNL A   1      49.248  26.210  26.092  1.00  0.00     0.041 A 
ATOM     80  F   UNL A   1      47.977  26.262  28.060  1.00  0.00    -0.206 F 
ATOM     81  C   UNL A   1      49.409  26.538  24.750  1.00  0.00     0.022 A 
BRANCH  78  82
ATOM     82  S   UNL A   1      48.526  27.636  22.342  1.00  0.00     0.124 S 
ATOM     83  O   UNL A   1      48.571  26.270  21.833  1.00  0.00    -0.237 OA
ATOM     84  O   UNL A   1      47.287  28.369  22.106  1.00  0.00    -0.237 OA
ATOM     85  O   UNL A   1      49.752  28.410  22.165  1.00  0.00    -0.744 OA
ENDBRANCH  78  82
ENDBRANCH  51  75
BRANCH  63  86
ATOM     86  C   UNL A   1      45.251  33.191  29.727  1.00  0.00     0.023 A 
ATOM     87  C   UNL A   1      45.275  34.348  28.931  1.00  0.00     0.031 A 
ATOM     88  C   UNL A   1      45.947  33.213  30.950  1.00  0.00     0.131 A 
ATOM     89  C   UNL A   1      46.022  35.461  29.343  1.00  0.00     0.055 A 
ATOM     90  C   UNL A   1      46.635  34.345  31.384  1.00  0.00     0.041 A 
ATOM     91  F   UNL A   1      45.959  32.133  31.750  1.00  0.00    -0.206 F 
ATOM     92  C   UNL A   1      46.684  35.475  30.574  1.00  0.00     0.022 A 
BRANCH  89  93
ATOM     93  S   UNL A   1      46.186  36.867  28.210  1.00  0.00     0.124 S 
ATOM     94  O   UNL A   1      47.581  36.763  27.795  1.00  0.00    -0.237 OA
ATOM     95  O   UNL A   1      45.192  36.561  27.186  1.00  0.00    -0.237 OA
ATOM     96  O   UNL A   1      45.873  38.022  29.050  1.00  0.00    -0.744 OA
ENDBRANCH  89  93
ENDBRANCH  63  86
ENDBRANCH  37  38
ENDBRANCH  29  32
ENDBRANCH  27  28
ENDBRANCH   1  27
TORSDOF 18
ENDMDL
