MODEL 1
REMARK VINA RESULT:      -9.8      0.000      0.000
REMARK SMILES Cn1ccnc1NCCOCC(=O)NCCCNC(=O)c1ccc(-c2c3nc(c(-c4cc(S(=O)(=O)[O-])ccc4F)c4ccc([nH]4)c(-c4cc(S(=O)(=O)[O-])ccc4F)c4nc(c(-c5cc(S(=O)(=O)[O-])ccc5F)c5ccc2[nH]5)C=C4)C=C3)cc1
REMARK SMILES IDX 15 1 14 2 12 3 13 4 11 6 10 7 9 8 8 9 7 10 6 12 1 13 2 14
REMARK SMILES IDX 3 15 4 16 5 17 16 18 17 19 18 20 19 21 20 23 21 24 22 25
REMARK SMILES IDX 83 26 23 27 82 28 24 29 25 30 26 31 76 32 27 33 81 34 75 35
REMARK SMILES IDX 77 36 28 37 80 38 74 39 73 40 29 42 61 43 41 44 60 45 42 46
REMARK SMILES IDX 45 47 59 48 78 49 43 50 44 51 58 53 79 54 46 55 30 56 31 57
REMARK SMILES IDX 39 58 32 59 38 60 40 61 37 62 33 63 34 64 35 65 36 66 62 67
REMARK SMILES IDX 63 68 71 69 64 70 70 71 72 72 69 73 65 74 66 75 67 76 68 77
REMARK SMILES IDX 47 78 48 79 56 80 49 81 55 82 57 83 54 84 50 85 51 86 52 87
REMARK SMILES IDX 53 88
REMARK H PARENT 14 5 7 11 18 22 77 41 45 52
REMARK Flexibility Score: inf
ROOT
ATOM      1  C   UNL A   1      32.942  29.327  24.247  1.00  0.00     0.117 C 
ENDROOT
BRANCH   1   2
ATOM      2  N   UNL A   1      31.944  29.131  23.212  1.00  0.00    -0.354 N 
ATOM      3  C   UNL A   1      31.309  27.970  22.872  1.00  0.00     0.245 C 
ATOM      4  O   UNL A   1      30.381  28.005  22.062  1.00  0.00    -0.272 OA
ATOM      5  H   UNL A   1      31.694  29.929  22.693  1.00  0.00     0.163 HD
BRANCH   3   6
ATOM      6  C   UNL A   1      31.753  26.662  23.538  1.00  0.00     0.260 C 
BRANCH   6   7
ATOM      7  O   UNL A   1      32.951  26.059  23.081  1.00  0.00    -0.370 OA
BRANCH   7   8
ATOM      8  C   UNL A   1      33.920  25.778  24.105  1.00  0.00     0.182 C 
BRANCH   8   9
ATOM      9  C   UNL A   1      33.355  25.831  25.535  1.00  0.00     0.144 C 
BRANCH   9  10
ATOM     10  N   UNL A   1      33.376  24.525  26.177  1.00  0.00    -0.353 N 
ATOM     11  H   UNL A   1      34.228  24.168  26.517  1.00  0.00     0.163 HD
BRANCH  10  12
ATOM     12  C   UNL A   1      32.253  23.798  26.312  1.00  0.00     0.202 A 
ATOM     13  C   UNL A   1      32.705  22.259  24.349  1.00  0.00     0.153 C 
ATOM     14  N   UNL A   1      31.912  22.805  25.421  1.00  0.00    -0.321 N 
ATOM     15  C   UNL A   1      30.671  22.337  25.768  1.00  0.00     0.109 A 
ATOM     16  C   UNL A   1      30.338  23.033  26.903  1.00  0.00     0.133 A 
ATOM     17  N   UNL A   1      31.332  23.913  27.242  1.00  0.00    -0.222 NA
ENDBRANCH  10  12
ENDBRANCH   9  10
ENDBRANCH   8   9
ENDBRANCH   7   8
ENDBRANCH   6   7
ENDBRANCH   3   6
ENDBRANCH   1   2
BRANCH   1  18
ATOM     18  C   UNL A   1      32.339  29.460  25.638  1.00  0.00     0.042 C 
BRANCH  18  19
ATOM     19  C   UNL A   1      33.359  29.676  26.751  1.00  0.00     0.118 C 
BRANCH  19  20
ATOM     20  N   UNL A   1      33.452  31.065  27.176  1.00  0.00    -0.352 N 
ATOM     21  C   UNL A   1      34.361  31.695  27.990  1.00  0.00     0.251 C 
ATOM     22  H   UNL A   1      32.745  31.652  26.820  1.00  0.00     0.163 HD
ATOM     23  O   UNL A   1      34.128  32.841  28.367  1.00  0.00    -0.269 OA
BRANCH  21  24
ATOM     24  C   UNL A   1      35.592  31.002  28.432  1.00  0.00     0.039 A 
ATOM     25  C   UNL A   1      36.829  31.478  27.989  1.00  0.00     0.014 A 
ATOM     26  C   UNL A   1      35.536  29.877  29.258  1.00  0.00     0.014 A 
ATOM     27  C   UNL A   1      38.007  30.872  28.432  1.00  0.00     0.010 A 
ATOM     28  C   UNL A   1      36.711  29.330  29.769  1.00  0.00     0.010 A 
ATOM     29  C   UNL A   1      37.959  29.820  29.361  1.00  0.00    -0.014 A 
BRANCH  29  30
ATOM     30  C   UNL A   1      39.206  29.230  29.917  1.00  0.00     0.031 A 
ATOM     31  C   UNL A   1      39.865  29.839  31.124  1.00  0.00     0.074 A 
ATOM     32  C   UNL A   1      39.779  28.181  29.294  1.00  0.00     0.049 A 
ATOM     33  N   UNL A   1      40.985  29.506  31.714  1.00  0.00    -0.248 NA
ATOM     34  C   UNL A   1      39.188  30.995  31.729  1.00  0.00     0.031 C 
ATOM     35  C   UNL A   1      39.265  27.538  28.083  1.00  0.00     0.029 A 
ATOM     36  N   UNL A   1      40.921  27.478  29.583  1.00  0.00    -0.354 N 
ATOM     37  C   UNL A   1      41.150  30.414  32.756  1.00  0.00     0.074 A 
ATOM     38  C   UNL A   1      40.055  31.356  32.661  1.00  0.00     0.031 C 
ATOM     39  C   UNL A   1      40.076  26.523  27.747  1.00  0.00     0.029 A 
ATOM     40  C   UNL A   1      41.194  26.473  28.683  1.00  0.00     0.049 A 
ATOM     41  H   UNL A   1      41.493  27.674  30.360  1.00  0.00     0.167 HD
ATOM     42  C   UNL A   1      42.107  30.440  33.718  1.00  0.00     0.034 A 
ATOM     43  C   UNL A   1      42.233  25.618  28.609  1.00  0.00     0.034 A 
ATOM     44  C   UNL A   1      43.197  29.497  33.788  1.00  0.00     0.049 A 
ATOM     45  C   UNL A   1      43.305  25.684  29.664  1.00  0.00     0.074 A 
ATOM     46  C   UNL A   1      44.199  29.404  34.739  1.00  0.00     0.029 A 
ATOM     47  N   UNL A   1      43.441  28.490  32.860  1.00  0.00    -0.354 N 
ATOM     48  N   UNL A   1      43.417  26.512  30.678  1.00  0.00    -0.248 NA
ATOM     49  C   UNL A   1      44.383  24.691  29.574  1.00  0.00     0.031 C 
ATOM     50  C   UNL A   1      45.087  28.396  34.345  1.00  0.00     0.029 A 
ATOM     51  C   UNL A   1      44.594  27.796  33.197  1.00  0.00     0.049 A 
ATOM     52  H   UNL A   1      42.876  28.297  32.077  1.00  0.00     0.167 HD
ATOM     53  C   UNL A   1      44.568  26.124  31.359  1.00  0.00     0.074 A 
ATOM     54  C   UNL A   1      45.099  24.976  30.652  1.00  0.00     0.031 C 
ATOM     55  C   UNL A   1      45.131  26.667  32.470  1.00  0.00     0.034 A 
BRANCH  42  56
ATOM     56  C   UNL A   1      42.016  31.545  34.749  1.00  0.00     0.023 A 
ATOM     57  C   UNL A   1      41.045  31.522  35.768  1.00  0.00     0.031 A 
ATOM     58  C   UNL A   1      42.867  32.661  34.685  1.00  0.00     0.131 A 
ATOM     59  C   UNL A   1      40.881  32.632  36.609  1.00  0.00     0.055 A 
ATOM     60  C   UNL A   1      42.763  33.722  35.589  1.00  0.00     0.041 A 
ATOM     61  F   UNL A   1      43.802  32.756  33.725  1.00  0.00    -0.206 F 
ATOM     62  C   UNL A   1      41.752  33.721  36.545  1.00  0.00     0.022 A 
BRANCH  59  63
ATOM     63  S   UNL A   1      39.401  32.710  37.655  1.00  0.00     0.124 S 
ATOM     64  O   UNL A   1      39.977  32.568  38.991  1.00  0.00    -0.237 OA
ATOM     65  O   UNL A   1      38.853  34.022  37.331  1.00  0.00    -0.237 OA
ATOM     66  O   UNL A   1      38.603  31.571  37.206  1.00  0.00    -0.744 OA
ENDBRANCH  59  63
ENDBRANCH  42  56
BRANCH  43  67
ATOM     67  C   UNL A   1      42.317  24.645  27.482  1.00  0.00     0.023 A 
ATOM     68  C   UNL A   1      41.566  23.460  27.481  1.00  0.00     0.031 A 
ATOM     69  C   UNL A   1      43.166  24.889  26.387  1.00  0.00     0.131 A 
ATOM     70  C   UNL A   1      41.702  22.547  26.423  1.00  0.00     0.055 A 
ATOM     71  C   UNL A   1      43.260  24.004  25.312  1.00  0.00     0.041 A 
ATOM     72  F   UNL A   1      43.902  26.011  26.335  1.00  0.00    -0.206 F 
ATOM     73  C   UNL A   1      42.532  22.818  25.332  1.00  0.00     0.022 A 
BRANCH  70  74
ATOM     74  S   UNL A   1      40.827  20.961  26.522  1.00  0.00     0.124 S 
ATOM     75  O   UNL A   1      40.812  20.718  27.959  1.00  0.00    -0.237 OA
ATOM     76  O   UNL A   1      39.541  21.286  25.913  1.00  0.00    -0.237 OA
ATOM     77  O   UNL A   1      41.671  20.057  25.743  1.00  0.00    -0.744 OA
ENDBRANCH  70  74
ENDBRANCH  43  67
BRANCH  55  78
ATOM     78  C   UNL A   1      46.375  25.996  33.003  1.00  0.00     0.023 A 
ATOM     79  C   UNL A   1      46.310  24.937  33.926  1.00  0.00     0.031 A 
ATOM     80  C   UNL A   1      47.648  26.436  32.596  1.00  0.00     0.131 A 
ATOM     81  C   UNL A   1      47.491  24.396  34.458  1.00  0.00     0.055 A 
ATOM     82  C   UNL A   1      48.820  25.848  33.076  1.00  0.00     0.041 A 
ATOM     83  F   UNL A   1      47.775  27.448  31.722  1.00  0.00    -0.206 F 
ATOM     84  C   UNL A   1      48.745  24.832  34.024  1.00  0.00     0.022 A 
BRANCH  81  85
ATOM     85  S   UNL A   1      47.366  23.191  35.808  1.00  0.00     0.124 S 
ATOM     86  O   UNL A   1      48.552  22.368  35.590  1.00  0.00    -0.237 OA
ATOM     87  O   UNL A   1      47.390  24.044  36.992  1.00  0.00    -0.237 OA
ATOM     88  O   UNL A   1      46.092  22.521  35.553  1.00  0.00    -0.744 OA
ENDBRANCH  81  85
ENDBRANCH  55  78
ENDBRANCH  29  30
ENDBRANCH  21  24
ENDBRANCH  19  20
ENDBRANCH  18  19
ENDBRANCH   1  18
TORSDOF 18
ENDMDL
MODEL 2
REMARK VINA RESULT:      -9.8      2.238      8.205
REMARK SMILES Cn1ccnc1NCCOCC(=O)NCCCNC(=O)c1ccc(-c2c3nc(c(-c4cc(S(=O)(=O)[O-])ccc4F)c4ccc([nH]4)c(-c4cc(S(=O)(=O)[O-])ccc4F)c4nc(c(-c5cc(S(=O)(=O)[O-])ccc5F)c5ccc2[nH]5)C=C4)C=C3)cc1
REMARK SMILES IDX 15 1 14 2 12 3 13 4 11 6 10 7 9 8 8 9 7 10 6 12 1 13 2 14
REMARK SMILES IDX 3 15 4 16 5 17 16 18 17 19 18 20 19 21 20 23 21 24 22 25
REMARK SMILES IDX 83 26 23 27 82 28 24 29 25 30 26 31 76 32 27 33 81 34 75 35
REMARK SMILES IDX 77 36 28 37 80 38 74 39 73 40 29 42 61 43 41 44 60 45 42 46
REMARK SMILES IDX 45 47 59 48 78 49 43 50 44 51 58 53 79 54 46 55 30 56 31 57
REMARK SMILES IDX 39 58 32 59 38 60 40 61 37 62 33 63 34 64 35 65 36 66 62 67
REMARK SMILES IDX 63 68 71 69 64 70 70 71 72 72 69 73 65 74 66 75 67 76 68 77
REMARK SMILES IDX 47 78 48 79 56 80 49 81 55 82 57 83 54 84 50 85 51 86 52 87
REMARK SMILES IDX 53 88
REMARK H PARENT 14 5 7 11 18 22 77 41 45 52
REMARK Flexibility Score: inf
ROOT
ATOM      1  C   UNL A   1      32.563  26.767  26.109  1.00  0.00     0.117 C 
ENDROOT
BRANCH   1   2
ATOM      2  N   UNL A   1      31.624  25.735  26.512  1.00  0.00    -0.354 N 
ATOM      3  C   UNL A   1      31.900  24.444  26.861  1.00  0.00     0.245 C 
ATOM      4  O   UNL A   1      30.999  23.737  27.316  1.00  0.00    -0.272 OA
ATOM      5  H   UNL A   1      30.676  25.998  26.537  1.00  0.00     0.163 HD
BRANCH   3   6
ATOM      6  C   UNL A   1      33.335  23.926  26.706  1.00  0.00     0.260 C 
BRANCH   6   7
ATOM      7  O   UNL A   1      33.560  22.862  25.798  1.00  0.00    -0.370 OA
BRANCH   7   8
ATOM      8  C   UNL A   1      32.543  22.691  24.796  1.00  0.00     0.182 C 
BRANCH   8   9
ATOM      9  C   UNL A   1      31.729  21.394  24.943  1.00  0.00     0.144 C 
BRANCH   9  10
ATOM     10  N   UNL A   1      32.437  20.395  25.731  1.00  0.00    -0.353 N 
ATOM     11  H   UNL A   1      32.599  20.560  26.687  1.00  0.00     0.163 HD
BRANCH  10  12
ATOM     12  C   UNL A   1      32.873  19.251  25.174  1.00  0.00     0.202 A 
ATOM     13  C   UNL A   1      35.288  19.983  24.941  1.00  0.00     0.153 C 
ATOM     14  N   UNL A   1      34.171  19.096  24.742  1.00  0.00    -0.321 N 
ATOM     15  C   UNL A   1      34.266  17.875  24.126  1.00  0.00     0.109 A 
ATOM     16  C   UNL A   1      33.022  17.312  24.268  1.00  0.00     0.133 A 
ATOM     17  N   UNL A   1      32.179  18.161  24.936  1.00  0.00    -0.222 NA
ENDBRANCH  10  12
ENDBRANCH   9  10
ENDBRANCH   8   9
ENDBRANCH   7   8
ENDBRANCH   6   7
ENDBRANCH   3   6
ENDBRANCH   1   2
BRANCH   1  18
ATOM     18  C   UNL A   1      31.944  28.157  26.081  1.00  0.00     0.042 C 
BRANCH  18  19
ATOM     19  C   UNL A   1      32.862  29.246  25.536  1.00  0.00     0.118 C 
BRANCH  19  20
ATOM     20  N   UNL A   1      32.490  30.580  25.984  1.00  0.00    -0.352 N 
ATOM     21  C   UNL A   1      33.038  31.387  26.951  1.00  0.00     0.251 C 
ATOM     22  H   UNL A   1      31.715  30.970  25.515  1.00  0.00     0.163 HD
ATOM     23  O   UNL A   1      32.434  32.401  27.293  1.00  0.00    -0.269 OA
BRANCH  21  24
ATOM     24  C   UNL A   1      34.322  31.034  27.595  1.00  0.00     0.039 A 
ATOM     25  C   UNL A   1      35.285  32.031  27.769  1.00  0.00     0.014 A 
ATOM     26  C   UNL A   1      34.594  29.727  28.007  1.00  0.00     0.014 A 
ATOM     27  C   UNL A   1      36.486  31.733  28.419  1.00  0.00     0.010 A 
ATOM     28  C   UNL A   1      35.751  29.451  28.733  1.00  0.00     0.010 A 
ATOM     29  C   UNL A   1      36.710  30.452  28.946  1.00  0.00    -0.014 A 
BRANCH  29  30
ATOM     30  C   UNL A   1      37.940  30.147  29.726  1.00  0.00     0.031 A 
ATOM     31  C   UNL A   1      38.955  29.171  29.197  1.00  0.00     0.074 A 
ATOM     32  C   UNL A   1      38.109  30.703  30.941  1.00  0.00     0.049 A 
ATOM     33  N   UNL A   1      40.052  28.730  29.759  1.00  0.00    -0.248 NA
ATOM     34  C   UNL A   1      38.681  28.590  27.875  1.00  0.00     0.031 C 
ATOM     35  C   UNL A   1      37.168  31.622  31.586  1.00  0.00     0.029 A 
ATOM     36  N   UNL A   1      39.123  30.573  31.856  1.00  0.00    -0.354 N 
ATOM     37  C   UNL A   1      40.598  27.818  28.860  1.00  0.00     0.074 A 
ATOM     38  C   UNL A   1      39.665  27.713  27.758  1.00  0.00     0.031 C 
ATOM     39  C   UNL A   1      37.659  31.988  32.779  1.00  0.00     0.029 A 
ATOM     40  C   UNL A   1      38.922  31.294  33.011  1.00  0.00     0.049 A 
ATOM     41  H   UNL A   1      39.920  30.015  31.703  1.00  0.00     0.167 HD
ATOM     42  C   UNL A   1      41.780  27.155  28.933  1.00  0.00     0.034 A 
ATOM     43  C   UNL A   1      39.659  31.375  34.136  1.00  0.00     0.034 A 
ATOM     44  C   UNL A   1      42.691  27.266  30.047  1.00  0.00     0.049 A 
ATOM     45  C   UNL A   1      40.950  30.605  34.216  1.00  0.00     0.074 A 
ATOM     46  C   UNL A   1      43.932  26.673  30.211  1.00  0.00     0.029 A 
ATOM     47  N   UNL A   1      42.455  28.008  31.200  1.00  0.00    -0.354 N 
ATOM     48  N   UNL A   1      41.483  29.790  33.334  1.00  0.00    -0.248 NA
ATOM     49  C   UNL A   1      41.747  30.776  35.437  1.00  0.00     0.031 C 
ATOM     50  C   UNL A   1      44.408  26.993  31.487  1.00  0.00     0.029 A 
ATOM     51  C   UNL A   1      43.509  27.859  32.091  1.00  0.00     0.049 A 
ATOM     52  H   UNL A   1      41.656  28.560  31.361  1.00  0.00     0.167 HD
ATOM     53  C   UNL A   1      42.690  29.368  33.886  1.00  0.00     0.074 A 
ATOM     54  C   UNL A   1      42.814  30.036  35.166  1.00  0.00     0.031 C 
ATOM     55  C   UNL A   1      43.612  28.510  33.378  1.00  0.00     0.034 A 
BRANCH  42  56
ATOM     56  C   UNL A   1      42.127  26.237  27.782  1.00  0.00     0.023 A 
ATOM     57  C   UNL A   1      41.671  24.906  27.739  1.00  0.00     0.031 A 
ATOM     58  C   UNL A   1      42.967  26.672  26.742  1.00  0.00     0.131 A 
ATOM     59  C   UNL A   1      42.137  24.033  26.746  1.00  0.00     0.055 A 
ATOM     60  C   UNL A   1      43.350  25.824  25.699  1.00  0.00     0.041 A 
ATOM     61  F   UNL A   1      43.454  27.923  26.732  1.00  0.00    -0.206 F 
ATOM     62  C   UNL A   1      42.953  24.490  25.708  1.00  0.00     0.022 A 
BRANCH  59  63
ATOM     63  S   UNL A   1      41.816  22.258  26.937  1.00  0.00     0.124 S 
ATOM     64  O   UNL A   1      41.968  21.782  25.564  1.00  0.00    -0.237 OA
ATOM     65  O   UNL A   1      42.855  21.848  27.874  1.00  0.00    -0.237 OA
ATOM     66  O   UNL A   1      40.451  22.211  27.456  1.00  0.00    -0.744 OA
ENDBRANCH  59  63
ENDBRANCH  42  56
BRANCH  43  67
ATOM     67  C   UNL A   1      39.180  32.200  35.283  1.00  0.00     0.023 A 
ATOM     68  C   UNL A   1      38.578  31.613  36.406  1.00  0.00     0.031 A 
ATOM     69  C   UNL A   1      39.312  33.601  35.261  1.00  0.00     0.131 A 
ATOM     70  C   UNL A   1      38.102  32.425  37.448  1.00  0.00     0.055 A 
ATOM     71  C   UNL A   1      38.884  34.400  36.321  1.00  0.00     0.041 A 
ATOM     72  F   UNL A   1      39.886  34.212  34.213  1.00  0.00    -0.206 F 
ATOM     73  C   UNL A   1      38.264  33.812  37.420  1.00  0.00     0.022 A 
BRANCH  70  74
ATOM     74  S   UNL A   1      37.203  31.647  38.818  1.00  0.00     0.124 S 
ATOM     75  O   UNL A   1      38.166  31.758  39.907  1.00  0.00    -0.237 OA
ATOM     76  O   UNL A   1      36.017  32.490  38.920  1.00  0.00    -0.237 OA
ATOM     77  O   UNL A   1      36.958  30.288  38.336  1.00  0.00    -0.744 OA
ENDBRANCH  70  74
ENDBRANCH  43  67
BRANCH  55  78
ATOM     78  C   UNL A   1      44.854  28.274  34.204  1.00  0.00     0.023 A 
ATOM     79  C   UNL A   1      44.910  27.274  35.192  1.00  0.00     0.031 A 
ATOM     80  C   UNL A   1      45.996  29.074  34.013  1.00  0.00     0.131 A 
ATOM     81  C   UNL A   1      46.056  27.143  35.992  1.00  0.00     0.055 A 
ATOM     82  C   UNL A   1      47.158  28.892  34.765  1.00  0.00     0.041 A 
ATOM     83  F   UNL A   1      46.001  30.048  33.088  1.00  0.00    -0.206 F 
ATOM     84  C   UNL A   1      47.187  27.932  35.772  1.00  0.00     0.022 A 
BRANCH  81  85
ATOM     85  S   UNL A   1      46.008  25.999  37.400  1.00  0.00     0.124 S 
ATOM     86  O   UNL A   1      45.690  26.895  38.507  1.00  0.00    -0.237 OA
ATOM     87  O   UNL A   1      44.956  25.067  37.010  1.00  0.00    -0.237 OA
ATOM     88  O   UNL A   1      47.356  25.434  37.427  1.00  0.00    -0.744 OA
ENDBRANCH  81  85
ENDBRANCH  55  78
ENDBRANCH  29  30
ENDBRANCH  21  24
ENDBRANCH  19  20
ENDBRANCH  18  19
ENDBRANCH   1  18
TORSDOF 18
ENDMDL
MODEL 3
REMARK VINA RESULT:      -9.8      2.963      8.581
REMARK SMILES Cn1ccnc1NCCOCC(=O)NCCCNC(=O)c1ccc(-c2c3nc(c(-c4cc(S(=O)(=O)[O-])ccc4F)c4ccc([nH]4)c(-c4cc(S(=O)(=O)[O-])ccc4F)c4nc(c(-c5cc(S(=O)(=O)[O-])ccc5F)c5ccc2[nH]5)C=C4)C=C3)cc1
REMARK SMILES IDX 15 1 14 2 12 3 13 4 11 6 10 7 9 8 8 9 7 10 6 12 1 13 2 14
REMARK SMILES IDX 3 15 4 16 5 17 16 18 17 19 18 20 19 21 20 23 21 24 22 25
REMARK SMILES IDX 83 26 23 27 82 28 24 29 25 30 26 31 76 32 27 33 81 34 75 35
REMARK SMILES IDX 77 36 28 37 80 38 74 39 73 40 29 42 61 43 41 44 60 45 42 46
REMARK SMILES IDX 45 47 59 48 78 49 43 50 44 51 58 53 79 54 46 55 30 56 31 57
REMARK SMILES IDX 39 58 32 59 38 60 40 61 37 62 33 63 34 64 35 65 36 66 62 67
REMARK SMILES IDX 63 68 71 69 64 70 70 71 72 72 69 73 65 74 66 75 67 76 68 77
REMARK SMILES IDX 47 78 48 79 56 80 49 81 55 82 57 83 54 84 50 85 51 86 52 87
REMARK SMILES IDX 53 88
REMARK H PARENT 14 5 7 11 18 22 77 41 45 52
REMARK Flexibility Score: inf
ROOT
ATOM      1  C   UNL A   1      31.987  30.339  25.760  1.00  0.00     0.117 C 
ENDROOT
BRANCH   1   2
ATOM      2  N   UNL A   1      31.066  30.050  24.676  1.00  0.00    -0.354 N 
ATOM      3  C   UNL A   1      30.720  28.827  24.176  1.00  0.00     0.245 C 
ATOM      4  O   UNL A   1      29.813  28.749  23.346  1.00  0.00    -0.272 OA
ATOM      5  H   UNL A   1      30.639  30.828  24.249  1.00  0.00     0.163 HD
BRANCH   3   6
ATOM      6  C   UNL A   1      31.452  27.583  24.694  1.00  0.00     0.260 C 
BRANCH   6   7
ATOM      7  O   UNL A   1      31.009  26.316  24.236  1.00  0.00    -0.370 OA
BRANCH   7   8
ATOM      8  C   UNL A   1      31.196  25.235  25.165  1.00  0.00     0.182 C 
BRANCH   8   9
ATOM      9  C   UNL A   1      30.741  23.865  24.632  1.00  0.00     0.144 C 
BRANCH   9  10
ATOM     10  N   UNL A   1      30.673  22.866  25.688  1.00  0.00    -0.353 N 
ATOM     11  H   UNL A   1      29.806  22.457  25.912  1.00  0.00     0.163 HD
BRANCH  10  12
ATOM     12  C   UNL A   1      31.775  22.491  26.363  1.00  0.00     0.202 A 
ATOM     13  C   UNL A   1      32.703  21.004  24.531  1.00  0.00     0.153 C 
ATOM     14  N   UNL A   1      32.667  21.574  25.855  1.00  0.00    -0.321 N 
ATOM     15  C   UNL A   1      33.608  21.324  26.820  1.00  0.00     0.109 A 
ATOM     16  C   UNL A   1      33.276  22.156  27.859  1.00  0.00     0.133 A 
ATOM     17  N   UNL A   1      32.157  22.887  27.555  1.00  0.00    -0.222 NA
ENDBRANCH  10  12
ENDBRANCH   9  10
ENDBRANCH   8   9
ENDBRANCH   7   8
ENDBRANCH   6   7
ENDBRANCH   3   6
ENDBRANCH   1   2
BRANCH   1  18
ATOM     18  C   UNL A   1      31.651  31.626  26.498  1.00  0.00     0.042 C 
BRANCH  18  19
ATOM     19  C   UNL A   1      32.807  32.214  27.300  1.00  0.00     0.118 C 
BRANCH  19  20
ATOM     20  N   UNL A   1      32.615  33.620  27.629  1.00  0.00    -0.352 N 
ATOM     21  C   UNL A   1      33.205  34.406  28.589  1.00  0.00     0.251 C 
ATOM     22  H   UNL A   1      31.950  34.085  27.070  1.00  0.00     0.163 HD
ATOM     23  O   UNL A   1      32.742  35.522  28.811  1.00  0.00    -0.269 OA
BRANCH  21  24
ATOM     24  C   UNL A   1      34.364  33.913  29.365  1.00  0.00     0.039 A 
ATOM     25  C   UNL A   1      34.146  32.973  30.376  1.00  0.00     0.014 A 
ATOM     26  C   UNL A   1      35.656  34.386  29.122  1.00  0.00     0.014 A 
ATOM     27  C   UNL A   1      35.230  32.455  31.089  1.00  0.00     0.010 A 
ATOM     28  C   UNL A   1      36.743  33.804  29.772  1.00  0.00     0.010 A 
ATOM     29  C   UNL A   1      36.543  32.833  30.763  1.00  0.00    -0.014 A 
BRANCH  29  30
ATOM     30  C   UNL A   1      37.712  32.218  31.446  1.00  0.00     0.031 A 
ATOM     31  C   UNL A   1      38.451  31.073  30.809  1.00  0.00     0.074 A 
ATOM     32  C   UNL A   1      38.068  32.651  32.671  1.00  0.00     0.049 A 
ATOM     33  N   UNL A   1      39.449  30.368  31.276  1.00  0.00    -0.248 NA
ATOM     34  C   UNL A   1      37.983  30.647  29.482  1.00  0.00     0.031 C 
ATOM     35  C   UNL A   1      37.394  33.716  33.417  1.00  0.00     0.029 A 
ATOM     36  N   UNL A   1      39.074  32.244  33.511  1.00  0.00    -0.354 N 
ATOM     37  C   UNL A   1      39.727  29.412  30.304  1.00  0.00     0.074 A 
ATOM     38  C   UNL A   1      38.736  29.581  29.261  1.00  0.00     0.031 C 
ATOM     39  C   UNL A   1      38.018  33.893  34.591  1.00  0.00     0.029 A 
ATOM     40  C   UNL A   1      39.102  32.923  34.708  1.00  0.00     0.049 A 
ATOM     41  H   UNL A   1      39.715  31.533  33.281  1.00  0.00     0.167 HD
ATOM     42  C   UNL A   1      40.731  28.499  30.269  1.00  0.00     0.034 A 
ATOM     43  C   UNL A   1      39.898  32.773  35.785  1.00  0.00     0.034 A 
ATOM     44  C   UNL A   1      41.702  28.339  31.325  1.00  0.00     0.049 A 
ATOM     45  C   UNL A   1      40.985  31.732  35.745  1.00  0.00     0.074 A 
ATOM     46  C   UNL A   1      42.784  27.477  31.380  1.00  0.00     0.029 A 
ATOM     47  N   UNL A   1      41.702  29.046  32.523  1.00  0.00    -0.354 N 
ATOM     48  N   UNL A   1      41.273  30.872  34.794  1.00  0.00    -0.248 NA
ATOM     49  C   UNL A   1      41.865  31.649  36.918  1.00  0.00     0.031 C 
ATOM     50  C   UNL A   1      43.388  27.608  32.636  1.00  0.00     0.029 A 
ATOM     51  C   UNL A   1      42.741  28.615  33.335  1.00  0.00     0.049 A 
ATOM     52  H   UNL A   1      41.058  29.752  32.760  1.00  0.00     0.167 HD
ATOM     53  C   UNL A   1      42.381  30.161  35.246  1.00  0.00     0.074 A 
ATOM     54  C   UNL A   1      42.721  30.709  36.544  1.00  0.00     0.031 C 
ATOM     55  C   UNL A   1      43.057  29.151  34.641  1.00  0.00     0.034 A 
BRANCH  42  56
ATOM     56  C   UNL A   1      40.799  27.596  29.057  1.00  0.00     0.023 A 
ATOM     57  C   UNL A   1      41.759  27.793  28.046  1.00  0.00     0.031 A 
ATOM     58  C   UNL A   1      39.864  26.562  28.876  1.00  0.00     0.131 A 
ATOM     59  C   UNL A   1      41.698  27.044  26.862  1.00  0.00     0.055 A 
ATOM     60  C   UNL A   1      39.869  25.753  27.737  1.00  0.00     0.041 A 
ATOM     61  F   UNL A   1      38.909  26.334  29.792  1.00  0.00    -0.206 F 
ATOM     62  C   UNL A   1      40.776  26.005  26.712  1.00  0.00     0.022 A 
BRANCH  59  63
ATOM     63  S   UNL A   1      42.713  27.571  25.455  1.00  0.00     0.124 S 
ATOM     64  O   UNL A   1      43.925  28.038  26.125  1.00  0.00    -0.237 OA
ATOM     65  O   UNL A   1      42.843  26.342  24.681  1.00  0.00    -0.237 OA
ATOM     66  O   UNL A   1      41.913  28.622  24.830  1.00  0.00    -0.744 OA
ENDBRANCH  59  63
ENDBRANCH  42  56
BRANCH  43  67
ATOM     67  C   UNL A   1      39.680  33.615  36.996  1.00  0.00     0.023 A 
ATOM     68  C   UNL A   1      39.089  33.091  38.155  1.00  0.00     0.031 A 
ATOM     69  C   UNL A   1      40.055  34.971  37.002  1.00  0.00     0.131 A 
ATOM     70  C   UNL A   1      38.861  33.924  39.262  1.00  0.00     0.055 A 
ATOM     71  C   UNL A   1      39.874  35.784  38.122  1.00  0.00     0.041 A 
ATOM     72  F   UNL A   1      40.630  35.521  35.921  1.00  0.00    -0.206 F 
ATOM     73  C   UNL A   1      39.264  35.262  39.259  1.00  0.00     0.022 A 
BRANCH  70  74
ATOM     74  S   UNL A   1      37.968  33.252  40.691  1.00  0.00     0.124 S 
ATOM     75  O   UNL A   1      36.625  33.085  40.150  1.00  0.00    -0.237 OA
ATOM     76  O   UNL A   1      38.709  32.024  40.961  1.00  0.00    -0.237 OA
ATOM     77  O   UNL A   1      38.109  34.297  41.703  1.00  0.00    -0.744 OA
ENDBRANCH  70  74
ENDBRANCH  43  67
BRANCH  55  78
ATOM     78  C   UNL A   1      44.257  28.596  35.373  1.00  0.00     0.023 A 
ATOM     79  C   UNL A   1      44.129  27.617  36.373  1.00  0.00     0.031 A 
ATOM     80  C   UNL A   1      45.549  29.069  35.076  1.00  0.00     0.131 A 
ATOM     81  C   UNL A   1      45.261  27.189  37.085  1.00  0.00     0.055 A 
ATOM     82  C   UNL A   1      46.680  28.588  35.738  1.00  0.00     0.041 A 
ATOM     83  F   UNL A   1      45.734  30.008  34.133  1.00  0.00    -0.206 F 
ATOM     84  C   UNL A   1      46.538  27.654  36.760  1.00  0.00     0.022 A 
BRANCH  81  85
ATOM     85  S   UNL A   1      45.030  26.098  38.515  1.00  0.00     0.124 S 
ATOM     86  O   UNL A   1      45.138  24.775  37.908  1.00  0.00    -0.237 OA
ATOM     87  O   UNL A   1      46.131  26.491  39.389  1.00  0.00    -0.237 OA
ATOM     88  O   UNL A   1      43.697  26.449  39.003  1.00  0.00    -0.744 OA
ENDBRANCH  81  85
ENDBRANCH  55  78
ENDBRANCH  29  30
ENDBRANCH  21  24
ENDBRANCH  19  20
ENDBRANCH  18  19
ENDBRANCH   1  18
TORSDOF 18
ENDMDL
