MODEL 1
REMARK VINA RESULT:     -12.5      0.000      0.000
REMARK SMILES O=C(NCCCNC(=O)[C@H]1C=C[C@@H](NC(=O)c2ccc(Cl)cn2)C1)c1ccc(-c2c3nc(c(-c4cc(S(=O)(=O)[O-])ccc4F)c4ccc([nH]4)c(-c4cc(S(=O)(=O)[O-])ccc4F)c4nc(c(-c5cc(S(=O)(=O)[O-])ccc5F)c5ccc2[nH]5)C=C4)C=C3)cc1
REMARK SMILES IDX 4 1 3 2 1 3 2 4 25 6 26 7 87 8 27 9 86 10 28 11 29 12 30 13
REMARK SMILES IDX 80 14 31 15 85 16 79 17 81 18 32 19 84 20 78 21 77 22 33 24
REMARK SMILES IDX 65 25 45 26 64 27 46 28 49 29 63 30 82 31 47 32 48 33 62 35
REMARK SMILES IDX 83 36 50 37 34 38 35 39 43 40 36 41 42 42 44 43 41 44 37 45
REMARK SMILES IDX 38 46 39 47 40 48 66 49 67 50 75 51 68 52 74 53 76 54 73 55
REMARK SMILES IDX 69 56 70 57 71 58 72 59 51 60 52 61 60 62 53 63 59 64 61 65
REMARK SMILES IDX 58 66 54 67 55 68 56 69 57 70 5 71 6 72 7 73 8 74 9 76 10 77
REMARK SMILES IDX 11 78 24 79 12 80 13 81 14 82 15 83 16 85 17 86 18 87 23 88
REMARK SMILES IDX 19 89 22 90 20 91 21 92
REMARK H PARENT 3 5 81 23 49 34 7 75 14 84
REMARK Flexibility Score: inf
ROOT
ATOM      1  C   UNL A   1      32.683  32.467  27.242  1.00  0.00     0.118 C 
ENDROOT
BRANCH   1   2
ATOM      2  N   UNL A   1      32.516  33.867  27.612  1.00  0.00    -0.352 N 
ATOM      3  O   UNL A   1      32.732  35.715  28.873  1.00  0.00    -0.269 OA
ATOM      4  C   UNL A   1      33.147  34.592  28.591  1.00  0.00     0.251 C 
ATOM      5  H   UNL A   1      31.854  34.365  27.080  1.00  0.00     0.163 HD
BRANCH   4   6
ATOM      6  C   UNL A   1      34.311  34.026  29.303  1.00  0.00     0.039 A 
ATOM      7  C   UNL A   1      34.132  33.094  30.329  1.00  0.00     0.014 A 
ATOM      8  C   UNL A   1      35.602  34.398  28.913  1.00  0.00     0.014 A 
ATOM      9  C   UNL A   1      35.229  32.625  31.040  1.00  0.00     0.010 A 
ATOM     10  C   UNL A   1      36.710  33.858  29.573  1.00  0.00     0.010 A 
ATOM     11  C   UNL A   1      36.531  32.975  30.649  1.00  0.00    -0.014 A 
BRANCH  11  12
ATOM     12  C   UNL A   1      37.684  32.309  31.308  1.00  0.00     0.031 A 
ATOM     13  C   UNL A   1      38.426  31.188  30.638  1.00  0.00     0.074 A 
ATOM     14  C   UNL A   1      38.058  32.749  32.526  1.00  0.00     0.049 A 
ATOM     15  N   UNL A   1      39.450  30.504  31.081  1.00  0.00    -0.248 NA
ATOM     16  C   UNL A   1      37.959  30.775  29.306  1.00  0.00     0.031 C 
ATOM     17  C   UNL A   1      37.395  33.827  33.268  1.00  0.00     0.029 A 
ATOM     18  N   UNL A   1      39.079  32.363  33.354  1.00  0.00    -0.354 N 
ATOM     19  C   UNL A   1      39.744  29.570  30.094  1.00  0.00     0.074 A 
ATOM     20  C   UNL A   1      38.775  29.763  29.035  1.00  0.00     0.031 C 
ATOM     21  C   UNL A   1      38.047  34.038  34.420  1.00  0.00     0.029 A 
ATOM     22  C   UNL A   1      39.123  33.062  34.538  1.00  0.00     0.049 A 
ATOM     23  H   UNL A   1      39.720  31.653  33.123  1.00  0.00     0.167 HD
ATOM     24  C   UNL A   1      40.733  28.642  30.080  1.00  0.00     0.034 A 
ATOM     25  C   UNL A   1      39.916  32.914  35.617  1.00  0.00     0.034 A 
ATOM     26  C   UNL A   1      41.692  28.475  31.147  1.00  0.00     0.049 A 
ATOM     27  C   UNL A   1      40.974  31.843  35.586  1.00  0.00     0.074 A 
ATOM     28  C   UNL A   1      42.772  27.610  31.203  1.00  0.00     0.029 A 
ATOM     29  N   UNL A   1      41.681  29.169  32.350  1.00  0.00    -0.354 N 
ATOM     30  N   UNL A   1      41.268  31.004  34.619  1.00  0.00    -0.248 NA
ATOM     31  C   UNL A   1      41.803  31.698  36.787  1.00  0.00     0.031 C 
ATOM     32  C   UNL A   1      43.363  27.725  32.466  1.00  0.00     0.029 A 
ATOM     33  C   UNL A   1      42.703  28.717  33.171  1.00  0.00     0.049 A 
ATOM     34  H   UNL A   1      41.040  29.878  32.585  1.00  0.00     0.167 HD
ATOM     35  C   UNL A   1      42.331  30.242  35.094  1.00  0.00     0.074 A 
ATOM     36  C   UNL A   1      42.643  30.745  36.416  1.00  0.00     0.031 C 
ATOM     37  C   UNL A   1      42.986  29.216  34.496  1.00  0.00     0.034 A 
BRANCH  24  38
ATOM     38  C   UNL A   1      40.808  27.700  28.904  1.00  0.00     0.023 A 
ATOM     39  C   UNL A   1      41.746  27.867  27.871  1.00  0.00     0.031 A 
ATOM     40  C   UNL A   1      39.949  26.587  28.842  1.00  0.00     0.131 A 
ATOM     41  C   UNL A   1      41.779  26.956  26.803  1.00  0.00     0.055 A 
ATOM     42  C   UNL A   1      40.030  25.650  27.810  1.00  0.00     0.041 A 
ATOM     43  F   UNL A   1      39.020  26.388  29.790  1.00  0.00    -0.206 F 
ATOM     44  C   UNL A   1      40.945  25.836  26.779  1.00  0.00     0.022 A 
BRANCH  41  45
ATOM     45  S   UNL A   1      42.873  27.301  25.397  1.00  0.00     0.124 S 
ATOM     46  O   UNL A   1      42.886  26.012  24.709  1.00  0.00    -0.237 OA
ATOM     47  O   UNL A   1      42.177  28.382  24.711  1.00  0.00    -0.237 OA
ATOM     48  O   UNL A   1      44.138  27.673  26.028  1.00  0.00    -0.744 OA
ENDBRANCH  41  45
ENDBRANCH  24  38
BRANCH  25  49
ATOM     49  C   UNL A   1      39.707  33.751  36.832  1.00  0.00     0.023 A 
ATOM     50  C   UNL A   1      39.096  33.226  37.980  1.00  0.00     0.031 A 
ATOM     51  C   UNL A   1      40.060  35.114  36.840  1.00  0.00     0.131 A 
ATOM     52  C   UNL A   1      38.800  34.068  39.063  1.00  0.00     0.055 A 
ATOM     53  C   UNL A   1      39.828  35.932  37.946  1.00  0.00     0.041 A 
ATOM     54  F   UNL A   1      40.646  35.671  35.769  1.00  0.00    -0.206 F 
ATOM     55  C   UNL A   1      39.177  35.413  39.061  1.00  0.00     0.022 A 
BRANCH  52  56
ATOM     56  S   UNL A   1      37.803  33.408  40.425  1.00  0.00     0.124 S 
ATOM     57  O   UNL A   1      37.671  34.575  41.290  1.00  0.00    -0.237 OA
ATOM     58  O   UNL A   1      36.590  32.983  39.733  1.00  0.00    -0.237 OA
ATOM     59  O   UNL A   1      38.628  32.326  40.957  1.00  0.00    -0.744 OA
ENDBRANCH  52  56
ENDBRANCH  25  49
BRANCH  37  60
ATOM     60  C   UNL A   1      44.121  28.595  35.272  1.00  0.00     0.023 A 
ATOM     61  C   UNL A   1      43.902  27.530  36.165  1.00  0.00     0.031 A 
ATOM     62  C   UNL A   1      45.428  29.093  35.143  1.00  0.00     0.131 A 
ATOM     63  C   UNL A   1      44.963  27.040  36.939  1.00  0.00     0.055 A 
ATOM     64  C   UNL A   1      46.493  28.558  35.868  1.00  0.00     0.041 A 
ATOM     65  F   UNL A   1      45.692  30.112  34.308  1.00  0.00    -0.206 F 
ATOM     66  C   UNL A   1      46.260  27.536  36.784  1.00  0.00     0.022 A 
BRANCH  63  67
ATOM     67  S   UNL A   1      44.605  25.812  38.225  1.00  0.00     0.124 S 
ATOM     68  O   UNL A   1      44.121  26.649  39.318  1.00  0.00    -0.237 OA
ATOM     69  O   UNL A   1      43.606  24.966  37.580  1.00  0.00    -0.237 OA
ATOM     70  O   UNL A   1      45.900  25.173  38.459  1.00  0.00    -0.744 OA
ENDBRANCH  63  67
ENDBRANCH  37  60
ENDBRANCH  11  12
ENDBRANCH   4   6
ENDBRANCH   1   2
BRANCH   1  71
ATOM     71  C   UNL A   1      31.398  31.852  26.695  1.00  0.00     0.042 C 
BRANCH  71  72
ATOM     72  C   UNL A   1      31.635  30.627  25.820  1.00  0.00     0.117 C 
BRANCH  72  73
ATOM     73  N   UNL A   1      30.717  30.580  24.695  1.00  0.00    -0.356 N 
ATOM     74  C   UNL A   1      30.393  29.522  23.892  1.00  0.00     0.227 C 
ATOM     75  H   UNL A   1      30.267  31.429  24.481  1.00  0.00     0.163 HD
ATOM     76  O   UNL A   1      29.607  29.712  22.965  1.00  0.00    -0.274 OA
BRANCH  74  77
ATOM     77  C   UNL A   1      30.976  28.154  24.231  1.00  0.00     0.103 C 
ATOM     78  C   UNL A   1      29.951  27.094  23.929  1.00  0.00    -0.016 C 
ATOM     79  C   UNL A   1      32.147  27.742  23.328  1.00  0.00     0.047 C 
ATOM     80  C   UNL A   1      30.492  26.052  23.289  1.00  0.00    -0.006 C 
ATOM     81  C   UNL A   1      31.959  26.242  23.086  1.00  0.00     0.106 C 
BRANCH  81  82
ATOM     82  N   UNL A   1      32.287  25.837  21.741  1.00  0.00    -0.344 N 
ATOM     83  C   UNL A   1      32.985  24.727  21.324  1.00  0.00     0.270 C 
ATOM     84  H   UNL A   1      31.968  26.434  21.026  1.00  0.00     0.164 HD
ATOM     85  O   UNL A   1      33.217  24.560  20.129  1.00  0.00    -0.267 OA
BRANCH  83  86
ATOM     86  C   UNL A   1      33.441  23.721  22.326  1.00  0.00     0.128 A 
ATOM     87  C   UNL A   1      32.577  22.715  22.753  1.00  0.00     0.036 A 
ATOM     88  N   UNL A   1      34.714  23.856  22.777  1.00  0.00    -0.250 NA
ATOM     89  C   UNL A   1      33.027  21.822  23.725  1.00  0.00     0.024 A 
ATOM     90  C   UNL A   1      35.127  22.960  23.705  1.00  0.00     0.132 A 
ATOM     91  C   UNL A   1      34.325  21.946  24.209  1.00  0.00     0.059 A 
ATOM     92  Cl  UNL A   1      34.917  20.861  25.399  1.00  0.00    -0.083 Cl
ENDBRANCH  83  86
ENDBRANCH  81  82
ENDBRANCH  74  77
ENDBRANCH  72  73
ENDBRANCH  71  72
ENDBRANCH   1  71
TORSDOF 15
ENDMDL
MODEL 2
REMARK VINA RESULT:     -12.4      5.900     11.947
REMARK SMILES O=C(NCCCNC(=O)[C@H]1C=C[C@@H](NC(=O)c2ccc(Cl)cn2)C1)c1ccc(-c2c3nc(c(-c4cc(S(=O)(=O)[O-])ccc4F)c4ccc([nH]4)c(-c4cc(S(=O)(=O)[O-])ccc4F)c4nc(c(-c5cc(S(=O)(=O)[O-])ccc5F)c5ccc2[nH]5)C=C4)C=C3)cc1
REMARK SMILES IDX 4 1 3 2 1 3 2 4 25 6 26 7 87 8 27 9 86 10 28 11 29 12 30 13
REMARK SMILES IDX 80 14 31 15 85 16 79 17 81 18 32 19 84 20 78 21 77 22 33 24
REMARK SMILES IDX 65 25 45 26 64 27 46 28 49 29 63 30 82 31 47 32 48 33 62 35
REMARK SMILES IDX 83 36 50 37 34 38 35 39 43 40 36 41 42 42 44 43 41 44 37 45
REMARK SMILES IDX 38 46 39 47 40 48 66 49 67 50 75 51 68 52 74 53 76 54 73 55
REMARK SMILES IDX 69 56 70 57 71 58 72 59 51 60 52 61 60 62 53 63 59 64 61 65
REMARK SMILES IDX 58 66 54 67 55 68 56 69 57 70 5 71 6 72 7 73 8 74 9 76 10 77
REMARK SMILES IDX 11 78 24 79 12 80 13 81 14 82 15 83 16 85 17 86 18 87 23 88
REMARK SMILES IDX 19 89 22 90 20 91 21 92
REMARK H PARENT 3 5 81 23 49 34 7 75 14 84
REMARK Flexibility Score: inf
ROOT
ATOM      1  C   UNL A   1      39.241  20.187  25.887  1.00  0.00     0.118 C 
ENDROOT
BRANCH   1   2
ATOM      2  N   UNL A   1      40.311  19.203  25.982  1.00  0.00    -0.352 N 
ATOM      3  O   UNL A   1      42.424  18.434  25.987  1.00  0.00    -0.269 OA
ATOM      4  C   UNL A   1      41.664  19.392  26.114  1.00  0.00     0.251 C 
ATOM      5  H   UNL A   1      40.020  18.262  25.947  1.00  0.00     0.163 HD
BRANCH   4   6
ATOM      6  C   UNL A   1      42.202  20.738  26.402  1.00  0.00     0.039 A 
ATOM      7  C   UNL A   1      42.487  21.627  25.362  1.00  0.00     0.014 A 
ATOM      8  C   UNL A   1      42.382  21.135  27.731  1.00  0.00     0.014 A 
ATOM      9  C   UNL A   1      43.062  22.860  25.641  1.00  0.00     0.010 A 
ATOM     10  C   UNL A   1      42.879  22.411  28.013  1.00  0.00     0.010 A 
ATOM     11  C   UNL A   1      43.233  23.279  26.970  1.00  0.00    -0.014 A 
BRANCH  11  12
ATOM     12  C   UNL A   1      43.670  24.674  27.234  1.00  0.00     0.031 A 
ATOM     13  C   UNL A   1      42.715  25.707  27.760  1.00  0.00     0.074 A 
ATOM     14  C   UNL A   1      44.960  24.988  26.998  1.00  0.00     0.049 A 
ATOM     15  N   UNL A   1      42.942  26.965  28.040  1.00  0.00    -0.248 NA
ATOM     16  C   UNL A   1      41.328  25.279  27.998  1.00  0.00     0.031 C 
ATOM     17  C   UNL A   1      45.967  24.058  26.475  1.00  0.00     0.029 A 
ATOM     18  N   UNL A   1      45.653  26.158  27.169  1.00  0.00    -0.354 N 
ATOM     19  C   UNL A   1      41.728  27.487  28.472  1.00  0.00     0.074 A 
ATOM     20  C   UNL A   1      40.761  26.411  28.399  1.00  0.00     0.031 C 
ATOM     21  C   UNL A   1      47.151  24.683  26.404  1.00  0.00     0.029 A 
ATOM     22  C   UNL A   1      46.975  26.074  26.798  1.00  0.00     0.049 A 
ATOM     23  H   UNL A   1      45.243  26.979  27.525  1.00  0.00     0.167 HD
ATOM     24  C   UNL A   1      41.455  28.748  28.891  1.00  0.00     0.034 A 
ATOM     25  C   UNL A   1      47.934  27.020  26.744  1.00  0.00     0.034 A 
ATOM     26  C   UNL A   1      42.440  29.802  28.962  1.00  0.00     0.049 A 
ATOM     27  C   UNL A   1      47.583  28.420  27.173  1.00  0.00     0.074 A 
ATOM     28  C   UNL A   1      42.282  31.094  29.434  1.00  0.00     0.029 A 
ATOM     29  N   UNL A   1      43.758  29.696  28.537  1.00  0.00    -0.354 N 
ATOM     30  N   UNL A   1      46.440  28.880  27.629  1.00  0.00    -0.248 NA
ATOM     31  C   UNL A   1      48.647  29.426  27.080  1.00  0.00     0.031 C 
ATOM     32  C   UNL A   1      43.477  31.789  29.220  1.00  0.00     0.029 A 
ATOM     33  C   UNL A   1      44.408  30.911  28.689  1.00  0.00     0.049 A 
ATOM     34  H   UNL A   1      44.170  28.876  28.179  1.00  0.00     0.167 HD
ATOM     35  C   UNL A   1      46.657  30.229  27.892  1.00  0.00     0.074 A 
ATOM     36  C   UNL A   1      48.045  30.496  27.575  1.00  0.00     0.031 C 
ATOM     37  C   UNL A   1      45.787  31.165  28.348  1.00  0.00     0.034 A 
BRANCH  24  38
ATOM     38  C   UNL A   1      40.031  29.081  29.261  1.00  0.00     0.023 A 
ATOM     39  C   UNL A   1      39.598  29.136  30.597  1.00  0.00     0.031 A 
ATOM     40  C   UNL A   1      39.100  29.392  28.253  1.00  0.00     0.131 A 
ATOM     41  C   UNL A   1      38.263  29.460  30.887  1.00  0.00     0.055 A 
ATOM     42  C   UNL A   1      37.790  29.776  28.551  1.00  0.00     0.041 A 
ATOM     43  F   UNL A   1      39.451  29.337  26.958  1.00  0.00    -0.206 F 
ATOM     44  C   UNL A   1      37.364  29.805  29.875  1.00  0.00     0.022 A 
BRANCH  41  45
ATOM     45  S   UNL A   1      37.691  29.344  32.604  1.00  0.00     0.124 S 
ATOM     46  O   UNL A   1      38.722  30.100  33.312  1.00  0.00    -0.237 OA
ATOM     47  O   UNL A   1      36.374  29.966  32.543  1.00  0.00    -0.237 OA
ATOM     48  O   UNL A   1      37.691  27.907  32.871  1.00  0.00    -0.744 OA
ENDBRANCH  41  45
ENDBRANCH  24  38
BRANCH  25  49
ATOM     49  C   UNL A   1      49.289  26.696  26.215  1.00  0.00     0.023 A 
ATOM     50  C   UNL A   1      49.749  27.247  25.009  1.00  0.00     0.031 A 
ATOM     51  C   UNL A   1      50.123  25.776  26.878  1.00  0.00     0.131 A 
ATOM     52  C   UNL A   1      50.976  26.829  24.472  1.00  0.00     0.055 A 
ATOM     53  C   UNL A   1      51.374  25.417  26.376  1.00  0.00     0.041 A 
ATOM     54  F   UNL A   1      49.734  25.216  28.034  1.00  0.00    -0.206 F 
ATOM     55  C   UNL A   1      51.799  25.931  25.155  1.00  0.00     0.022 A 
BRANCH  52  56
ATOM     56  S   UNL A   1      51.424  27.383  22.805  1.00  0.00     0.124 S 
ATOM     57  O   UNL A   1      51.137  28.811  22.879  1.00  0.00    -0.237 OA
ATOM     58  O   UNL A   1      52.835  27.016  22.735  1.00  0.00    -0.237 OA
ATOM     59  O   UNL A   1      50.536  26.611  21.940  1.00  0.00    -0.744 OA
ENDBRANCH  52  56
ENDBRANCH  25  49
BRANCH  37  60
ATOM     60  C   UNL A   1      46.336  32.555  28.549  1.00  0.00     0.023 A 
ATOM     61  C   UNL A   1      46.478  33.450  27.472  1.00  0.00     0.031 A 
ATOM     62  C   UNL A   1      46.749  32.980  29.822  1.00  0.00     0.131 A 
ATOM     63  C   UNL A   1      47.078  34.699  27.680  1.00  0.00     0.055 A 
ATOM     64  C   UNL A   1      47.286  34.250  30.034  1.00  0.00     0.041 A 
ATOM     65  F   UNL A   1      46.639  32.164  30.884  1.00  0.00    -0.206 F 
ATOM     66  C   UNL A   1      47.467  35.112  28.957  1.00  0.00     0.022 A 
BRANCH  63  67
ATOM     67  S   UNL A   1      47.435  35.742  26.238  1.00  0.00     0.124 S 
ATOM     68  O   UNL A   1      46.289  36.645  26.226  1.00  0.00    -0.237 OA
ATOM     69  O   UNL A   1      48.716  36.343  26.597  1.00  0.00    -0.237 OA
ATOM     70  O   UNL A   1      47.488  34.789  25.131  1.00  0.00    -0.744 OA
ENDBRANCH  63  67
ENDBRANCH  37  60
ENDBRANCH  11  12
ENDBRANCH   4   6
ENDBRANCH   1   2
BRANCH   1  71
ATOM     71  C   UNL A   1      38.208  19.825  24.825  1.00  0.00     0.042 C 
BRANCH  71  72
ATOM     72  C   UNL A   1      36.882  20.556  24.993  1.00  0.00     0.117 C 
BRANCH  72  73
ATOM     73  N   UNL A   1      35.751  19.646  24.929  1.00  0.00    -0.356 N 
ATOM     74  C   UNL A   1      34.420  19.934  24.803  1.00  0.00     0.227 C 
ATOM     75  H   UNL A   1      35.974  18.689  24.984  1.00  0.00     0.163 HD
ATOM     76  O   UNL A   1      33.618  19.002  24.802  1.00  0.00    -0.274 OA
BRANCH  74  77
ATOM     77  C   UNL A   1      34.013  21.391  24.610  1.00  0.00     0.103 C 
ATOM     78  C   UNL A   1      32.863  21.456  23.641  1.00  0.00    -0.016 C 
ATOM     79  C   UNL A   1      33.415  22.037  25.869  1.00  0.00     0.047 C 
ATOM     80  C   UNL A   1      31.907  22.291  24.063  1.00  0.00    -0.006 C 
ATOM     81  C   UNL A   1      32.279  22.929  25.361  1.00  0.00     0.106 C 
BRANCH  81  82
ATOM     82  N   UNL A   1      31.120  22.917  26.219  1.00  0.00    -0.344 N 
ATOM     83  C   UNL A   1      30.320  23.971  26.599  1.00  0.00     0.270 C 
ATOM     84  H   UNL A   1      30.866  22.037  26.582  1.00  0.00     0.164 HD
ATOM     85  O   UNL A   1      29.393  23.788  27.383  1.00  0.00    -0.267 OA
BRANCH  83  86
ATOM     86  C   UNL A   1      30.575  25.330  26.039  1.00  0.00     0.128 A 
ATOM     87  C   UNL A   1      30.020  25.700  24.815  1.00  0.00     0.036 A 
ATOM     88  N   UNL A   1      31.362  26.149  26.783  1.00  0.00    -0.250 NA
ATOM     89  C   UNL A   1      30.321  26.963  24.305  1.00  0.00     0.024 A 
ATOM     90  C   UNL A   1      31.617  27.376  26.269  1.00  0.00     0.132 A 
ATOM     91  C   UNL A   1      31.132  27.816  25.046  1.00  0.00     0.059 A 
ATOM     92  Cl  UNL A   1      31.516  29.381  24.455  1.00  0.00    -0.083 Cl
ENDBRANCH  83  86
ENDBRANCH  81  82
ENDBRANCH  74  77
ENDBRANCH  72  73
ENDBRANCH  71  72
ENDBRANCH   1  71
TORSDOF 15
ENDMDL
MODEL 3
REMARK VINA RESULT:     -12.3      1.310      1.600
REMARK SMILES O=C(NCCCNC(=O)[C@H]1C=C[C@@H](NC(=O)c2ccc(Cl)cn2)C1)c1ccc(-c2c3nc(c(-c4cc(S(=O)(=O)[O-])ccc4F)c4ccc([nH]4)c(-c4cc(S(=O)(=O)[O-])ccc4F)c4nc(c(-c5cc(S(=O)(=O)[O-])ccc5F)c5ccc2[nH]5)C=C4)C=C3)cc1
REMARK SMILES IDX 4 1 3 2 1 3 2 4 25 6 26 7 87 8 27 9 86 10 28 11 29 12 30 13
REMARK SMILES IDX 80 14 31 15 85 16 79 17 81 18 32 19 84 20 78 21 77 22 33 24
REMARK SMILES IDX 65 25 45 26 64 27 46 28 49 29 63 30 82 31 47 32 48 33 62 35
REMARK SMILES IDX 83 36 50 37 34 38 35 39 43 40 36 41 42 42 44 43 41 44 37 45
REMARK SMILES IDX 38 46 39 47 40 48 66 49 67 50 75 51 68 52 74 53 76 54 73 55
REMARK SMILES IDX 69 56 70 57 71 58 72 59 51 60 52 61 60 62 53 63 59 64 61 65
REMARK SMILES IDX 58 66 54 67 55 68 56 69 57 70 5 71 6 72 7 73 8 74 9 76 10 77
REMARK SMILES IDX 11 78 24 79 12 80 13 81 14 82 15 83 16 85 17 86 18 87 23 88
REMARK SMILES IDX 19 89 22 90 20 91 21 92
REMARK H PARENT 3 5 81 23 49 34 7 75 14 84
REMARK Flexibility Score: inf
ROOT
ATOM      1  C   UNL A   1      32.651  32.470  27.308  1.00  0.00     0.118 C 
ENDROOT
BRANCH   1   2
ATOM      2  N   UNL A   1      32.513  33.881  27.647  1.00  0.00    -0.352 N 
ATOM      3  O   UNL A   1      32.775  35.754  28.863  1.00  0.00    -0.269 OA
ATOM      4  C   UNL A   1      33.167  34.618  28.603  1.00  0.00     0.251 C 
ATOM      5  H   UNL A   1      31.854  34.379  27.110  1.00  0.00     0.163 HD
BRANCH   4   6
ATOM      6  C   UNL A   1      34.328  34.048  29.317  1.00  0.00     0.039 A 
ATOM      7  C   UNL A   1      34.143  33.162  30.381  1.00  0.00     0.014 A 
ATOM      8  C   UNL A   1      35.621  34.367  28.888  1.00  0.00     0.014 A 
ATOM      9  C   UNL A   1      35.240  32.692  31.092  1.00  0.00     0.010 A 
ATOM     10  C   UNL A   1      36.726  33.822  29.549  1.00  0.00     0.010 A 
ATOM     11  C   UNL A   1      36.544  32.989  30.663  1.00  0.00    -0.014 A 
BRANCH  11  12
ATOM     12  C   UNL A   1      37.691  32.317  31.327  1.00  0.00     0.031 A 
ATOM     13  C   UNL A   1      38.429  31.191  30.661  1.00  0.00     0.074 A 
ATOM     14  C   UNL A   1      38.061  32.756  32.547  1.00  0.00     0.049 A 
ATOM     15  N   UNL A   1      39.448  30.502  31.109  1.00  0.00    -0.248 NA
ATOM     16  C   UNL A   1      37.966  30.780  29.327  1.00  0.00     0.031 C 
ATOM     17  C   UNL A   1      37.401  33.838  33.285  1.00  0.00     0.029 A 
ATOM     18  N   UNL A   1      39.077  32.364  33.379  1.00  0.00    -0.354 N 
ATOM     19  C   UNL A   1      39.741  29.567  30.123  1.00  0.00     0.074 A 
ATOM     20  C   UNL A   1      38.777  29.764  29.060  1.00  0.00     0.031 C 
ATOM     21  C   UNL A   1      38.049  34.046  34.440  1.00  0.00     0.029 A 
ATOM     22  C   UNL A   1      39.119  33.064  34.563  1.00  0.00     0.049 A 
ATOM     23  H   UNL A   1      39.715  31.651  33.151  1.00  0.00     0.167 HD
ATOM     24  C   UNL A   1      40.725  28.633  30.115  1.00  0.00     0.034 A 
ATOM     25  C   UNL A   1      39.907  32.913  35.645  1.00  0.00     0.034 A 
ATOM     26  C   UNL A   1      41.679  28.461  31.186  1.00  0.00     0.049 A 
ATOM     27  C   UNL A   1      40.959  31.836  35.620  1.00  0.00     0.074 A 
ATOM     28  C   UNL A   1      42.754  27.591  31.246  1.00  0.00     0.029 A 
ATOM     29  N   UNL A   1      41.666  29.156  32.388  1.00  0.00    -0.354 N 
ATOM     30  N   UNL A   1      41.253  30.995  34.654  1.00  0.00    -0.248 NA
ATOM     31  C   UNL A   1      41.782  31.687  36.825  1.00  0.00     0.031 C 
ATOM     32  C   UNL A   1      43.340  27.704  32.512  1.00  0.00     0.029 A 
ATOM     33  C   UNL A   1      42.682  28.700  33.214  1.00  0.00     0.049 A 
ATOM     34  H   UNL A   1      41.028  29.870  32.621  1.00  0.00     0.167 HD
ATOM     35  C   UNL A   1      42.310  30.228  35.135  1.00  0.00     0.074 A 
ATOM     36  C   UNL A   1      42.619  30.729  36.458  1.00  0.00     0.031 C 
ATOM     37  C   UNL A   1      42.962  29.198  34.540  1.00  0.00     0.034 A 
BRANCH  24  38
ATOM     38  C   UNL A   1      40.800  27.690  28.939  1.00  0.00     0.023 A 
ATOM     39  C   UNL A   1      41.743  27.853  27.910  1.00  0.00     0.031 A 
ATOM     40  C   UNL A   1      39.937  26.582  28.875  1.00  0.00     0.131 A 
ATOM     41  C   UNL A   1      41.776  26.941  26.842  1.00  0.00     0.055 A 
ATOM     42  C   UNL A   1      40.017  25.643  27.844  1.00  0.00     0.041 A 
ATOM     43  F   UNL A   1      39.004  26.387  29.820  1.00  0.00    -0.206 F 
ATOM     44  C   UNL A   1      40.937  25.824  26.815  1.00  0.00     0.022 A 
BRANCH  41  45
ATOM     45  S   UNL A   1      42.877  27.280  25.441  1.00  0.00     0.124 S 
ATOM     46  O   UNL A   1      42.159  28.350  24.751  1.00  0.00    -0.237 OA
ATOM     47  O   UNL A   1      44.119  27.666  26.098  1.00  0.00    -0.237 OA
ATOM     48  O   UNL A   1      42.920  26.008  24.722  1.00  0.00    -0.744 OA
ENDBRANCH  41  45
ENDBRANCH  24  38
BRANCH  25  49
ATOM     49  C   UNL A   1      39.697  33.752  36.859  1.00  0.00     0.023 A 
ATOM     50  C   UNL A   1      40.529  34.846  37.139  1.00  0.00     0.031 A 
ATOM     51  C   UNL A   1      38.696  33.430  37.796  1.00  0.00     0.131 A 
ATOM     52  C   UNL A   1      40.387  35.541  38.350  1.00  0.00     0.055 A 
ATOM     53  C   UNL A   1      38.513  34.168  38.965  1.00  0.00     0.041 A 
ATOM     54  F   UNL A   1      37.872  32.393  37.581  1.00  0.00    -0.206 F 
ATOM     55  C   UNL A   1      39.374  35.220  39.257  1.00  0.00     0.022 A 
BRANCH  52  56
ATOM     56  S   UNL A   1      41.626  36.793  38.779  1.00  0.00     0.124 S 
ATOM     57  O   UNL A   1      42.275  37.022  37.494  1.00  0.00    -0.237 OA
ATOM     58  O   UNL A   1      40.794  37.882  39.281  1.00  0.00    -0.237 OA
ATOM     59  O   UNL A   1      42.450  36.124  39.784  1.00  0.00    -0.744 OA
ENDBRANCH  52  56
ENDBRANCH  25  49
BRANCH  37  60
ATOM     60  C   UNL A   1      44.090  28.572  35.322  1.00  0.00     0.023 A 
ATOM     61  C   UNL A   1      43.867  27.486  36.188  1.00  0.00     0.031 A 
ATOM     62  C   UNL A   1      45.394  29.084  35.223  1.00  0.00     0.131 A 
ATOM     63  C   UNL A   1      44.920  26.990  36.969  1.00  0.00     0.055 A 
ATOM     64  C   UNL A   1      46.453  28.544  35.955  1.00  0.00     0.041 A 
ATOM     65  F   UNL A   1      45.662  30.122  34.414  1.00  0.00    -0.206 F 
ATOM     66  C   UNL A   1      46.215  27.501  36.845  1.00  0.00     0.022 A 
BRANCH  63  67
ATOM     67  S   UNL A   1      44.554  25.732  38.224  1.00  0.00     0.124 S 
ATOM     68  O   UNL A   1      43.496  24.960  37.580  1.00  0.00    -0.237 OA
ATOM     69  O   UNL A   1      45.838  25.054  38.371  1.00  0.00    -0.237 OA
ATOM     70  O   UNL A   1      44.133  26.517  39.383  1.00  0.00    -0.744 OA
ENDBRANCH  63  67
ENDBRANCH  37  60
ENDBRANCH  11  12
ENDBRANCH   4   6
ENDBRANCH   1   2
BRANCH   1  71
ATOM     71  C   UNL A   1      31.400  31.906  26.643  1.00  0.00     0.042 C 
BRANCH  71  72
ATOM     72  C   UNL A   1      31.672  30.684  25.775  1.00  0.00     0.117 C 
BRANCH  72  73
ATOM     73  N   UNL A   1      30.711  30.566  24.691  1.00  0.00    -0.356 N 
ATOM     74  C   UNL A   1      30.402  29.473  23.930  1.00  0.00     0.227 C 
ATOM     75  H   UNL A   1      30.214  31.387  24.475  1.00  0.00     0.163 HD
ATOM     76  O   UNL A   1      29.571  29.602  23.033  1.00  0.00    -0.274 OA
BRANCH  74  77
ATOM     77  C   UNL A   1      31.060  28.142  24.278  1.00  0.00     0.103 C 
ATOM     78  C   UNL A   1      30.069  27.030  24.059  1.00  0.00    -0.016 C 
ATOM     79  C   UNL A   1      32.203  27.752  23.330  1.00  0.00     0.047 C 
ATOM     80  C   UNL A   1      30.623  25.993  23.423  1.00  0.00    -0.006 C 
ATOM     81  C   UNL A   1      32.069  26.238  23.141  1.00  0.00     0.106 C 
BRANCH  81  82
ATOM     82  N   UNL A   1      32.347  25.806  21.793  1.00  0.00    -0.344 N 
ATOM     83  C   UNL A   1      32.994  24.666  21.373  1.00  0.00     0.270 C 
ATOM     84  H   UNL A   1      32.032  26.406  21.079  1.00  0.00     0.164 HD
ATOM     85  O   UNL A   1      33.190  24.477  20.175  1.00  0.00    -0.267 OA
BRANCH  83  86
ATOM     86  C   UNL A   1      33.438  23.655  22.376  1.00  0.00     0.128 A 
ATOM     87  C   UNL A   1      32.563  22.659  22.803  1.00  0.00     0.036 A 
ATOM     88  N   UNL A   1      34.712  23.778  22.828  1.00  0.00    -0.250 NA
ATOM     89  C   UNL A   1      33.002  21.762  23.776  1.00  0.00     0.024 A 
ATOM     90  C   UNL A   1      35.114  22.878  23.757  1.00  0.00     0.132 A 
ATOM     91  C   UNL A   1      34.301  21.872  24.261  1.00  0.00     0.059 A 
ATOM     92  Cl  UNL A   1      34.880  20.782  25.453  1.00  0.00    -0.083 Cl
ENDBRANCH  83  86
ENDBRANCH  81  82
ENDBRANCH  74  77
ENDBRANCH  72  73
ENDBRANCH  71  72
ENDBRANCH   1  71
TORSDOF 15
ENDMDL
