MODEL 1
REMARK VINA RESULT:     -12.9      0.000      0.000
REMARK SMILES O=C(NCCCNC(=O)[C@H]1CC=CC[C@H]1C(=O)N[C@@H]1CCN(c2cccc(Cl)c2)C1)c1ccc(-c2c3nc(c(-c4cc(S(=O)(=O)[O-])ccc4F)c4ccc([nH]4)c(-c4cc(S(=O)(=O)[O-])ccc4F)c4nc(c(-c5cc(S(=O)(=O)[O-])ccc5F)c5ccc2[nH]5)C=C4)C=C3)cc1
REMARK SMILES IDX 5 1 4 2 3 3 1 4 2 5 31 7 32 8 93 9 33 10 92 11 34 12 35 13
REMARK SMILES IDX 36 14 86 15 37 16 91 17 85 18 87 19 38 20 90 21 84 22 83 23
REMARK SMILES IDX 39 25 71 26 51 27 70 28 52 29 55 30 69 31 88 32 53 33 54 34
REMARK SMILES IDX 68 36 89 37 56 38 40 39 41 40 49 41 42 42 48 43 50 44 47 45
REMARK SMILES IDX 43 46 44 47 45 48 46 49 72 50 73 51 81 52 74 53 80 54 82 55
REMARK SMILES IDX 79 56 75 57 76 58 77 59 78 60 57 61 58 62 66 63 59 64 65 65
REMARK SMILES IDX 67 66 64 67 60 68 61 69 62 70 63 71 6 72 7 73 8 74 9 76
REMARK SMILES IDX 10 77 11 78 15 79 12 80 14 81 13 82 16 83 17 84 18 85 19 87
REMARK SMILES IDX 20 88 30 89 21 90 22 91 23 92 24 93 29 94 25 95 27 96 26 97
REMARK SMILES IDX 28 98
REMARK H PARENT 3 6 87 24 55 35 7 75 18 86
REMARK Flexibility Score: inf
ROOT
ATOM      1  C   UNL A   1      31.833  29.115  24.262  1.00  0.00     0.042 C 
ENDROOT
BRANCH   1   2
ATOM      2  C   UNL A   1      32.803  29.698  25.285  1.00  0.00     0.118 C 
BRANCH   2   3
ATOM      3  N   UNL A   1      32.342  30.965  25.837  1.00  0.00    -0.352 N 
ATOM      4  O   UNL A   1      32.091  32.602  27.356  1.00  0.00    -0.269 OA
ATOM      5  C   UNL A   1      32.765  31.651  26.948  1.00  0.00     0.251 C 
ATOM      6  H   UNL A   1      31.614  31.396  25.334  1.00  0.00     0.163 HD
BRANCH   5   7
ATOM      7  C   UNL A   1      33.996  31.258  27.665  1.00  0.00     0.039 A 
ATOM      8  C   UNL A   1      34.241  29.922  27.991  1.00  0.00     0.014 A 
ATOM      9  C   UNL A   1      34.953  32.232  27.972  1.00  0.00     0.014 A 
ATOM     10  C   UNL A   1      35.364  29.579  28.738  1.00  0.00     0.010 A 
ATOM     11  C   UNL A   1      36.122  31.873  28.652  1.00  0.00     0.010 A 
ATOM     12  C   UNL A   1      36.324  30.547  29.066  1.00  0.00    -0.014 A 
BRANCH  12  13
ATOM     13  C   UNL A   1      37.556  30.138  29.792  1.00  0.00     0.031 A 
ATOM     14  C   UNL A   1      37.787  30.552  31.219  1.00  0.00     0.074 A 
ATOM     15  C   UNL A   1      38.464  29.375  29.152  1.00  0.00     0.049 A 
ATOM     16  N   UNL A   1      38.803  30.291  32.001  1.00  0.00    -0.248 NA
ATOM     17  C   UNL A   1      36.745  31.377  31.845  1.00  0.00     0.031 C 
ATOM     18  C   UNL A   1      38.353  28.923  27.763  1.00  0.00     0.029 A 
ATOM     19  N   UNL A   1      39.652  28.838  29.581  1.00  0.00    -0.354 N 
ATOM     20  C   UNL A   1      38.533  30.928  33.207  1.00  0.00     0.074 A 
ATOM     21  C   UNL A   1      37.273  31.622  33.036  1.00  0.00     0.031 C 
ATOM     22  C   UNL A   1      39.412  28.157  27.463  1.00  0.00     0.029 A 
ATOM     23  C   UNL A   1      40.307  28.113  28.613  1.00  0.00     0.049 A 
ATOM     24  H   UNL A   1      40.001  28.960  30.493  1.00  0.00     0.167 HD
ATOM     25  C   UNL A   1      39.266  30.926  34.350  1.00  0.00     0.034 A 
ATOM     26  C   UNL A   1      41.508  27.504  28.635  1.00  0.00     0.034 A 
ATOM     27  C   UNL A   1      40.521  30.226  34.499  1.00  0.00     0.049 A 
ATOM     28  C   UNL A   1      42.318  27.544  29.901  1.00  0.00     0.074 A 
ATOM     29  C   UNL A   1      41.321  30.117  35.624  1.00  0.00     0.029 A 
ATOM     30  N   UNL A   1      41.169  29.527  33.488  1.00  0.00    -0.354 N 
ATOM     31  N   UNL A   1      42.032  28.124  31.044  1.00  0.00    -0.248 NA
ATOM     32  C   UNL A   1      43.607  26.843  29.883  1.00  0.00     0.031 C 
ATOM     33  C   UNL A   1      42.482  29.416  35.276  1.00  0.00     0.029 A 
ATOM     34  C   UNL A   1      42.375  29.019  33.952  1.00  0.00     0.049 A 
ATOM     35  H   UNL A   1      40.824  29.408  32.574  1.00  0.00     0.167 HD
ATOM     36  C   UNL A   1      43.104  27.847  31.886  1.00  0.00     0.074 A 
ATOM     37  C   UNL A   1      44.029  27.030  31.127  1.00  0.00     0.031 C 
ATOM     38  C   UNL A   1      43.303  28.230  33.174  1.00  0.00     0.034 A 
BRANCH  25  39
ATOM     39  C   UNL A   1      38.747  31.747  35.511  1.00  0.00     0.023 A 
ATOM     40  C   UNL A   1      38.192  31.149  36.656  1.00  0.00     0.031 A 
ATOM     41  C   UNL A   1      38.778  33.152  35.454  1.00  0.00     0.131 A 
ATOM     42  C   UNL A   1      37.626  31.950  37.661  1.00  0.00     0.055 A 
ATOM     43  C   UNL A   1      38.285  33.943  36.493  1.00  0.00     0.041 A 
ATOM     44  F   UNL A   1      39.276  33.782  34.379  1.00  0.00    -0.206 F 
ATOM     45  C   UNL A   1      37.688  33.343  37.598  1.00  0.00     0.022 A 
BRANCH  42  46
ATOM     46  S   UNL A   1      36.668  31.145  38.976  1.00  0.00     0.124 S 
ATOM     47  O   UNL A   1      37.616  31.162  40.088  1.00  0.00    -0.237 OA
ATOM     48  O   UNL A   1      35.513  32.023  39.107  1.00  0.00    -0.237 OA
ATOM     49  O   UNL A   1      36.386  29.818  38.431  1.00  0.00    -0.744 OA
ENDBRANCH  42  46
ENDBRANCH  25  39
BRANCH  26  50
ATOM     50  C   UNL A   1      42.028  26.846  27.403  1.00  0.00     0.023 A 
ATOM     51  C   UNL A   1      42.073  25.450  27.282  1.00  0.00     0.031 A 
ATOM     52  C   UNL A   1      42.496  27.619  26.325  1.00  0.00     0.131 A 
ATOM     53  C   UNL A   1      42.601  24.868  26.118  1.00  0.00     0.055 A 
ATOM     54  C   UNL A   1      42.973  27.038  25.151  1.00  0.00     0.041 A 
ATOM     55  F   UNL A   1      42.470  28.961  26.391  1.00  0.00    -0.206 F 
ATOM     56  C   UNL A   1      43.038  25.653  25.047  1.00  0.00     0.022 A 
BRANCH  53  57
ATOM     57  S   UNL A   1      42.772  23.063  26.046  1.00  0.00     0.124 S 
ATOM     58  O   UNL A   1      43.897  22.835  26.946  1.00  0.00    -0.237 OA
ATOM     59  O   UNL A   1      41.467  22.616  26.523  1.00  0.00    -0.237 OA
ATOM     60  O   UNL A   1      43.040  22.803  24.634  1.00  0.00    -0.744 OA
ENDBRANCH  53  57
ENDBRANCH  26  50
BRANCH  38  61
ATOM     61  C   UNL A   1      44.564  27.739  33.840  1.00  0.00     0.023 A 
ATOM     62  C   UNL A   1      44.604  26.515  34.532  1.00  0.00     0.031 A 
ATOM     63  C   UNL A   1      45.734  28.517  33.802  1.00  0.00     0.131 A 
ATOM     64  C   UNL A   1      45.775  26.130  35.203  1.00  0.00     0.055 A 
ATOM     65  C   UNL A   1      46.912  28.102  34.424  1.00  0.00     0.041 A 
ATOM     66  F   UNL A   1      45.749  29.696  33.159  1.00  0.00    -0.206 F 
ATOM     67  C   UNL A   1      46.934  26.909  35.140  1.00  0.00     0.022 A 
BRANCH  64  68
ATOM     68  S   UNL A   1      45.740  24.638  36.233  1.00  0.00     0.124 S 
ATOM     69  O   UNL A   1      44.978  25.088  37.394  1.00  0.00    -0.237 OA
ATOM     70  O   UNL A   1      45.072  23.674  35.365  1.00  0.00    -0.237 OA
ATOM     71  O   UNL A   1      47.153  24.364  36.489  1.00  0.00    -0.744 OA
ENDBRANCH  64  68
ENDBRANCH  38  61
ENDBRANCH  12  13
ENDBRANCH   5   7
ENDBRANCH   2   3
ENDBRANCH   1   2
BRANCH   1  72
ATOM     72  C   UNL A   1      32.495  28.476  23.040  1.00  0.00     0.117 C 
BRANCH  72  73
ATOM     73  N   UNL A   1      32.118  27.085  22.816  1.00  0.00    -0.356 N 
ATOM     74  C   UNL A   1      33.085  26.114  22.808  1.00  0.00     0.224 C 
ATOM     75  H   UNL A   1      31.174  26.844  22.671  1.00  0.00     0.163 HD
ATOM     76  O   UNL A   1      33.724  25.921  21.777  1.00  0.00    -0.275 OA
BRANCH  74  77
ATOM     77  C   UNL A   1      33.317  25.295  24.073  1.00  0.00     0.095 C 
ATOM     78  C   UNL A   1      34.027  26.037  25.220  1.00  0.00     0.041 C 
ATOM     79  C   UNL A   1      32.090  24.476  24.568  1.00  0.00     0.095 C 
ATOM     80  C   UNL A   1      33.119  26.641  26.244  1.00  0.00    -0.030 C 
ATOM     81  C   UNL A   1      31.249  25.076  25.713  1.00  0.00     0.041 C 
ATOM     82  C   UNL A   1      31.874  26.207  26.462  1.00  0.00    -0.030 C 
BRANCH  79  83
ATOM     83  C   UNL A   1      31.178  23.851  23.502  1.00  0.00     0.224 C 
ATOM     84  O   UNL A   1      30.124  24.419  23.197  1.00  0.00    -0.275 OA
ATOM     85  N   UNL A   1      31.502  22.726  22.805  1.00  0.00    -0.351 N 
ATOM     86  H   UNL A   1      30.933  22.549  22.023  1.00  0.00     0.163 HD
BRANCH  85  87
ATOM     87  C   UNL A   1      32.557  21.738  23.027  1.00  0.00     0.103 C 
ATOM     88  C   UNL A   1      32.269  20.827  24.226  1.00  0.00     0.048 C 
ATOM     89  C   UNL A   1      33.923  22.393  23.341  1.00  0.00     0.141 C 
ATOM     90  C   UNL A   1      33.120  21.368  25.367  1.00  0.00     0.119 C 
ATOM     91  N   UNL A   1      34.254  21.973  24.699  1.00  0.00    -0.369 N 
BRANCH  91  92
ATOM     92  C   UNL A   1      35.582  21.818  25.020  1.00  0.00     0.038 A 
ATOM     93  C   UNL A   1      36.260  20.606  24.837  1.00  0.00     0.026 A 
ATOM     94  C   UNL A   1      36.329  22.919  25.472  1.00  0.00     0.046 A 
ATOM     95  C   UNL A   1      37.637  20.501  25.067  1.00  0.00     0.004 A 
ATOM     96  C   UNL A   1      37.695  22.809  25.727  1.00  0.00     0.043 A 
ATOM     97  C   UNL A   1      38.357  21.605  25.514  1.00  0.00     0.020 A 
ATOM     98  Cl  UNL A   1      38.571  24.173  26.303  1.00  0.00    -0.084 Cl
ENDBRANCH  91  92
ENDBRANCH  85  87
ENDBRANCH  79  83
ENDBRANCH  74  77
ENDBRANCH  72  73
ENDBRANCH   1  72
TORSDOF 16
ENDMDL
MODEL 2
REMARK VINA RESULT:     -12.9      2.838      3.814
REMARK SMILES O=C(NCCCNC(=O)[C@H]1CC=CC[C@H]1C(=O)N[C@@H]1CCN(c2cccc(Cl)c2)C1)c1ccc(-c2c3nc(c(-c4cc(S(=O)(=O)[O-])ccc4F)c4ccc([nH]4)c(-c4cc(S(=O)(=O)[O-])ccc4F)c4nc(c(-c5cc(S(=O)(=O)[O-])ccc5F)c5ccc2[nH]5)C=C4)C=C3)cc1
REMARK SMILES IDX 5 1 4 2 3 3 1 4 2 5 31 7 32 8 93 9 33 10 92 11 34 12 35 13
REMARK SMILES IDX 36 14 86 15 37 16 91 17 85 18 87 19 38 20 90 21 84 22 83 23
REMARK SMILES IDX 39 25 71 26 51 27 70 28 52 29 55 30 69 31 88 32 53 33 54 34
REMARK SMILES IDX 68 36 89 37 56 38 40 39 41 40 49 41 42 42 48 43 50 44 47 45
REMARK SMILES IDX 43 46 44 47 45 48 46 49 72 50 73 51 81 52 74 53 80 54 82 55
REMARK SMILES IDX 79 56 75 57 76 58 77 59 78 60 57 61 58 62 66 63 59 64 65 65
REMARK SMILES IDX 67 66 64 67 60 68 61 69 62 70 63 71 6 72 7 73 8 74 9 76
REMARK SMILES IDX 10 77 11 78 15 79 12 80 14 81 13 82 16 83 17 84 18 85 19 87
REMARK SMILES IDX 20 88 30 89 21 90 22 91 23 92 24 93 29 94 25 95 27 96 26 97
REMARK SMILES IDX 28 98
REMARK H PARENT 3 6 87 24 55 35 7 75 18 86
REMARK Flexibility Score: inf
ROOT
ATOM      1  C   UNL A   1      32.867  29.401  25.549  1.00  0.00     0.042 C 
ENDROOT
BRANCH   1   2
ATOM      2  C   UNL A   1      33.975  29.718  26.550  1.00  0.00     0.118 C 
BRANCH   2   3
ATOM      3  N   UNL A   1      33.839  31.045  27.135  1.00  0.00    -0.352 N 
ATOM      4  O   UNL A   1      34.146  32.703  28.621  1.00  0.00    -0.269 OA
ATOM      5  C   UNL A   1      34.566  31.652  28.128  1.00  0.00     0.251 C 
ATOM      6  H   UNL A   1      33.112  31.593  26.759  1.00  0.00     0.163 HD
BRANCH   5   7
ATOM      7  C   UNL A   1      35.826  31.058  28.623  1.00  0.00     0.039 A 
ATOM      8  C   UNL A   1      35.816  29.894  29.394  1.00  0.00     0.014 A 
ATOM      9  C   UNL A   1      37.047  31.642  28.267  1.00  0.00     0.014 A 
ATOM     10  C   UNL A   1      37.004  29.393  29.920  1.00  0.00     0.010 A 
ATOM     11  C   UNL A   1      38.247  31.090  28.729  1.00  0.00     0.010 A 
ATOM     12  C   UNL A   1      38.234  29.976  29.584  1.00  0.00    -0.014 A 
BRANCH  12  13
ATOM     13  C   UNL A   1      39.493  29.371  30.091  1.00  0.00     0.031 A 
ATOM     14  C   UNL A   1      40.183  29.926  31.307  1.00  0.00     0.074 A 
ATOM     15  C   UNL A   1      40.005  28.302  29.450  1.00  0.00     0.049 A 
ATOM     16  N   UNL A   1      41.289  29.527  31.883  1.00  0.00    -0.248 NA
ATOM     17  C   UNL A   1      39.556  31.088  31.951  1.00  0.00     0.031 C 
ATOM     18  C   UNL A   1      39.429  27.685  28.253  1.00  0.00     0.029 A 
ATOM     19  N   UNL A   1      41.115  27.540  29.714  1.00  0.00    -0.354 N 
ATOM     20  C   UNL A   1      41.499  30.394  32.951  1.00  0.00     0.074 A 
ATOM     21  C   UNL A   1      40.424  31.365  32.914  1.00  0.00     0.031 C 
ATOM     22  C   UNL A   1      40.173  26.626  27.901  1.00  0.00     0.029 A 
ATOM     23  C   UNL A   1      41.311  26.524  28.807  1.00  0.00     0.049 A 
ATOM     24  H   UNL A   1      41.715  27.706  30.477  1.00  0.00     0.167 HD
ATOM     25  C   UNL A   1      42.492  30.375  33.876  1.00  0.00     0.034 A 
ATOM     26  C   UNL A   1      42.309  25.626  28.697  1.00  0.00     0.034 A 
ATOM     27  C   UNL A   1      43.555  29.396  33.894  1.00  0.00     0.049 A 
ATOM     28  C   UNL A   1      43.416  25.645  29.713  1.00  0.00     0.074 A 
ATOM     29  C   UNL A   1      44.583  29.254  34.811  1.00  0.00     0.029 A 
ATOM     30  N   UNL A   1      43.738  28.399  32.943  1.00  0.00    -0.354 N 
ATOM     31  N   UNL A   1      43.583  26.452  30.735  1.00  0.00    -0.248 NA
ATOM     32  C   UNL A   1      44.466  24.630  29.565  1.00  0.00     0.031 C 
ATOM     33  C   UNL A   1      45.424  28.222  34.377  1.00  0.00     0.029 A 
ATOM     34  C   UNL A   1      44.881  27.666  33.230  1.00  0.00     0.049 A 
ATOM     35  H   UNL A   1      43.143  28.236  32.176  1.00  0.00     0.167 HD
ATOM     36  C   UNL A   1      44.752  26.033  31.361  1.00  0.00     0.074 A 
ATOM     37  C   UNL A   1      45.236  24.890  30.614  1.00  0.00     0.031 C 
ATOM     38  C   UNL A   1      45.369  26.545  32.458  1.00  0.00     0.034 A 
BRANCH  25  39
ATOM     39  C   UNL A   1      42.497  31.475  34.914  1.00  0.00     0.023 A 
ATOM     40  C   UNL A   1      41.557  31.517  35.959  1.00  0.00     0.031 A 
ATOM     41  C   UNL A   1      43.439  32.517  34.837  1.00  0.00     0.131 A 
ATOM     42  C   UNL A   1      41.532  32.613  36.837  1.00  0.00     0.055 A 
ATOM     43  C   UNL A   1      43.459  33.564  35.761  1.00  0.00     0.041 A 
ATOM     44  F   UNL A   1      44.349  32.544  33.851  1.00  0.00    -0.206 F 
ATOM     45  C   UNL A   1      42.491  33.626  36.759  1.00  0.00     0.022 A 
BRANCH  42  46
ATOM     46  S   UNL A   1      40.135  32.776  37.983  1.00  0.00     0.124 S 
ATOM     47  O   UNL A   1      39.151  31.876  37.384  1.00  0.00    -0.237 OA
ATOM     48  O   UNL A   1      40.712  32.339  39.248  1.00  0.00    -0.237 OA
ATOM     49  O   UNL A   1      39.793  34.196  37.908  1.00  0.00    -0.744 OA
ENDBRANCH  42  46
ENDBRANCH  25  39
BRANCH  26  50
ATOM     50  C   UNL A   1      42.321  24.669  27.555  1.00  0.00     0.023 A 
ATOM     51  C   UNL A   1      41.559  23.492  27.577  1.00  0.00     0.031 A 
ATOM     52  C   UNL A   1      43.111  24.925  26.419  1.00  0.00     0.131 A 
ATOM     53  C   UNL A   1      41.624  22.599  26.495  1.00  0.00     0.055 A 
ATOM     54  C   UNL A   1      43.134  24.060  25.326  1.00  0.00     0.041 A 
ATOM     55  F   UNL A   1      43.856  26.040  26.348  1.00  0.00    -0.206 F 
ATOM     56  C   UNL A   1      42.395  22.882  25.364  1.00  0.00     0.022 A 
BRANCH  53  57
ATOM     57  S   UNL A   1      40.734  21.023  26.613  1.00  0.00     0.124 S 
ATOM     58  O   UNL A   1      39.413  21.388  26.113  1.00  0.00    -0.237 OA
ATOM     59  O   UNL A   1      41.531  20.159  25.748  1.00  0.00    -0.237 OA
ATOM     60  O   UNL A   1      40.796  20.704  28.037  1.00  0.00    -0.744 OA
ENDBRANCH  53  57
ENDBRANCH  26  50
BRANCH  38  61
ATOM     61  C   UNL A   1      46.621  25.844  32.921  1.00  0.00     0.023 A 
ATOM     62  C   UNL A   1      47.866  26.077  32.308  1.00  0.00     0.031 A 
ATOM     63  C   UNL A   1      46.565  24.915  33.973  1.00  0.00     0.131 A 
ATOM     64  C   UNL A   1      48.993  25.349  32.717  1.00  0.00     0.055 A 
ATOM     65  C   UNL A   1      47.701  24.234  34.414  1.00  0.00     0.041 A 
ATOM     66  F   UNL A   1      45.401  24.651  34.590  1.00  0.00    -0.206 F 
ATOM     67  C   UNL A   1      48.921  24.440  33.777  1.00  0.00     0.022 A 
BRANCH  64  68
ATOM     68  S   UNL A   1      50.540  25.539  31.789  1.00  0.00     0.124 S 
ATOM     69  O   UNL A   1      50.148  26.467  30.733  1.00  0.00    -0.237 OA
ATOM     70  O   UNL A   1      51.448  26.070  32.801  1.00  0.00    -0.237 OA
ATOM     71  O   UNL A   1      50.840  24.181  31.340  1.00  0.00    -0.744 OA
ENDBRANCH  64  68
ENDBRANCH  38  61
ENDBRANCH  12  13
ENDBRANCH   5   7
ENDBRANCH   2   3
ENDBRANCH   1   2
BRANCH   1  72
ATOM     72  C   UNL A   1      31.727  28.544  26.102  1.00  0.00     0.117 C 
BRANCH  72  73
ATOM     73  N   UNL A   1      31.864  27.119  25.827  1.00  0.00    -0.356 N 
ATOM     74  C   UNL A   1      30.744  26.340  25.705  1.00  0.00     0.224 C 
ATOM     75  H   UNL A   1      32.758  26.717  25.729  1.00  0.00     0.163 HD
ATOM     76  O   UNL A   1      30.206  25.910  26.723  1.00  0.00    -0.275 OA
BRANCH  74  77
ATOM     77  C   UNL A   1      30.216  26.019  24.311  1.00  0.00     0.095 C 
ATOM     78  C   UNL A   1      28.887  26.699  23.934  1.00  0.00     0.041 C 
ATOM     79  C   UNL A   1      31.269  26.103  23.169  1.00  0.00     0.095 C 
ATOM     80  C   UNL A   1      29.023  27.976  23.166  1.00  0.00    -0.030 C 
ATOM     81  C   UNL A   1      31.293  27.388  22.316  1.00  0.00     0.041 C 
ATOM     82  C   UNL A   1      30.103  28.281  22.442  1.00  0.00    -0.030 C 
BRANCH  79  83
ATOM     83  C   UNL A   1      32.698  25.641  23.486  1.00  0.00     0.224 C 
ATOM     84  O   UNL A   1      33.619  26.464  23.474  1.00  0.00    -0.275 OA
ATOM     85  N   UNL A   1      33.008  24.367  23.861  1.00  0.00    -0.351 N 
ATOM     86  H   UNL A   1      33.915  24.256  24.225  1.00  0.00     0.163 HD
BRANCH  85  87
ATOM     87  C   UNL A   1      32.216  23.140  23.812  1.00  0.00     0.103 C 
ATOM     88  C   UNL A   1      31.757  22.680  25.200  1.00  0.00     0.048 C 
ATOM     89  C   UNL A   1      33.013  21.945  23.237  1.00  0.00     0.141 C 
ATOM     90  C   UNL A   1      32.702  21.551  25.592  1.00  0.00     0.119 C 
ATOM     91  N   UNL A   1      33.102  20.976  24.325  1.00  0.00    -0.369 N 
BRANCH  91  92
ATOM     92  C   UNL A   1      33.140  19.641  23.997  1.00  0.00     0.038 A 
ATOM     93  C   UNL A   1      32.372  19.105  22.956  1.00  0.00     0.026 A 
ATOM     94  C   UNL A   1      34.030  18.780  24.659  1.00  0.00     0.046 A 
ATOM     95  C   UNL A   1      32.507  17.766  22.568  1.00  0.00     0.004 A 
ATOM     96  C   UNL A   1      34.147  17.440  24.292  1.00  0.00     0.043 A 
ATOM     97  C   UNL A   1      33.396  16.930  23.238  1.00  0.00     0.020 A 
ATOM     98  Cl  UNL A   1      35.230  16.411  25.143  1.00  0.00    -0.084 Cl
ENDBRANCH  91  92
ENDBRANCH  85  87
ENDBRANCH  79  83
ENDBRANCH  74  77
ENDBRANCH  72  73
ENDBRANCH   1  72
TORSDOF 16
ENDMDL
MODEL 3
REMARK VINA RESULT:     -12.9      2.886      5.022
REMARK SMILES O=C(NCCCNC(=O)[C@H]1CC=CC[C@H]1C(=O)N[C@@H]1CCN(c2cccc(Cl)c2)C1)c1ccc(-c2c3nc(c(-c4cc(S(=O)(=O)[O-])ccc4F)c4ccc([nH]4)c(-c4cc(S(=O)(=O)[O-])ccc4F)c4nc(c(-c5cc(S(=O)(=O)[O-])ccc5F)c5ccc2[nH]5)C=C4)C=C3)cc1
REMARK SMILES IDX 5 1 4 2 3 3 1 4 2 5 31 7 32 8 93 9 33 10 92 11 34 12 35 13
REMARK SMILES IDX 36 14 86 15 37 16 91 17 85 18 87 19 38 20 90 21 84 22 83 23
REMARK SMILES IDX 39 25 71 26 51 27 70 28 52 29 55 30 69 31 88 32 53 33 54 34
REMARK SMILES IDX 68 36 89 37 56 38 40 39 41 40 49 41 42 42 48 43 50 44 47 45
REMARK SMILES IDX 43 46 44 47 45 48 46 49 72 50 73 51 81 52 74 53 80 54 82 55
REMARK SMILES IDX 79 56 75 57 76 58 77 59 78 60 57 61 58 62 66 63 59 64 65 65
REMARK SMILES IDX 67 66 64 67 60 68 61 69 62 70 63 71 6 72 7 73 8 74 9 76
REMARK SMILES IDX 10 77 11 78 15 79 12 80 14 81 13 82 16 83 17 84 18 85 19 87
REMARK SMILES IDX 20 88 30 89 21 90 22 91 23 92 24 93 29 94 25 95 27 96 26 97
REMARK SMILES IDX 28 98
REMARK H PARENT 3 6 87 24 55 35 7 75 18 86
REMARK Flexibility Score: inf
ROOT
ATOM      1  C   UNL A   1      32.699  28.443  27.280  1.00  0.00     0.042 C 
ENDROOT
BRANCH   1   2
ATOM      2  C   UNL A   1      33.694  29.292  26.493  1.00  0.00     0.118 C 
BRANCH   2   3
ATOM      3  N   UNL A   1      33.627  30.704  26.844  1.00  0.00    -0.352 N 
ATOM      4  O   UNL A   1      34.043  32.577  28.015  1.00  0.00    -0.269 OA
ATOM      5  C   UNL A   1      34.408  31.440  27.700  1.00  0.00     0.251 C 
ATOM      6  H   UNL A   1      32.909  31.210  26.399  1.00  0.00     0.163 HD
BRANCH   5   7
ATOM      7  C   UNL A   1      35.660  30.887  28.257  1.00  0.00     0.039 A 
ATOM      8  C   UNL A   1      36.903  31.385  27.862  1.00  0.00     0.014 A 
ATOM      9  C   UNL A   1      35.594  29.886  29.233  1.00  0.00     0.014 A 
ATOM     10  C   UNL A   1      38.074  30.799  28.334  1.00  0.00     0.010 A 
ATOM     11  C   UNL A   1      36.771  29.352  29.769  1.00  0.00     0.010 A 
ATOM     12  C   UNL A   1      38.023  29.785  29.302  1.00  0.00    -0.014 A 
BRANCH  12  13
ATOM     13  C   UNL A   1      39.290  29.234  29.851  1.00  0.00     0.031 A 
ATOM     14  C   UNL A   1      39.931  29.834  31.072  1.00  0.00     0.074 A 
ATOM     15  C   UNL A   1      39.853  28.171  29.243  1.00  0.00     0.049 A 
ATOM     16  N   UNL A   1      41.036  29.485  31.681  1.00  0.00    -0.248 NA
ATOM     17  C   UNL A   1      39.249  30.986  31.678  1.00  0.00     0.031 C 
ATOM     18  C   UNL A   1      39.327  27.512  28.045  1.00  0.00     0.029 A 
ATOM     19  N   UNL A   1      40.982  27.453  29.547  1.00  0.00    -0.354 N 
ATOM     20  C   UNL A   1      41.191  30.378  32.736  1.00  0.00     0.074 A 
ATOM     21  C   UNL A   1      40.085  31.311  32.655  1.00  0.00     0.031 C 
ATOM     22  C   UNL A   1      40.114  26.473  27.732  1.00  0.00     0.029 A 
ATOM     23  C   UNL A   1      41.234  26.427  28.666  1.00  0.00     0.049 A 
ATOM     24  H   UNL A   1      41.557  27.653  30.321  1.00  0.00     0.167 HD
ATOM     25  C   UNL A   1      42.161  30.410  33.685  1.00  0.00     0.034 A 
ATOM     26  C   UNL A   1      42.263  25.562  28.597  1.00  0.00     0.034 A 
ATOM     27  C   UNL A   1      43.256  29.469  33.747  1.00  0.00     0.049 A 
ATOM     28  C   UNL A   1      43.345  25.638  29.638  1.00  0.00     0.074 A 
ATOM     29  C   UNL A   1      44.266  29.380  34.690  1.00  0.00     0.029 A 
ATOM     30  N   UNL A   1      43.495  28.462  32.820  1.00  0.00    -0.354 N 
ATOM     31  N   UNL A   1      43.459  26.469  30.648  1.00  0.00    -0.248 NA
ATOM     32  C   UNL A   1      44.432  24.657  29.535  1.00  0.00     0.031 C 
ATOM     33  C   UNL A   1      45.151  28.369  34.297  1.00  0.00     0.029 A 
ATOM     34  C   UNL A   1      44.655  27.773  33.148  1.00  0.00     0.049 A 
ATOM     35  H   UNL A   1      42.925  28.264  32.042  1.00  0.00     0.167 HD
ATOM     36  C   UNL A   1      44.627  26.102  31.309  1.00  0.00     0.074 A 
ATOM     37  C   UNL A   1      45.167  24.962  30.595  1.00  0.00     0.031 C 
ATOM     38  C   UNL A   1      45.199  26.656  32.410  1.00  0.00     0.034 A 
BRANCH  25  39
ATOM     39  C   UNL A   1      42.104  31.530  34.701  1.00  0.00     0.023 A 
ATOM     40  C   UNL A   1      41.146  31.553  35.729  1.00  0.00     0.031 A 
ATOM     41  C   UNL A   1      43.004  32.607  34.618  1.00  0.00     0.131 A 
ATOM     42  C   UNL A   1      41.061  32.664  36.585  1.00  0.00     0.055 A 
ATOM     43  C   UNL A   1      42.966  33.671  35.521  1.00  0.00     0.041 A 
ATOM     44  F   UNL A   1      43.929  32.653  33.647  1.00  0.00    -0.206 F 
ATOM     45  C   UNL A   1      41.979  33.713  36.502  1.00  0.00     0.022 A 
BRANCH  42  46
ATOM     46  S   UNL A   1      39.639  32.791  37.705  1.00  0.00     0.124 S 
ATOM     47  O   UNL A   1      38.848  31.626  37.315  1.00  0.00    -0.237 OA
ATOM     48  O   UNL A   1      40.266  32.726  39.019  1.00  0.00    -0.237 OA
ATOM     49  O   UNL A   1      39.044  34.081  37.359  1.00  0.00    -0.744 OA
ENDBRANCH  42  46
ENDBRANCH  25  39
BRANCH  26  50
ATOM     50  C   UNL A   1      42.336  24.584  27.474  1.00  0.00     0.023 A 
ATOM     51  C   UNL A   1      41.591  23.396  27.489  1.00  0.00     0.031 A 
ATOM     52  C   UNL A   1      43.166  24.832  26.366  1.00  0.00     0.131 A 
ATOM     53  C   UNL A   1      41.713  22.485  26.427  1.00  0.00     0.055 A 
ATOM     54  C   UNL A   1      43.246  23.947  25.291  1.00  0.00     0.041 A 
ATOM     55  F   UNL A   1      43.896  25.957  26.303  1.00  0.00    -0.206 F 
ATOM     56  C   UNL A   1      42.523  22.759  25.322  1.00  0.00     0.022 A 
BRANCH  53  57
ATOM     57  S   UNL A   1      40.843  20.896  26.539  1.00  0.00     0.124 S 
ATOM     58  O   UNL A   1      41.697  20.031  25.734  1.00  0.00    -0.237 OA
ATOM     59  O   UNL A   1      40.850  20.647  27.977  1.00  0.00    -0.237 OA
ATOM     60  O   UNL A   1      39.531  21.187  25.966  1.00  0.00    -0.744 OA
ENDBRANCH  53  57
ENDBRANCH  26  50
BRANCH  38  61
ATOM     61  C   UNL A   1      46.463  26.007  32.915  1.00  0.00     0.023 A 
ATOM     62  C   UNL A   1      46.429  24.932  33.821  1.00  0.00     0.031 A 
ATOM     63  C   UNL A   1      47.718  26.486  32.503  1.00  0.00     0.131 A 
ATOM     64  C   UNL A   1      47.628  24.406  34.327  1.00  0.00     0.055 A 
ATOM     65  C   UNL A   1      48.909  25.922  32.965  1.00  0.00     0.041 A 
ATOM     66  F   UNL A   1      47.809  27.514  31.642  1.00  0.00    -0.206 F 
ATOM     67  C   UNL A   1      48.868  24.885  33.892  1.00  0.00     0.022 A 
BRANCH  64  68
ATOM     68  S   UNL A   1      47.548  23.145  35.627  1.00  0.00     0.124 S 
ATOM     69  O   UNL A   1      46.126  23.136  35.955  1.00  0.00    -0.237 OA
ATOM     70  O   UNL A   1      48.054  21.959  34.944  1.00  0.00    -0.237 OA
ATOM     71  O   UNL A   1      48.421  23.675  36.673  1.00  0.00    -0.744 OA
ENDBRANCH  64  68
ENDBRANCH  38  61
ENDBRANCH  12  13
ENDBRANCH   5   7
ENDBRANCH   2   3
ENDBRANCH   1   2
BRANCH   1  72
ATOM     72  C   UNL A   1      32.443  27.051  26.700  1.00  0.00     0.117 C 
BRANCH  72  73
ATOM     73  N   UNL A   1      33.619  26.425  26.108  1.00  0.00    -0.356 N 
ATOM     74  C   UNL A   1      33.531  25.152  25.608  1.00  0.00     0.224 C 
ATOM     75  H   UNL A   1      34.473  26.914  26.067  1.00  0.00     0.163 HD
ATOM     76  O   UNL A   1      33.635  24.203  26.380  1.00  0.00    -0.275 OA
BRANCH  74  77
ATOM     77  C   UNL A   1      33.329  24.962  24.109  1.00  0.00     0.095 C 
ATOM     78  C   UNL A   1      34.495  24.284  23.365  1.00  0.00     0.041 C 
ATOM     79  C   UNL A   1      31.946  24.381  23.695  1.00  0.00     0.095 C 
ATOM     80  C   UNL A   1      34.355  22.806  23.179  1.00  0.00    -0.030 C 
ATOM     81  C   UNL A   1      31.870  22.872  23.388  1.00  0.00     0.041 C 
ATOM     82  C   UNL A   1      33.177  22.177  23.189  1.00  0.00    -0.030 C 
BRANCH  79  83
ATOM     83  C   UNL A   1      30.719  24.828  24.503  1.00  0.00     0.224 C 
ATOM     84  O   UNL A   1      30.301  24.111  25.417  1.00  0.00    -0.275 OA
ATOM     85  N   UNL A   1      30.096  26.027  24.318  1.00  0.00    -0.351 N 
ATOM     86  H   UNL A   1      29.458  26.272  25.026  1.00  0.00     0.163 HD
BRANCH  85  87
ATOM     87  C   UNL A   1      30.219  27.009  23.242  1.00  0.00     0.103 C 
ATOM     88  C   UNL A   1      31.506  27.836  23.344  1.00  0.00     0.048 C 
ATOM     89  C   UNL A   1      29.073  28.048  23.257  1.00  0.00     0.141 C 
ATOM     90  C   UNL A   1      31.088  29.173  23.944  1.00  0.00     0.119 C 
ATOM     91  N   UNL A   1      29.715  29.333  23.514  1.00  0.00    -0.369 N 
BRANCH  91  92
ATOM     92  C   UNL A   1      29.146  30.459  22.966  1.00  0.00     0.038 A 
ATOM     93  C   UNL A   1      29.042  31.664  23.673  1.00  0.00     0.026 A 
ATOM     94  C   UNL A   1      28.720  30.451  21.628  1.00  0.00     0.046 A 
ATOM     95  C   UNL A   1      28.559  32.826  23.061  1.00  0.00     0.004 A 
ATOM     96  C   UNL A   1      28.215  31.602  21.024  1.00  0.00     0.043 A 
ATOM     97  C   UNL A   1      28.144  32.796  21.732  1.00  0.00     0.020 A 
ATOM     98  Cl  UNL A   1      27.681  31.547  19.390  1.00  0.00    -0.084 Cl
ENDBRANCH  91  92
ENDBRANCH  85  87
ENDBRANCH  79  83
ENDBRANCH  74  77
ENDBRANCH  72  73
ENDBRANCH   1  72
TORSDOF 16
ENDMDL
